# generated using pymatgen
data_Sr7Ca15Pr50Mn72O216
_symmetry_space_group_name_H-M   'P 1'
_cell_length_a   16.55922169
_cell_length_b   16.60541526
_cell_length_c   15.59282676
_cell_angle_alpha   90.00495982
_cell_angle_beta   90.00177402
_cell_angle_gamma   90.00067331
_symmetry_Int_Tables_number   1
_chemical_formula_structural   Sr7Ca15Pr50Mn72O216
_chemical_formula_sum   'Sr7 Ca15 Pr50 Mn72 O216'
_cell_volume   4287.60247703
_cell_formula_units_Z   1
loop_
 _symmetry_equiv_pos_site_id
 _symmetry_equiv_pos_as_xyz
  1  'x, y, z'
loop_
 _atom_type_symbol
 _atom_type_oxidation_number
  Sr2+  2.0
  Ca2+  2.0
  Pr3+  3.0
  Mn3.30+  3.3
  O2-  -2.0
loop_
 _atom_site_type_symbol
 _atom_site_label
 _atom_site_symmetry_multiplicity
 _atom_site_fract_x
 _atom_site_fract_y
 _atom_site_fract_z
 _atom_site_occupancy
  Sr2+  Sr0  1  0.16300634  0.15667451  0.87603895  1
  Sr2+  Sr1  1  1.00327580  0.32495329  0.87539239  1
  Sr2+  Sr2  1  0.16867773  0.17615182  0.12385806  1
  Sr2+  Sr3  1  0.16752796  0.50862861  0.12447111  1
  Sr2+  Sr4  1  0.16918309  0.84383102  0.62596606  1
  Sr2+  Sr5  1  0.16557763  0.49060683  0.87494440  1
  Sr2+  Sr6  1  0.66697888  0.32219116  0.87380710  1
  Ca2+  Ca7  1  0.49828207  0.82078200  0.87553885  1
  Ca2+  Ca8  1  0.66641569  0.98687917  0.87459672  1
  Ca2+  Ca9  1  0.33465671  0.65371658  0.37488708  1
  Ca2+  Ca10  1  1.00523901  0.98597333  0.37474985  1
  Ca2+  Ca11  1  1.00454192  0.98941229  0.87541236  1
  Ca2+  Ca12  1  0.33180319  0.31980361  0.37328148  1
  Ca2+  Ca13  1  0.16698960  0.48837343  0.37446639  1
  Ca2+  Ca14  1  0.66190459  0.01384987  0.62870690  1
  Ca2+  Ca15  1  0.66106512  0.68239398  0.12543893  1
  Ca2+  Ca16  1  0.49450071  0.81552491  0.37416391  1
  Ca2+  Ca17  1  0.49337519  0.14792185  0.87452968  1
  Ca2+  Ca18  1  0.17117349  0.51516421  0.62509197  1
  Ca2+  Ca19  1  0.83741736  0.51534800  0.62646038  1
  Ca2+  Ca20  1  0.33742252  0.98557663  0.87688968  1
  Ca2+  Ca21  1  0.32894292  0.01540367  0.12151825  1
  Pr3+  Pr22  1  1.00622259  0.65199283  0.37582501  1
  Pr3+  Pr23  1  0.49520542  0.15404433  0.37486721  1
  Pr3+  Pr24  1  1.00380000  0.65642636  0.87446185  1
  Pr3+  Pr25  1  0.83436666  0.84602110  0.12500287  1
  Pr3+  Pr26  1  0.49317417  0.48500310  0.37556335  1
  Pr3+  Pr27  1  0.66916938  0.31874422  0.37619191  1
  Pr3+  Pr28  1  0.00223975  0.34511555  0.12241925  1
  Pr3+  Pr29  1  0.50138908  0.51435598  0.62422615  1
  Pr3+  Pr30  1  0.32941353  0.68063829  0.62421997  1
  Pr3+  Pr31  1  0.66250457  0.34534617  0.12410880  1
  Pr3+  Pr32  1  0.32980596  0.01065045  0.62763396  1
  Pr3+  Pr33  1  -0.00122546  0.34937721  0.62763932  1
  Pr3+  Pr34  1  0.83346467  0.17774875  0.62651547  1
  Pr3+  Pr35  1  0.66678219  0.98624408  0.37515862  1
  Pr3+  Pr36  1  0.83686510  0.18016393  0.12400282  1
  Pr3+  Pr37  1  0.50244614  0.17707812  0.62672225  1
  Pr3+  Pr38  1  -0.00112024  0.01407991  0.12394094  1
  Pr3+  Pr39  1  0.83545504  0.84681474  0.62508090  1
  Pr3+  Pr40  1  0.32733825  0.34465982  0.12648966  1
  Pr3+  Pr41  1  0.83107802  0.15218879  0.37535898  1
  Pr3+  Pr42  1  0.16653587  0.82746575  0.87377346  1
  Pr3+  Pr43  1  0.66769338  0.65547577  0.37313702  1
  Pr3+  Pr44  1  0.00062168  0.67817099  0.12463497  1
  Pr3+  Pr45  1  0.16891315  0.17892086  0.62650626  1
  Pr3+  Pr46  1  0.66407976  0.01259900  0.12230450  1
  Pr3+  Pr47  1  0.83097874  0.82418023  0.87530344  1
  Pr3+  Pr48  1  0.33810823  0.98537194  0.37354788  1
  Pr3+  Pr49  1  0.00000516  0.67843991  0.62527835  1
  Pr3+  Pr50  1  0.16480019  0.15275151  0.37460359  1
  Pr3+  Pr51  1  0.16511969  0.82143206  0.37642697  1
  Pr3+  Pr52  1  0.32960031  0.67878723  0.12544283  1
  Pr3+  Pr53  1  0.66521858  0.67944340  0.62401030  1
  Pr3+  Pr54  1  0.83099558  0.48705184  0.37737954  1
  Pr3+  Pr55  1  0.33580248  0.31848391  0.87549498  1
  Pr3+  Pr56  1  0.50496276  0.84787246  0.62609045  1
  Pr3+  Pr57  1  0.49583684  0.48723140  0.87428395  1
  Pr3+  Pr58  1  0.83669784  0.51241279  0.12375903  1
  Pr3+  Pr59  1  0.83054290  0.48670744  0.87242951  1
  Pr3+  Pr60  1  0.66808982  0.65734229  0.87592739  1
  Pr3+  Pr61  1  0.82884237  0.15232767  0.87485950  1
  Pr3+  Pr62  1  0.66328448  0.34730611  0.62587966  1
  Pr3+  Pr63  1  1.00501412  0.32299494  0.37544924  1
  Pr3+  Pr64  1  0.17319034  0.84925569  0.12446963  1
  Pr3+  Pr65  1  0.50315171  0.84540848  0.12409048  1
  Pr3+  Pr66  1  0.33594167  0.65524455  0.87449687  1
  Pr3+  Pr67  1  0.32742647  0.34755987  0.62331161  1
  Pr3+  Pr68  1  -0.00087178  0.01167895  0.62628116  1
  Pr3+  Pr69  1  0.49857369  0.17739890  0.12304861  1
  Pr3+  Pr70  1  0.83327758  0.82188923  0.37459828  1
  Pr3+  Pr71  1  0.50342131  0.51472482  0.12555373  1
  Mn3.30+  Mn72  1  0.16926047  0.00166713  -0.00220674  1
  Mn3.30+  Mn73  1  0.16658478  -0.00088719  0.50012443  1
  Mn3.30+  Mn74  1  0.16732303  0.33302803  -0.00054861  1
  Mn3.30+  Mn75  1  0.16740442  0.33623447  0.49926870  1
  Mn3.30+  Mn76  1  0.16749109  0.66823035  0.00049575  1
  Mn3.30+  Mn77  1  0.16935149  0.66446483  0.49865989  1
  Mn3.30+  Mn78  1  0.49779025  -0.00102736  -0.00247865  1
  Mn3.30+  Mn79  1  0.50084892  -0.00174281  0.50011943  1
  Mn3.30+  Mn80  1  0.49906569  0.33087731  -0.00109092  1
  Mn3.30+  Mn81  1  0.49707003  0.33222878  0.50007652  1
  Mn3.30+  Mn82  1  0.50106672  0.66803883  0.00040054  1
  Mn3.30+  Mn83  1  0.49747587  0.66775813  0.49796832  1
  Mn3.30+  Mn84  1  0.83274919  -0.00003649  -0.00227605  1
  Mn3.30+  Mn85  1  0.83255710  -0.00006460  0.50044463  1
  Mn3.30+  Mn86  1  0.83178236  0.33289126  -0.00166280  1
  Mn3.30+  Mn87  1  0.83455976  0.33411328  0.50214771  1
  Mn3.30+  Mn88  1  0.83185706  0.66808688  0.00158704  1
  Mn3.30+  Mn89  1  0.83415186  0.66637722  0.49902027  1
  Mn3.30+  Mn90  1  0.00052382  0.16634418  0.25113793  1
  Mn3.30+  Mn91  1  0.00015305  0.16674606  0.75164420  1
  Mn3.30+  Mn92  1  0.00124110  0.49978389  0.25076113  1
  Mn3.30+  Mn93  1  0.00135413  0.50211033  0.74807097  1
  Mn3.30+  Mn94  1  0.00200906  0.83423869  0.24985125  1
  Mn3.30+  Mn95  1  -0.00008806  0.83651042  0.75056700  1
  Mn3.30+  Mn96  1  0.33205918  0.16592317  0.24997033  1
  Mn3.30+  Mn97  1  0.33462068  0.16362733  0.75247483  1
  Mn3.30+  Mn98  1  0.33198485  0.50000133  0.25260789  1
  Mn3.30+  Mn99  1  0.33182811  0.49951924  0.74878452  1
  Mn3.30+  Mn100  1  0.33585556  0.83273526  0.25022996  1
  Mn3.30+  Mn101  1  0.33645387  0.83496395  0.75176190  1
  Mn3.30+  Mn102  1  0.66575391  0.16582224  0.24871116  1
  Mn3.30+  Mn103  1  0.66394237  0.16349932  0.75294035  1
  Mn3.30+  Mn104  1  0.66614163  0.50091316  0.25021684  1
  Mn3.30+  Mn105  1  0.66747672  0.50134703  0.74846476  1
  Mn3.30+  Mn106  1  0.66437565  0.83218043  0.25045916  1
  Mn3.30+  Mn107  1  0.66558945  0.83641431  0.75132898  1
  Mn3.30+  Mn108  1  0.16871029  0.00013491  0.25016087  1
  Mn3.30+  Mn109  1  0.16689690  0.00068501  0.75243245  1
  Mn3.30+  Mn110  1  0.16861721  0.33402892  0.25247831  1
  Mn3.30+  Mn111  1  0.16600987  0.33497661  0.74996798  1
  Mn3.30+  Mn112  1  0.16937868  0.66514121  0.25139654  1
  Mn3.30+  Mn113  1  0.16762666  0.66752356  0.74961719  1
  Mn3.30+  Mn114  1  0.49815443  -0.00149905  0.24758406  1
  Mn3.30+  Mn115  1  0.50030485  -0.00134103  0.75401428  1
  Mn3.30+  Mn116  1  0.49722591  0.33239862  0.25037018  1
  Mn3.30+  Mn117  1  0.49896844  0.33106651  0.75018135  1
  Mn3.30+  Mn118  1  0.49856647  0.66721116  0.25111638  1
  Mn3.30+  Mn119  1  0.50023192  0.66863025  0.75011001  1
  Mn3.30+  Mn120  1  0.83457985  -0.00030203  0.25126173  1
  Mn3.30+  Mn121  1  0.83089942  0.00007420  0.75078596  1
  Mn3.30+  Mn122  1  0.83345940  0.33368102  0.25044952  1
  Mn3.30+  Mn123  1  0.83253489  0.33317713  0.74940285  1
  Mn3.30+  Mn124  1  0.83274926  0.66687177  0.24890086  1
  Mn3.30+  Mn125  1  0.83358634  0.66730512  0.74976864  1
  Mn3.30+  Mn126  1  0.00059561  0.16711205  -0.00185231  1
  Mn3.30+  Mn127  1  0.00008635  0.16623248  0.49987371  1
  Mn3.30+  Mn128  1  0.00078415  0.50098514  -0.00047393  1
  Mn3.30+  Mn129  1  0.00234368  0.50099599  0.50182481  1
  Mn3.30+  Mn130  1  0.00125779  0.83604410  0.00007368  1
  Mn3.30+  Mn131  1  0.00057837  0.83469922  0.49980222  1
  Mn3.30+  Mn132  1  0.33327382  0.16288470  -0.00189731  1
  Mn3.30+  Mn133  1  0.33325224  0.16669945  0.49991026  1
  Mn3.30+  Mn134  1  0.33347760  0.49914437  0.00042764  1
  Mn3.30+  Mn135  1  0.33050177  0.50026508  0.49755655  1
  Mn3.30+  Mn136  1  0.33658641  0.83563705  -0.00060816  1
  Mn3.30+  Mn137  1  0.33557239  0.83233138  0.49898792  1
  Mn3.30+  Mn138  1  0.66371035  0.16516260  -0.00382907  1
  Mn3.30+  Mn139  1  0.66585130  0.16408292  0.50167242  1
  Mn3.30+  Mn140  1  0.66659729  0.50155260  0.00042895  1
  Mn3.30+  Mn141  1  0.66663649  0.50096227  0.50031234  1
  Mn3.30+  Mn142  1  0.66516701  0.83410511  -0.00096708  1
  Mn3.30+  Mn143  1  0.66494071  0.83439514  0.49873448  1
  O2-  O144  1  0.01714641  0.16171709  0.12553678  1
  O2-  O145  1  0.02434815  0.15829050  0.62283505  1
  O2-  O146  1  0.01657815  0.49671264  0.12610033  1
  O2-  O147  1  0.02880457  0.49960383  0.62340858  1
  O2-  O148  1  0.02774208  0.82627680  0.12626476  1
  O2-  O149  1  0.01925367  0.82784175  0.62582159  1
  O2-  O150  1  0.35527376  0.16174952  0.12418577  1
  O2-  O151  1  0.35781883  0.15906029  0.62634656  1
  O2-  O152  1  0.35960274  0.49343309  0.12606770  1
  O2-  O153  1  0.35947866  0.49453744  0.62322829  1
  O2-  O154  1  0.36037469  0.82412409  0.12556414  1
  O2-  O155  1  0.36074688  0.82882798  0.62524495  1
  O2-  O156  1  0.69265374  0.16057790  0.12427251  1
  O2-  O157  1  0.69003137  0.15780484  0.62680085  1
  O2-  O158  1  0.69275990  0.49197829  0.12658587  1
  O2-  O159  1  0.69314914  0.49698876  0.62227047  1
  O2-  O160  1  0.69064826  0.82833444  0.12545539  1
  O2-  O161  1  0.69223161  0.82589372  0.62358231  1
  O2-  O162  1  0.14709438  0.33121056  0.12811617  1
  O2-  O163  1  0.14298742  0.32584723  0.62340249  1
  O2-  O164  1  0.14460685  0.66605952  0.12600956  1
  O2-  O165  1  0.14414138  0.66211338  0.62411223  1
  O2-  O166  1  0.14285384  0.99631420  0.12552981  1
  O2-  O167  1  0.14381565  1.00024438  0.62460500  1
  O2-  O168  1  0.47265840  0.32725889  0.12495144  1
  O2-  O169  1  0.47271487  0.32669819  0.62490706  1
  O2-  O170  1  0.47367824  0.66191706  0.12653234  1
  O2-  O171  1  0.47459878  0.66266041  0.62281917  1
  O2-  O172  1  0.47112418  0.99220221  0.12431059  1
  O2-  O173  1  0.47363804  0.99424254  0.62624895  1
  O2-  O174  1  0.80609204  0.32857285  0.12472713  1
  O2-  O175  1  0.80631551  0.32550817  0.62480253  1
  O2-  O176  1  0.80359689  0.65962491  0.12566447  1
  O2-  O177  1  0.80891516  0.66202848  0.62284015  1
  O2-  O178  1  0.80839708  0.99561751  0.12411936  1
  O2-  O179  1  0.80382005  0.99503368  0.62458690  1
  O2-  O180  1  0.31035400  0.17119282  0.37583607  1
  O2-  O181  1  0.31198327  0.17321235  0.87433843  1
  O2-  O182  1  0.30761750  0.51026645  0.37609457  1
  O2-  O183  1  0.31677484  0.50604561  0.87442837  1
  O2-  O184  1  0.30814323  0.84069720  0.37321651  1
  O2-  O185  1  0.31040058  0.83754841  0.87654526  1
  O2-  O186  1  0.64016564  0.17153760  0.37346730  1
  O2-  O187  1  0.63599075  0.17128394  0.87543485  1
  O2-  O188  1  0.63936917  0.50558588  0.37544467  1
  O2-  O189  1  0.64014848  0.50861621  0.87488880  1
  O2-  O190  1  0.63777858  0.83985043  0.37527750  1
  O2-  O191  1  0.64155798  0.83840750  0.87502664  1
  O2-  O192  1  0.97306430  0.17643029  0.37712763  1
  O2-  O193  1  0.97292693  0.17171116  0.87479930  1
  O2-  O194  1  0.97378373  0.50277037  0.37628225  1
  O2-  O195  1  0.97425845  0.50754639  0.87486258  1
  O2-  O196  1  0.97706791  0.83883328  0.37325372  1
  O2-  O197  1  0.97454191  0.84105955  0.87495801  1
  O2-  O198  1  0.19318205  0.00339817  0.37544521  1
  O2-  O199  1  0.19311622  -0.00265060  0.87546230  1
  O2-  O200  1  0.19018846  0.34191997  0.37713962  1
  O2-  O201  1  0.19026202  0.33595848  0.87176423  1
  O2-  O202  1  0.19344865  0.67550714  0.37434157  1
  O2-  O203  1  0.19110173  0.67584362  0.87563751  1
  O2-  O204  1  0.52479999  0.00833090  0.37294782  1
  O2-  O205  1  0.52742468  0.00628224  0.87593761  1
  O2-  O206  1  0.52595842  0.33634227  0.37573701  1
  O2-  O207  1  0.51860696  0.34162576  0.87373026  1
  O2-  O208  1  0.52510018  0.66978436  0.37492082  1
  O2-  O209  1  0.52435963  0.66969562  0.87554566  1
  O2-  O210  1  0.86167319  0.00471809  0.37626207  1
  O2-  O211  1  0.86130172  0.00339681  0.87540044  1
  O2-  O212  1  0.85972739  0.33915266  0.37795866  1
  O2-  O213  1  0.85285782  0.33867741  0.87241387  1
  O2-  O214  1  0.86129695  0.67308866  0.37347089  1
  O2-  O215  1  0.85949109  0.67552608  0.87731374  1
  O2-  O216  1  0.23997480  0.09285480  0.01640032  1
  O2-  O217  1  0.23812979  0.09518182  0.51854972  1
  O2-  O218  1  0.24548014  0.42485161  0.01758173  1
  O2-  O219  1  0.23718592  0.42938943  0.52387552  1
  O2-  O220  1  0.24047896  0.76308234  0.01961514  1
  O2-  O221  1  0.24183065  0.76012813  0.51779730  1
  O2-  O222  1  0.57164947  0.09186629  0.02461059  1
  O2-  O223  1  0.56889550  0.09547014  0.51736105  1
  O2-  O224  1  0.57151173  0.42689507  0.02057847  1
  O2-  O225  1  0.57005217  0.42670043  0.52101663  1
  O2-  O226  1  0.57240884  0.76127762  0.01947508  1
  O2-  O227  1  0.57364157  0.76100302  0.52146011  1
  O2-  O228  1  0.90239550  0.09440049  0.01951949  1
  O2-  O229  1  0.90326980  0.09489343  0.52132249  1
  O2-  O230  1  0.90607863  0.42836051  0.01793457  1
  O2-  O231  1  0.90519999  0.43154792  0.52388865  1
  O2-  O232  1  0.90479429  0.75994934  0.02345374  1
  O2-  O233  1  0.90440706  0.76129713  0.51798630  1
  O2-  O234  1  0.26358162  0.26200726  0.23551695  1
  O2-  O235  1  0.26203239  0.26170065  0.72972114  1
  O2-  O236  1  0.26397616  0.59578829  0.23069623  1
  O2-  O237  1  0.26490894  0.59489645  0.73296041  1
  O2-  O238  1  0.26620433  0.92902566  0.22829193  1
  O2-  O239  1  0.26452618  0.92664335  0.73283580  1
  O2-  O240  1  0.59524067  0.26034329  0.22909624  1
  O2-  O241  1  0.59385460  0.25954950  0.72528598  1
  O2-  O242  1  0.59546305  0.59655694  0.22917623  1
  O2-  O243  1  0.59494733  0.59562232  0.72825847  1
  O2-  O244  1  0.59441279  0.93002673  0.22782860  1
  O2-  O245  1  0.59592369  0.92806751  0.72660820  1
  O2-  O246  1  0.92719059  0.26335737  0.22939679  1
  O2-  O247  1  0.92588747  0.25914103  0.72591493  1
  O2-  O248  1  0.92704003  0.59605050  0.22979960  1
  O2-  O249  1  0.92938071  0.59722110  0.73139699  1
  O2-  O250  1  0.92785030  0.92596779  0.22674709  1
  O2-  O251  1  0.92502972  0.92750589  0.72644513  1
  O2-  O252  1  0.09407650  0.24040530  0.27383990  1
  O2-  O253  1  0.09347429  0.23856291  0.76084278  1
  O2-  O254  1  0.09423111  0.57344559  0.27286805  1
  O2-  O255  1  0.09055458  0.57878445  0.76992771  1
  O2-  O256  1  0.10075168  0.90473201  0.26724603  1
  O2-  O257  1  0.09306111  0.90748561  0.76904213  1
  O2-  O258  1  0.42954697  0.23545478  0.26648283  1
  O2-  O259  1  0.42805793  0.23437431  0.76993787  1
  O2-  O260  1  0.43208790  0.56779655  0.26693171  1
  O2-  O261  1  0.42970865  0.57083429  0.76678145  1
  O2-  O262  1  0.43099661  0.90217051  0.27257600  1
  O2-  O263  1  0.43496319  0.90065116  0.76858535  1
  O2-  O264  1  0.76282872  0.23938675  0.27139340  1
  O2-  O265  1  0.75993787  0.23357866  0.76677588  1
  O2-  O266  1  0.76339387  0.57192810  0.27295038  1
  O2-  O267  1  0.76079276  0.57605303  0.77263923  1
  O2-  O268  1  0.76209915  0.90654772  0.27072383  1
  O2-  O269  1  0.76394425  0.90329750  0.76849736  1
  O2-  O270  1  0.06982867  0.07313102  0.47721797  1
  O2-  O271  1  0.06778692  0.06965961  0.98405629  1
  O2-  O272  1  0.06769376  0.40272853  0.48441424  1
  O2-  O273  1  0.07326155  0.40905829  0.98890482  1
  O2-  O274  1  0.07452597  0.73725829  0.48058452  1
  O2-  O275  1  0.07150761  0.74302353  0.97907670  1
  O2-  O276  1  0.40568995  0.06897631  0.48025110  1
  O2-  O277  1  0.40490230  0.06860568  0.97968164  1
  O2-  O278  1  0.40066491  0.40415194  0.47772816  1
  O2-  O279  1  0.40659838  0.40410823  0.98054838  1
  O2-  O280  1  0.40338258  0.73501457  0.47984127  1
  O2-  O281  1  0.40386635  0.73604471  0.98194951  1
  O2-  O282  1  0.74001242  0.07210839  0.47512148  1
  O2-  O283  1  0.73567439  0.07092198  0.97762912  1
  O2-  O284  1  0.73791928  0.40483261  0.47877383  1
  O2-  O285  1  0.74051978  0.40917497  0.98184660  1
  O2-  O286  1  0.73745833  0.74071272  0.47721015  1
  O2-  O287  1  0.73980302  0.74171404  0.97773007  1
  O2-  O288  1  0.09543287  0.23903774  0.47938020  1
  O2-  O289  1  0.08973639  0.24125949  0.98707749  1
  O2-  O290  1  0.09585207  0.57162396  0.47483158  1
  O2-  O291  1  0.08820305  0.57930176  0.98188643  1
  O2-  O292  1  0.09482965  0.90638895  0.48062873  1
  O2-  O293  1  0.09927708  0.90574820  0.98406894  1
  O2-  O294  1  0.42974408  0.23551583  0.48283346  1
  O2-  O295  1  0.42912143  0.23499874  0.98060403  1
  O2-  O296  1  0.43003688  0.56735384  0.48314080  1
  O2-  O297  1  0.43065421  0.57046193  0.98254042  1
  O2-  O298  1  0.43229383  0.90223661  0.47847217  1
  O2-  O299  1  0.43342277  0.90054135  0.98028442  1
  O2-  O300  1  0.76061389  0.23726723  0.47984330  1
  O2-  O301  1  0.76014984  0.23482489  0.98220044  1
  O2-  O302  1  0.76092668  0.57558842  0.47541547  1
  O2-  O303  1  0.76280657  0.57416106  0.97721221  1
  O2-  O304  1  0.76138502  0.90470553  0.47677729  1
  O2-  O305  1  0.76342913  0.90453835  0.98322252  1
  O2-  O306  1  0.07083649  0.07118602  0.27163483  1
  O2-  O307  1  0.06688838  0.07095342  0.76717999  1
  O2-  O308  1  0.06963981  0.40332899  0.26563870  1
  O2-  O309  1  0.07107351  0.40716092  0.76255251  1
  O2-  O310  1  0.07276372  0.73825024  0.27099550  1
  O2-  O311  1  0.07201158  0.74342696  0.77012367  1
  O2-  O312  1  0.40648158  0.07256904  0.27083536  1
  O2-  O313  1  0.40291958  0.06520119  0.76916799  1
  O2-  O314  1  0.40344668  0.40465723  0.27347839  1
  O2-  O315  1  0.40368324  0.40467881  0.76759780  1
  O2-  O316  1  0.40240138  0.73424577  0.26987820  1
  O2-  O317  1  0.40561211  0.73740130  0.76867746  1
  O2-  O318  1  0.73748612  0.07201287  0.27118012  1
  O2-  O319  1  0.73779932  0.07098815  0.77582153  1
  O2-  O320  1  0.73828945  0.40431830  0.27265019  1
  O2-  O321  1  0.73949263  0.40871441  0.76604765  1
  O2-  O322  1  0.74145589  0.73986501  0.27378923  1
  O2-  O323  1  0.73817914  0.74047540  0.77001323  1
  O2-  O324  1  0.23796333  0.09514976  0.23801442  1
  O2-  O325  1  0.23949358  0.09440438  0.72886736  1
  O2-  O326  1  0.24202880  0.42647096  0.23225922  1
  O2-  O327  1  0.24006102  0.42833386  0.72628050  1
  O2-  O328  1  0.23912208  0.76326950  0.22967685  1
  O2-  O329  1  0.24348193  0.75925618  0.73326769  1
  O2-  O330  1  0.57015580  0.09285775  0.22669937  1
  O2-  O331  1  0.56907485  0.09363614  0.72992407  1
  O2-  O332  1  0.57062847  0.42659051  0.22945903  1
  O2-  O333  1  0.57217586  0.42823566  0.72819614  1
  O2-  O334  1  0.56957617  0.76007890  0.23108100  1
  O2-  O335  1  0.57511242  0.76061057  0.72823698  1
  O2-  O336  1  0.90287606  0.09491589  0.23134689  1
  O2-  O337  1  0.90230322  0.09393335  0.72910661  1
  O2-  O338  1  0.90226673  0.42817222  0.23107001  1
  O2-  O339  1  0.90679169  0.43119492  0.72804641  1
  O2-  O340  1  0.90436212  0.75955058  0.22721605  1
  O2-  O341  1  0.90489369  0.76170808  0.73065300  1
  O2-  O342  1  0.26557564  0.26175171  0.01470692  1
  O2-  O343  1  0.25936611  0.26137933  0.52077129  1
  O2-  O344  1  0.26470967  0.59592574  0.01500803  1
  O2-  O345  1  0.26301923  0.59485650  0.52164270  1
  O2-  O346  1  0.26418108  0.92638721  0.02295539  1
  O2-  O347  1  0.26715735  0.92887206  0.51609444  1
  O2-  O348  1  0.59237282  0.25964148  0.02420645  1
  O2-  O349  1  0.59611005  0.26073755  0.52093724  1
  O2-  O350  1  0.59611265  0.59578198  0.02279996  1
  O2-  O351  1  0.59364950  0.59600819  0.52006246  1
  O2-  O352  1  0.59446687  0.92715290  0.02282354  1
  O2-  O353  1  0.59741174  0.93073308  0.52179145  1
  O2-  O354  1  0.92407328  0.26049330  0.02236205  1
  O2-  O355  1  0.92900561  0.26137025  0.52313053  1
  O2-  O356  1  0.92501736  0.59578755  0.02141562  1
  O2-  O357  1  0.93316395  0.59667527  0.51723707  1
  O2-  O358  1  0.92854707  0.92571618  0.02430589  1
  O2-  O359  1  0.92379488  0.92817849  0.52306253  1
