# generated using pymatgen
data_Sr7Ca15Pr50Mn72O216
_symmetry_space_group_name_H-M   'P 1'
_cell_length_a   16.55984410
_cell_length_b   16.60587231
_cell_length_c   15.59151616
_cell_angle_alpha   90.00044581
_cell_angle_beta   89.99328711
_cell_angle_gamma   89.99282838
_symmetry_Int_Tables_number   1
_chemical_formula_structural   Sr7Ca15Pr50Mn72O216
_chemical_formula_sum   'Sr7 Ca15 Pr50 Mn72 O216'
_cell_volume   4287.52120278
_cell_formula_units_Z   1
loop_
 _symmetry_equiv_pos_site_id
 _symmetry_equiv_pos_as_xyz
  1  'x, y, z'
loop_
 _atom_type_symbol
 _atom_type_oxidation_number
  Sr2+  2.0
  Ca2+  2.0
  Pr3+  3.0
  Mn3.30+  3.3
  O2-  -2.0
loop_
 _atom_site_type_symbol
 _atom_site_label
 _atom_site_symmetry_multiplicity
 _atom_site_fract_x
 _atom_site_fract_y
 _atom_site_fract_z
 _atom_site_occupancy
  Sr2+  Sr0  1  0.83627486  0.84725059  0.62422916  1
  Sr2+  Sr1  1  0.33173592  0.67763939  0.12719945  1
  Sr2+  Sr2  1  0.16753399  0.15970628  0.37590490  1
  Sr2+  Sr3  1  0.49744362  0.84226589  0.12617120  1
  Sr2+  Sr4  1  0.16647827  0.82441108  0.37305480  1
  Sr2+  Sr5  1  0.66588495  0.32660684  0.37489816  1
  Sr2+  Sr6  1  0.33466564  0.65609182  0.37286583  1
  Ca2+  Ca7  1  0.83033612  0.48443714  0.37421769  1
  Ca2+  Ca8  1  0.16545982  0.48492625  0.87735703  1
  Ca2+  Ca9  1  0.50377855  0.84866486  0.62444030  1
  Ca2+  Ca10  1  0.49794648  0.17947351  0.12574638  1
  Ca2+  Ca11  1  1.00445879  0.31927942  0.37300278  1
  Ca2+  Ca12  1  0.50257985  0.18303411  0.62431925  1
  Ca2+  Ca13  1  0.33621222  0.31869920  0.87674285  1
  Ca2+  Ca14  1  -0.00376548  0.01379069  0.62287899  1
  Ca2+  Ca15  1  -0.00088169  0.34704591  0.12828586  1
  Ca2+  Ca16  1  0.49537412  0.48255756  0.37395640  1
  Ca2+  Ca17  1  0.33791944  0.31950236  0.37343985  1
  Ca2+  Ca18  1  0.33710750  0.98339812  0.87714833  1
  Ca2+  Ca19  1  0.17684950  0.84920838  0.12740420  1
  Ca2+  Ca20  1  0.32834943  0.01012509  0.12534482  1
  Ca2+  Ca21  1  0.67065574  0.65046045  0.37442581  1
  Pr3+  Pr22  1  0.83784476  0.18291274  0.12573166  1
  Pr3+  Pr23  1  0.00170816  0.01132992  0.12582681  1
  Pr3+  Pr24  1  1.00501093  0.65479407  0.37565000  1
  Pr3+  Pr25  1  0.66014163  0.01511568  0.62487796  1
  Pr3+  Pr26  1  0.49444426  0.48409501  0.87601459  1
  Pr3+  Pr27  1  -0.00342468  0.68010818  0.62401867  1
  Pr3+  Pr28  1  0.49512801  0.82055664  0.37584357  1
  Pr3+  Pr29  1  0.82938553  0.82036488  0.37557977  1
  Pr3+  Pr30  1  0.83487358  0.84639451  0.12520072  1
  Pr3+  Pr31  1  1.00568453  0.65072818  0.87419107  1
  Pr3+  Pr32  1  0.49406056  0.15885645  0.37434369  1
  Pr3+  Pr33  1  0.17095945  0.17794108  0.12589648  1
  Pr3+  Pr34  1  0.33311816  0.01245722  0.62662279  1
  Pr3+  Pr35  1  1.00215777  0.98794011  0.87342757  1
  Pr3+  Pr36  1  0.66300065  0.34614664  0.12764968  1
  Pr3+  Pr37  1  0.83032828  0.81982466  0.87413944  1
  Pr3+  Pr38  1  0.66689631  0.98704045  0.87567080  1
  Pr3+  Pr39  1  0.66285059  0.34614428  0.62233538  1
  Pr3+  Pr40  1  1.00537324  0.98954829  0.37659483  1
  Pr3+  Pr41  1  0.49494787  0.82108005  0.87446758  1
  Pr3+  Pr42  1  0.16717407  0.17877129  0.62447502  1
  Pr3+  Pr43  1  0.66675864  0.99034990  0.37443497  1
  Pr3+  Pr44  1  0.66782192  0.65560886  0.87574263  1
  Pr3+  Pr45  1  0.16678311  0.82182818  0.87568721  1
  Pr3+  Pr46  1  0.66897334  0.31991156  0.87524005  1
  Pr3+  Pr47  1  0.50356121  0.51078817  0.62130927  1
  Pr3+  Pr48  1  0.16540106  0.48631583  0.37340546  1
  Pr3+  Pr49  1  0.33321878  0.67937445  0.62276704  1
  Pr3+  Pr50  1  0.83108945  0.15725516  0.37426254  1
  Pr3+  Pr51  1  0.83520925  0.51135659  0.62118965  1
  Pr3+  Pr52  1  0.33335868  0.98793618  0.37422572  1
  Pr3+  Pr53  1  0.66254016  0.68366412  0.62248245  1
  Pr3+  Pr54  1  0.33253370  0.34349366  0.62325602  1
  Pr3+  Pr55  1  0.33585675  0.65355949  0.87645885  1
  Pr3+  Pr56  1  0.83647861  0.51061578  0.12863078  1
  Pr3+  Pr57  1  0.83564190  0.17665655  0.62410881  1
  Pr3+  Pr58  1  0.33173844  0.34349976  0.12644456  1
  Pr3+  Pr59  1  0.16940603  0.51085672  0.12507293  1
  Pr3+  Pr60  1  0.50171661  0.51166565  0.12925607  1
  Pr3+  Pr61  1  -0.00081097  0.34335172  0.62235990  1
  Pr3+  Pr62  1  0.17116486  0.51126101  0.62430301  1
  Pr3+  Pr63  1  0.83122380  0.48698346  0.87505815  1
  Pr3+  Pr64  1  0.65790060  0.01560207  0.12528872  1
  Pr3+  Pr65  1  -0.00026176  0.68043467  0.12588378  1
  Pr3+  Pr66  1  0.49211620  0.15242512  0.87548075  1
  Pr3+  Pr67  1  0.82937362  0.15353794  0.87559750  1
  Pr3+  Pr68  1  1.00531763  0.32172506  0.87650169  1
  Pr3+  Pr69  1  0.66187366  0.67994201  0.12766921  1
  Pr3+  Pr70  1  0.16748736  0.84650881  0.62290954  1
  Pr3+  Pr71  1  0.16942301  0.15387615  0.87463415  1
  Mn3.30+  Mn72  1  0.16974046  -0.00099313  -0.00163232  1
  Mn3.30+  Mn73  1  0.16517624  0.00160805  0.50213463  1
  Mn3.30+  Mn74  1  0.16792188  0.33308455  -0.00014862  1
  Mn3.30+  Mn75  1  0.16691099  0.33278336  0.49744510  1
  Mn3.30+  Mn76  1  0.16797436  0.66680966  0.00040437  1
  Mn3.30+  Mn77  1  0.16733398  0.66634987  0.49882936  1
  Mn3.30+  Mn78  1  0.49514373  0.00027929  0.00255865  1
  Mn3.30+  Mn79  1  0.49961054  0.00184531  0.50085084  1
  Mn3.30+  Mn80  1  0.49876017  0.33137418  0.00074443  1
  Mn3.30+  Mn81  1  0.49851799  0.33281813  0.49871009  1
  Mn3.30+  Mn82  1  0.49981449  0.66638862  0.00147341  1
  Mn3.30+  Mn83  1  0.50159881  0.66535602  0.49736942  1
  Mn3.30+  Mn84  1  0.83211647  0.00049681  0.00113268  1
  Mn3.30+  Mn85  1  0.83384273  0.00065588  0.49981207  1
  Mn3.30+  Mn86  1  0.83571086  0.33408420  0.00114579  1
  Mn3.30+  Mn87  1  0.83361219  0.33346748  0.49702075  1
  Mn3.30+  Mn88  1  0.83434736  0.66588221  0.00108113  1
  Mn3.30+  Mn89  1  0.83200757  0.66583391  0.49753627  1
  Mn3.30+  Mn90  1  0.00117733  0.16964380  0.24951547  1
  Mn3.30+  Mn91  1  -0.00009088  0.16571725  0.75094715  1
  Mn3.30+  Mn92  1  -0.00079910  0.49784511  0.25198298  1
  Mn3.30+  Mn93  1  0.00247100  0.49819008  0.74921595  1
  Mn3.30+  Mn94  1  0.00177288  0.83443477  0.24813958  1
  Mn3.30+  Mn95  1  -0.00115699  0.83445102  0.75013949  1
  Mn3.30+  Mn96  1  0.33360798  0.16522174  0.24856534  1
  Mn3.30+  Mn97  1  0.33503080  0.16660010  0.74955704  1
  Mn3.30+  Mn98  1  0.33459588  0.49855596  0.25210657  1
  Mn3.30+  Mn99  1  0.33346333  0.49762946  0.75121205  1
  Mn3.30+  Mn100  1  0.33249466  0.83355652  0.24917989  1
  Mn3.30+  Mn101  1  0.33465921  0.83395950  0.74834888  1
  Mn3.30+  Mn102  1  0.66431695  0.16906418  0.24958030  1
  Mn3.30+  Mn103  1  0.66357409  0.16718336  0.74991985  1
  Mn3.30+  Mn104  1  0.66810850  0.50054033  0.25417153  1
  Mn3.30+  Mn105  1  0.66625755  0.50092095  0.74976466  1
  Mn3.30+  Mn106  1  0.66523927  0.83305300  0.25175053  1
  Mn3.30+  Mn107  1  0.66498298  0.83511955  0.74814199  1
  Mn3.30+  Mn108  1  0.16730705  0.00055273  0.24974501  1
  Mn3.30+  Mn109  1  0.16684357  -0.00006018  0.74960350  1
  Mn3.30+  Mn110  1  0.16529752  0.33207063  0.25022234  1
  Mn3.30+  Mn111  1  0.16942057  0.33426650  0.75231024  1
  Mn3.30+  Mn112  1  0.16766453  0.66743241  0.25027113  1
  Mn3.30+  Mn113  1  0.16779539  0.66496703  0.74985584  1
  Mn3.30+  Mn114  1  0.49735363  0.00173810  0.24738967  1
  Mn3.30+  Mn115  1  0.49802177  0.00026828  0.75019607  1
  Mn3.30+  Mn116  1  0.49833694  0.33235058  0.25030311  1
  Mn3.30+  Mn117  1  0.49892774  0.33209016  0.75036434  1
  Mn3.30+  Mn118  1  0.50154088  0.66525347  0.25361918  1
  Mn3.30+  Mn119  1  0.50021247  0.66655860  0.74852345  1
  Mn3.30+  Mn120  1  0.83262014  0.00142587  0.24886396  1
  Mn3.30+  Mn121  1  0.83302792  0.00031417  0.74880573  1
  Mn3.30+  Mn122  1  0.83557097  0.33491800  0.25224676  1
  Mn3.30+  Mn123  1  0.83374424  0.33275942  0.74936973  1
  Mn3.30+  Mn124  1  0.83253964  0.66524911  0.25188003  1
  Mn3.30+  Mn125  1  0.83367277  0.66618484  0.74935430  1
  Mn3.30+  Mn126  1  0.00127194  0.16754744  0.00038735  1
  Mn3.30+  Mn127  1  -0.00006445  0.16715209  0.49946286  1
  Mn3.30+  Mn128  1  0.00186210  0.49814452  0.00097412  1
  Mn3.30+  Mn129  1  -0.00046923  0.49791853  0.49727842  1
  Mn3.30+  Mn130  1  0.00251276  0.83388907  0.00133933  1
  Mn3.30+  Mn131  1  -0.00125492  0.83502790  0.50007234  1
  Mn3.30+  Mn132  1  0.33432993  0.16420255  0.00073346  1
  Mn3.30+  Mn133  1  0.33417800  0.16725680  0.50101008  1
  Mn3.30+  Mn134  1  0.33189852  0.49800970  -0.00091153  1
  Mn3.30+  Mn135  1  0.33629503  0.49854682  0.49722447  1
  Mn3.30+  Mn136  1  0.33158897  0.83474248  0.00174706  1
  Mn3.30+  Mn137  1  0.33539914  0.83329732  0.50136560  1
  Mn3.30+  Mn138  1  0.66328515  0.16765249  0.00144535  1
  Mn3.30+  Mn139  1  0.66435960  0.16863231  0.49906172  1
  Mn3.30+  Mn140  1  0.66629655  0.50003346  0.00043110  1
  Mn3.30+  Mn141  1  0.66803481  0.50139144  0.49572936  1
  Mn3.30+  Mn142  1  0.66497339  0.83396025  0.00061367  1
  Mn3.30+  Mn143  1  0.66466230  0.83461029  0.49966227  1
  O2-  O144  1  0.02684310  0.15834814  0.12246603  1
  O2-  O145  1  0.02245123  0.16056451  0.62842454  1
  O2-  O146  1  0.02512515  0.49403929  0.12644515  1
  O2-  O147  1  0.02758878  0.49157594  0.62364445  1
  O2-  O148  1  0.03058563  0.82902591  0.12181990  1
  O2-  O149  1  0.02311639  0.82686606  0.62573318  1
  O2-  O150  1  0.35642849  0.15665398  0.12318865  1
  O2-  O151  1  0.36100215  0.16000431  0.62777537  1
  O2-  O152  1  0.35746880  0.49267737  0.12578302  1
  O2-  O153  1  0.35971003  0.49217711  0.62537489  1
  O2-  O154  1  0.34992705  0.83108099  0.12384109  1
  O2-  O155  1  0.36178601  0.82749315  0.62574335  1
  O2-  O156  1  0.69283280  0.16287761  0.12488358  1
  O2-  O157  1  0.69155513  0.16285631  0.62579825  1
  O2-  O158  1  0.69169803  0.49458194  0.12487199  1
  O2-  O159  1  0.69058900  0.49481641  0.62310225  1
  O2-  O160  1  0.69152781  0.82799386  0.12492768  1
  O2-  O161  1  0.68806124  0.83163582  0.62324738  1
  O2-  O162  1  0.14059088  0.32641408  0.12439978  1
  O2-  O163  1  0.14301850  0.32958661  0.62582375  1
  O2-  O164  1  0.14185367  0.65750142  0.12434503  1
  O2-  O165  1  0.14098262  0.65914445  0.62591340  1
  O2-  O166  1  0.14417643  0.99656250  0.12155612  1
  O2-  O167  1  0.13847698  0.99587586  0.62731816  1
  O2-  O168  1  0.47655888  0.33222876  0.12397803  1
  O2-  O169  1  0.47760443  0.33344367  0.62555405  1
  O2-  O170  1  0.48309964  0.65934920  0.12674381  1
  O2-  O171  1  0.47602746  0.65631644  0.62420475  1
  O2-  O172  1  0.47073303  0.99482273  0.12427758  1
  O2-  O173  1  0.47624828  0.99156499  0.62593266  1
  O2-  O174  1  0.80757420  0.33117488  0.12464634  1
  O2-  O175  1  0.80701500  0.32618552  0.62470404  1
  O2-  O176  1  0.80619215  0.66041237  0.12722561  1
  O2-  O177  1  0.80751331  0.65938418  0.62453458  1
  O2-  O178  1  0.80371156  0.99459125  0.12500644  1
  O2-  O179  1  0.80515343  1.00339068  0.62702932  1
  O2-  O180  1  0.31717970  0.17292396  0.37587809  1
  O2-  O181  1  0.31135465  0.17572691  0.87364390  1
  O2-  O182  1  0.30875166  0.50244502  0.37508856  1
  O2-  O183  1  0.30720526  0.50774046  0.87382098  1
  O2-  O184  1  0.31614537  0.83859616  0.37782348  1
  O2-  O185  1  0.30988077  0.83601437  0.87206778  1
  O2-  O186  1  0.63984729  0.16796373  0.37360091  1
  O2-  O187  1  0.63879484  0.17256802  0.87570372  1
  O2-  O188  1  0.63868647  0.50548770  0.37569524  1
  O2-  O189  1  0.63938818  0.50710510  0.87654897  1
  O2-  O190  1  0.63932426  0.84340751  0.37686833  1
  O2-  O191  1  0.64079945  0.83774743  0.87501116  1
  O2-  O192  1  0.97515700  0.17268426  0.37287055  1
  O2-  O193  1  0.97324616  0.17399340  0.87678204  1
  O2-  O194  1  0.97114189  0.51002141  0.37532699  1
  O2-  O195  1  0.97416502  0.50354065  0.87428633  1
  O2-  O196  1  0.97437563  0.84058558  0.37481357  1
  O2-  O197  1  0.97361030  0.83906426  0.87668923  1
  O2-  O198  1  0.18822292  0.00318864  0.37904781  1
  O2-  O199  1  0.19428977  0.00471842  0.87223766  1
  O2-  O200  1  0.19472229  0.33769159  0.37440708  1
  O2-  O201  1  0.19483664  0.33990383  0.87448966  1
  O2-  O202  1  0.18359021  0.66704278  0.37643811  1
  O2-  O203  1  0.19297142  0.67463459  0.87329844  1
  O2-  O204  1  0.52356265  0.01050422  0.37502673  1
  O2-  O205  1  0.52464009  0.00615578  0.87569010  1
  O2-  O206  1  0.51654922  0.33075344  0.37448667  1
  O2-  O207  1  0.52581709  0.33750670  0.87602879  1
  O2-  O208  1  0.52940357  0.67552718  0.37647422  1
  O2-  O209  1  0.52384892  0.67130012  0.87368670  1
  O2-  O210  1  0.85972420  0.00759450  0.37154941  1
  O2-  O211  1  0.85708233  0.00579055  0.87608316  1
  O2-  O212  1  0.86193281  0.33697631  0.37511915  1
  O2-  O213  1  0.86025209  0.33923938  0.87554424  1
  O2-  O214  1  0.86208468  0.67510420  0.37330011  1
  O2-  O215  1  0.86020551  0.67056707  0.87469716  1
  O2-  O216  1  0.23485575  0.09761141  0.01427742  1
  O2-  O217  1  0.24074261  0.09299103  0.52457566  1
  O2-  O218  1  0.23905798  0.42485793  0.02349473  1
  O2-  O219  1  0.23872316  0.42778799  0.52002131  1
  O2-  O220  1  0.23397990  0.76544104  0.01499127  1
  O2-  O221  1  0.24184102  0.75976301  0.52361138  1
  O2-  O222  1  0.56686441  0.09549342  0.02209986  1
  O2-  O223  1  0.56944156  0.09585313  0.52251465  1
  O2-  O224  1  0.57213026  0.42979354  0.02037050  1
  O2-  O225  1  0.57382758  0.42644394  0.51822984  1
  O2-  O226  1  0.57589999  0.75853774  0.01641187  1
  O2-  O227  1  0.57096128  0.76415549  0.52236931  1
  O2-  O228  1  0.90383567  0.09410678  0.02076913  1
  O2-  O229  1  0.90286368  0.09701369  0.51606356  1
  O2-  O230  1  0.90291048  0.43038752  0.01787003  1
  O2-  O231  1  0.90782429  0.42504045  0.52421289  1
  O2-  O232  1  0.90648884  0.76187006  0.02230431  1
  O2-  O233  1  0.90596353  0.75964808  0.51675299  1
  O2-  O234  1  0.26116288  0.25725479  0.22677948  1
  O2-  O235  1  0.26011866  0.25888147  0.72672015  1
  O2-  O236  1  0.25601323  0.58897867  0.23199979  1
  O2-  O237  1  0.26370347  0.59448647  0.72767795  1
  O2-  O238  1  0.26088856  0.93068269  0.23538311  1
  O2-  O239  1  0.25889109  0.92487259  0.72499443  1
  O2-  O240  1  0.59414938  0.26188404  0.22904245  1
  O2-  O241  1  0.59787820  0.26514317  0.73230945  1
  O2-  O242  1  0.59763880  0.59323858  0.22960913  1
  O2-  O243  1  0.59673836  0.59682295  0.72967281  1
  O2-  O244  1  0.59436511  0.93337784  0.23353454  1
  O2-  O245  1  0.59690697  0.93317140  0.73464839  1
  O2-  O246  1  0.92837086  0.26136110  0.22559364  1
  O2-  O247  1  0.92930809  0.26074280  0.72961865  1
  O2-  O248  1  0.92831829  0.59549811  0.22738576  1
  O2-  O249  1  0.93039335  0.59144787  0.72845022  1
  O2-  O250  1  0.92535521  0.92762693  0.22575529  1
  O2-  O251  1  0.92891244  0.93438407  0.73301346  1
  O2-  O252  1  0.09473035  0.23944534  0.26581041  1
  O2-  O253  1  0.09707145  0.24081882  0.77145314  1
  O2-  O254  1  0.09211915  0.57067564  0.26994012  1
  O2-  O255  1  0.09858975  0.57093315  0.77205449  1
  O2-  O256  1  0.08975134  0.91097934  0.26755930  1
  O2-  O257  1  0.09454080  0.90506474  0.77133714  1
  O2-  O258  1  0.42822215  0.23661236  0.26208170  1
  O2-  O259  1  0.42973248  0.23713037  0.76787618  1
  O2-  O260  1  0.43421521  0.56903886  0.26814549  1
  O2-  O261  1  0.42814520  0.56880158  0.77029130  1
  O2-  O262  1  0.42794093  0.90905568  0.27312658  1
  O2-  O263  1  0.42971737  0.90466130  0.76984775  1
  O2-  O264  1  0.76542308  0.23953776  0.26608865  1
  O2-  O265  1  0.76188102  0.23925431  0.77233096  1
  O2-  O266  1  0.76504125  0.56962421  0.27065887  1
  O2-  O267  1  0.76119381  0.57235776  0.77132132  1
  O2-  O268  1  0.75977418  0.90440239  0.27055865  1
  O2-  O269  1  0.76091988  0.90669167  0.77298069  1
  O2-  O270  1  0.06944777  0.07345428  0.48320184  1
  O2-  O271  1  0.07167534  0.07210605  0.97783404  1
  O2-  O272  1  0.07105690  0.40585431  0.47613054  1
  O2-  O273  1  0.07288284  0.40500790  0.97978325  1
  O2-  O274  1  0.06904071  0.73834904  0.48569533  1
  O2-  O275  1  0.07120500  0.73693551  0.97754057  1
  O2-  O276  1  0.40346758  0.07090975  0.48162837  1
  O2-  O277  1  0.40301803  0.07086061  0.97418223  1
  O2-  O278  1  0.40177522  0.40049936  0.48250716  1
  O2-  O279  1  0.40492959  0.40371633  0.97842551  1
  O2-  O280  1  0.40900724  0.73675357  0.48297856  1
  O2-  O281  1  0.40524537  0.74050190  0.97889294  1
  O2-  O282  1  0.73804691  0.07361681  0.47933557  1
  O2-  O283  1  0.73519942  0.07432255  0.97949566  1
  O2-  O284  1  0.74143250  0.40699087  0.48466584  1
  O2-  O285  1  0.73729904  0.40709850  0.97792405  1
  O2-  O286  1  0.73631226  0.73911382  0.47851891  1
  O2-  O287  1  0.74193521  0.73839851  0.97894609  1
  O2-  O288  1  0.09218258  0.24012139  0.48813381  1
  O2-  O289  1  0.09809159  0.23936701  0.97614242  1
  O2-  O290  1  0.09370032  0.56940833  0.48038536  1
  O2-  O291  1  0.09476702  0.57163118  0.97826668  1
  O2-  O292  1  0.09243266  0.90657116  0.48422661  1
  O2-  O293  1  0.09332956  0.90828136  0.97411146  1
  O2-  O294  1  0.42937636  0.23680234  0.48735043  1
  O2-  O295  1  0.42849968  0.23551940  0.98355424  1
  O2-  O296  1  0.43299971  0.56537644  0.48200625  1
  O2-  O297  1  0.42805060  0.57116369  0.98068720  1
  O2-  O298  1  0.42822350  0.90834020  0.47961956  1
  O2-  O299  1  0.42828303  0.90427760  0.97799325  1
  O2-  O300  1  0.76343432  0.23837005  0.48124901  1
  O2-  O301  1  0.76342967  0.24060359  0.98006225  1
  O2-  O302  1  0.76513143  0.56995198  0.47898148  1
  O2-  O303  1  0.76067968  0.57152543  0.97845762  1
  O2-  O304  1  0.76076662  0.90770952  0.47691472  1
  O2-  O305  1  0.76122250  0.90500411  0.97926649  1
  O2-  O306  1  0.06919400  0.07171611  0.26506121  1
  O2-  O307  1  0.07333016  0.07490448  0.77487342  1
  O2-  O308  1  0.07210313  0.40694119  0.27447230  1
  O2-  O309  1  0.07115556  0.40346628  0.76871804  1
  O2-  O310  1  0.06822843  0.73544697  0.26552810  1
  O2-  O311  1  0.07372563  0.73655255  0.77031651  1
  O2-  O312  1  0.40479261  0.07297119  0.27339950  1
  O2-  O313  1  0.40244177  0.06840484  0.77161161  1
  O2-  O314  1  0.40309119  0.40117008  0.26680810  1
  O2-  O315  1  0.40402089  0.40321068  0.77302317  1
  O2-  O316  1  0.41269990  0.74163723  0.26804608  1
  O2-  O317  1  0.40443402  0.73591798  0.76951872  1
  O2-  O318  1  0.73825984  0.07385532  0.26950375  1
  O2-  O319  1  0.73604303  0.07272696  0.77239856  1
  O2-  O320  1  0.74001974  0.40713369  0.26559723  1
  O2-  O321  1  0.73847014  0.40656502  0.77080574  1
  O2-  O322  1  0.74074393  0.73708173  0.27259107  1
  O2-  O323  1  0.73735508  0.74010066  0.77030609  1
  O2-  O324  1  0.23830389  0.09411190  0.23215867  1
  O2-  O325  1  0.23845966  0.09498394  0.72850327  1
  O2-  O326  1  0.23634375  0.42458083  0.22865206  1
  O2-  O327  1  0.24095662  0.42629323  0.72570969  1
  O2-  O328  1  0.23648178  0.76011353  0.23351389  1
  O2-  O329  1  0.23799546  0.75989044  0.72735189  1
  O2-  O330  1  0.56850053  0.09506324  0.22663563  1
  O2-  O331  1  0.56813417  0.09614214  0.72893584  1
  O2-  O332  1  0.57319897  0.42626836  0.23083573  1
  O2-  O333  1  0.57179894  0.42995564  0.73164357  1
  O2-  O334  1  0.57637403  0.75989459  0.23254910  1
  O2-  O335  1  0.57116560  0.76367805  0.72838233  1
  O2-  O336  1  0.90618775  0.09648464  0.22751965  1
  O2-  O337  1  0.89971918  0.09695528  0.73579745  1
  O2-  O338  1  0.90568258  0.42850893  0.23000282  1
  O2-  O339  1  0.90411822  0.42621673  0.72799197  1
  O2-  O340  1  0.90546815  0.76232317  0.22753830  1
  O2-  O341  1  0.90679031  0.75912373  0.73276067  1
  O2-  O342  1  0.26150503  0.25857824  0.02227268  1
  O2-  O343  1  0.26032099  0.25738869  0.52353272  1
  O2-  O344  1  0.25944218  0.59324824  0.01739411  1
  O2-  O345  1  0.26245234  0.59138199  0.52238479  1
  O2-  O346  1  0.26208473  0.92988415  0.01692442  1
  O2-  O347  1  0.26013866  0.92770559  0.52281056  1
  O2-  O348  1  0.59807001  0.26449680  0.01813785  1
  O2-  O349  1  0.59448967  0.26214933  0.52040487  1
  O2-  O350  1  0.59719560  0.59403792  0.02007656  1
  O2-  O351  1  0.59648652  0.59555800  0.52235047  1
  O2-  O352  1  0.59490219  0.93251811  0.01686097  1
  O2-  O353  1  0.59640179  0.93326346  0.51635906  1
  O2-  O354  1  0.93153750  0.26202339  0.02293645  1
  O2-  O355  1  0.92592283  0.25853531  0.52270717  1
  O2-  O356  1  0.92820074  0.59471445  0.02103784  1
  O2-  O357  1  0.92977333  0.59259457  0.52291691  1
  O2-  O358  1  0.92856943  0.92705252  0.02191475  1
  O2-  O359  1  0.92932759  0.93191677  0.51732729  1
