# generated using pymatgen
data_Sr7Ca15Pr50Mn72O216
_symmetry_space_group_name_H-M   'P 1'
_cell_length_a   16.55708329
_cell_length_b   16.60087477
_cell_length_c   15.58953336
_cell_angle_alpha   90.00105854
_cell_angle_beta   90.00110133
_cell_angle_gamma   90.00208073
_symmetry_Int_Tables_number   1
_chemical_formula_structural   Sr7Ca15Pr50Mn72O216
_chemical_formula_sum   'Sr7 Ca15 Pr50 Mn72 O216'
_cell_volume   4284.97134625
_cell_formula_units_Z   1
loop_
 _symmetry_equiv_pos_site_id
 _symmetry_equiv_pos_as_xyz
  1  'x, y, z'
loop_
 _atom_type_symbol
 _atom_type_oxidation_number
  Sr2+  2.0
  Ca2+  2.0
  Pr3+  3.0
  Mn3.30+  3.3
  O2-  -2.0
loop_
 _atom_site_type_symbol
 _atom_site_label
 _atom_site_symmetry_multiplicity
 _atom_site_fract_x
 _atom_site_fract_y
 _atom_site_fract_z
 _atom_site_occupancy
  Sr2+  Sr0  1  0.17039765  0.50779473  0.62669946  1
  Sr2+  Sr1  1  0.83621864  0.84495040  0.62541694  1
  Sr2+  Sr2  1  0.33427879  0.32298462  0.87115067  1
  Sr2+  Sr3  1  1.00077642  0.98742761  0.37675276  1
  Sr2+  Sr4  1  0.16473695  0.16075492  0.87147656  1
  Sr2+  Sr5  1  -0.00315437  0.00962578  0.62367009  1
  Sr2+  Sr6  1  0.83581905  0.84280851  0.12496593  1
  Ca2+  Ca7  1  -0.00461941  0.68374065  0.12369531  1
  Ca2+  Ca8  1  0.33696386  0.65068993  0.87501868  1
  Ca2+  Ca9  1  1.00578386  0.31757053  0.87269425  1
  Ca2+  Ca10  1  0.66374131  0.34642919  0.62667555  1
  Ca2+  Ca11  1  0.66950372  0.98653609  0.87306926  1
  Ca2+  Ca12  1  0.82893847  0.14656870  0.37700219  1
  Ca2+  Ca13  1  0.67140579  0.98530771  0.37680628  1
  Ca2+  Ca14  1  0.32832517  0.01635954  0.62540271  1
  Ca2+  Ca15  1  1.00443691  0.65390874  0.87612584  1
  Ca2+  Ca16  1  0.50313793  0.51539964  0.12220377  1
  Ca2+  Ca17  1  0.32725026  0.34668983  0.62797231  1
  Ca2+  Ca18  1  0.66835782  0.31901480  0.87186647  1
  Ca2+  Ca19  1  0.50282215  0.84943813  0.62610704  1
  Ca2+  Ca20  1  0.16948703  0.18039366  0.62649677  1
  Ca2+  Ca21  1  0.16203944  0.82008169  0.37691143  1
  Pr3+  Pr22  1  0.16427500  0.48547346  0.87370753  1
  Pr3+  Pr23  1  0.83250632  0.82499134  0.37818831  1
  Pr3+  Pr24  1  0.33369202  0.65657813  0.37446661  1
  Pr3+  Pr25  1  0.67224366  0.31784605  0.37748877  1
  Pr3+  Pr26  1  1.00454549  0.98917558  0.87325763  1
  Pr3+  Pr27  1  0.16427040  0.81971351  0.87361392  1
  Pr3+  Pr28  1  0.32843270  0.67751332  0.62760105  1
  Pr3+  Pr29  1  0.33387513  0.99218441  0.87197992  1
  Pr3+  Pr30  1  0.00087327  0.34063290  0.62875027  1
  Pr3+  Pr31  1  0.33166414  0.01214707  0.12507327  1
  Pr3+  Pr32  1  0.67168620  0.65547204  0.37585138  1
  Pr3+  Pr33  1  0.50351640  0.17957418  0.12511980  1
  Pr3+  Pr34  1  0.16262461  0.15390938  0.37773251  1
  Pr3+  Pr35  1  0.33302231  0.67990403  0.12225250  1
  Pr3+  Pr36  1  0.83176196  0.48247650  0.87462609  1
  Pr3+  Pr37  1  -0.00521326  0.01070050  0.12609905  1
  Pr3+  Pr38  1  0.66478271  0.01235485  0.12503036  1
  Pr3+  Pr39  1  0.49928129  0.82163542  0.37672451  1
  Pr3+  Pr40  1  0.50231495  0.18257311  0.62458049  1
  Pr3+  Pr41  1  0.33448766  0.98555715  0.37757437  1
  Pr3+  Pr42  1  0.66454055  0.01046286  0.62490492  1
  Pr3+  Pr43  1  0.83909120  0.51599961  0.12375963  1
  Pr3+  Pr44  1  0.16683681  0.51482782  0.12357270  1
  Pr3+  Pr45  1  1.00053867  0.32031570  0.37658369  1
  Pr3+  Pr46  1  0.49596913  0.15596714  0.87324982  1
  Pr3+  Pr47  1  0.66434439  0.68052275  0.12294556  1
  Pr3+  Pr48  1  0.82987146  0.48826189  0.37537403  1
  Pr3+  Pr49  1  0.00095931  0.67800969  0.62749405  1
  Pr3+  Pr50  1  0.83577672  0.17554453  0.62346374  1
  Pr3+  Pr51  1  0.33108103  0.34682093  0.12325686  1
  Pr3+  Pr52  1  0.16667953  0.17757682  0.12504995  1
  Pr3+  Pr53  1  0.49628192  0.48596391  0.87643734  1
  Pr3+  Pr54  1  0.66179845  0.68261068  0.62665882  1
  Pr3+  Pr55  1  0.66199185  0.34829155  0.12290770  1
  Pr3+  Pr56  1  0.50481913  0.84652735  0.12419057  1
  Pr3+  Pr57  1  0.83063841  0.15390506  0.87385538  1
  Pr3+  Pr58  1  0.67051077  0.65388429  0.87409021  1
  Pr3+  Pr59  1  0.49579091  0.81965891  0.87338808  1
  Pr3+  Pr60  1  0.33596680  0.32036382  0.37813968  1
  Pr3+  Pr61  1  0.83645865  0.50918688  0.62609247  1
  Pr3+  Pr62  1  0.49735578  0.15146201  0.37693114  1
  Pr3+  Pr63  1  0.83479175  0.17757793  0.12690499  1
  Pr3+  Pr64  1  -0.00462484  0.34577825  0.12205402  1
  Pr3+  Pr65  1  0.49803516  0.48853720  0.37313172  1
  Pr3+  Pr66  1  0.16662920  0.84529585  0.12603799  1
  Pr3+  Pr67  1  0.49981545  0.50910870  0.62680455  1
  Pr3+  Pr68  1  1.00249646  0.66041277  0.37421201  1
  Pr3+  Pr69  1  0.17143923  0.84786644  0.62376634  1
  Pr3+  Pr70  1  0.16334550  0.48818754  0.37629138  1
  Pr3+  Pr71  1  0.83289787  0.82258300  0.87289502  1
  Mn3.30+  Mn72  1  0.16612604  0.00093037  -0.00062060  1
  Mn3.30+  Mn73  1  0.16721372  0.00096312  0.50188559  1
  Mn3.30+  Mn74  1  0.16391450  0.33279916  -0.00044566  1
  Mn3.30+  Mn75  1  0.16883752  0.33279840  0.50099259  1
  Mn3.30+  Mn76  1  0.16576292  0.66702850  -0.00083683  1
  Mn3.30+  Mn77  1  0.16764431  0.66733209  0.50012535  1
  Mn3.30+  Mn78  1  0.50173397  0.00043405  -0.00295084  1
  Mn3.30+  Mn79  1  0.49871962  -0.00087609  0.50251823  1
  Mn3.30+  Mn80  1  0.50043312  0.33379856  -0.00078138  1
  Mn3.30+  Mn81  1  0.50094936  0.33438592  0.50132458  1
  Mn3.30+  Mn82  1  0.49979820  0.66581777  -0.00117773  1
  Mn3.30+  Mn83  1  0.49950539  0.66736956  0.50123390  1
  Mn3.30+  Mn84  1  0.83200360  -0.00071414  -0.00098907  1
  Mn3.30+  Mn85  1  0.83181004  -0.00053813  0.49914452  1
  Mn3.30+  Mn86  1  0.83163644  0.33142394  -0.00261606  1
  Mn3.30+  Mn87  1  0.83205795  0.33117320  0.50151838  1
  Mn3.30+  Mn88  1  0.83735372  0.66682556  -0.00277592  1
  Mn3.30+  Mn89  1  0.83412685  0.66678419  0.50304275  1
  Mn3.30+  Mn90  1  -0.00231022  0.16575056  0.25274378  1
  Mn3.30+  Mn91  1  0.00085555  0.16648848  0.74820788  1
  Mn3.30+  Mn92  1  -0.00082126  0.50224113  0.24983694  1
  Mn3.30+  Mn93  1  0.00074949  0.49943965  0.75136173  1
  Mn3.30+  Mn94  1  0.00086128  0.83300369  0.25043069  1
  Mn3.30+  Mn95  1  0.00066775  0.83291409  0.75001656  1
  Mn3.30+  Mn96  1  0.33327204  0.16632555  0.25081941  1
  Mn3.30+  Mn97  1  0.33205763  0.16718581  0.74720448  1
  Mn3.30+  Mn98  1  0.33393172  0.50108074  0.24790441  1
  Mn3.30+  Mn99  1  0.33340167  0.49944475  0.75150786  1
  Mn3.30+  Mn100  1  0.33238429  0.83336254  0.25111782  1
  Mn3.30+  Mn101  1  0.33502153  0.83424391  0.74869451  1
  Mn3.30+  Mn102  1  0.66821168  0.16477091  0.25241057  1
  Mn3.30+  Mn103  1  0.66560638  0.16761112  0.74991534  1
  Mn3.30+  Mn104  1  0.66602969  0.50071708  0.24809597  1
  Mn3.30+  Mn105  1  0.66695042  0.49736028  0.75019191  1
  Mn3.30+  Mn106  1  0.66783407  0.83450422  0.25052404  1
  Mn3.30+  Mn107  1  0.66467201  0.83572005  0.75003161  1
  Mn3.30+  Mn108  1  0.16505918  -0.00164037  0.25197994  1
  Mn3.30+  Mn109  1  0.16840262  0.00291671  0.74717685  1
  Mn3.30+  Mn110  1  0.16558347  0.33386301  0.24988169  1
  Mn3.30+  Mn111  1  0.16730151  0.33165970  0.74959556  1
  Mn3.30+  Mn112  1  0.16550533  0.66868896  0.24756246  1
  Mn3.30+  Mn113  1  0.16786488  0.66529708  0.75334542  1
  Mn3.30+  Mn114  1  0.50152722  -0.00037139  0.25263177  1
  Mn3.30+  Mn115  1  0.49933612  0.00017183  0.74778313  1
  Mn3.30+  Mn116  1  0.50096721  0.33433946  0.25033107  1
  Mn3.30+  Mn117  1  0.50104858  0.33362063  0.74854961  1
  Mn3.30+  Mn118  1  0.50136729  0.66655936  0.24954762  1
  Mn3.30+  Mn119  1  0.49793301  0.66703197  0.75004279  1
  Mn3.30+  Mn120  1  0.83126492  -0.00130778  0.25195521  1
  Mn3.30+  Mn121  1  0.83252332  -0.00008591  0.75028255  1
  Mn3.30+  Mn122  1  0.83185989  0.33221251  0.25023287  1
  Mn3.30+  Mn123  1  0.83145379  0.33062840  0.75048055  1
  Mn3.30+  Mn124  1  0.83558464  0.66835810  0.24926532  1
  Mn3.30+  Mn125  1  0.83527571  0.66535685  0.75115138  1
  Mn3.30+  Mn126  1  -0.00085304  0.16721132  -0.00071993  1
  Mn3.30+  Mn127  1  -0.00066519  0.16498550  0.49993658  1
  Mn3.30+  Mn128  1  0.00011924  0.50166915  -0.00218387  1
  Mn3.30+  Mn129  1  0.00006803  0.49980334  0.50151511  1
  Mn3.30+  Mn130  1  -0.00008961  0.83169235  -0.00078570  1
  Mn3.30+  Mn131  1  0.00193225  0.83380406  0.50070318  1
  Mn3.30+  Mn132  1  0.33326400  0.16734826  -0.00110874  1
  Mn3.30+  Mn133  1  0.33146638  0.16645747  0.50289529  1
  Mn3.30+  Mn134  1  0.33441524  0.50111601  0.00126683  1
  Mn3.30+  Mn135  1  0.33282896  0.49953271  0.49930701  1
  Mn3.30+  Mn136  1  0.33335809  0.83380363  -0.00153224  1
  Mn3.30+  Mn137  1  0.33417477  0.83420020  0.50198889  1
  Mn3.30+  Mn138  1  0.66640608  0.16691766  -0.00266057  1
  Mn3.30+  Mn139  1  0.66747373  0.16529889  0.50030044  1
  Mn3.30+  Mn140  1  0.66683400  0.49911249  -0.00136048  1
  Mn3.30+  Mn141  1  0.66617393  0.49917610  0.50212324  1
  Mn3.30+  Mn142  1  0.66764815  0.83497396  -0.00284984  1
  Mn3.30+  Mn143  1  0.66452431  0.83529191  0.50220523  1
  O2-  O144  1  0.02172086  0.16021102  0.12786107  1
  O2-  O145  1  0.02342343  0.16784428  0.62246232  1
  O2-  O146  1  0.02365047  0.49118287  0.12257540  1
  O2-  O147  1  0.02096464  0.49057122  0.62525006  1
  O2-  O148  1  0.02320013  0.83011128  0.12320103  1
  O2-  O149  1  0.02635621  0.82638925  0.62669024  1
  O2-  O150  1  0.35939025  0.16058371  0.12652880  1
  O2-  O151  1  0.36031106  0.15903319  0.62303428  1
  O2-  O152  1  0.36062780  0.49473683  0.12576890  1
  O2-  O153  1  0.35541515  0.49637850  0.62292001  1
  O2-  O154  1  0.36079099  0.82955150  0.12409038  1
  O2-  O155  1  0.36244935  0.82202172  0.62631102  1
  O2-  O156  1  0.69090450  0.16028857  0.12675505  1
  O2-  O157  1  0.69236461  0.15746936  0.62552706  1
  O2-  O158  1  0.69520581  0.49487080  0.12210446  1
  O2-  O159  1  0.69273909  0.49301391  0.62732458  1
  O2-  O160  1  0.68541148  0.82849530  0.12180978  1
  O2-  O161  1  0.68680303  0.83037889  0.62686250  1
  O2-  O162  1  0.13924461  0.32836395  0.12661809  1
  O2-  O163  1  0.14482580  0.33147241  0.62278689  1
  O2-  O164  1  0.13689509  0.66190587  0.12324960  1
  O2-  O165  1  0.14567894  0.66420228  0.62861204  1
  O2-  O166  1  0.14029695  0.99403244  0.12721063  1
  O2-  O167  1  0.14551438  0.99278837  0.62443737  1
  O2-  O168  1  0.47460816  0.32491495  0.12769703  1
  O2-  O169  1  0.47154116  0.33203124  0.62255609  1
  O2-  O170  1  0.47742958  0.66373500  0.12531520  1
  O2-  O171  1  0.47211139  0.65658080  0.62624085  1
  O2-  O172  1  0.47590192  0.99477706  0.12490673  1
  O2-  O173  1  0.47076540  0.99368980  0.62409942  1
  O2-  O174  1  0.80553642  0.32639362  0.12448141  1
  O2-  O175  1  0.80481525  0.32544013  0.62471608  1
  O2-  O176  1  0.80767593  0.66289287  0.12139548  1
  O2-  O177  1  0.80608489  0.65830208  0.62761996  1
  O2-  O178  1  0.80863403  0.99887847  0.12480203  1
  O2-  O179  1  0.80961032  1.00283245  0.62594321  1
  O2-  O180  1  0.30772355  0.17256699  0.37553525  1
  O2-  O181  1  0.31601619  0.16489271  0.87475478  1
  O2-  O182  1  0.30758937  0.50781712  0.37133492  1
  O2-  O183  1  0.31001484  0.50519442  0.87974221  1
  O2-  O184  1  0.30534240  0.83747827  0.37472296  1
  O2-  O185  1  0.30760846  0.84437848  0.87453485  1
  O2-  O186  1  0.63905986  0.17396083  0.37595061  1
  O2-  O187  1  0.63852819  0.17647697  0.87197218  1
  O2-  O188  1  0.64261718  0.50740374  0.37483647  1
  O2-  O189  1  0.64028686  0.50732906  0.87473712  1
  O2-  O190  1  0.64220296  0.83587246  0.37796770  1
  O2-  O191  1  0.64051403  0.83735588  0.87344019  1
  O2-  O192  1  0.97228981  0.17419040  0.37406501  1
  O2-  O193  1  0.97577951  0.17106797  0.87559645  1
  O2-  O194  1  0.97271127  0.50958074  0.37687609  1
  O2-  O195  1  0.97398951  0.50956846  0.87568253  1
  O2-  O196  1  0.97784071  0.82725591  0.37646258  1
  O2-  O197  1  0.97741011  0.84162194  0.87453786  1
  O2-  O198  1  0.19227601  0.00731679  0.37649933  1
  O2-  O199  1  0.18987190  0.00326764  0.87241629  1
  O2-  O200  1  0.19139243  0.33848670  0.37332623  1
  O2-  O201  1  0.18477455  0.33544134  0.87739809  1
  O2-  O202  1  0.19079527  0.67341023  0.37165856  1
  O2-  O203  1  0.19640184  0.67320847  0.87679087  1
  O2-  O204  1  0.52734510  0.00448635  0.37743251  1
  O2-  O205  1  0.52710570  0.00901358  0.87385554  1
  O2-  O206  1  0.52819642  0.34044159  0.37418826  1
  O2-  O207  1  0.52604461  0.33822615  0.87446117  1
  O2-  O208  1  0.52777173  0.67232310  0.37488095  1
  O2-  O209  1  0.52678909  0.67177063  0.87343396  1
  O2-  O210  1  0.85091029  -0.00013277  0.37429848  1
  O2-  O211  1  0.85980959  0.00641739  0.87532518  1
  O2-  O212  1  0.85739944  0.34251502  0.37534109  1
  O2-  O213  1  0.86238863  0.33476086  0.87529890  1
  O2-  O214  1  0.85603130  0.67119253  0.37785858  1
  O2-  O215  1  0.86126656  0.67307610  0.87352591  1
  O2-  O216  1  0.24016076  0.09233678  0.02370245  1
  O2-  O217  1  0.23614842  0.09988332  0.51830696  1
  O2-  O218  1  0.23714708  0.42708885  0.02184161  1
  O2-  O219  1  0.24034326  0.42937297  0.51086574  1
  O2-  O220  1  0.23694183  0.76120800  0.02202439  1
  O2-  O221  1  0.24235400  0.76156052  0.52217999  1
  O2-  O222  1  0.57172150  0.09519484  0.02128740  1
  O2-  O223  1  0.56863396  0.09494313  0.52207192  1
  O2-  O224  1  0.56990369  0.42851070  0.02241670  1
  O2-  O225  1  0.57064491  0.43095146  0.51786915  1
  O2-  O226  1  0.57079279  0.76096148  0.01752950  1
  O2-  O227  1  0.57037798  0.76196741  0.52231913  1
  O2-  O228  1  0.90346595  0.09476936  0.02027187  1
  O2-  O229  1  0.90325035  0.09544528  0.51489343  1
  O2-  O230  1  0.90141603  0.42721759  0.01952182  1
  O2-  O231  1  0.90462718  0.42568430  0.52002093  1
  O2-  O232  1  0.90640645  0.76206560  0.01341850  1
  O2-  O233  1  0.90972907  0.75543321  0.52028482  1
  O2-  O234  1  0.26172099  0.26054280  0.22887315  1
  O2-  O235  1  0.26319226  0.25893036  0.72906896  1
  O2-  O236  1  0.25981526  0.59636276  0.22648869  1
  O2-  O237  1  0.26367042  0.59576295  0.73493523  1
  O2-  O238  1  0.26236937  0.92869177  0.22900382  1
  O2-  O239  1  0.26417274  0.92856248  0.72782656  1
  O2-  O240  1  0.59725494  0.26211007  0.23001258  1
  O2-  O241  1  0.59420245  0.26178752  0.72413031  1
  O2-  O242  1  0.59916855  0.59701533  0.23056586  1
  O2-  O243  1  0.59455993  0.59571643  0.72914554  1
  O2-  O244  1  0.59388873  0.92698255  0.22868980  1
  O2-  O245  1  0.59174282  0.93050548  0.72998691  1
  O2-  O246  1  0.92733605  0.26288881  0.22865085  1
  O2-  O247  1  0.92389312  0.25856050  0.72694239  1
  O2-  O248  1  0.92955331  0.59585016  0.22802981  1
  O2-  O249  1  0.92695017  0.59020319  0.72635419  1
  O2-  O250  1  0.92958748  0.92695044  0.23370533  1
  O2-  O251  1  0.92781380  0.92651248  0.73742575  1
  O2-  O252  1  0.09350279  0.23974850  0.27089870  1
  O2-  O253  1  0.08915592  0.24265097  0.76262937  1
  O2-  O254  1  0.09609283  0.57284900  0.27024578  1
  O2-  O255  1  0.09599210  0.57270299  0.77140746  1
  O2-  O256  1  0.09923390  0.90176390  0.26803933  1
  O2-  O257  1  0.09666473  0.90530794  0.76872674  1
  O2-  O258  1  0.42943694  0.23873807  0.27284114  1
  O2-  O259  1  0.43189045  0.23706296  0.76458648  1
  O2-  O260  1  0.42766865  0.57549135  0.27162029  1
  O2-  O261  1  0.43048589  0.57065192  0.76932718  1
  O2-  O262  1  0.42868388  0.90556843  0.27147385  1
  O2-  O263  1  0.42763132  0.90704706  0.77407337  1
  O2-  O264  1  0.76228799  0.23465147  0.27284220  1
  O2-  O265  1  0.76230394  0.23631291  0.76959609  1
  O2-  O266  1  0.76321268  0.57196635  0.26879000  1
  O2-  O267  1  0.76216310  0.57098977  0.77269408  1
  O2-  O268  1  0.76078645  0.90311280  0.27007168  1
  O2-  O269  1  0.76093431  0.90789471  0.77032212  1
  O2-  O270  1  0.07351178  0.07669751  0.47918715  1
  O2-  O271  1  0.06896065  0.07053071  0.98570906  1
  O2-  O272  1  0.07101721  0.40748010  0.47764029  1
  O2-  O273  1  0.06931175  0.40498123  0.97878432  1
  O2-  O274  1  0.07301928  0.73615831  0.48456443  1
  O2-  O275  1  0.07432032  0.73908967  0.97574269  1
  O2-  O276  1  0.40523947  0.07276288  0.47655420  1
  O2-  O277  1  0.40716260  0.07002259  0.98112250  1
  O2-  O278  1  0.40731346  0.40944237  0.47407011  1
  O2-  O279  1  0.40717101  0.40460091  0.98347680  1
  O2-  O280  1  0.40574008  0.73911684  0.47643963  1
  O2-  O281  1  0.40346831  0.73917367  0.97871660  1
  O2-  O282  1  0.73248427  0.07048797  0.48145610  1
  O2-  O283  1  0.73677108  0.07121463  0.97806075  1
  O2-  O284  1  0.74008426  0.40573876  0.47854627  1
  O2-  O285  1  0.73692784  0.40211530  0.97675281  1
  O2-  O286  1  0.73848515  0.74025130  0.48277487  1
  O2-  O287  1  0.74063333  0.73816585  0.97691206  1
  O2-  O288  1  0.09206249  0.24187699  0.47743004  1
  O2-  O289  1  0.09162397  0.23816928  0.98885212  1
  O2-  O290  1  0.09273777  0.57406620  0.47829575  1
  O2-  O291  1  0.09998149  0.57010540  0.98049547  1
  O2-  O292  1  0.09928605  0.90163800  0.48394665  1
  O2-  O293  1  0.09595651  0.90453646  0.98037051  1
  O2-  O294  1  0.42983005  0.23845360  0.47852033  1
  O2-  O295  1  0.43105736  0.23698270  0.98456406  1
  O2-  O296  1  0.42805880  0.57245846  0.47780303  1
  O2-  O297  1  0.43109925  0.57325128  0.98162000  1
  O2-  O298  1  0.42713851  0.90546800  0.47562459  1
  O2-  O299  1  0.43014734  0.90686678  0.97859441  1
  O2-  O300  1  0.76397936  0.23621575  0.47720189  1
  O2-  O301  1  0.76258644  0.23573462  0.98154978  1
  O2-  O302  1  0.76056824  0.57183540  0.48091565  1
  O2-  O303  1  0.76504585  0.57146086  0.97734802  1
  O2-  O304  1  0.75829813  0.90543878  0.48293747  1
  O2-  O305  1  0.76254844  0.90596450  0.97749779  1
  O2-  O306  1  0.07497334  0.07408173  0.26881225  1
  O2-  O307  1  0.07021397  0.07268879  0.76743801  1
  O2-  O308  1  0.06947143  0.40766611  0.27214045  1
  O2-  O309  1  0.07011502  0.40721246  0.77098350  1
  O2-  O310  1  0.07308202  0.73835535  0.26743586  1
  O2-  O311  1  0.07391839  0.73743299  0.77219355  1
  O2-  O312  1  0.40521268  0.07111898  0.27171476  1
  O2-  O313  1  0.40738978  0.07306173  0.76987435  1
  O2-  O314  1  0.40497639  0.40458796  0.27169630  1
  O2-  O315  1  0.41072097  0.40970630  0.76865744  1
  O2-  O316  1  0.40619453  0.74032778  0.27043494  1
  O2-  O317  1  0.40352149  0.73763653  0.77446480  1
  O2-  O318  1  0.73293030  0.06856783  0.26829022  1
  O2-  O319  1  0.73625012  0.07263794  0.77263519  1
  O2-  O320  1  0.73613339  0.40444609  0.26974978  1
  O2-  O321  1  0.74098894  0.40331019  0.77446952  1
  O2-  O322  1  0.73915309  0.73885704  0.26985407  1
  O2-  O323  1  0.74010798  0.73871220  0.76969994  1
  O2-  O324  1  0.23820660  0.09276865  0.22969205  1
  O2-  O325  1  0.23904700  0.09530038  0.72816681  1
  O2-  O326  1  0.23778161  0.42812908  0.22788470  1
  O2-  O327  1  0.24111740  0.42648028  0.73907475  1
  O2-  O328  1  0.24085833  0.75870060  0.22361223  1
  O2-  O329  1  0.23888723  0.76338508  0.73099186  1
  O2-  O330  1  0.57091703  0.09598089  0.23027585  1
  O2-  O331  1  0.57067696  0.09558022  0.72643122  1
  O2-  O332  1  0.57065230  0.43140943  0.22690297  1
  O2-  O333  1  0.57122183  0.42874605  0.73062172  1
  O2-  O334  1  0.57273695  0.76210501  0.23060403  1
  O2-  O335  1  0.56858117  0.76096818  0.72936813  1
  O2-  O336  1  0.90463173  0.09220667  0.23030577  1
  O2-  O337  1  0.90240778  0.09659258  0.73442621  1
  O2-  O338  1  0.90348354  0.42910257  0.22957822  1
  O2-  O339  1  0.90317227  0.42458735  0.73060463  1
  O2-  O340  1  0.90645844  0.75983771  0.23611959  1
  O2-  O341  1  0.90894630  0.75667427  0.73098063  1
  O2-  O342  1  0.25767249  0.25992154  0.02407730  1
  O2-  O343  1  0.26673936  0.26402469  0.51768567  1
  O2-  O344  1  0.25988403  0.59495635  0.02500598  1
  O2-  O345  1  0.26415120  0.59780052  0.51402726  1
  O2-  O346  1  0.26157330  0.92811015  0.02123629  1
  O2-  O347  1  0.26677532  0.92939036  0.52137408  1
  O2-  O348  1  0.59372080  0.26099738  0.02280071  1
  O2-  O349  1  0.59790245  0.26197391  0.52121053  1
  O2-  O350  1  0.59920656  0.59673900  0.01755186  1
  O2-  O351  1  0.59500365  0.59571494  0.52204593  1
  O2-  O352  1  0.59276610  0.92874938  0.02032139  1
  O2-  O353  1  0.59208706  0.92827583  0.52146537  1
  O2-  O354  1  0.92451326  0.25897385  0.02385522  1
  O2-  O355  1  0.92822015  0.26255617  0.52037809  1
  O2-  O356  1  0.92922893  0.59490554  0.02348556  1
  O2-  O357  1  0.92785365  0.59131075  0.52441285  1
  O2-  O358  1  0.93022264  0.93112703  0.01572346  1
  O2-  O359  1  0.92627397  0.92231900  0.51293942  1
