# generated using pymatgen
data_Sr7Ca15Pr50Mn72O216
_symmetry_space_group_name_H-M   'P 1'
_cell_length_a   16.55792415
_cell_length_b   16.60115967
_cell_length_c   15.58946160
_cell_angle_alpha   89.99913645
_cell_angle_beta   90.00148340
_cell_angle_gamma   89.99413376
_symmetry_Int_Tables_number   1
_chemical_formula_structural   Sr7Ca15Pr50Mn72O216
_chemical_formula_sum   'Sr7 Ca15 Pr50 Mn72 O216'
_cell_volume   4285.24275728
_cell_formula_units_Z   1
loop_
 _symmetry_equiv_pos_site_id
 _symmetry_equiv_pos_as_xyz
  1  'x, y, z'
loop_
 _atom_type_symbol
 _atom_type_oxidation_number
  Sr2+  2.0
  Ca2+  2.0
  Pr3+  3.0
  Mn3.30+  3.3
  O2-  -2.0
loop_
 _atom_site_type_symbol
 _atom_site_label
 _atom_site_symmetry_multiplicity
 _atom_site_fract_x
 _atom_site_fract_y
 _atom_site_fract_z
 _atom_site_occupancy
  Sr2+  Sr0  1  0.83130397  0.15668146  0.87625551  1
  Sr2+  Sr1  1  0.83136827  0.15550488  0.37380827  1
  Sr2+  Sr2  1  0.83859106  0.51226067  0.62618157  1
  Sr2+  Sr3  1  0.83489269  0.17620727  0.12526219  1
  Sr2+  Sr4  1  0.33407778  0.34309530  0.62512376  1
  Sr2+  Sr5  1  0.50101468  0.49270222  0.37543579  1
  Sr2+  Sr6  1  0.16596543  0.83747302  0.62439854  1
  Ca2+  Ca7  1  0.17340365  0.51784954  0.12197901  1
  Ca2+  Ca8  1  0.32829740  0.68224547  0.12597397  1
  Ca2+  Ca9  1  -0.00434111  0.35025217  0.62633943  1
  Ca2+  Ca10  1  0.50237428  0.84422943  0.62326952  1
  Ca2+  Ca11  1  0.66732781  0.65459242  0.37554479  1
  Ca2+  Ca12  1  0.17059447  0.84662220  0.12601301  1
  Ca2+  Ca13  1  0.33238310  0.67922201  0.62378714  1
  Ca2+  Ca14  1  0.49572977  0.81682077  0.37612050  1
  Ca2+  Ca15  1  -0.00214724  0.67851288  0.62730834  1
  Ca2+  Ca16  1  0.50241099  0.18316365  0.62446202  1
  Ca2+  Ca17  1  1.00171534  0.98369544  0.37421120  1
  Ca2+  Ca18  1  0.16322157  0.48580766  0.87481582  1
  Ca2+  Ca19  1  0.49591485  0.48522853  0.87381220  1
  Ca2+  Ca20  1  1.00751653  0.64956991  0.87213177  1
  Ca2+  Ca21  1  0.83709527  0.84783708  0.12627260  1
  Pr3+  Pr22  1  0.83684878  0.51156733  0.12380158  1
  Pr3+  Pr23  1  0.33144663  0.00944003  0.62421683  1
  Pr3+  Pr24  1  0.33832666  0.98207462  0.37584351  1
  Pr3+  Pr25  1  0.66429060  0.68009627  0.62377677  1
  Pr3+  Pr26  1  0.17087623  0.51349232  0.62738547  1
  Pr3+  Pr27  1  0.67109272  0.98735784  0.87525283  1
  Pr3+  Pr28  1  0.49632671  0.82084989  0.87440704  1
  Pr3+  Pr29  1  0.83070398  0.81868300  0.37288451  1
  Pr3+  Pr30  1  0.33643078  0.32280804  0.37689223  1
  Pr3+  Pr31  1  0.32804494  0.01138833  0.12533184  1
  Pr3+  Pr32  1  -0.00116829  0.68139771  0.12295201  1
  Pr3+  Pr33  1  0.66729142  0.01216781  0.12611943  1
  Pr3+  Pr34  1  0.83180829  0.82068575  0.87671617  1
  Pr3+  Pr35  1  0.49628054  0.15488454  0.37849662  1
  Pr3+  Pr36  1  0.16388809  0.81937485  0.37457731  1
  Pr3+  Pr37  1  0.33388428  0.32375404  0.87282708  1
  Pr3+  Pr38  1  0.83543902  0.48899159  0.87440693  1
  Pr3+  Pr39  1  -0.00215614  0.01020501  0.12733603  1
  Pr3+  Pr40  1  0.50168216  0.51377187  0.12423531  1
  Pr3+  Pr41  1  0.66281181  0.34646859  0.62529273  1
  Pr3+  Pr42  1  0.16541792  0.48920280  0.37466308  1
  Pr3+  Pr43  1  1.00045128  0.98818948  0.87594660  1
  Pr3+  Pr44  1  0.66516559  0.67963274  0.12648985  1
  Pr3+  Pr45  1  0.66545739  0.34364151  0.12479269  1
  Pr3+  Pr46  1  0.66850312  0.65380023  0.87539421  1
  Pr3+  Pr47  1  0.16224204  0.81744177  0.87563484  1
  Pr3+  Pr48  1  0.66164949  0.01408940  0.62419704  1
  Pr3+  Pr49  1  1.00299348  0.32093295  0.87269708  1
  Pr3+  Pr50  1  0.32724994  0.35028418  0.12470711  1
  Pr3+  Pr51  1  -0.00331360  0.00873605  0.62279907  1
  Pr3+  Pr52  1  0.66886231  0.32124144  0.87415699  1
  Pr3+  Pr53  1  0.33671173  0.65577515  0.37530127  1
  Pr3+  Pr54  1  0.33476178  0.98503559  0.87377737  1
  Pr3+  Pr55  1  0.50222543  0.17913896  0.12529848  1
  Pr3+  Pr56  1  0.50258860  0.51204160  0.62526052  1
  Pr3+  Pr57  1  -0.00217237  0.34672927  0.12433615  1
  Pr3+  Pr58  1  0.83709996  0.84152046  0.62396812  1
  Pr3+  Pr59  1  1.00358872  0.65517219  0.37727887  1
  Pr3+  Pr60  1  0.49595218  0.15394533  0.87169633  1
  Pr3+  Pr61  1  0.83023541  0.49097936  0.37553213  1
  Pr3+  Pr62  1  0.66962523  0.32204350  0.37588627  1
  Pr3+  Pr63  1  0.16282695  0.15453064  0.87287782  1
  Pr3+  Pr64  1  0.33577638  0.65171875  0.87406700  1
  Pr3+  Pr65  1  0.16083015  0.15153182  0.37695265  1
  Pr3+  Pr66  1  0.83737427  0.18184756  0.62427673  1
  Pr3+  Pr67  1  0.16802792  0.18105384  0.62466316  1
  Pr3+  Pr68  1  1.00110132  0.32229927  0.37745514  1
  Pr3+  Pr69  1  0.16914115  0.17940306  0.12528698  1
  Pr3+  Pr70  1  0.49987191  0.84443578  0.12670471  1
  Pr3+  Pr71  1  0.66909315  0.98632993  0.37481493  1
  Mn3.30+  Mn72  1  0.16639090  -0.00168710  0.00021437  1
  Mn3.30+  Mn73  1  0.16550539  -0.00302428  0.50022175  1
  Mn3.30+  Mn74  1  0.16627558  0.33621784  -0.00079438  1
  Mn3.30+  Mn75  1  0.16592875  0.33509203  0.50198301  1
  Mn3.30+  Mn76  1  0.16741068  0.66532795  0.00043966  1
  Mn3.30+  Mn77  1  0.16844685  0.66652730  0.50262083  1
  Mn3.30+  Mn78  1  0.49937960  -0.00049948  0.00000604  1
  Mn3.30+  Mn79  1  0.50017374  -0.00251529  0.50078964  1
  Mn3.30+  Mn80  1  0.49780962  0.33460193  -0.00051108  1
  Mn3.30+  Mn81  1  0.50012394  0.33466694  0.50017373  1
  Mn3.30+  Mn82  1  0.49778896  0.66563679  0.00055675  1
  Mn3.30+  Mn83  1  0.49992798  0.66850862  0.49992598  1
  Mn3.30+  Mn84  1  0.83433199  -0.00078848  0.00168157  1
  Mn3.30+  Mn85  1  0.83249725  -0.00129976  0.49758180  1
  Mn3.30+  Mn86  1  0.83401585  0.33351915  0.00008351  1
  Mn3.30+  Mn87  1  0.83481290  0.33490892  0.50110056  1
  Mn3.30+  Mn88  1  0.83624719  0.66759024  -0.00087949  1
  Mn3.30+  Mn89  1  0.83388217  0.66641995  0.50033561  1
  Mn3.30+  Mn90  1  -0.00035142  0.16527230  0.25199483  1
  Mn3.30+  Mn91  1  -0.00092070  0.16626162  0.74829037  1
  Mn3.30+  Mn92  1  0.00295040  0.50196988  0.24806788  1
  Mn3.30+  Mn93  1  0.00293602  0.50143906  0.75058116  1
  Mn3.30+  Mn94  1  0.00080921  0.83327429  0.24872197  1
  Mn3.30+  Mn95  1  -0.00012952  0.83011866  0.75071986  1
  Mn3.30+  Mn96  1  0.33240156  0.16669227  0.25139708  1
  Mn3.30+  Mn97  1  0.33312729  0.16667061  0.74728728  1
  Mn3.30+  Mn98  1  0.33269887  0.50304082  0.24841153  1
  Mn3.30+  Mn99  1  0.33403523  0.50049904  0.75055579  1
  Mn3.30+  Mn100  1  0.33244676  0.83139813  0.24927237  1
  Mn3.30+  Mn101  1  0.33307985  0.83029949  0.74723124  1
  Mn3.30+  Mn102  1  0.66576448  0.16666439  0.25058830  1
  Mn3.30+  Mn103  1  0.66545996  0.16693230  0.74905997  1
  Mn3.30+  Mn104  1  0.66720830  0.50152313  0.25024192  1
  Mn3.30+  Mn105  1  0.66651764  0.50140404  0.75145705  1
  Mn3.30+  Mn106  1  0.66569712  0.83157301  0.25087237  1
  Mn3.30+  Mn107  1  0.66531528  0.83279878  0.74917345  1
  Mn3.30+  Mn108  1  0.16570772  -0.00216570  0.25185229  1
  Mn3.30+  Mn109  1  0.16618975  -0.00254438  0.74781760  1
  Mn3.30+  Mn110  1  0.16644306  0.33511809  0.25020667  1
  Mn3.30+  Mn111  1  0.16582935  0.33586597  0.74828492  1
  Mn3.30+  Mn112  1  0.16851678  0.66697755  0.24672582  1
  Mn3.30+  Mn113  1  0.16710003  0.66496360  0.75017179  1
  Mn3.30+  Mn114  1  0.49934195  -0.00152643  0.25117899  1
  Mn3.30+  Mn115  1  0.50015118  -0.00121337  0.74772946  1
  Mn3.30+  Mn116  1  0.49837517  0.33497992  0.25021440  1
  Mn3.30+  Mn117  1  0.49956471  0.33458579  0.75010540  1
  Mn3.30+  Mn118  1  0.49905793  0.66739286  0.25046598  1
  Mn3.30+  Mn119  1  0.49884425  0.66664179  0.74907248  1
  Mn3.30+  Mn120  1  0.83519514  -0.00167230  0.25182771  1
  Mn3.30+  Mn121  1  0.83197899  -0.00057003  0.74906893  1
  Mn3.30+  Mn122  1  0.83406210  0.33382484  0.24923113  1
  Mn3.30+  Mn123  1  0.83460188  0.33463210  0.74969691  1
  Mn3.30+  Mn124  1  0.83347986  0.66732628  0.24829232  1
  Mn3.30+  Mn125  1  0.83708548  0.66617707  0.75184383  1
  Mn3.30+  Mn126  1  0.00002723  0.16605743  0.00021900  1
  Mn3.30+  Mn127  1  -0.00095596  0.16556883  0.49969145  1
  Mn3.30+  Mn128  1  0.00583154  0.50222142  0.00018070  1
  Mn3.30+  Mn129  1  0.00043618  0.50142758  0.50220445  1
  Mn3.30+  Mn130  1  0.00070820  0.83206029  0.00148762  1
  Mn3.30+  Mn131  1  -0.00015449  0.83216641  0.49960894  1
  Mn3.30+  Mn132  1  0.33271636  0.16720860  -0.00121160  1
  Mn3.30+  Mn133  1  0.33257160  0.16617953  0.50163377  1
  Mn3.30+  Mn134  1  0.33183381  0.50238018  -0.00134577  1
  Mn3.30+  Mn135  1  0.33446651  0.50113334  0.50176277  1
  Mn3.30+  Mn136  1  0.33004381  0.83097521  0.00083738  1
  Mn3.30+  Mn137  1  0.33581303  0.83064533  0.50207073  1
  Mn3.30+  Mn138  1  0.66580011  0.16651154  0.00027006  1
  Mn3.30+  Mn139  1  0.66566208  0.16695541  0.50046982  1
  Mn3.30+  Mn140  1  0.66569566  0.50017592  -0.00152294  1
  Mn3.30+  Mn141  1  0.66803442  0.50280137  0.50013009  1
  Mn3.30+  Mn142  1  0.66713191  0.83329538  0.00261823  1
  Mn3.30+  Mn143  1  0.66403259  0.83142658  0.49737571  1
  O2-  O144  1  0.02663907  0.16030264  0.12776015  1
  O2-  O145  1  0.02536199  0.15593526  0.62385777  1
  O2-  O146  1  0.03093207  0.49260662  0.12482006  1
  O2-  O147  1  0.02664570  0.49260743  0.62623920  1
  O2-  O148  1  0.02952881  0.82805119  0.12453993  1
  O2-  O149  1  0.01535844  0.82650589  0.62572477  1
  O2-  O150  1  0.35813470  0.15960578  0.12501760  1
  O2-  O151  1  0.35996065  0.15875394  0.62477777  1
  O2-  O152  1  0.35930527  0.49451000  0.12197044  1
  O2-  O153  1  0.35969123  0.49552090  0.62613453  1
  O2-  O154  1  0.35666274  0.83029878  0.12446105  1
  O2-  O155  1  0.36089286  0.82631820  0.62561492  1
  O2-  O156  1  0.68372191  0.16232823  0.12545182  1
  O2-  O157  1  0.69250573  0.16242253  0.62363095  1
  O2-  O158  1  0.69179095  0.49348067  0.12262462  1
  O2-  O159  1  0.68733456  0.49592479  0.62602864  1
  O2-  O160  1  0.69478555  0.82645857  0.12612692  1
  O2-  O161  1  0.69333405  0.82762001  0.62235213  1
  O2-  O162  1  0.14112579  0.32519302  0.12531300  1
  O2-  O163  1  0.13794312  0.32935111  0.62421736  1
  O2-  O164  1  0.14057992  0.65880350  0.12342059  1
  O2-  O165  1  0.13973717  0.66045956  0.62785601  1
  O2-  O166  1  0.14343504  0.99543610  0.12740478  1
  O2-  O167  1  0.14082593  0.99407787  0.62439217  1
  O2-  O168  1  0.47121018  0.32607708  0.12497094  1
  O2-  O169  1  0.48355111  0.33051195  0.62571852  1
  O2-  O170  1  0.47214066  0.66141136  0.12284453  1
  O2-  O171  1  0.47432642  0.65794624  0.62705517  1
  O2-  O172  1  0.47192099  0.99457165  0.12497768  1
  O2-  O173  1  0.47441400  0.98832805  0.62403398  1
  O2-  O174  1  0.81105840  0.33677726  0.12389848  1
  O2-  O175  1  0.80802332  0.33112924  0.62600816  1
  O2-  O176  1  0.80861537  0.65878120  0.12292544  1
  O2-  O177  1  0.80943103  0.67066125  0.62838869  1
  O2-  O178  1  0.81103145  0.99397943  0.12677011  1
  O2-  O179  1  0.80648518  0.99036094  0.62267848  1
  O2-  O180  1  0.30616629  0.17338300  0.37686289  1
  O2-  O181  1  0.30726934  0.17249167  0.87282797  1
  O2-  O182  1  0.30889713  0.50689064  0.37584919  1
  O2-  O183  1  0.30524371  0.50466705  0.87573636  1
  O2-  O184  1  0.30823340  0.83482710  0.37440253  1
  O2-  O185  1  0.30793673  0.83782609  0.87520872  1
  O2-  O186  1  0.64011339  0.17263061  0.37534538  1
  O2-  O187  1  0.63992203  0.17060069  0.87604526  1
  O2-  O188  1  0.65101624  0.50685252  0.37466151  1
  O2-  O189  1  0.63831024  0.50682927  0.87670054  1
  O2-  O190  1  0.63623399  0.84064159  0.37356361  1
  O2-  O191  1  0.64007727  0.83990268  0.87786264  1
  O2-  O192  1  0.97940379  0.17617288  0.37623360  1
  O2-  O193  1  0.98081719  0.17129097  0.87205656  1
  O2-  O194  1  0.97528664  0.50773933  0.37348421  1
  O2-  O195  1  0.97805115  0.50565819  0.87626341  1
  O2-  O196  1  0.97586125  0.83461467  0.37325988  1
  O2-  O197  1  0.97467939  0.84146862  0.87669058  1
  O2-  O198  1  0.19398232  0.00411040  0.37593923  1
  O2-  O199  1  0.19112083  0.00640259  0.87230160  1
  O2-  O200  1  0.19252605  0.33997868  0.37527661  1
  O2-  O201  1  0.18997588  0.33636094  0.87456297  1
  O2-  O202  1  0.19114191  0.67050479  0.37282253  1
  O2-  O203  1  0.19287431  0.67259173  0.87642407  1
  O2-  O204  1  0.52563406  0.00917334  0.37673250  1
  O2-  O205  1  0.52659849  0.00561743  0.87469664  1
  O2-  O206  1  0.52462058  0.33469710  0.37315280  1
  O2-  O207  1  0.52470927  0.33818481  0.87606424  1
  O2-  O208  1  0.52523776  0.67272128  0.37405434  1
  O2-  O209  1  0.52603678  0.67543197  0.87580637  1
  O2-  O210  1  0.85789224  0.00022531  0.37477714  1
  O2-  O211  1  0.85490484  0.00045879  0.87564263  1
  O2-  O212  1  0.85653132  0.34061247  0.37429478  1
  O2-  O213  1  0.85768915  0.33760360  0.87578176  1
  O2-  O214  1  0.85951305  0.66934241  0.37138396  1
  O2-  O215  1  0.86271972  0.67332525  0.87749911  1
  O2-  O216  1  0.23843990  0.09560246  0.01945122  1
  O2-  O217  1  0.23746914  0.09304185  0.52166963  1
  O2-  O218  1  0.23838210  0.42944800  0.02231355  1
  O2-  O219  1  0.23690953  0.43048713  0.51705891  1
  O2-  O220  1  0.23254109  0.76467143  0.01852108  1
  O2-  O221  1  0.24101837  0.75876404  0.51479732  1
  O2-  O222  1  0.56988837  0.09428141  0.02017231  1
  O2-  O223  1  0.56910367  0.09652772  0.52264647  1
  O2-  O224  1  0.57133551  0.42419558  0.02376347  1
  O2-  O225  1  0.57564774  0.42837324  0.51915064  1
  O2-  O226  1  0.57235560  0.76157222  0.02229150  1
  O2-  O227  1  0.57226092  0.76085331  0.52490987  1
  O2-  O228  1  0.91058946  0.09037038  0.01850343  1
  O2-  O229  1  0.90469007  0.09332704  0.52285319  1
  O2-  O230  1  0.90926211  0.43024629  0.01819060  1
  O2-  O231  1  0.90869103  0.42913126  0.51385679  1
  O2-  O232  1  0.90444000  0.76381201  0.02378742  1
  O2-  O233  1  0.90146227  0.76297187  0.51220956  1
  O2-  O234  1  0.26123282  0.26250114  0.22971910  1
  O2-  O235  1  0.25600784  0.25912655  0.73075521  1
  O2-  O236  1  0.26317902  0.59969146  0.23025765  1
  O2-  O237  1  0.26547271  0.59601461  0.72892256  1
  O2-  O238  1  0.26425916  0.93087526  0.23395283  1
  O2-  O239  1  0.26489917  0.92792504  0.73239258  1
  O2-  O240  1  0.59058517  0.26131361  0.22862384  1
  O2-  O241  1  0.59581775  0.26320371  0.73435081  1
  O2-  O242  1  0.59271560  0.59310472  0.22699444  1
  O2-  O243  1  0.59611909  0.59675266  0.73035917  1
  O2-  O244  1  0.59513694  0.92695007  0.22692847  1
  O2-  O245  1  0.59653870  0.93080636  0.73249946  1
  O2-  O246  1  0.92970082  0.26396172  0.23312505  1
  O2-  O247  1  0.92873999  0.26023342  0.72727242  1
  O2-  O248  1  0.93143120  0.59485206  0.22663774  1
  O2-  O249  1  0.93277973  0.59718624  0.73282772  1
  O2-  O250  1  0.93099820  0.92478141  0.23024707  1
  O2-  O251  1  0.92700345  0.92779084  0.73093989  1
  O2-  O252  1  0.09525993  0.23777766  0.27074905  1
  O2-  O253  1  0.09418221  0.23818380  0.76807546  1
  O2-  O254  1  0.09465350  0.57411021  0.27244959  1
  O2-  O255  1  0.10095708  0.56743276  0.76916537  1
  O2-  O256  1  0.09653142  0.90475467  0.27079679  1
  O2-  O257  1  0.09148525  0.90552276  0.77249017  1
  O2-  O258  1  0.42736990  0.23820295  0.27155706  1
  O2-  O259  1  0.42644165  0.24173492  0.77074745  1
  O2-  O260  1  0.42689796  0.57379091  0.26722506  1
  O2-  O261  1  0.43047105  0.57113353  0.77330902  1
  O2-  O262  1  0.43037192  0.90425241  0.27089773  1
  O2-  O263  1  0.42760953  0.90657532  0.77279885  1
  O2-  O264  1  0.75333528  0.24281727  0.26727212  1
  O2-  O265  1  0.75862399  0.24126552  0.76713055  1
  O2-  O266  1  0.76680180  0.57147514  0.26327026  1
  O2-  O267  1  0.76309500  0.57567804  0.77453577  1
  O2-  O268  1  0.75801156  0.90482894  0.27195419  1
  O2-  O269  1  0.76014840  0.90324557  0.77070043  1
  O2-  O270  1  0.06995877  0.07160774  0.47815370  1
  O2-  O271  1  0.07413416  0.07139993  0.98011374  1
  O2-  O272  1  0.07411192  0.40815456  0.47627625  1
  O2-  O273  1  0.06967287  0.40144733  0.98087867  1
  O2-  O274  1  0.07400586  0.74044232  0.47948092  1
  O2-  O275  1  0.06897827  0.73495677  0.97857046  1
  O2-  O276  1  0.40504406  0.07001875  0.47930802  1
  O2-  O277  1  0.40436285  0.07261067  0.97726987  1
  O2-  O278  1  0.40507713  0.40664370  0.48071420  1
  O2-  O279  1  0.40132121  0.40293439  0.98153044  1
  O2-  O280  1  0.40620532  0.73859378  0.47919363  1
  O2-  O281  1  0.40601991  0.73900387  0.97776994  1
  O2-  O282  1  0.73410053  0.07006144  0.48229273  1
  O2-  O283  1  0.73527734  0.07086022  0.98572762  1
  O2-  O284  1  0.73927093  0.40732858  0.48043706  1
  O2-  O285  1  0.73939426  0.40788708  0.97784272  1
  O2-  O286  1  0.73590652  0.73807420  0.47698570  1
  O2-  O287  1  0.73729995  0.73943339  0.97866438  1
  O2-  O288  1  0.09465725  0.23916768  0.48059947  1
  O2-  O289  1  0.09587459  0.23758643  0.98042486  1
  O2-  O290  1  0.09660858  0.57194313  0.48006448  1
  O2-  O291  1  0.10002962  0.56909285  0.97965680  1
  O2-  O292  1  0.09342998  0.90460701  0.47944940  1
  O2-  O293  1  0.09349511  0.90542294  0.97789149  1
  O2-  O294  1  0.42506535  0.24041240  0.47986066  1
  O2-  O295  1  0.42750347  0.23860348  0.97792967  1
  O2-  O296  1  0.42660750  0.57563931  0.48196835  1
  O2-  O297  1  0.43024566  0.56852755  0.97645107  1
  O2-  O298  1  0.42883705  0.90418117  0.47619566  1
  O2-  O299  1  0.42791172  0.90527529  0.97971504  1
  O2-  O300  1  0.75888023  0.24094853  0.48303040  1
  O2-  O301  1  0.75312640  0.24291589  0.98252689  1
  O2-  O302  1  0.76413513  0.57332928  0.48337987  1
  O2-  O303  1  0.76296570  0.57390448  0.97821790  1
  O2-  O304  1  0.75934607  0.90244596  0.47627930  1
  O2-  O305  1  0.75906337  0.90623637  0.98027736  1
  O2-  O306  1  0.07359208  0.07006579  0.27345657  1
  O2-  O307  1  0.07111869  0.07199422  0.76918894  1
  O2-  O308  1  0.07114149  0.40514402  0.27226142  1
  O2-  O309  1  0.07163646  0.40478686  0.77066413  1
  O2-  O310  1  0.07049272  0.73759232  0.26922419  1
  O2-  O311  1  0.07267759  0.73846562  0.77319281  1
  O2-  O312  1  0.40385182  0.07205709  0.27209867  1
  O2-  O313  1  0.40574438  0.07030357  0.77094427  1
  O2-  O314  1  0.40227471  0.40275790  0.26607292  1
  O2-  O315  1  0.40535840  0.40649844  0.77167597  1
  O2-  O316  1  0.40531982  0.73853117  0.26821747  1
  O2-  O317  1  0.40696193  0.73944675  0.77373734  1
  O2-  O318  1  0.73463336  0.07095112  0.26581734  1
  O2-  O319  1  0.73466498  0.06930778  0.76568429  1
  O2-  O320  1  0.73958451  0.40682030  0.26910752  1
  O2-  O321  1  0.73829276  0.40827641  0.77242712  1
  O2-  O322  1  0.73570102  0.73715195  0.27225616  1
  O2-  O323  1  0.73768921  0.73871192  0.77274276  1
  O2-  O324  1  0.23731625  0.09520031  0.23065183  1
  O2-  O325  1  0.23825818  0.09305542  0.72731528  1
  O2-  O326  1  0.23777390  0.43203968  0.22890095  1
  O2-  O327  1  0.23854442  0.42856583  0.73163805  1
  O2-  O328  1  0.23380588  0.76396999  0.23102618  1
  O2-  O329  1  0.23901510  0.75975567  0.73624312  1
  O2-  O330  1  0.56960353  0.09430936  0.23068375  1
  O2-  O331  1  0.56802131  0.09603061  0.72760442  1
  O2-  O332  1  0.57202380  0.42448903  0.22644368  1
  O2-  O333  1  0.57227173  0.42688027  0.73054568  1
  O2-  O334  1  0.57246937  0.75929441  0.22443707  1
  O2-  O335  1  0.57193054  0.76274589  0.72876150  1
  O2-  O336  1  0.91065731  0.09186979  0.23095752  1
  O2-  O337  1  0.90493456  0.09282009  0.72693005  1
  O2-  O338  1  0.90868105  0.43094143  0.22951745  1
  O2-  O339  1  0.90786095  0.42901785  0.73862770  1
  O2-  O340  1  0.90349139  0.76136411  0.22771811  1
  O2-  O341  1  0.90113507  0.76469561  0.73640148  1
  O2-  O342  1  0.26073341  0.26246408  0.01978739  1
  O2-  O343  1  0.25637136  0.25964009  0.51936724  1
  O2-  O344  1  0.26770956  0.60096093  0.01892766  1
  O2-  O345  1  0.26194707  0.59423305  0.52207726  1
  O2-  O346  1  0.26249294  0.93127990  0.01648591  1
  O2-  O347  1  0.26662527  0.92676377  0.51694342  1
  O2-  O348  1  0.59075819  0.26090918  0.02071028  1
  O2-  O349  1  0.59656250  0.26272869  0.51675480  1
  O2-  O350  1  0.59473629  0.59550289  0.02223778  1
  O2-  O351  1  0.59300328  0.59470404  0.52111735  1
  O2-  O352  1  0.59479191  0.92690629  0.02339310  1
  O2-  O353  1  0.59777366  0.93025974  0.51783787  1
  O2-  O354  1  0.93018624  0.26222503  0.01759228  1
  O2-  O355  1  0.92868605  0.26125295  0.52228676  1
  O2-  O356  1  0.93051230  0.59224068  0.02323247  1
  O2-  O357  1  0.93400072  0.59855627  0.51787152  1
  O2-  O358  1  0.93147438  0.92770185  0.01906552  1
  O2-  O359  1  0.92674490  0.92481687  0.51976171  1
