# generated using pymatgen
data_Sr7Ca15Pr50Mn72O216
_symmetry_space_group_name_H-M   'P 1'
_cell_length_a   16.55818672
_cell_length_b   16.60541030
_cell_length_c   15.59294635
_cell_angle_alpha   89.99860552
_cell_angle_beta   89.99916111
_cell_angle_gamma   89.99074662
_symmetry_Int_Tables_number   1
_chemical_formula_structural   Sr7Ca15Pr50Mn72O216
_chemical_formula_sum   'Sr7 Ca15 Pr50 Mn72 O216'
_cell_volume   4287.36605513
_cell_formula_units_Z   1
loop_
 _symmetry_equiv_pos_site_id
 _symmetry_equiv_pos_as_xyz
  1  'x, y, z'
loop_
 _atom_type_symbol
 _atom_type_oxidation_number
  Sr2+  2.0
  Ca2+  2.0
  Pr3+  3.0
  Mn3.30+  3.3
  O2-  -2.0
loop_
 _atom_site_type_symbol
 _atom_site_label
 _atom_site_symmetry_multiplicity
 _atom_site_fract_x
 _atom_site_fract_y
 _atom_site_fract_z
 _atom_site_occupancy
  Sr2+  Sr0  1  0.33235965  0.33980808  0.62537638  1
  Sr2+  Sr1  1  0.49664573  0.15491936  0.37604995  1
  Sr2+  Sr2  1  0.16768138  0.17593271  0.62620350  1
  Sr2+  Sr3  1  0.17014704  0.84143077  0.12316841  1
  Sr2+  Sr4  1  0.66624188  0.32217574  0.37379583  1
  Sr2+  Sr5  1  0.16783655  0.17446356  0.12393116  1
  Sr2+  Sr6  1  -0.00068343  0.67435046  0.62472382  1
  Ca2+  Ca7  1  0.50271920  0.17854960  0.12729703  1
  Ca2+  Ca8  1  0.50403646  0.51851150  0.12538303  1
  Ca2+  Ca9  1  1.00408725  0.65254448  0.37326806  1
  Ca2+  Ca10  1  0.66460037  0.68226741  0.12448786  1
  Ca2+  Ca11  1  0.83682583  0.84661291  0.12387162  1
  Ca2+  Ca12  1  0.17210233  0.51770607  0.12243653  1
  Ca2+  Ca13  1  0.33537735  0.98838134  0.37471876  1
  Ca2+  Ca14  1  0.16329574  0.48747862  0.87661026  1
  Ca2+  Ca15  1  0.83039534  0.15032567  0.87503092  1
  Ca2+  Ca16  1  -0.00197453  0.01526997  0.62598751  1
  Ca2+  Ca17  1  0.32983117  0.01580870  0.62279690  1
  Ca2+  Ca18  1  0.32783335  0.68192590  0.12429590  1
  Ca2+  Ca19  1  0.16017559  0.81569995  0.87709802  1
  Ca2+  Ca20  1  0.50018078  0.18047786  0.62253655  1
  Ca2+  Ca21  1  1.00745810  0.65105447  0.87655604  1
  Pr3+  Pr22  1  1.00353683  0.32057812  0.37428075  1
  Pr3+  Pr23  1  0.83162603  0.82010722  0.37368196  1
  Pr3+  Pr24  1  0.67170428  0.31707894  0.87651231  1
  Pr3+  Pr25  1  0.83534819  0.51358866  0.12569100  1
  Pr3+  Pr26  1  0.49946922  0.84299911  0.12415818  1
  Pr3+  Pr27  1  0.83771531  0.17968658  0.12414027  1
  Pr3+  Pr28  1  0.66467275  0.67897786  0.62511811  1
  Pr3+  Pr29  1  0.16823837  0.15320670  0.37662687  1
  Pr3+  Pr30  1  0.16526590  0.48889652  0.37245287  1
  Pr3+  Pr31  1  0.82800660  0.15362555  0.37483813  1
  Pr3+  Pr32  1  0.66015707  0.34628524  0.12611525  1
  Pr3+  Pr33  1  0.33230302  0.98782365  0.87354701  1
  Pr3+  Pr34  1  0.83343206  0.49023920  0.87575646  1
  Pr3+  Pr35  1  0.49622625  0.15460858  0.87419174  1
  Pr3+  Pr36  1  0.83795636  0.17971165  0.62607606  1
  Pr3+  Pr37  1  1.00331686  0.32066687  0.87598596  1
  Pr3+  Pr38  1  0.33271425  0.32152616  0.87417105  1
  Pr3+  Pr39  1  0.67132371  0.98757239  0.87471484  1
  Pr3+  Pr40  1  0.49962399  0.50991629  0.62537277  1
  Pr3+  Pr41  1  0.33784687  0.31895038  0.37590837  1
  Pr3+  Pr42  1  0.32938185  0.01215054  0.12621040  1
  Pr3+  Pr43  1  -0.00182242  0.68240570  0.12497647  1
  Pr3+  Pr44  1  0.66150337  0.01624062  0.62512754  1
  Pr3+  Pr45  1  0.16574283  0.15474252  0.87352219  1
  Pr3+  Pr46  1  0.49989696  0.84717909  0.62555781  1
  Pr3+  Pr47  1  0.66972059  0.65367178  0.87771520  1
  Pr3+  Pr48  1  0.49570510  0.48700510  0.87876410  1
  Pr3+  Pr49  1  1.00469778  0.98596892  0.87292236  1
  Pr3+  Pr50  1  0.66728083  0.98973774  0.37505700  1
  Pr3+  Pr51  1  0.33040116  0.34540958  0.12489457  1
  Pr3+  Pr52  1  0.16996773  0.51036359  0.62753582  1
  Pr3+  Pr53  1  0.83684842  0.51188364  0.62438160  1
  Pr3+  Pr54  1  0.49800197  0.82052002  0.87544831  1
  Pr3+  Pr55  1  0.83338097  0.81852155  0.87620469  1
  Pr3+  Pr56  1  -0.00036016  0.34530053  0.62596516  1
  Pr3+  Pr57  1  0.33152868  0.65485286  0.87938275  1
  Pr3+  Pr58  1  0.84075827  0.84821006  0.62580521  1
  Pr3+  Pr59  1  -0.00111775  0.00965375  0.12458111  1
  Pr3+  Pr60  1  0.49593823  0.82414105  0.37408790  1
  Pr3+  Pr61  1  0.33645295  0.65435127  0.37061340  1
  Pr3+  Pr62  1  0.66774862  0.65489258  0.37194179  1
  Pr3+  Pr63  1  0.16427737  0.81888119  0.37331536  1
  Pr3+  Pr64  1  0.83235289  0.48921913  0.37433401  1
  Pr3+  Pr65  1  0.16895769  0.84645918  0.62681238  1
  Pr3+  Pr66  1  0.00023560  0.34805108  0.12470824  1
  Pr3+  Pr67  1  0.66161936  0.34419938  0.62392904  1
  Pr3+  Pr68  1  1.00415730  0.98806682  0.37720497  1
  Pr3+  Pr69  1  0.49540631  0.48574522  0.37156133  1
  Pr3+  Pr70  1  0.32695335  0.67737643  0.62554108  1
  Pr3+  Pr71  1  0.66363247  0.01246768  0.12454669  1
  Mn3.30+  Mn72  1  0.16699614  -0.00249934  -0.00063677  1
  Mn3.30+  Mn73  1  0.16898290  -0.00052503  0.50175174  1
  Mn3.30+  Mn74  1  0.16681408  0.33494973  0.00139889  1
  Mn3.30+  Mn75  1  0.16838966  0.33274268  0.49955012  1
  Mn3.30+  Mn76  1  0.16598218  0.66576105  0.00005420  1
  Mn3.30+  Mn77  1  0.16502530  0.66595136  0.49891626  1
  Mn3.30+  Mn78  1  0.49986909  0.00076341  -0.00035127  1
  Mn3.30+  Mn79  1  0.49626999  0.00148676  0.50148997  1
  Mn3.30+  Mn80  1  0.49961974  0.33283347  0.00130253  1
  Mn3.30+  Mn81  1  0.49913483  0.33190832  0.50054793  1
  Mn3.30+  Mn82  1  0.50008535  0.66640863  0.00296755  1
  Mn3.30+  Mn83  1  0.49834355  0.66711555  0.49992329  1
  Mn3.30+  Mn84  1  0.83406128  -0.00095283  -0.00039209  1
  Mn3.30+  Mn85  1  0.83482170  0.00030751  0.50144471  1
  Mn3.30+  Mn86  1  0.83331953  0.33361943  0.00025013  1
  Mn3.30+  Mn87  1  0.83243004  0.33331768  0.49943774  1
  Mn3.30+  Mn88  1  0.83494425  0.66747317  0.00158954  1
  Mn3.30+  Mn89  1  0.83478095  0.66699117  0.49804447  1
  Mn3.30+  Mn90  1  0.00061660  0.16623596  0.24999129  1
  Mn3.30+  Mn91  1  -0.00169427  0.16542023  0.75080462  1
  Mn3.30+  Mn92  1  0.00255503  0.50254365  0.24811124  1
  Mn3.30+  Mn93  1  0.00153047  0.50083689  0.75239131  1
  Mn3.30+  Mn94  1  -0.00094187  0.83322360  0.25008423  1
  Mn3.30+  Mn95  1  0.00232692  0.83156895  0.74983816  1
  Mn3.30+  Mn96  1  0.33520515  0.16541820  0.24926048  1
  Mn3.30+  Mn97  1  0.33319514  0.16556971  0.74782591  1
  Mn3.30+  Mn98  1  0.33322411  0.50166839  0.24390423  1
  Mn3.30+  Mn99  1  0.33149557  0.49960844  0.75342301  1
  Mn3.30+  Mn100  1  0.33235945  0.83377302  0.24973632  1
  Mn3.30+  Mn101  1  0.33090887  0.83357592  0.75133882  1
  Mn3.30+  Mn102  1  0.66511506  0.16632388  0.24965896  1
  Mn3.30+  Mn103  1  0.66690495  0.16667606  0.75015703  1
  Mn3.30+  Mn104  1  0.66469467  0.50172558  0.24784860  1
  Mn3.30+  Mn105  1  0.66645467  0.49944149  0.75099662  1
  Mn3.30+  Mn106  1  0.66725992  0.83325897  0.24738469  1
  Mn3.30+  Mn107  1  0.66807919  0.83327969  0.74985113  1
  Mn3.30+  Mn108  1  0.16890022  -0.00145948  0.25129111  1
  Mn3.30+  Mn109  1  0.16710429  -0.00137223  0.74782501  1
  Mn3.30+  Mn110  1  0.16836801  0.33375162  0.24779316  1
  Mn3.30+  Mn111  1  0.16668780  0.33413050  0.75107372  1
  Mn3.30+  Mn112  1  0.16733458  0.66591894  0.24795742  1
  Mn3.30+  Mn113  1  0.16347482  0.66655043  0.75240536  1
  Mn3.30+  Mn114  1  0.49808198  0.00061034  0.25000470  1
  Mn3.30+  Mn115  1  0.49886895  0.00187555  0.74845803  1
  Mn3.30+  Mn116  1  0.49829892  0.33209639  0.24748338  1
  Mn3.30+  Mn117  1  0.50049266  0.33276157  0.75057592  1
  Mn3.30+  Mn118  1  0.50048826  0.66718605  0.24600329  1
  Mn3.30+  Mn119  1  0.49843286  0.66611089  0.75118610  1
  Mn3.30+  Mn120  1  0.83351004  -0.00184098  0.24890507  1
  Mn3.30+  Mn121  1  0.83527161  0.00071491  0.75011886  1
  Mn3.30+  Mn122  1  0.83255949  0.33409046  0.24934602  1
  Mn3.30+  Mn123  1  0.83298614  0.33255065  0.75151074  1
  Mn3.30+  Mn124  1  0.83364000  0.66854147  0.24846126  1
  Mn3.30+  Mn125  1  0.83614700  0.66612086  0.75152692  1
  Mn3.30+  Mn126  1  -0.00110469  0.16593052  -0.00109990  1
  Mn3.30+  Mn127  1  -0.00012561  0.16595762  0.50114701  1
  Mn3.30+  Mn128  1  0.00388148  0.50241978  0.00135731  1
  Mn3.30+  Mn129  1  0.00062971  0.50054513  0.49837696  1
  Mn3.30+  Mn130  1  0.00065910  0.83237083  -0.00028763  1
  Mn3.30+  Mn131  1  0.00090824  0.83224234  0.50073555  1
  Mn3.30+  Mn132  1  0.33466373  0.16670584  0.00097707  1
  Mn3.30+  Mn133  1  0.33394525  0.16401500  0.50210776  1
  Mn3.30+  Mn134  1  0.33156519  0.50122835  0.00280869  1
  Mn3.30+  Mn135  1  0.33265985  0.49952815  0.49957499  1
  Mn3.30+  Mn136  1  0.33061555  0.83191752  -0.00207591  1
  Mn3.30+  Mn137  1  0.33214710  0.83555674  0.50077203  1
  Mn3.30+  Mn138  1  0.66708930  0.16567330  0.00040984  1
  Mn3.30+  Mn139  1  0.66487635  0.16706255  0.49965343  1
  Mn3.30+  Mn140  1  0.66465184  0.50120149  0.00225726  1
  Mn3.30+  Mn141  1  0.66633931  0.50029664  0.49900047  1
  Mn3.30+  Mn142  1  0.66865690  0.83268764  0.00216639  1
  Mn3.30+  Mn143  1  0.66681295  0.83398364  0.50026870  1
  O2-  O144  1  0.01837715  0.15896491  0.12491529  1
  O2-  O145  1  0.01737467  0.16429603  0.62485328  1
  O2-  O146  1  0.02919510  0.49511893  0.12569492  1
  O2-  O147  1  0.02475607  0.49360266  0.62625434  1
  O2-  O148  1  0.02060110  0.83138895  0.12530602  1
  O2-  O149  1  0.02516840  0.82646558  0.62478699  1
  O2-  O150  1  0.35988575  0.15941649  0.12308260  1
  O2-  O151  1  0.35811278  0.16088040  0.62630676  1
  O2-  O152  1  0.36451214  0.49079647  0.12362759  1
  O2-  O153  1  0.35574460  0.49987016  0.62828452  1
  O2-  O154  1  0.35573254  0.82856529  0.12133483  1
  O2-  O155  1  0.35783085  0.82208736  0.62682688  1
  O2-  O156  1  0.69376108  0.16094060  0.12416452  1
  O2-  O157  1  0.69377543  0.16462098  0.62560630  1
  O2-  O158  1  0.69224089  0.49278786  0.12457990  1
  O2-  O159  1  0.69234025  0.49383739  0.62544888  1
  O2-  O160  1  0.69399167  0.82902601  0.12355642  1
  O2-  O161  1  0.69461623  0.82659263  0.62495926  1
  O2-  O162  1  0.14232947  0.32621436  0.12548359  1
  O2-  O163  1  0.14328846  0.33442612  0.62642751  1
  O2-  O164  1  0.14145073  0.66305559  0.12396572  1
  O2-  O165  1  0.14868921  0.65900457  0.62552462  1
  O2-  O166  1  0.14370098  0.99760061  0.12349673  1
  O2-  O167  1  0.13852572  0.99334614  0.62522342  1
  O2-  O168  1  0.47463849  0.32212950  0.12261227  1
  O2-  O169  1  0.48360726  0.33239937  0.62740778  1
  O2-  O170  1  0.47084073  0.66571599  0.12388607  1
  O2-  O171  1  0.47142337  0.65868150  0.62665407  1
  O2-  O172  1  0.47323031  0.99064398  0.12262497  1
  O2-  O173  1  0.47219342  0.99184660  0.62645915  1
  O2-  O174  1  0.80623456  0.32822567  0.12313475  1
  O2-  O175  1  0.80597186  0.32800575  0.62540031  1
  O2-  O176  1  0.80574125  0.65964543  0.12508486  1
  O2-  O177  1  0.80824772  0.66040197  0.62405218  1
  O2-  O178  1  0.80847785  0.99186973  0.12403033  1
  O2-  O179  1  0.80629224  0.99427705  0.62473202  1
  O2-  O180  1  0.31169477  0.17214828  0.37522966  1
  O2-  O181  1  0.31063148  0.17097154  0.87514657  1
  O2-  O182  1  0.30991543  0.50595913  0.36965238  1
  O2-  O183  1  0.30583540  0.50692205  0.87832556  1
  O2-  O184  1  0.30920975  0.84128627  0.37844350  1
  O2-  O185  1  0.30409745  0.84062983  0.87307276  1
  O2-  O186  1  0.64821609  0.16207967  0.37437934  1
  O2-  O187  1  0.64033752  0.16841387  0.87561728  1
  O2-  O188  1  0.63949666  0.50738102  0.37218666  1
  O2-  O189  1  0.64014350  0.50633123  0.87796238  1
  O2-  O190  1  0.64045509  0.83971161  0.37576656  1
  O2-  O191  1  0.64273433  0.83863127  0.87525839  1
  O2-  O192  1  0.97228513  0.17169479  0.37472239  1
  O2-  O193  1  0.97182903  0.17220911  0.87569403  1
  O2-  O194  1  0.97637349  0.50457852  0.37123960  1
  O2-  O195  1  0.97583194  0.50447347  0.87713387  1
  O2-  O196  1  0.97449190  0.84209439  0.37587573  1
  O2-  O197  1  0.97513388  0.84051395  0.87443120  1
  O2-  O198  1  0.19230237  0.00426589  0.37772521  1
  O2-  O199  1  0.18871074  0.00654082  0.87383822  1
  O2-  O200  1  0.19313128  0.34158759  0.37119156  1
  O2-  O201  1  0.18839991  0.34029224  0.87729183  1
  O2-  O202  1  0.19271251  0.66844789  0.37387458  1
  O2-  O203  1  0.18916333  0.67206040  0.87585745  1
  O2-  O204  1  0.52394856  -0.00339093  0.37644837  1
  O2-  O205  1  0.52817749  0.00637844  0.87430929  1
  O2-  O206  1  0.51630030  0.33897682  0.37316901  1
  O2-  O207  1  0.52694486  0.33935641  0.87708350  1
  O2-  O208  1  0.52456908  0.67397955  0.37334718  1
  O2-  O209  1  0.52675970  0.67180005  0.87599964  1
  O2-  O210  1  0.85895549  0.00667556  0.37682806  1
  O2-  O211  1  0.85869224  0.00602178  0.87513033  1
  O2-  O212  1  0.85926502  0.33984964  0.37438262  1
  O2-  O213  1  0.85926741  0.34319062  0.87743013  1
  O2-  O214  1  0.86077971  0.67265949  0.37293874  1
  O2-  O215  1  0.86221068  0.66969412  0.87759948  1
  O2-  O216  1  0.24260972  0.09215714  0.01469757  1
  O2-  O217  1  0.23828797  0.09414301  0.51625043  1
  O2-  O218  1  0.24005753  0.42850982  0.02490028  1
  O2-  O219  1  0.23684930  0.43090389  0.51513713  1
  O2-  O220  1  0.23967930  0.75762067  0.01364404  1
  O2-  O221  1  0.23741670  0.76126885  0.51853857  1
  O2-  O222  1  0.57111132  0.09604202  0.02243166  1
  O2-  O223  1  0.57063859  0.09231077  0.52409563  1
  O2-  O224  1  0.56869058  0.42905639  0.02328600  1
  O2-  O225  1  0.57316872  0.42869810  0.51860804  1
  O2-  O226  1  0.57084684  0.76219647  0.01801951  1
  O2-  O227  1  0.57067742  0.76042724  0.52274340  1
  O2-  O228  1  0.90438133  0.09152186  0.02199644  1
  O2-  O229  1  0.90134349  0.09683308  0.51748484  1
  O2-  O230  1  0.90644495  0.43056608  0.02223482  1
  O2-  O231  1  0.90605683  0.42587910  0.52052813  1
  O2-  O232  1  0.90306892  0.76400046  0.02144340  1
  O2-  O233  1  0.90197635  0.76491859  0.51669237  1
  O2-  O234  1  0.26381593  0.26373644  0.23348136  1
  O2-  O235  1  0.25899833  0.26065686  0.73920718  1
  O2-  O236  1  0.26697387  0.59612915  0.22809654  1
  O2-  O237  1  0.26180060  0.59529124  0.73344296  1
  O2-  O238  1  0.26321404  0.92797378  0.23182854  1
  O2-  O239  1  0.26323653  0.92869007  0.72631735  1
  O2-  O240  1  0.59379707  0.26160812  0.23013835  1
  O2-  O241  1  0.60113733  0.26365122  0.73564488  1
  O2-  O242  1  0.59683397  0.59938326  0.22892242  1
  O2-  O243  1  0.59422775  0.59375880  0.72855582  1
  O2-  O244  1  0.59441083  0.92763030  0.22857382  1
  O2-  O245  1  0.59320553  0.93006289  0.72947557  1
  O2-  O246  1  0.92822279  0.26211924  0.22917110  1
  O2-  O247  1  0.92612324  0.26329874  0.72971410  1
  O2-  O248  1  0.92684957  0.59493642  0.22632306  1
  O2-  O249  1  0.92364665  0.58927520  0.73098011  1
  O2-  O250  1  0.92972058  0.93065452  0.23320553  1
  O2-  O251  1  0.93236615  0.92882956  0.72929214  1
  O2-  O252  1  0.09417226  0.23999780  0.27381509  1
  O2-  O253  1  0.09123824  0.24063629  0.77221054  1
  O2-  O254  1  0.09574144  0.57258997  0.26935935  1
  O2-  O255  1  0.09726053  0.56813799  0.76838604  1
  O2-  O256  1  0.09310307  0.90646876  0.27296576  1
  O2-  O257  1  0.09773807  0.90150438  0.77054868  1
  O2-  O258  1  0.42481742  0.23983305  0.26780726  1
  O2-  O259  1  0.42741621  0.24119839  0.77093594  1
  O2-  O260  1  0.42960721  0.57324454  0.27034647  1
  O2-  O261  1  0.42733839  0.57217884  0.77332516  1
  O2-  O262  1  0.43043227  0.90272827  0.26479094  1
  O2-  O263  1  0.42835249  0.90473414  0.77190862  1
  O2-  O264  1  0.76345608  0.23664724  0.26605624  1
  O2-  O265  1  0.76355026  0.23658350  0.77390291  1
  O2-  O266  1  0.76307177  0.57408828  0.27161137  1
  O2-  O267  1  0.75920265  0.57085304  0.77120711  1
  O2-  O268  1  0.76054246  0.90790429  0.27359438  1
  O2-  O269  1  0.76444143  0.90562004  0.77075728  1
  O2-  O270  1  0.07447047  0.07332743  0.47882813  1
  O2-  O271  1  0.07293308  0.07148034  0.97894514  1
  O2-  O272  1  0.07176403  0.40527822  0.47891796  1
  O2-  O273  1  0.06797924  0.40314918  0.98388807  1
  O2-  O274  1  0.07451577  0.73695454  0.47520564  1
  O2-  O275  1  0.06712443  0.73491427  0.98391716  1
  O2-  O276  1  0.40274716  0.06780830  0.48091408  1
  O2-  O277  1  0.40678038  0.07145618  0.97665267  1
  O2-  O278  1  0.40611407  0.40865555  0.48047699  1
  O2-  O279  1  0.40291039  0.40645749  0.97761145  1
  O2-  O280  1  0.40341373  0.73865422  0.47919003  1
  O2-  O281  1  0.40777746  0.74214709  0.97548627  1
  O2-  O282  1  0.73789382  0.07045484  0.48247395  1
  O2-  O283  1  0.73586629  0.06900050  0.98292062  1
  O2-  O284  1  0.74237830  0.40837788  0.48093393  1
  O2-  O285  1  0.73824376  0.40566614  0.97994329  1
  O2-  O286  1  0.73688032  0.73873966  0.47828413  1
  O2-  O287  1  0.74119441  0.73848658  0.97640378  1
  O2-  O288  1  0.09246894  0.24111360  0.47692091  1
  O2-  O289  1  0.09311008  0.23954451  0.97749074  1
  O2-  O290  1  0.09720883  0.56971615  0.48198243  1
  O2-  O291  1  0.09765907  0.56974631  0.97998339  1
  O2-  O292  1  0.09633164  0.90459509  0.47941037  1
  O2-  O293  1  0.09353135  0.90465863  0.97720861  1
  O2-  O294  1  0.42414239  0.24051889  0.48548189  1
  O2-  O295  1  0.42759485  0.24007397  0.97596230  1
  O2-  O296  1  0.42822435  0.57201093  0.47843031  1
  O2-  O297  1  0.42783159  0.57397906  0.97787810  1
  O2-  O298  1  0.43112702  0.90133191  0.48576424  1
  O2-  O299  1  0.42788949  0.90583679  0.97656859  1
  O2-  O300  1  0.76454073  0.23769453  0.48218700  1
  O2-  O301  1  0.76257605  0.23523033  0.97786977  1
  O2-  O302  1  0.75907278  0.57356187  0.47778472  1
  O2-  O303  1  0.76327568  0.57204061  0.97956957  1
  O2-  O304  1  0.76318477  0.90668592  0.47865214  1
  O2-  O305  1  0.76233856  0.90709625  0.97647399  1
  O2-  O306  1  0.07330381  0.07222195  0.27116359  1
  O2-  O307  1  0.07359350  0.07289039  0.77055861  1
  O2-  O308  1  0.07267209  0.40476450  0.27032124  1
  O2-  O309  1  0.06825651  0.40333149  0.76820617  1
  O2-  O310  1  0.06854323  0.73912318  0.26991536  1
  O2-  O311  1  0.06985688  0.73519347  0.77127599  1
  O2-  O312  1  0.40346374  0.06680523  0.26672305  1
  O2-  O313  1  0.40822444  0.07276316  0.77425463  1
  O2-  O314  1  0.40286784  0.40522993  0.26788291  1
  O2-  O315  1  0.40635559  0.40918445  0.77434361  1
  O2-  O316  1  0.40689583  0.74177947  0.27156401  1
  O2-  O317  1  0.40399764  0.73945096  0.77356324  1
  O2-  O318  1  0.74015379  0.06937154  0.26811157  1
  O2-  O319  1  0.73397584  0.07014096  0.76693650  1
  O2-  O320  1  0.74177430  0.40950277  0.26751679  1
  O2-  O321  1  0.73910335  0.40423868  0.77182823  1
  O2-  O322  1  0.73898869  0.74046269  0.27325137  1
  O2-  O323  1  0.74047557  0.73591199  0.77133026  1
  O2-  O324  1  0.24145339  0.09444881  0.23382264  1
  O2-  O325  1  0.23965924  0.09223283  0.73591746  1
  O2-  O326  1  0.23834637  0.43101217  0.22563263  1
  O2-  O327  1  0.23795716  0.42883326  0.73455087  1
  O2-  O328  1  0.23900672  0.76107784  0.23813554  1
  O2-  O329  1  0.23787814  0.75929278  0.72914722  1
  O2-  O330  1  0.57269011  0.09111552  0.22685115  1
  O2-  O331  1  0.57038536  0.09819813  0.72665008  1
  O2-  O332  1  0.56884572  0.42825059  0.22813729  1
  O2-  O333  1  0.57301150  0.42928312  0.73107140  1
  O2-  O334  1  0.57034980  0.76265200  0.23002815  1
  O2-  O335  1  0.57179028  0.76026193  0.72912442  1
  O2-  O336  1  0.90347306  0.09288586  0.23004176  1
  O2-  O337  1  0.90311544  0.09429057  0.73067740  1
  O2-  O338  1  0.90758945  0.42871450  0.22829944  1
  O2-  O339  1  0.90474284  0.42721347  0.72953235  1
  O2-  O340  1  0.90203239  0.76392776  0.22831730  1
  O2-  O341  1  0.90301315  0.76562617  0.73339623  1
  O2-  O342  1  0.26438906  0.26315632  0.01516096  1
  O2-  O343  1  0.25953721  0.26044717  0.51164352  1
  O2-  O344  1  0.26579057  0.59683794  0.02082323  1
  O2-  O345  1  0.26196430  0.59493532  0.51691497  1
  O2-  O346  1  0.26449674  0.93001880  0.01599463  1
  O2-  O347  1  0.26083386  0.92615584  0.52697126  1
  O2-  O348  1  0.60013392  0.26280252  0.01631762  1
  O2-  O349  1  0.59540967  0.26063088  0.51792392  1
  O2-  O350  1  0.59687498  0.59843397  0.02057069  1
  O2-  O351  1  0.59356960  0.59503016  0.52144490  1
  O2-  O352  1  0.59383564  0.92850085  0.01997306  1
  O2-  O353  1  0.59484396  0.92790184  0.52242701  1
  O2-  O354  1  0.92775113  0.26310818  0.02219060  1
  O2-  O355  1  0.92694009  0.26313219  0.52014272  1
  O2-  O356  1  0.92821166  0.59438079  0.02474471  1
  O2-  O357  1  0.92377746  0.58865516  0.51722324  1
  O2-  O358  1  0.93076595  0.93020504  0.01598732  1
  O2-  O359  1  0.92907875  0.93181421  0.52226345  1
