# generated using pymatgen
data_Sr7Ca15Pr50Mn72O216
_symmetry_space_group_name_H-M   'P 1'
_cell_length_a   16.55812922
_cell_length_b   16.60366786
_cell_length_c   15.59442422
_cell_angle_alpha   90.00174127
_cell_angle_beta   89.99498027
_cell_angle_gamma   90.00672571
_symmetry_Int_Tables_number   1
_chemical_formula_structural   Sr7Ca15Pr50Mn72O216
_chemical_formula_sum   'Sr7 Ca15 Pr50 Mn72 O216'
_cell_volume   4287.30760118
_cell_formula_units_Z   1
loop_
 _symmetry_equiv_pos_site_id
 _symmetry_equiv_pos_as_xyz
  1  'x, y, z'
loop_
 _atom_type_symbol
 _atom_type_oxidation_number
  Sr2+  2.0
  Ca2+  2.0
  Pr3+  3.0
  Mn3.30+  3.3
  O2-  -2.0
loop_
 _atom_site_type_symbol
 _atom_site_label
 _atom_site_symmetry_multiplicity
 _atom_site_fract_x
 _atom_site_fract_y
 _atom_site_fract_z
 _atom_site_occupancy
  Sr2+  Sr0  1  0.66695029  0.34434146  0.62488545  1
  Sr2+  Sr1  1  -0.00519510  0.67405233  0.62242500  1
  Sr2+  Sr2  1  0.66815738  0.99024639  0.87383524  1
  Sr2+  Sr3  1  0.49856609  0.82699690  0.87469561  1
  Sr2+  Sr4  1  0.83552659  0.50955974  0.62757754  1
  Sr2+  Sr5  1  0.33890857  0.99257856  0.87524289  1
  Sr2+  Sr6  1  0.32991695  0.67670954  0.12425587  1
  Ca2+  Ca7  1  1.00063803  0.65211247  0.37555580  1
  Ca2+  Ca8  1  0.49697772  0.15410074  0.87406160  1
  Ca2+  Ca9  1  -0.00165305  0.34813884  0.12426405  1
  Ca2+  Ca10  1  0.16399612  0.48531579  0.87731673  1
  Ca2+  Ca11  1  0.83518456  0.15537418  0.37536445  1
  Ca2+  Ca12  1  1.00590850  0.31793187  0.37465200  1
  Ca2+  Ca13  1  0.16809168  0.51500096  0.12291491  1
  Ca2+  Ca14  1  0.32925043  0.34759478  0.62772804  1
  Ca2+  Ca15  1  0.15892920  0.15119049  0.37527921  1
  Ca2+  Ca16  1  1.00187229  0.98769749  0.37496531  1
  Ca2+  Ca17  1  0.33745795  0.31811731  0.87455740  1
  Ca2+  Ca18  1  0.83503281  0.81882373  0.37577882  1
  Ca2+  Ca19  1  0.83007141  0.48674628  0.87343104  1
  Ca2+  Ca20  1  0.82779777  0.82066120  0.87274014  1
  Ca2+  Ca21  1  0.82925837  0.15217291  0.87451389  1
  Pr3+  Pr22  1  0.49606356  0.48636076  0.37434837  1
  Pr3+  Pr23  1  0.16888447  0.17984893  0.12596131  1
  Pr3+  Pr24  1  0.16923165  0.84495288  0.12548382  1
  Pr3+  Pr25  1  0.33321513  0.65164721  0.37435483  1
  Pr3+  Pr26  1  0.83639425  0.84714309  0.12541984  1
  Pr3+  Pr27  1  0.33109899  0.01423029  0.62679170  1
  Pr3+  Pr28  1  0.16696820  0.15513037  0.87499956  1
  Pr3+  Pr29  1  0.67097081  0.65605746  0.87520367  1
  Pr3+  Pr30  1  -0.00328284  0.01335044  0.62313745  1
  Pr3+  Pr31  1  0.15852119  0.81761431  0.37472486  1
  Pr3+  Pr32  1  0.32734784  0.34854288  0.12298126  1
  Pr3+  Pr33  1  0.16483953  0.82248516  0.87547715  1
  Pr3+  Pr34  1  0.99999684  0.32288232  0.87524255  1
  Pr3+  Pr35  1  0.50149748  0.51427891  0.12386980  1
  Pr3+  Pr36  1  0.50327134  0.51035178  0.62616439  1
  Pr3+  Pr37  1  0.83959682  0.18099544  0.12436526  1
  Pr3+  Pr38  1  0.49526943  0.48616343  0.87569428  1
  Pr3+  Pr39  1  -0.00089992  0.67756213  0.12690991  1
  Pr3+  Pr40  1  0.50369815  0.84668121  0.62619744  1
  Pr3+  Pr41  1  0.67316814  0.31962546  0.37559790  1
  Pr3+  Pr42  1  0.83754249  0.48977174  0.37651499  1
  Pr3+  Pr43  1  0.15922251  0.48733461  0.37284508  1
  Pr3+  Pr44  1  0.17110664  0.18301763  0.62442436  1
  Pr3+  Pr45  1  0.33118342  0.01245244  0.12340557  1
  Pr3+  Pr46  1  0.66585382  0.01277559  0.12433494  1
  Pr3+  Pr47  1  0.33208270  0.32152058  0.37520157  1
  Pr3+  Pr48  1  0.66619939  0.01320011  0.62601518  1
  Pr3+  Pr49  1  1.00082079  0.65161188  0.87488997  1
  Pr3+  Pr50  1  -0.00219662  0.01331680  0.12679785  1
  Pr3+  Pr51  1  0.49935510  0.15588753  0.37609570  1
  Pr3+  Pr52  1  0.50235374  0.17821352  0.12273330  1
  Pr3+  Pr53  1  0.16530185  0.84622636  0.62442444  1
  Pr3+  Pr54  1  -0.00365342  0.34678379  0.62483605  1
  Pr3+  Pr55  1  0.67171098  0.31924664  0.87406783  1
  Pr3+  Pr56  1  0.67072296  0.65385428  0.37444987  1
  Pr3+  Pr57  1  0.67558701  0.98593826  0.37573940  1
  Pr3+  Pr58  1  0.50274009  0.18136781  0.62768016  1
  Pr3+  Pr59  1  0.83771224  0.51137812  0.12298487  1
  Pr3+  Pr60  1  0.66480230  0.34579589  0.12461908  1
  Pr3+  Pr61  1  0.32826729  0.67914910  0.62574786  1
  Pr3+  Pr62  1  0.83677997  0.17926413  0.62558960  1
  Pr3+  Pr63  1  0.66368118  0.68098089  0.12533292  1
  Pr3+  Pr64  1  0.50153777  0.84623960  0.12387870  1
  Pr3+  Pr65  1  0.16748063  0.51091729  0.62734646  1
  Pr3+  Pr66  1  0.33296857  0.98936182  0.37536487  1
  Pr3+  Pr67  1  0.83827498  0.84434971  0.62458480  1
  Pr3+  Pr68  1  0.49714704  0.82011921  0.37581235  1
  Pr3+  Pr69  1  0.66793054  0.67562966  0.62493123  1
  Pr3+  Pr70  1  1.00011644  0.98749972  0.87510161  1
  Pr3+  Pr71  1  0.33609530  0.65521987  0.87595444  1
  Mn3.30+  Mn72  1  0.16645776  0.00011086  -0.00100641  1
  Mn3.30+  Mn73  1  0.16405473  0.00173339  0.49890988  1
  Mn3.30+  Mn74  1  0.16615239  0.33531984  -0.00094082  1
  Mn3.30+  Mn75  1  0.16589606  0.33300968  0.49959359  1
  Mn3.30+  Mn76  1  0.16666721  0.66440478  -0.00146186  1
  Mn3.30+  Mn77  1  0.16322093  0.66553475  0.50119162  1
  Mn3.30+  Mn78  1  0.50008783  0.00165678  -0.00093984  1
  Mn3.30+  Mn79  1  0.50131760  0.00078481  0.49929690  1
  Mn3.30+  Mn80  1  0.49831818  0.33231626  -0.00136230  1
  Mn3.30+  Mn81  1  0.49880232  0.33356306  0.50105116  1
  Mn3.30+  Mn82  1  0.50004209  0.66853155  -0.00081345  1
  Mn3.30+  Mn83  1  0.49878297  0.66606158  0.50026464  1
  Mn3.30+  Mn84  1  0.83284920  0.00044075  -0.00098925  1
  Mn3.30+  Mn85  1  0.83594174  0.00011035  0.49681546  1
  Mn3.30+  Mn86  1  0.83464224  0.33390580  -0.00002899  1
  Mn3.30+  Mn87  1  0.83716067  0.33239069  0.49775598  1
  Mn3.30+  Mn88  1  0.83355780  0.66664941  -0.00029777  1
  Mn3.30+  Mn89  1  0.83527081  0.66649794  0.49766239  1
  Mn3.30+  Mn90  1  0.00141987  0.16836707  0.25239424  1
  Mn3.30+  Mn91  1  -0.00016404  0.16679946  0.75151601  1
  Mn3.30+  Mn92  1  0.00170913  0.49837552  0.24678397  1
  Mn3.30+  Mn93  1  -0.00018573  0.49904320  0.75407181  1
  Mn3.30+  Mn94  1  -0.00111323  0.83314003  0.25220666  1
  Mn3.30+  Mn95  1  -0.00269036  0.83127706  0.75145912  1
  Mn3.30+  Mn96  1  0.33127090  0.16752600  0.25226696  1
  Mn3.30+  Mn97  1  0.33534545  0.17039682  0.75003696  1
  Mn3.30+  Mn98  1  0.32879735  0.50003715  0.24833925  1
  Mn3.30+  Mn99  1  0.33226193  0.49712268  0.75197927  1
  Mn3.30+  Mn100  1  0.33144222  0.83332276  0.25129798  1
  Mn3.30+  Mn101  1  0.33350844  0.83483058  0.74971112  1
  Mn3.30+  Mn102  1  0.67034189  0.16656121  0.25038436  1
  Mn3.30+  Mn103  1  0.66719383  0.16718627  0.75137014  1
  Mn3.30+  Mn104  1  0.66783099  0.49910939  0.25041462  1
  Mn3.30+  Mn105  1  0.66705784  0.49979284  0.75056632  1
  Mn3.30+  Mn106  1  0.66876278  0.83389056  0.25169128  1
  Mn3.30+  Mn107  1  0.66883509  0.83305647  0.75064571  1
  Mn3.30+  Mn108  1  0.16427417  0.00115547  0.25185468  1
  Mn3.30+  Mn109  1  0.16614635  0.00057357  0.75037528  1
  Mn3.30+  Mn110  1  0.16264780  0.33351471  0.24779870  1
  Mn3.30+  Mn111  1  0.16945016  0.33489309  0.75360662  1
  Mn3.30+  Mn112  1  0.16474274  0.66496685  0.24916744  1
  Mn3.30+  Mn113  1  0.16550307  0.66557971  0.75110560  1
  Mn3.30+  Mn114  1  0.50128185  0.00058390  0.25234238  1
  Mn3.30+  Mn115  1  0.49973040  0.00210363  0.75014021  1
  Mn3.30+  Mn116  1  0.49919038  0.33289378  0.24951259  1
  Mn3.30+  Mn117  1  0.49809892  0.33311014  0.75119617  1
  Mn3.30+  Mn118  1  0.49928942  0.66723540  0.24997191  1
  Mn3.30+  Mn119  1  0.49960111  0.66738897  0.75044598  1
  Mn3.30+  Mn120  1  0.83612680  0.00110058  0.25314681  1
  Mn3.30+  Mn121  1  0.83279277  -0.00022876  0.75062052  1
  Mn3.30+  Mn122  1  0.83879110  0.33257177  0.25129196  1
  Mn3.30+  Mn123  1  0.83355955  0.33389711  0.75119669  1
  Mn3.30+  Mn124  1  0.83473283  0.66697981  0.25099246  1
  Mn3.30+  Mn125  1  0.83451417  0.66575795  0.75148132  1
  Mn3.30+  Mn126  1  -0.00061518  0.16811222  -0.00087695  1
  Mn3.30+  Mn127  1  0.00164134  0.16690484  0.49668950  1
  Mn3.30+  Mn128  1  0.00155214  0.49802476  -0.00002671  1
  Mn3.30+  Mn129  1  -0.00007641  0.49954769  0.49890246  1
  Mn3.30+  Mn130  1  -0.00234161  0.83197822  -0.00109786  1
  Mn3.30+  Mn131  1  -0.00176587  0.83245637  0.49751663  1
  Mn3.30+  Mn132  1  0.33538787  0.16906965  -0.00057588  1
  Mn3.30+  Mn133  1  0.33106513  0.16891338  0.49881110  1
  Mn3.30+  Mn134  1  0.32905455  0.49920828  -0.00207408  1
  Mn3.30+  Mn135  1  0.33173606  0.49771913  0.50152977  1
  Mn3.30+  Mn136  1  0.33365641  0.83372326  0.00009141  1
  Mn3.30+  Mn137  1  0.33156132  0.83398245  0.49976587  1
  Mn3.30+  Mn138  1  0.66858029  0.16636589  -0.00151885  1
  Mn3.30+  Mn139  1  0.66893863  0.16709638  0.49933120  1
  Mn3.30+  Mn140  1  0.66789055  0.49999793  -0.00099077  1
  Mn3.30+  Mn141  1  0.66691954  0.49929277  0.50001293  1
  Mn3.30+  Mn142  1  0.66881049  0.83437733  -0.00176054  1
  Mn3.30+  Mn143  1  0.66956107  0.83239834  0.49946613  1
  O2-  O144  1  0.02648131  0.15870802  0.12429194  1
  O2-  O145  1  0.02702301  0.16131758  0.62495299  1
  O2-  O146  1  0.02681835  0.49395363  0.12260440  1
  O2-  O147  1  0.02319060  0.49481720  0.62871015  1
  O2-  O148  1  0.02545534  0.82727401  0.12495820  1
  O2-  O149  1  0.02175993  0.82983245  0.62515071  1
  O2-  O150  1  0.35794812  0.16271668  0.12809673  1
  O2-  O151  1  0.35866587  0.16177267  0.62222200  1
  O2-  O152  1  0.35837968  0.49518778  0.12312957  1
  O2-  O153  1  0.35968357  0.49318027  0.62737721  1
  O2-  O154  1  0.35656994  0.83222018  0.12903400  1
  O2-  O155  1  0.35838860  0.82722855  0.62243435  1
  O2-  O156  1  0.69424414  0.16306050  0.12555157  1
  O2-  O157  1  0.69183988  0.16353603  0.62267524  1
  O2-  O158  1  0.69225171  0.49440519  0.12513061  1
  O2-  O159  1  0.68429352  0.50275521  0.62418678  1
  O2-  O160  1  0.69176046  0.83094168  0.12730063  1
  O2-  O161  1  0.69362104  0.82689416  0.62368562  1
  O2-  O162  1  0.13845335  0.32355038  0.12367840  1
  O2-  O163  1  0.14024698  0.32979617  0.62711195  1
  O2-  O164  1  0.14277157  0.66398560  0.12235151  1
  O2-  O165  1  0.14514623  0.66020170  0.62758309  1
  O2-  O166  1  0.14247218  0.99518605  0.12406297  1
  O2-  O167  1  0.14073489  0.99631805  0.62440313  1
  O2-  O168  1  0.47291048  0.32569475  0.12556600  1
  O2-  O169  1  0.47222495  0.32875532  0.62663003  1
  O2-  O170  1  0.48037922  0.66256961  0.12519669  1
  O2-  O171  1  0.47225695  0.65837838  0.62362056  1
  O2-  O172  1  0.47615346  0.99512084  0.13054977  1
  O2-  O173  1  0.47606119  0.99513181  0.62231572  1
  O2-  O174  1  0.80772854  0.32845805  0.12575285  1
  O2-  O175  1  0.81665161  0.32700575  0.62437337  1
  O2-  O176  1  0.80765161  0.65899757  0.12585471  1
  O2-  O177  1  0.81220359  0.66505284  0.62312513  1
  O2-  O178  1  0.80971227  0.99463510  0.12706873  1
  O2-  O179  1  0.81018665  0.99247859  0.62222129  1
  O2-  O180  1  0.30269655  0.17360423  0.37541836  1
  O2-  O181  1  0.31002845  0.17256435  0.87475194  1
  O2-  O182  1  0.30567745  0.50317594  0.37440228  1
  O2-  O183  1  0.30578036  0.50924058  0.87479364  1
  O2-  O184  1  0.30489373  0.84061500  0.37667889  1
  O2-  O185  1  0.30962099  0.83620791  0.87194834  1
  O2-  O186  1  0.64311972  0.17114184  0.37518659  1
  O2-  O187  1  0.64053713  0.17183167  0.87665545  1
  O2-  O188  1  0.63983815  0.50459481  0.37413318  1
  O2-  O189  1  0.63987187  0.50603172  0.87613481  1
  O2-  O190  1  0.64059571  0.83786037  0.37520928  1
  O2-  O191  1  0.64864812  0.82985530  0.87361600  1
  O2-  O192  1  0.97459434  0.17675638  0.37422024  1
  O2-  O193  1  0.97196675  0.17382272  0.87640544  1
  O2-  O194  1  0.98086346  0.50716806  0.37044071  1
  O2-  O195  1  0.97218785  0.50300678  0.87774539  1
  O2-  O196  1  0.97541332  0.84379409  0.37326377  1
  O2-  O197  1  0.97054175  0.84019488  0.87681457  1
  O2-  O198  1  0.19061298  0.00534991  0.37665588  1
  O2-  O199  1  0.18796126  0.00365264  0.87518605  1
  O2-  O200  1  0.19108142  0.34243443  0.37291242  1
  O2-  O201  1  0.19618122  0.33873464  0.87587221  1
  O2-  O202  1  0.18985452  0.66907271  0.37688162  1
  O2-  O203  1  0.19274891  0.67601455  0.87356380  1
  O2-  O204  1  0.52990583  0.00721618  0.37560582  1
  O2-  O205  1  0.51752633  0.00710868  0.87153123  1
  O2-  O206  1  0.52657995  0.33871877  0.37247474  1
  O2-  O207  1  0.52764688  0.34037295  0.87601902  1
  O2-  O208  1  0.52555385  0.67169303  0.37549223  1
  O2-  O209  1  0.52493492  0.66931714  0.87582483  1
  O2-  O210  1  0.86070858  0.01185803  0.37461673  1
  O2-  O211  1  0.85803554  0.00888844  0.87531502  1
  O2-  O212  1  0.86352314  0.34232417  0.37302533  1
  O2-  O213  1  0.85599765  0.34130015  0.87692501  1
  O2-  O214  1  0.85801085  0.67213674  0.37165433  1
  O2-  O215  1  0.85711285  0.67802814  0.87859078  1
  O2-  O216  1  0.24113486  0.09666273  0.01928911  1
  O2-  O217  1  0.24042953  0.09525493  0.52296100  1
  O2-  O218  1  0.23623302  0.42822628  0.02493363  1
  O2-  O219  1  0.23497447  0.42942314  0.51897291  1
  O2-  O220  1  0.23543991  0.76397605  0.01554632  1
  O2-  O221  1  0.23533300  0.76040359  0.52038146  1
  O2-  O222  1  0.57560867  0.09340712  0.02394050  1
  O2-  O223  1  0.57160353  0.09431341  0.52116128  1
  O2-  O224  1  0.56828181  0.42734415  0.02171506  1
  O2-  O225  1  0.56867677  0.42974857  0.51588479  1
  O2-  O226  1  0.57513785  0.76237105  0.02319208  1
  O2-  O227  1  0.56894046  0.75972066  0.52035783  1
  O2-  O228  1  0.90711872  0.09272270  0.02266587  1
  O2-  O229  1  0.90586839  0.09450066  0.52290925  1
  O2-  O230  1  0.90528364  0.42735068  0.02090208  1
  O2-  O231  1  0.90842545  0.42640227  0.51689895  1
  O2-  O232  1  0.90677182  0.75896736  0.02611010  1
  O2-  O233  1  0.90229608  0.76404392  0.51443557  1
  O2-  O234  1  0.26039021  0.26506345  0.22887165  1
  O2-  O235  1  0.26162853  0.26192973  0.72737024  1
  O2-  O236  1  0.26072402  0.59542128  0.23629257  1
  O2-  O237  1  0.26286000  0.59342507  0.72939170  1
  O2-  O238  1  0.26168676  0.92944726  0.23146486  1
  O2-  O239  1  0.25832702  0.92597742  0.72576922  1
  O2-  O240  1  0.59610069  0.25969962  0.22996791  1
  O2-  O241  1  0.59253664  0.26105977  0.73197322  1
  O2-  O242  1  0.59554496  0.59345598  0.23029187  1
  O2-  O243  1  0.59304651  0.59512988  0.73075714  1
  O2-  O244  1  0.59568148  0.92827779  0.23088087  1
  O2-  O245  1  0.59380879  0.92590559  0.72791027  1
  O2-  O246  1  0.93083372  0.26155826  0.22446274  1
  O2-  O247  1  0.93005561  0.25942908  0.73053095  1
  O2-  O248  1  0.92785482  0.59150537  0.22652957  1
  O2-  O249  1  0.92849467  0.59516442  0.73960799  1
  O2-  O250  1  0.92798353  0.92739314  0.22683728  1
  O2-  O251  1  0.92885119  0.92905459  0.73052184  1
  O2-  O252  1  0.09916163  0.23332204  0.26866803  1
  O2-  O253  1  0.09737509  0.24012623  0.77221129  1
  O2-  O254  1  0.09518973  0.57061011  0.26442255  1
  O2-  O255  1  0.09477968  0.57013119  0.77387972  1
  O2-  O256  1  0.09642947  0.90167455  0.26618011  1
  O2-  O257  1  0.09085808  0.90400204  0.76969475  1
  O2-  O258  1  0.42723629  0.23910913  0.27290590  1
  O2-  O259  1  0.43173593  0.23669681  0.76961659  1
  O2-  O260  1  0.42756941  0.57259093  0.26999608  1
  O2-  O261  1  0.42637585  0.57065513  0.77139461  1
  O2-  O262  1  0.42933880  0.90779676  0.27408455  1
  O2-  O263  1  0.42661651  0.90610032  0.75989335  1
  O2-  O264  1  0.76590539  0.23944400  0.27221162  1
  O2-  O265  1  0.76247163  0.23914171  0.77103885  1
  O2-  O266  1  0.76264766  0.57206579  0.27184331  1
  O2-  O267  1  0.76059056  0.57480339  0.77329373  1
  O2-  O268  1  0.76518575  0.90536214  0.27344035  1
  O2-  O269  1  0.76451056  0.90267236  0.76537761  1
  O2-  O270  1  0.06748280  0.06981805  0.47986749  1
  O2-  O271  1  0.07176394  0.07345634  0.97844991  1
  O2-  O272  1  0.07178665  0.40244963  0.48073015  1
  O2-  O273  1  0.07180969  0.40419730  0.97685747  1
  O2-  O274  1  0.06906631  0.73893964  0.47645038  1
  O2-  O275  1  0.07094324  0.73846908  0.97869687  1
  O2-  O276  1  0.40414390  0.07457782  0.47740620  1
  O2-  O277  1  0.40629094  0.07493159  0.99008716  1
  O2-  O278  1  0.40510557  0.40662302  0.47608947  1
  O2-  O279  1  0.40139103  0.40478840  0.97891747  1
  O2-  O280  1  0.40402745  0.73810502  0.47835608  1
  O2-  O281  1  0.40499521  0.73955053  0.98171760  1
  O2-  O282  1  0.73821173  0.06861497  0.48380731  1
  O2-  O283  1  0.73933414  0.07104599  0.98631141  1
  O2-  O284  1  0.74290911  0.40595547  0.47708953  1
  O2-  O285  1  0.73414527  0.40287142  0.98385622  1
  O2-  O286  1  0.73593240  0.73633856  0.48115834  1
  O2-  O287  1  0.73607847  0.73524930  0.98719817  1
  O2-  O288  1  0.10017232  0.23494371  0.48264966  1
  O2-  O289  1  0.09635513  0.23917153  0.97652649  1
  O2-  O290  1  0.09649685  0.56848095  0.48525634  1
  O2-  O291  1  0.09311887  0.57303586  0.97591401  1
  O2-  O292  1  0.09572736  0.90157360  0.48365110  1
  O2-  O293  1  0.09115809  0.90405877  0.97979952  1
  O2-  O294  1  0.42639471  0.23904327  0.47670516  1
  O2-  O295  1  0.43199561  0.23671513  0.98146897  1
  O2-  O296  1  0.42664765  0.57208132  0.47761010  1
  O2-  O297  1  0.42679216  0.57123079  0.98097328  1
  O2-  O298  1  0.42911825  0.90719366  0.47834148  1
  O2-  O299  1  0.42733218  0.90664610  0.98941486  1
  O2-  O300  1  0.76442644  0.23951077  0.47742162  1
  O2-  O301  1  0.76298430  0.23756482  0.97879048  1
  O2-  O302  1  0.75828014  0.57462070  0.47604207  1
  O2-  O303  1  0.76417077  0.57166360  0.97819728  1
  O2-  O304  1  0.76617517  0.90563578  0.47601777  1
  O2-  O305  1  0.76543110  0.90146661  0.98377176  1
  O2-  O306  1  0.06870186  0.06886864  0.26854635  1
  O2-  O307  1  0.07097515  0.07375127  0.77199055  1
  O2-  O308  1  0.07036756  0.40312261  0.27216347  1
  O2-  O309  1  0.07242711  0.40366001  0.77048617  1
  O2-  O310  1  0.06861361  0.73604872  0.27065252  1
  O2-  O311  1  0.07170071  0.74118803  0.77482898  1
  O2-  O312  1  0.40734354  0.07247244  0.27392319  1
  O2-  O313  1  0.40544857  0.07485807  0.76037137  1
  O2-  O314  1  0.40245482  0.40622879  0.26932121  1
  O2-  O315  1  0.40449689  0.40493542  0.77636099  1
  O2-  O316  1  0.40474879  0.74139193  0.27515322  1
  O2-  O317  1  0.40316403  0.73669657  0.76492307  1
  O2-  O318  1  0.73740625  0.06925834  0.26697352  1
  O2-  O319  1  0.74039257  0.07153483  0.76194087  1
  O2-  O320  1  0.73923278  0.40456062  0.27064214  1
  O2-  O321  1  0.73759542  0.40622392  0.76906106  1
  O2-  O322  1  0.73529030  0.73674850  0.26660950  1
  O2-  O323  1  0.73708483  0.73493009  0.76471822  1
  O2-  O324  1  0.24068766  0.09327911  0.22810769  1
  O2-  O325  1  0.24067806  0.09770888  0.73051017  1
  O2-  O326  1  0.23422260  0.42831097  0.22596534  1
  O2-  O327  1  0.23807824  0.42834185  0.72925446  1
  O2-  O328  1  0.23226689  0.76250925  0.23524653  1
  O2-  O329  1  0.23877219  0.76234477  0.72854921  1
  O2-  O330  1  0.57169024  0.09432238  0.22932579  1
  O2-  O331  1  0.57460297  0.09287559  0.72611537  1
  O2-  O332  1  0.57051998  0.42704379  0.22758339  1
  O2-  O333  1  0.56654468  0.42971237  0.73446907  1
  O2-  O334  1  0.57056709  0.76207856  0.23123112  1
  O2-  O335  1  0.57449732  0.75961313  0.72497101  1
  O2-  O336  1  0.90673858  0.09565733  0.22740955  1
  O2-  O337  1  0.90643594  0.09200931  0.72685523  1
  O2-  O338  1  0.90349842  0.43074984  0.23037640  1
  O2-  O339  1  0.90974488  0.42290172  0.73333105  1
  O2-  O340  1  0.90557926  0.76047525  0.22703619  1
  O2-  O341  1  0.90336532  0.76256831  0.73262314  1
  O2-  O342  1  0.26031376  0.26097900  0.02198364  1
  O2-  O343  1  0.26295013  0.26545070  0.52152640  1
  O2-  O344  1  0.26057897  0.59517191  0.01435624  1
  O2-  O345  1  0.26292080  0.59347093  0.52032759  1
  O2-  O346  1  0.25877715  0.92628653  0.02199825  1
  O2-  O347  1  0.26103762  0.92916593  0.52128357  1
  O2-  O348  1  0.59689516  0.26100472  0.02199956  1
  O2-  O349  1  0.59075652  0.25934257  0.51625089  1
  O2-  O350  1  0.59566620  0.59398950  0.02053583  1
  O2-  O351  1  0.59156873  0.59593830  0.51886514  1
  O2-  O352  1  0.59435927  0.92677707  0.02055266  1
  O2-  O353  1  0.59805160  0.92612345  0.52052820  1
  O2-  O354  1  0.93048587  0.26176134  0.02241773  1
  O2-  O355  1  0.93022187  0.25886673  0.52194159  1
  O2-  O356  1  0.92951895  0.59437153  0.02123781  1
  O2-  O357  1  0.92442796  0.59226527  0.50946990  1
  O2-  O358  1  0.92839053  0.92875575  0.02152600  1
  O2-  O359  1  0.92873038  0.92793371  0.52125462  1
