# generated using pymatgen
data_Sr7Ca15Pr50Mn72O216
_symmetry_space_group_name_H-M   'P 1'
_cell_length_a   16.55886075
_cell_length_b   16.60292558
_cell_length_c   15.59314588
_cell_angle_alpha   89.99542174
_cell_angle_beta   89.99415622
_cell_angle_gamma   89.99860705
_symmetry_Int_Tables_number   1
_chemical_formula_structural   Sr7Ca15Pr50Mn72O216
_chemical_formula_sum   'Sr7 Ca15 Pr50 Mn72 O216'
_cell_volume   4286.95389948
_cell_formula_units_Z   1
loop_
 _symmetry_equiv_pos_site_id
 _symmetry_equiv_pos_as_xyz
  1  'x, y, z'
loop_
 _atom_type_symbol
 _atom_type_oxidation_number
  Sr2+  2.0
  Ca2+  2.0
  Pr3+  3.0
  Mn3.30+  3.3
  O2-  -2.0
loop_
 _atom_site_type_symbol
 _atom_site_label
 _atom_site_symmetry_multiplicity
 _atom_site_fract_x
 _atom_site_fract_y
 _atom_site_fract_z
 _atom_site_occupancy
  Sr2+  Sr0  1  0.16737529  0.17297156  0.12514584  1
  Sr2+  Sr1  1  0.33225793  0.34258113  0.62581687  1
  Sr2+  Sr2  1  0.83207899  0.15399763  0.37603904  1
  Sr2+  Sr3  1  0.83306860  0.84157620  0.12480683  1
  Sr2+  Sr4  1  0.17291598  0.51008871  0.62622902  1
  Sr2+  Sr5  1  -0.00177410  0.00641683  0.12479819  1
  Sr2+  Sr6  1  0.49908946  0.17536511  0.62557270  1
  Ca2+  Ca7  1  0.66367455  0.01452749  0.62459430  1
  Ca2+  Ca8  1  0.66279712  0.68410156  0.12171988  1
  Ca2+  Ca9  1  -0.00122789  0.01143778  0.62474746  1
  Ca2+  Ca10  1  0.16528868  0.81844395  0.37811553  1
  Ca2+  Ca11  1  0.66712859  0.65553261  0.87696716  1
  Ca2+  Ca12  1  0.17110682  0.51571375  0.12394582  1
  Ca2+  Ca13  1  0.83860671  0.85043358  0.62528906  1
  Ca2+  Ca14  1  0.33303849  0.65567681  0.37923905  1
  Ca2+  Ca15  1  0.16500495  0.48694213  0.87510989  1
  Ca2+  Ca16  1  0.32769770  0.01358253  0.12429894  1
  Ca2+  Ca17  1  0.32779238  0.68125674  0.62349669  1
  Ca2+  Ca18  1  0.32987134  0.01321404  0.62551489  1
  Ca2+  Ca19  1  0.49687741  0.48717374  0.87503431  1
  Ca2+  Ca20  1  0.49665351  0.81794762  0.87282812  1
  Ca2+  Ca21  1  0.17327432  0.84796096  0.62415515  1
  Pr3+  Pr22  1  0.83004618  0.48917551  0.87475185  1
  Pr3+  Pr23  1  0.16316557  0.15256403  0.37611908  1
  Pr3+  Pr24  1  0.16515883  0.82038449  0.87268804  1
  Pr3+  Pr25  1  0.83068570  0.82071426  0.87442552  1
  Pr3+  Pr26  1  -0.00141934  0.34621535  0.62425887  1
  Pr3+  Pr27  1  0.33483537  0.98621680  0.37709053  1
  Pr3+  Pr28  1  0.66893956  0.31889677  0.37490663  1
  Pr3+  Pr29  1  0.33849640  0.98435647  0.87261261  1
  Pr3+  Pr30  1  1.00458729  0.32091447  0.87412851  1
  Pr3+  Pr31  1  0.66481749  0.67895848  0.62702097  1
  Pr3+  Pr32  1  0.00053702  0.67980197  0.12456868  1
  Pr3+  Pr33  1  -0.00117905  0.34453765  0.12525300  1
  Pr3+  Pr34  1  0.50354609  0.84399251  0.12424195  1
  Pr3+  Pr35  1  0.83376857  0.17583673  0.62421818  1
  Pr3+  Pr36  1  0.33145925  0.67901670  0.12551876  1
  Pr3+  Pr37  1  -0.00075732  0.68062520  0.62562586  1
  Pr3+  Pr38  1  1.00479336  0.98386414  0.37665007  1
  Pr3+  Pr39  1  0.66674621  0.32132838  0.87521840  1
  Pr3+  Pr40  1  0.33811110  0.65285834  0.87259093  1
  Pr3+  Pr41  1  0.66015186  0.34451824  0.62533075  1
  Pr3+  Pr42  1  0.49580280  0.81751473  0.37755732  1
  Pr3+  Pr43  1  0.17211520  0.84775486  0.12548655  1
  Pr3+  Pr44  1  0.50074925  0.84669057  0.62670959  1
  Pr3+  Pr45  1  0.16503013  0.15311825  0.87376098  1
  Pr3+  Pr46  1  0.16754749  0.48956249  0.37381694  1
  Pr3+  Pr47  1  0.66987829  0.98806946  0.37903294  1
  Pr3+  Pr48  1  0.66616643  0.00909819  0.12502813  1
  Pr3+  Pr49  1  0.83735240  0.51320313  0.62580094  1
  Pr3+  Pr50  1  0.83051463  0.15205974  0.87409368  1
  Pr3+  Pr51  1  0.83949894  0.17612849  0.12540867  1
  Pr3+  Pr52  1  0.66980903  0.65626840  0.37374398  1
  Pr3+  Pr53  1  0.49824774  0.51086549  0.62816126  1
  Pr3+  Pr54  1  0.49625637  0.15277602  0.37708649  1
  Pr3+  Pr55  1  1.00579517  0.65209001  0.87552604  1
  Pr3+  Pr56  1  0.83314170  0.82512233  0.37566682  1
  Pr3+  Pr57  1  0.49494028  0.48961332  0.37472054  1
  Pr3+  Pr58  1  0.17087842  0.17843521  0.62515897  1
  Pr3+  Pr59  1  1.00225520  0.31861414  0.37559592  1
  Pr3+  Pr60  1  1.00456213  0.65743605  0.37459378  1
  Pr3+  Pr61  1  1.00265078  0.98609587  0.87323324  1
  Pr3+  Pr62  1  0.33279259  0.32401747  0.87325484  1
  Pr3+  Pr63  1  0.83528143  0.51517959  0.12378427  1
  Pr3+  Pr64  1  0.66317277  0.34583181  0.12460689  1
  Pr3+  Pr65  1  0.66677782  0.98709243  0.87088741  1
  Pr3+  Pr66  1  0.49945029  0.17737920  0.12477294  1
  Pr3+  Pr67  1  0.83026284  0.48792350  0.37503598  1
  Pr3+  Pr68  1  0.32564919  0.34905103  0.12419920  1
  Pr3+  Pr69  1  0.33442300  0.32088978  0.37606546  1
  Pr3+  Pr70  1  0.50401879  0.51776207  0.12166773  1
  Pr3+  Pr71  1  0.49521663  0.15445914  0.87286880  1
  Mn3.30+  Mn72  1  0.16939108  -0.00018048  -0.00049847  1
  Mn3.30+  Mn73  1  0.16740769  -0.00387704  0.50294161  1
  Mn3.30+  Mn74  1  0.16611944  0.33496340  0.00119193  1
  Mn3.30+  Mn75  1  0.16740452  0.33437048  0.49956565  1
  Mn3.30+  Mn76  1  0.16883134  0.66483145  -0.00052413  1
  Mn3.30+  Mn77  1  0.16946162  0.66830493  0.50075546  1
  Mn3.30+  Mn78  1  0.49775068  -0.00192334  0.00036708  1
  Mn3.30+  Mn79  1  0.50027388  -0.00074412  0.50274355  1
  Mn3.30+  Mn80  1  0.49751950  0.33476033  -0.00010228  1
  Mn3.30+  Mn81  1  0.49899507  0.33371137  0.50054739  1
  Mn3.30+  Mn82  1  0.50208464  0.66791832  -0.00438861  1
  Mn3.30+  Mn83  1  0.49697496  0.66625941  0.50325129  1
  Mn3.30+  Mn84  1  0.83324497  -0.00205930  -0.00110846  1
  Mn3.30+  Mn85  1  0.83509784  -0.00100453  0.50342839  1
  Mn3.30+  Mn86  1  0.83331308  0.33357288  -0.00053090  1
  Mn3.30+  Mn87  1  0.83154550  0.33275786  0.50074720  1
  Mn3.30+  Mn88  1  0.83186782  0.66749722  -0.00029630  1
  Mn3.30+  Mn89  1  0.83432525  0.66988109  0.50116490  1
  Mn3.30+  Mn90  1  0.00038385  0.16367957  0.25038064  1
  Mn3.30+  Mn91  1  -0.00001147  0.16483057  0.74830920  1
  Mn3.30+  Mn92  1  0.00163647  0.50049335  0.24866209  1
  Mn3.30+  Mn93  1  0.00277760  0.50068240  0.75009381  1
  Mn3.30+  Mn94  1  0.00244934  0.83291022  0.25082937  1
  Mn3.30+  Mn95  1  0.00082079  0.83414815  0.74637853  1
  Mn3.30+  Mn96  1  0.33197782  0.16515422  0.24973909  1
  Mn3.30+  Mn97  1  0.33204919  0.16556822  0.74868828  1
  Mn3.30+  Mn98  1  0.33267840  0.50296681  0.24917277  1
  Mn3.30+  Mn99  1  0.33290818  0.50078516  0.75120897  1
  Mn3.30+  Mn100  1  0.33302095  0.83217749  0.25262081  1
  Mn3.30+  Mn101  1  0.33307134  0.83202691  0.74717608  1
  Mn3.30+  Mn102  1  0.66702978  0.16520159  0.24897896  1
  Mn3.30+  Mn103  1  0.66491469  0.16544257  0.74955534  1
  Mn3.30+  Mn104  1  0.66565297  0.50274495  0.24809942  1
  Mn3.30+  Mn105  1  0.66549855  0.50182516  0.75281361  1
  Mn3.30+  Mn106  1  0.66569512  0.83338732  0.25018737  1
  Mn3.30+  Mn107  1  0.66689841  0.83294727  0.74910909  1
  Mn3.30+  Mn108  1  0.16928875  -0.00189432  0.25063042  1
  Mn3.30+  Mn109  1  0.16778283  -0.00251038  0.74661989  1
  Mn3.30+  Mn110  1  0.16627541  0.33349847  0.24824974  1
  Mn3.30+  Mn111  1  0.16713510  0.33548161  0.75074654  1
  Mn3.30+  Mn112  1  0.16915588  0.66732051  0.25158209  1
  Mn3.30+  Mn113  1  0.16961528  0.66611566  0.74787093  1
  Mn3.30+  Mn114  1  0.49814011  -0.00146022  0.24961829  1
  Mn3.30+  Mn115  1  0.50044135  -0.00122457  0.74800427  1
  Mn3.30+  Mn116  1  0.49803454  0.33394821  0.24874357  1
  Mn3.30+  Mn117  1  0.49903800  0.33497537  0.75089275  1
  Mn3.30+  Mn118  1  0.50001999  0.66721258  0.25063747  1
  Mn3.30+  Mn119  1  0.49938403  0.66684412  0.75065175  1
  Mn3.30+  Mn120  1  0.83439898  -0.00121322  0.25135512  1
  Mn3.30+  Mn121  1  0.83398063  -0.00173686  0.74629898  1
  Mn3.30+  Mn122  1  0.83225402  0.33330911  0.24935373  1
  Mn3.30+  Mn123  1  0.83263372  0.33310509  0.74990843  1
  Mn3.30+  Mn124  1  0.83364108  0.66851381  0.24855947  1
  Mn3.30+  Mn125  1  0.83260540  0.66852383  0.75100162  1
  Mn3.30+  Mn126  1  0.00064061  0.16530462  0.00005176  1
  Mn3.30+  Mn127  1  0.00001874  0.16342479  0.50165907  1
  Mn3.30+  Mn128  1  0.00318265  0.49942404  0.00136716  1
  Mn3.30+  Mn129  1  0.00136774  0.50175429  0.49949152  1
  Mn3.30+  Mn130  1  0.00019772  0.83277597  -0.00099384  1
  Mn3.30+  Mn131  1  0.00314025  0.83405568  0.50405612  1
  Mn3.30+  Mn132  1  0.33216082  0.16587673  0.00007577  1
  Mn3.30+  Mn133  1  0.33175387  0.16489671  0.50119682  1
  Mn3.30+  Mn134  1  0.33238410  0.50103978  -0.00161794  1
  Mn3.30+  Mn135  1  0.33244955  0.50275956  0.50106018  1
  Mn3.30+  Mn136  1  0.33594497  0.83321916  -0.00067193  1
  Mn3.30+  Mn137  1  0.33013467  0.83174736  0.50127568  1
  Mn3.30+  Mn138  1  0.66617368  0.16538781  0.00043406  1
  Mn3.30+  Mn139  1  0.66556980  0.16496608  0.50078133  1
  Mn3.30+  Mn140  1  0.66521066  0.50332453  -0.00198469  1
  Mn3.30+  Mn141  1  0.66596915  0.50124928  0.50064836  1
  Mn3.30+  Mn142  1  0.66419874  0.83182517  -0.00356363  1
  Mn3.30+  Mn143  1  0.66804357  0.83434615  0.50468182  1
  O2-  O144  1  0.01693476  0.16436779  0.12396745  1
  O2-  O145  1  0.02704945  0.15999478  0.62548416  1
  O2-  O146  1  0.02909952  0.49260172  0.12555005  1
  O2-  O147  1  0.02035860  0.49504244  0.62393849  1
  O2-  O148  1  0.02647849  0.82862889  0.12381131  1
  O2-  O149  1  0.03162838  0.82535611  0.62581873  1
  O2-  O150  1  0.35630257  0.16035418  0.12486469  1
  O2-  O151  1  0.34933316  0.16129805  0.62444212  1
  O2-  O152  1  0.35949107  0.49663311  0.12340630  1
  O2-  O153  1  0.35534628  0.49524742  0.62618756  1
  O2-  O154  1  0.36071048  0.82459806  0.12669237  1
  O2-  O155  1  0.35891866  0.82402971  0.62428189  1
  O2-  O156  1  0.69456655  0.15876915  0.12282828  1
  O2-  O157  1  0.68919216  0.16475168  0.62526294  1
  O2-  O158  1  0.69228938  0.49198671  0.12362809  1
  O2-  O159  1  0.69366202  0.49245396  0.62623451  1
  O2-  O160  1  0.68292640  0.83078103  0.12237367  1
  O2-  O161  1  0.69729068  0.82295724  0.62671230  1
  O2-  O162  1  0.14180191  0.32693227  0.12558670  1
  O2-  O163  1  0.14273499  0.32836851  0.62530625  1
  O2-  O164  1  0.14409996  0.66120301  0.12416869  1
  O2-  O165  1  0.14152219  0.65992359  0.62562926  1
  O2-  O166  1  0.14844248  0.99478011  0.12528844  1
  O2-  O167  1  0.13974263  0.99295726  0.62521489  1
  O2-  O168  1  0.47127727  0.32599631  0.12492875  1
  O2-  O169  1  0.48292093  0.33493987  0.62574135  1
  O2-  O170  1  0.47540244  0.66549416  0.12260601  1
  O2-  O171  1  0.47149027  0.65883194  0.62610256  1
  O2-  O172  1  0.47033317  0.99138748  0.12436972  1
  O2-  O173  1  0.47211827  0.99443027  0.62513710  1
  O2-  O174  1  0.80721392  0.32595518  0.12435506  1
  O2-  O175  1  0.80505397  0.32732821  0.62647141  1
  O2-  O176  1  0.80613140  0.66216817  0.12372789  1
  O2-  O177  1  0.80879975  0.65861929  0.62574644  1
  O2-  O178  1  0.81037848  0.99814672  0.12320669  1
  O2-  O179  1  0.80623667  0.99627482  0.62603337  1
  O2-  O180  1  0.30851444  0.17192635  0.37592362  1
  O2-  O181  1  0.31000628  0.17314685  0.87435707  1
  O2-  O182  1  0.31210261  0.50814756  0.37400811  1
  O2-  O183  1  0.30628555  0.50611829  0.87610842  1
  O2-  O184  1  0.30598543  0.84135352  0.37707682  1
  O2-  O185  1  0.30823866  0.83807047  0.87229111  1
  O2-  O186  1  0.64082707  0.17066417  0.37419514  1
  O2-  O187  1  0.64032452  0.17176062  0.87766219  1
  O2-  O188  1  0.64004185  0.50840394  0.37352170  1
  O2-  O189  1  0.63956078  0.50802549  0.87597172  1
  O2-  O190  1  0.64069472  0.83979430  0.38019223  1
  O2-  O191  1  0.63721487  0.84273524  0.87129987  1
  O2-  O192  1  0.98100314  0.17043670  0.37741220  1
  O2-  O193  1  0.97396678  0.17332516  0.87269884  1
  O2-  O194  1  0.97325290  0.50749521  0.37371318  1
  O2-  O195  1  0.97395140  0.50306299  0.87645026  1
  O2-  O196  1  0.97742872  0.83427843  0.37944378  1
  O2-  O197  1  0.97683267  0.83682093  0.87110207  1
  O2-  O198  1  0.19154963  0.00515320  0.37693047  1
  O2-  O199  1  0.19308022  0.00276488  0.87256009  1
  O2-  O200  1  0.18964117  0.33904089  0.37227159  1
  O2-  O201  1  0.18718498  0.33913279  0.87673339  1
  O2-  O202  1  0.19208712  0.67422087  0.37526544  1
  O2-  O203  1  0.19314785  0.67481505  0.87416510  1
  O2-  O204  1  0.52558999  0.00359841  0.37693024  1
  O2-  O205  1  0.52352245  0.00710694  0.87445635  1
  O2-  O206  1  0.52511516  0.34054010  0.37249806  1
  O2-  O207  1  0.52351196  0.33805409  0.87706680  1
  O2-  O208  1  0.52656561  0.66860414  0.37884372  1
  O2-  O209  1  0.52684376  0.67531558  0.87296211  1
  O2-  O210  1  0.85815969  -0.00281172  0.37943131  1
  O2-  O211  1  0.85769440  0.00395748  0.87153004  1
  O2-  O212  1  0.85737819  0.33998212  0.37436101  1
  O2-  O213  1  0.86016013  0.34001745  0.87438282  1
  O2-  O214  1  0.85890707  0.67407511  0.37615366  1
  O2-  O215  1  0.86103645  0.67096792  0.87462563  1
  O2-  O216  1  0.23921320  0.09478653  0.01185017  1
  O2-  O217  1  0.23415872  0.09438405  0.51696311  1
  O2-  O218  1  0.23644325  0.42944321  0.02309282  1
  O2-  O219  1  0.24023945  0.42979567  0.50934079  1
  O2-  O220  1  0.24039668  0.76342754  0.02003473  1
  O2-  O221  1  0.23549522  0.76450481  0.52131077  1
  O2-  O222  1  0.57044095  0.09244022  0.02281825  1
  O2-  O223  1  0.57220188  0.09456890  0.51511970  1
  O2-  O224  1  0.57217888  0.42633041  0.02230512  1
  O2-  O225  1  0.57309086  0.43050927  0.51949894  1
  O2-  O226  1  0.57009010  0.76231250  0.01803131  1
  O2-  O227  1  0.57104220  0.76018751  0.52308754  1
  O2-  O228  1  0.90262311  0.09740190  0.01266577  1
  O2-  O229  1  0.90548895  0.09350867  0.52238724  1
  O2-  O230  1  0.90527504  0.42814046  0.02270714  1
  O2-  O231  1  0.90383230  0.42683983  0.51948760  1
  O2-  O232  1  0.90887580  0.75690773  0.01736549  1
  O2-  O233  1  0.90650020  0.76486369  0.52358355  1
  O2-  O234  1  0.26293075  0.26547057  0.23409698  1
  O2-  O235  1  0.25584286  0.25862204  0.73475950  1
  O2-  O236  1  0.26251795  0.59574030  0.23088473  1
  O2-  O237  1  0.26673057  0.60064314  0.73289299  1
  O2-  O238  1  0.26466154  0.92801484  0.22887461  1
  O2-  O239  1  0.26635475  0.93057538  0.73058681  1
  O2-  O240  1  0.59380150  0.26031764  0.22795815  1
  O2-  O241  1  0.59600274  0.26372317  0.73642450  1
  O2-  O242  1  0.59762037  0.59833216  0.22704436  1
  O2-  O243  1  0.59340378  0.59301623  0.72563183  1
  O2-  O244  1  0.59288628  0.92834080  0.23053734  1
  O2-  O245  1  0.59708884  0.92844926  0.72561634  1
  O2-  O246  1  0.92582340  0.26191218  0.23182997  1
  O2-  O247  1  0.92833617  0.25966276  0.72628257  1
  O2-  O248  1  0.92863310  0.59327038  0.22648729  1
  O2-  O249  1  0.92911110  0.59458880  0.73142160  1
  O2-  O250  1  0.92842074  0.92555193  0.23972712  1
  O2-  O251  1  0.93191370  0.93065917  0.72992118  1
  O2-  O252  1  0.09257386  0.24001248  0.27161442  1
  O2-  O253  1  0.09282742  0.23897703  0.76947937  1
  O2-  O254  1  0.09566702  0.57528351  0.27250060  1
  O2-  O255  1  0.09607926  0.57266710  0.77397494  1
  O2-  O256  1  0.09769084  0.90332515  0.27096404  1
  O2-  O257  1  0.09490489  0.90607989  0.77293394  1
  O2-  O258  1  0.42784000  0.23813246  0.27103660  1
  O2-  O259  1  0.42562442  0.24244464  0.77049813  1
  O2-  O260  1  0.43440272  0.57032636  0.26361852  1
  O2-  O261  1  0.43076843  0.57070062  0.77296822  1
  O2-  O262  1  0.42744823  0.90225529  0.27403196  1
  O2-  O263  1  0.43059474  0.90336326  0.76925635  1
  O2-  O264  1  0.75815030  0.24159851  0.26776170  1
  O2-  O265  1  0.76107697  0.23976592  0.77193048  1
  O2-  O266  1  0.76351520  0.57349207  0.27110869  1
  O2-  O267  1  0.76231780  0.56984493  0.76793946  1
  O2-  O268  1  0.75800426  0.90735837  0.27167650  1
  O2-  O269  1  0.76131191  0.90517617  0.77223388  1
  O2-  O270  1  0.07356056  0.07100177  0.47948957  1
  O2-  O271  1  0.07251728  0.07388805  0.97598569  1
  O2-  O272  1  0.07077462  0.40562814  0.47907948  1
  O2-  O273  1  0.06742575  0.40160701  0.98323632  1
  O2-  O274  1  0.06898926  0.73501294  0.48404727  1
  O2-  O275  1  0.07404802  0.73795250  0.98005584  1
  O2-  O276  1  0.40531355  0.07391864  0.47818804  1
  O2-  O277  1  0.40795107  0.07171380  0.97718130  1
  O2-  O278  1  0.40745178  0.40713632  0.47746721  1
  O2-  O279  1  0.39976448  0.40526553  0.98181455  1
  O2-  O280  1  0.40478369  0.73952995  0.47724422  1
  O2-  O281  1  0.40369025  0.73643494  0.98031862  1
  O2-  O282  1  0.73771680  0.07228058  0.48359452  1
  O2-  O283  1  0.73727663  0.07151718  0.97769729  1
  O2-  O284  1  0.73625677  0.40757604  0.47778580  1
  O2-  O285  1  0.73753088  0.40693771  0.97841396  1
  O2-  O286  1  0.73819418  0.73940166  0.47903440  1
  O2-  O287  1  0.73755923  0.74224886  0.97495564  1
  O2-  O288  1  0.09229131  0.23903184  0.48192652  1
  O2-  O289  1  0.09264746  0.23911659  0.97713924  1
  O2-  O290  1  0.09577553  0.57492751  0.47532841  1
  O2-  O291  1  0.09478754  0.57055811  0.97696694  1
  O2-  O292  1  0.09684203  0.90377598  0.47634506  1
  O2-  O293  1  0.09613007  0.90575260  0.97969810  1
  O2-  O294  1  0.42536726  0.24071588  0.47842142  1
  O2-  O295  1  0.42756580  0.23813749  0.98033591  1
  O2-  O296  1  0.43168311  0.56881372  0.48413778  1
  O2-  O297  1  0.43233170  0.57185922  0.97877542  1
  O2-  O298  1  0.42855139  0.90370158  0.48078577  1
  O2-  O299  1  0.42962639  0.90227446  0.97622986  1
  O2-  O300  1  0.75734163  0.24105002  0.48192435  1
  O2-  O301  1  0.76109729  0.23987722  0.97783073  1
  O2-  O302  1  0.76056673  0.57189352  0.47950890  1
  O2-  O303  1  0.76487867  0.57066052  0.98121797  1
  O2-  O304  1  0.76251638  0.90596436  0.48042707  1
  O2-  O305  1  0.75613410  0.90649978  0.97580573  1
  O2-  O306  1  0.07538910  0.07046246  0.27183104  1
  O2-  O307  1  0.07252908  0.07327406  0.77248911  1
  O2-  O308  1  0.07013207  0.40461822  0.27211069  1
  O2-  O309  1  0.06871235  0.40298270  0.76580306  1
  O2-  O310  1  0.07285219  0.73653570  0.26587766  1
  O2-  O311  1  0.07104736  0.73647098  0.77002837  1
  O2-  O312  1  0.40883512  0.07205809  0.27359570  1
  O2-  O313  1  0.40630764  0.07335040  0.77097437  1
  O2-  O314  1  0.40216123  0.40616462  0.26995965  1
  O2-  O315  1  0.40684977  0.40765382  0.77134227  1
  O2-  O316  1  0.40367765  0.73649015  0.27410717  1
  O2-  O317  1  0.40525789  0.73853617  0.76947220  1
  O2-  O318  1  0.73582242  0.06904678  0.26787547  1
  O2-  O319  1  0.73988503  0.07380724  0.77086480  1
  O2-  O320  1  0.73785012  0.40658911  0.27014915  1
  O2-  O321  1  0.73691730  0.40696927  0.77352433  1
  O2-  O322  1  0.74010807  0.74288318  0.27241195  1
  O2-  O323  1  0.73733488  0.73774561  0.77465207  1
  O2-  O324  1  0.24006403  0.09380878  0.23809985  1
  O2-  O325  1  0.23400878  0.09395267  0.73264305  1
  O2-  O326  1  0.23561741  0.43020359  0.22962836  1
  O2-  O327  1  0.24028888  0.42607718  0.73863424  1
  O2-  O328  1  0.24014557  0.76116230  0.22679049  1
  O2-  O329  1  0.23436521  0.76591287  0.73181117  1
  O2-  O330  1  0.57178796  0.09393351  0.22746358  1
  O2-  O331  1  0.57187089  0.09324932  0.73559968  1
  O2-  O332  1  0.57012460  0.42851016  0.22670412  1
  O2-  O333  1  0.57451807  0.42746296  0.73094604  1
  O2-  O334  1  0.56839413  0.76343580  0.23675152  1
  O2-  O335  1  0.57311404  0.75974727  0.72431474  1
  O2-  O336  1  0.90387741  0.09412837  0.23397583  1
  O2-  O337  1  0.90270300  0.09669209  0.73192564  1
  O2-  O338  1  0.90343401  0.42687628  0.22833826  1
  O2-  O339  1  0.90409290  0.42689917  0.72893462  1
  O2-  O340  1  0.90944267  0.75751038  0.23201202  1
  O2-  O341  1  0.90542976  0.76417872  0.72778809  1
  O2-  O342  1  0.26213295  0.26594323  0.01548592  1
  O2-  O343  1  0.25772308  0.25844968  0.51550867  1
  O2-  O344  1  0.26599423  0.59756739  0.01783828  1
  O2-  O345  1  0.26441759  0.59882849  0.51673168  1
  O2-  O346  1  0.26574392  0.92697667  0.01936151  1
  O2-  O347  1  0.26601273  0.93161605  0.52074647  1
  O2-  O348  1  0.59466110  0.25929843  0.02210678  1
  O2-  O349  1  0.59509577  0.26418430  0.51414897  1
  O2-  O350  1  0.59617642  0.59644709  0.02337006  1
  O2-  O351  1  0.59647392  0.59443571  0.52269595  1
  O2-  O352  1  0.59289210  0.92906863  0.02000239  1
  O2-  O353  1  0.59712454  0.92642764  0.52514795  1
  O2-  O354  1  0.92801394  0.26110609  0.01953780  1
  O2-  O355  1  0.92716474  0.25903332  0.52146553  1
  O2-  O356  1  0.93135116  0.59162073  0.02188187  1
  O2-  O357  1  0.92780659  0.59555834  0.51983877  1
  O2-  O358  1  0.92692613  0.92578680  0.00995465  1
  O2-  O359  1  0.93449652  0.92885079  0.52055225  1
