# generated using pymatgen
data_Sr7Ca15Pr50Mn72O216
_symmetry_space_group_name_H-M   'P 1'
_cell_length_a   16.55764657
_cell_length_b   16.60401469
_cell_length_c   15.59460781
_cell_angle_alpha   90.00511722
_cell_angle_beta   90.00413011
_cell_angle_gamma   90.00718943
_symmetry_Int_Tables_number   1
_chemical_formula_structural   Sr7Ca15Pr50Mn72O216
_chemical_formula_sum   'Sr7 Ca15 Pr50 Mn72 O216'
_cell_volume   4287.32264754
_cell_formula_units_Z   1
loop_
 _symmetry_equiv_pos_site_id
 _symmetry_equiv_pos_as_xyz
  1  'x, y, z'
loop_
 _atom_type_symbol
 _atom_type_oxidation_number
  Sr2+  2.0
  Ca2+  2.0
  Pr3+  3.0
  Mn3.30+  3.3
  O2-  -2.0
loop_
 _atom_site_type_symbol
 _atom_site_label
 _atom_site_symmetry_multiplicity
 _atom_site_fract_x
 _atom_site_fract_y
 _atom_site_fract_z
 _atom_site_occupancy
  Sr2+  Sr0  1  0.33531494  0.32112110  0.87558056  1
  Sr2+  Sr1  1  0.66809348  0.99229344  0.87404986  1
  Sr2+  Sr2  1  0.66381494  0.34665590  0.62509590  1
  Sr2+  Sr3  1  0.82988969  0.15488484  0.87388078  1
  Sr2+  Sr4  1  0.66539135  0.00949933  0.12535780  1
  Sr2+  Sr5  1  0.83041303  0.84125170  0.12743331  1
  Sr2+  Sr6  1  0.83368096  0.50786652  0.62274061  1
  Ca2+  Ca7  1  0.33860041  0.65199153  0.87525013  1
  Ca2+  Ca8  1  0.66426581  0.01520309  0.62465806  1
  Ca2+  Ca9  1  0.33241707  0.01488606  0.62305657  1
  Ca2+  Ca10  1  0.82957237  0.81784152  0.37272578  1
  Ca2+  Ca11  1  0.50540544  0.51383249  0.62288505  1
  Ca2+  Ca12  1  0.49899248  0.81680096  0.37427568  1
  Ca2+  Ca13  1  0.49792855  0.48802344  0.37617941  1
  Ca2+  Ca14  1  0.66131180  0.34513685  0.12525192  1
  Ca2+  Ca15  1  0.50716161  0.18237903  0.12353919  1
  Ca2+  Ca16  1  0.34059765  0.64956955  0.37502101  1
  Ca2+  Ca17  1  -0.00466424  0.68283068  0.12878318  1
  Ca2+  Ca18  1  0.99982771  0.65505805  0.37320020  1
  Ca2+  Ca19  1  0.66358982  0.68405376  0.12779414  1
  Ca2+  Ca20  1  -0.00729100  0.34988759  0.62562725  1
  Ca2+  Ca21  1  0.67153551  0.98213946  0.37512251  1
  Pr3+  Pr22  1  0.83104857  0.49000010  0.37544205  1
  Pr3+  Pr23  1  0.33315519  0.34814978  0.62565554  1
  Pr3+  Pr24  1  0.16965016  0.17844465  0.12620455  1
  Pr3+  Pr25  1  0.50569730  0.51531223  0.12631045  1
  Pr3+  Pr26  1  0.50564622  0.84748889  0.62148865  1
  Pr3+  Pr27  1  0.49834367  0.15429335  0.87447133  1
  Pr3+  Pr28  1  -0.00657047  0.00994829  0.12643937  1
  Pr3+  Pr29  1  0.33854527  0.32215794  0.37476958  1
  Pr3+  Pr30  1  0.82571652  0.15250301  0.37551895  1
  Pr3+  Pr31  1  0.33308852  0.67545022  0.62434870  1
  Pr3+  Pr32  1  0.83127019  0.17541907  0.12314213  1
  Pr3+  Pr33  1  0.16548440  0.49078732  0.37455837  1
  Pr3+  Pr34  1  0.33481353  0.01087057  0.12699866  1
  Pr3+  Pr35  1  -0.00470469  0.67632918  0.62272122  1
  Pr3+  Pr36  1  -0.00520592  0.34616486  0.12498727  1
  Pr3+  Pr37  1  0.17277318  0.84747947  0.62337589  1
  Pr3+  Pr38  1  0.33139431  0.67957548  0.12613227  1
  Pr3+  Pr39  1  1.00070605  0.98684172  0.87488260  1
  Pr3+  Pr40  1  0.66339149  0.67482342  0.62272476  1
  Pr3+  Pr41  1  0.33931086  0.98893054  0.87203043  1
  Pr3+  Pr42  1  -0.00353937  0.01251416  0.62347730  1
  Pr3+  Pr43  1  0.16705233  0.51146677  0.62505617  1
  Pr3+  Pr44  1  0.16927961  0.51461895  0.12553919  1
  Pr3+  Pr45  1  0.83334541  0.51588014  0.12678322  1
  Pr3+  Pr46  1  0.50768418  0.84460807  0.12853407  1
  Pr3+  Pr47  1  0.16582202  0.48748877  0.87552088  1
  Pr3+  Pr48  1  0.82842974  0.48763434  0.87454338  1
  Pr3+  Pr49  1  0.16796261  0.84433983  0.12690789  1
  Pr3+  Pr50  1  0.16480358  0.15323822  0.87532837  1
  Pr3+  Pr51  1  1.00032295  0.65577391  0.87759295  1
  Pr3+  Pr52  1  0.50244919  0.17911298  0.62479293  1
  Pr3+  Pr53  1  0.82911242  0.82384053  0.87641298  1
  Pr3+  Pr54  1  0.16441819  0.81578092  0.37560617  1
  Pr3+  Pr55  1  0.66997296  0.65600091  0.87759917  1
  Pr3+  Pr56  1  0.66686922  0.32342060  0.37523016  1
  Pr3+  Pr57  1  0.16552594  0.82024391  0.87430663  1
  Pr3+  Pr58  1  0.66729263  0.65602859  0.37191541  1
  Pr3+  Pr59  1  1.00172709  0.32038546  0.87319713  1
  Pr3+  Pr60  1  0.34025773  0.98299932  0.37808669  1
  Pr3+  Pr61  1  0.83252852  0.84454918  0.62213797  1
  Pr3+  Pr62  1  0.66924169  0.31975660  0.87492141  1
  Pr3+  Pr63  1  0.33317133  0.34641957  0.12432535  1
  Pr3+  Pr64  1  0.49827045  0.82102882  0.87587042  1
  Pr3+  Pr65  1  1.00058828  0.98463230  0.37536784  1
  Pr3+  Pr66  1  0.49699436  0.48692512  0.87454267  1
  Pr3+  Pr67  1  0.17028841  0.18087208  0.62391173  1
  Pr3+  Pr68  1  0.16453657  0.15329998  0.37511353  1
  Pr3+  Pr69  1  0.50016271  0.15390721  0.37483330  1
  Pr3+  Pr70  1  0.83397293  0.18104205  0.62644252  1
  Pr3+  Pr71  1  1.00109076  0.32315495  0.37713540  1
  Mn3.30+  Mn72  1  0.16774450  -0.00141414  0.00103000  1
  Mn3.30+  Mn73  1  0.16916862  -0.00063583  0.49959477  1
  Mn3.30+  Mn74  1  0.16622758  0.33305145  0.00024619  1
  Mn3.30+  Mn75  1  0.16605425  0.33508162  0.50096070  1
  Mn3.30+  Mn76  1  0.16724361  0.66719547  0.00023620  1
  Mn3.30+  Mn77  1  0.16671702  0.66532217  0.49843941  1
  Mn3.30+  Mn78  1  0.50120703  0.00067470  0.00080011  1
  Mn3.30+  Mn79  1  0.50396558  -0.00168165  0.49896349  1
  Mn3.30+  Mn80  1  0.50128570  0.33238475  0.00167169  1
  Mn3.30+  Mn81  1  0.50056672  0.33632635  0.49960881  1
  Mn3.30+  Mn82  1  0.50058313  0.66740042  0.00030654  1
  Mn3.30+  Mn83  1  0.49804637  0.66554869  0.49808073  1
  Mn3.30+  Mn84  1  0.83150694  -0.00023048  0.00054758  1
  Mn3.30+  Mn85  1  0.82961709  -0.00173111  0.49923591  1
  Mn3.30+  Mn86  1  0.82998352  0.33343263  0.00207788  1
  Mn3.30+  Mn87  1  0.83419181  0.33431455  0.50018612  1
  Mn3.30+  Mn88  1  0.83392484  0.66846509  0.00369325  1
  Mn3.30+  Mn89  1  0.83277900  0.66682472  0.49686766  1
  Mn3.30+  Mn90  1  -0.00188722  0.16678678  0.25141375  1
  Mn3.30+  Mn91  1  0.00034932  0.16673804  0.74899178  1
  Mn3.30+  Mn92  1  -0.00053568  0.50303511  0.24936452  1
  Mn3.30+  Mn93  1  -0.00143890  0.50003272  0.75054407  1
  Mn3.30+  Mn94  1  -0.00180281  0.83027634  0.25245365  1
  Mn3.30+  Mn95  1  0.00036643  0.83266513  0.74807131  1
  Mn3.30+  Mn96  1  0.33629571  0.16613317  0.24919308  1
  Mn3.30+  Mn97  1  0.33334655  0.16623258  0.74901405  1
  Mn3.30+  Mn98  1  0.33618678  0.50115709  0.25095546  1
  Mn3.30+  Mn99  1  0.33555295  0.50140467  0.74971975  1
  Mn3.30+  Mn100  1  0.33663712  0.83064177  0.25264207  1
  Mn3.30+  Mn101  1  0.33486416  0.83283350  0.74842750  1
  Mn3.30+  Mn102  1  0.66368907  0.16600806  0.24919754  1
  Mn3.30+  Mn103  1  0.66669080  0.16605918  0.74794561  1
  Mn3.30+  Mn104  1  0.66484682  0.49991219  0.24958442  1
  Mn3.30+  Mn105  1  0.66399394  0.50136013  0.74872911  1
  Mn3.30+  Mn106  1  0.66662579  0.83400702  0.25351533  1
  Mn3.30+  Mn107  1  0.66596335  0.83425469  0.74836242  1
  Mn3.30+  Mn108  1  0.16710767  -0.00169112  0.25133656  1
  Mn3.30+  Mn109  1  0.16930911  0.00017372  0.74838908  1
  Mn3.30+  Mn110  1  0.16673706  0.33430497  0.25017382  1
  Mn3.30+  Mn111  1  0.16533099  0.33361616  0.74885388  1
  Mn3.30+  Mn112  1  0.16644720  0.66624099  0.25106622  1
  Mn3.30+  Mn113  1  0.16766614  0.66621774  0.75115487  1
  Mn3.30+  Mn114  1  0.50342606  -0.00071930  0.25330327  1
  Mn3.30+  Mn115  1  0.50085455  -0.00038068  0.74614733  1
  Mn3.30+  Mn116  1  0.50174036  0.33382514  0.24914332  1
  Mn3.30+  Mn117  1  0.49990502  0.33454069  0.74964766  1
  Mn3.30+  Mn118  1  0.49949016  0.66677894  0.25186692  1
  Mn3.30+  Mn119  1  0.49896224  0.66628194  0.75028180  1
  Mn3.30+  Mn120  1  0.83057782  -0.00214536  0.25171183  1
  Mn3.30+  Mn121  1  0.83091073  0.00000009  0.74755631  1
  Mn3.30+  Mn122  1  0.83035605  0.33299912  0.24858484  1
  Mn3.30+  Mn123  1  0.83394409  0.33472944  0.74928068  1
  Mn3.30+  Mn124  1  0.83423732  0.66876301  0.25055703  1
  Mn3.30+  Mn125  1  0.83243991  0.66634718  0.74902816  1
  Mn3.30+  Mn126  1  -0.00021012  0.16581836  -0.00009044  1
  Mn3.30+  Mn127  1  -0.00130728  0.16764178  0.50016916  1
  Mn3.30+  Mn128  1  -0.00170532  0.50187138  0.00185444  1
  Mn3.30+  Mn129  1  -0.00039681  0.50130211  0.49848000  1
  Mn3.30+  Mn130  1  -0.00073276  0.83232849  0.00152827  1
  Mn3.30+  Mn131  1  -0.00035286  0.83072995  0.49819203  1
  Mn3.30+  Mn132  1  0.33607872  0.16629133  0.00250725  1
  Mn3.30+  Mn133  1  0.33435303  0.16554933  0.49928643  1
  Mn3.30+  Mn134  1  0.33491502  0.50117630  -0.00030616  1
  Mn3.30+  Mn135  1  0.33675901  0.50148068  0.50011416  1
  Mn3.30+  Mn136  1  0.33425142  0.83234790  -0.00013871  1
  Mn3.30+  Mn137  1  0.33690097  0.83036593  0.49951947  1
  Mn3.30+  Mn138  1  0.66528171  0.16668007  0.00165504  1
  Mn3.30+  Mn139  1  0.66558355  0.16514711  0.49973020  1
  Mn3.30+  Mn140  1  0.66598405  0.50068389  0.00290575  1
  Mn3.30+  Mn141  1  0.66317167  0.50090776  0.49857370  1
  Mn3.30+  Mn142  1  0.66580247  0.83436001  0.00102543  1
  Mn3.30+  Mn143  1  0.66698706  0.83403000  0.49698624  1
  O2-  O144  1  0.02564738  0.15953532  0.12600394  1
  O2-  O145  1  0.02770760  0.15808672  0.62433933  1
  O2-  O146  1  0.02596029  0.49183486  0.12508770  1
  O2-  O147  1  0.02310042  0.49688027  0.62321847  1
  O2-  O148  1  0.02511730  0.82976922  0.12814703  1
  O2-  O149  1  0.02813533  0.82533045  0.62319090  1
  O2-  O150  1  0.36315309  0.15812058  0.12689425  1
  O2-  O151  1  0.35774031  0.16144448  0.62146823  1
  O2-  O152  1  0.35964821  0.49604613  0.12514860  1
  O2-  O153  1  0.36132455  0.49653430  0.62429328  1
  O2-  O154  1  0.36139414  0.82689654  0.12773783  1
  O2-  O155  1  0.36131397  0.82129943  0.62421855  1
  O2-  O156  1  0.68868472  0.16375887  0.12678561  1
  O2-  O157  1  0.68952337  0.16210950  0.62159215  1
  O2-  O158  1  0.69110972  0.48984909  0.12612770  1
  O2-  O159  1  0.68394279  0.50610759  0.62344402  1
  O2-  O160  1  0.67985538  0.82927156  0.12814651  1
  O2-  O161  1  0.69003325  0.82200280  0.62294504  1
  O2-  O162  1  0.13952926  0.32728150  0.12573868  1
  O2-  O163  1  0.13614409  0.32934345  0.62371220  1
  O2-  O164  1  0.13951255  0.66286502  0.12412419  1
  O2-  O165  1  0.13955685  0.65986534  0.62495881  1
  O2-  O166  1  0.13864755  0.99278031  0.12758115  1
  O2-  O167  1  0.14088604  0.99511878  0.62241694  1
  O2-  O168  1  0.47540727  0.32663308  0.12532241  1
  O2-  O169  1  0.47560349  0.32608697  0.62365850  1
  O2-  O170  1  0.47436496  0.66385564  0.12630835  1
  O2-  O171  1  0.47657584  0.65919273  0.62468593  1
  O2-  O172  1  0.47637725  0.99045038  0.12874157  1
  O2-  O173  1  0.47269055  0.99415166  0.62226924  1
  O2-  O174  1  0.80451775  0.32515186  0.12576190  1
  O2-  O175  1  0.81444473  0.33061384  0.62375932  1
  O2-  O176  1  0.80594579  0.66273769  0.12645831  1
  O2-  O177  1  0.80855030  0.66437131  0.62157001  1
  O2-  O178  1  0.81689004  0.99948431  0.12876416  1
  O2-  O179  1  0.80712040  0.99208430  0.62194284  1
  O2-  O180  1  0.30805968  0.17348317  0.37437916  1
  O2-  O181  1  0.30899580  0.16480528  0.87778519  1
  O2-  O182  1  0.30887169  0.50241629  0.37486671  1
  O2-  O183  1  0.30961882  0.50598343  0.87622818  1
  O2-  O184  1  0.30735546  0.83815964  0.37610140  1
  O2-  O185  1  0.30757897  0.84380023  0.87250442  1
  O2-  O186  1  0.64336639  0.17632952  0.37510675  1
  O2-  O187  1  0.64335955  0.17125521  0.87530825  1
  O2-  O188  1  0.63966601  0.50621062  0.37188254  1
  O2-  O189  1  0.64159435  0.50830039  0.87812156  1
  O2-  O190  1  0.63950967  0.83760787  0.37738805  1
  O2-  O191  1  0.64321642  0.83417360  0.87157210  1
  O2-  O192  1  0.97096446  0.17580511  0.37574693  1
  O2-  O193  1  0.98010252  0.17171627  0.87430763  1
  O2-  O194  1  0.97611485  0.50716851  0.37197826  1
  O2-  O195  1  0.97237236  0.50854005  0.87993307  1
  O2-  O196  1  0.97291889  0.83939111  0.37658000  1
  O2-  O197  1  0.97509585  0.83858364  0.87214257  1
  O2-  O198  1  0.19446311  0.00509571  0.37580684  1
  O2-  O199  1  0.19503845  0.00468055  0.87433571  1
  O2-  O200  1  0.19419141  0.34055100  0.37497949  1
  O2-  O201  1  0.18568894  0.33813897  0.87542253  1
  O2-  O202  1  0.19708299  0.66856726  0.37520867  1
  O2-  O203  1  0.19579570  0.67303548  0.87635169  1
  O2-  O204  1  0.53005846  0.00867044  0.37607428  1
  O2-  O205  1  0.51720730  0.00557601  0.87211257  1
  O2-  O206  1  0.52227697  0.34111423  0.37430314  1
  O2-  O207  1  0.52438357  0.33822842  0.87644437  1
  O2-  O208  1  0.52380170  0.67292797  0.37427907  1
  O2-  O209  1  0.52626899  0.67315441  0.87542848  1
  O2-  O210  1  0.85931037  0.00802856  0.37679160  1
  O2-  O211  1  0.85665647  -0.00234959  0.87105993  1
  O2-  O212  1  0.85732064  0.33743766  0.37357413  1
  O2-  O213  1  0.85739414  0.33913845  0.87685010  1
  O2-  O214  1  0.85839564  0.66983645  0.37381577  1
  O2-  O215  1  0.85648338  0.67315040  0.87759299  1
  O2-  O216  1  0.23871953  0.09269278  0.02373462  1
  O2-  O217  1  0.23691365  0.09693621  0.51681013  1
  O2-  O218  1  0.23824610  0.42702938  0.02079840  1
  O2-  O219  1  0.23913771  0.42844669  0.52263401  1
  O2-  O220  1  0.23853388  0.76204241  0.02244391  1
  O2-  O221  1  0.23579005  0.75960036  0.52108133  1
  O2-  O222  1  0.56781663  0.09891531  0.01536250  1
  O2-  O223  1  0.56914394  0.09672074  0.51880982  1
  O2-  O224  1  0.56964982  0.43112357  0.01765448  1
  O2-  O225  1  0.56910213  0.43058473  0.51709586  1
  O2-  O226  1  0.56882510  0.76295210  0.01585466  1
  O2-  O227  1  0.57086249  0.75971532  0.51980806  1
  O2-  O228  1  0.90888647  0.09290086  0.02002238  1
  O2-  O229  1  0.90269786  0.09439818  0.52176852  1
  O2-  O230  1  0.90204623  0.42796832  0.02321696  1
  O2-  O231  1  0.90935158  0.42749472  0.51049212  1
  O2-  O232  1  0.90737919  0.76101622  0.01551012  1
  O2-  O233  1  0.90720918  0.75955255  0.52272681  1
  O2-  O234  1  0.26114575  0.26024671  0.22773062  1
  O2-  O235  1  0.25946033  0.26023935  0.72658659  1
  O2-  O236  1  0.26197690  0.59295175  0.22714708  1
  O2-  O237  1  0.25915136  0.59223828  0.72768611  1
  O2-  O238  1  0.26414763  0.92485142  0.23004696  1
  O2-  O239  1  0.26497759  0.92814628  0.72500623  1
  O2-  O240  1  0.59786791  0.26666920  0.23456895  1
  O2-  O241  1  0.59108444  0.26032968  0.73369679  1
  O2-  O242  1  0.59577839  0.59727812  0.22744310  1
  O2-  O243  1  0.59614496  0.59914051  0.73582383  1
  O2-  O244  1  0.59251753  0.92676227  0.23350216  1
  O2-  O245  1  0.59443571  0.92744819  0.72497206  1
  O2-  O246  1  0.92627227  0.26133173  0.22776993  1
  O2-  O247  1  0.93098780  0.26058834  0.73015285  1
  O2-  O248  1  0.92740860  0.59327638  0.22611902  1
  O2-  O249  1  0.93007941  0.59763408  0.73474640  1
  O2-  O250  1  0.93232158  0.93056523  0.23650685  1
  O2-  O251  1  0.92926424  0.92733368  0.72704195  1
  O2-  O252  1  0.09319042  0.23902851  0.27193961  1
  O2-  O253  1  0.09590269  0.23740063  0.77006263  1
  O2-  O254  1  0.09991906  0.57107255  0.26692356  1
  O2-  O255  1  0.09408190  0.57148230  0.77254805  1
  O2-  O256  1  0.09531829  0.90322785  0.27321225  1
  O2-  O257  1  0.09726111  0.90606396  0.76931716  1
  O2-  O258  1  0.42882198  0.24068883  0.27304775  1
  O2-  O259  1  0.42737364  0.23589787  0.76628327  1
  O2-  O260  1  0.43232756  0.56804942  0.26797601  1
  O2-  O261  1  0.42876499  0.57428215  0.77196430  1
  O2-  O262  1  0.42905439  0.90267878  0.27417503  1
  O2-  O263  1  0.42964303  0.90385418  0.76858670  1
  O2-  O264  1  0.76118368  0.23795370  0.27070622  1
  O2-  O265  1  0.75945441  0.24281656  0.76471518  1
  O2-  O266  1  0.76244996  0.57269748  0.26903176  1
  O2-  O267  1  0.75954130  0.57461174  0.77280813  1
  O2-  O268  1  0.76216891  0.90523988  0.27272773  1
  O2-  O269  1  0.76388231  0.90065555  0.76356939  1
  O2-  O270  1  0.06918249  0.07419857  0.47732136  1
  O2-  O271  1  0.07535456  0.07028146  0.97843235  1
  O2-  O272  1  0.07514330  0.40850689  0.47509831  1
  O2-  O273  1  0.06741119  0.40764325  0.97959044  1
  O2-  O274  1  0.07131821  0.73686866  0.47645779  1
  O2-  O275  1  0.07527688  0.74092497  0.97686282  1
  O2-  O276  1  0.40876218  0.07015065  0.47693141  1
  O2-  O277  1  0.40336183  0.06953418  0.98241539  1
  O2-  O278  1  0.40096320  0.40208671  0.48357576  1
  O2-  O279  1  0.40733766  0.40579829  0.98412809  1
  O2-  O280  1  0.40132079  0.73208871  0.48220960  1
  O2-  O281  1  0.40243258  0.73910151  0.97811465  1
  O2-  O282  1  0.73770003  0.07107902  0.47659420  1
  O2-  O283  1  0.74137916  0.07518947  0.98695457  1
  O2-  O284  1  0.73926343  0.40951291  0.47836560  1
  O2-  O285  1  0.73870486  0.40781622  0.97670434  1
  O2-  O286  1  0.73656936  0.73793309  0.47908045  1
  O2-  O287  1  0.74070282  0.74124487  0.98097296  1
  O2-  O288  1  0.09592100  0.24001635  0.47669804  1
  O2-  O289  1  0.09386397  0.23804322  0.98118829  1
  O2-  O290  1  0.09724250  0.57072415  0.48179240  1
  O2-  O291  1  0.09635594  0.57303833  0.97809473  1
  O2-  O292  1  0.09645533  0.90369126  0.47917435  1
  O2-  O293  1  0.09570605  0.90505112  0.97884309  1
  O2-  O294  1  0.42718151  0.23947732  0.47903934  1
  O2-  O295  1  0.42991176  0.23647722  0.98151649  1
  O2-  O296  1  0.42924152  0.56966903  0.47811153  1
  O2-  O297  1  0.43215610  0.57259552  0.98238549  1
  O2-  O298  1  0.43473124  0.90222175  0.47746781  1
  O2-  O299  1  0.42599389  0.90571358  0.98012425  1
  O2-  O300  1  0.76068257  0.23900700  0.48179368  1
  O2-  O301  1  0.75881708  0.24104797  0.98143135  1
  O2-  O302  1  0.75774487  0.57450787  0.47518084  1
  O2-  O303  1  0.76349558  0.57218145  0.98229456  1
  O2-  O304  1  0.76669590  0.90007289  0.48032159  1
  O2-  O305  1  0.76049617  0.90533472  0.98328374  1
  O2-  O306  1  0.07090271  0.07329848  0.27367498  1
  O2-  O307  1  0.07205136  0.07175774  0.77085440  1
  O2-  O308  1  0.07065660  0.40631918  0.27088210  1
  O2-  O309  1  0.07219217  0.40782224  0.77268930  1
  O2-  O310  1  0.07344111  0.73860544  0.27473830  1
  O2-  O311  1  0.07285229  0.73846521  0.77205376  1
  O2-  O312  1  0.40542689  0.06852480  0.27335840  1
  O2-  O313  1  0.40568063  0.07234797  0.76705044  1
  O2-  O314  1  0.40177542  0.40232224  0.26479108  1
  O2-  O315  1  0.40602046  0.40626437  0.76770559  1
  O2-  O316  1  0.40037917  0.73291858  0.26887316  1
  O2-  O317  1  0.40428336  0.73790831  0.77262198  1
  O2-  O318  1  0.73771039  0.07286033  0.27279546  1
  O2-  O319  1  0.74107292  0.07313200  0.76141514  1
  O2-  O320  1  0.74045976  0.40723706  0.27429730  1
  O2-  O321  1  0.73755827  0.40973435  0.77132505  1
  O2-  O322  1  0.73864513  0.74005632  0.26991412  1
  O2-  O323  1  0.73876294  0.73861094  0.76980224  1
  O2-  O324  1  0.23904761  0.09351142  0.22930942  1
  O2-  O325  1  0.23636854  0.09678753  0.73098215  1
  O2-  O326  1  0.23926813  0.42908848  0.22821974  1
  O2-  O327  1  0.23842868  0.42723346  0.72943045  1
  O2-  O328  1  0.23694341  0.76083873  0.22937337  1
  O2-  O329  1  0.23886231  0.76224762  0.72816969  1
  O2-  O330  1  0.56665853  0.10167190  0.23310924  1
  O2-  O331  1  0.56945495  0.09512633  0.73102125  1
  O2-  O332  1  0.56962499  0.42804186  0.22930991  1
  O2-  O333  1  0.56947844  0.43349633  0.73479315  1
  O2-  O334  1  0.56942451  0.76056991  0.23545626  1
  O2-  O335  1  0.56989617  0.76150802  0.72926958  1
  O2-  O336  1  0.90432378  0.09574981  0.23170380  1
  O2-  O337  1  0.90800180  0.09324147  0.72579578  1
  O2-  O338  1  0.90323253  0.42654676  0.22866750  1
  O2-  O339  1  0.90630988  0.42854498  0.73733367  1
  O2-  O340  1  0.90772462  0.75924897  0.23206438  1
  O2-  O341  1  0.90476117  0.76018420  0.72846450  1
  O2-  O342  1  0.26263335  0.25584006  0.02480670  1
  O2-  O343  1  0.25919631  0.26373729  0.52175594  1
  O2-  O344  1  0.25936365  0.59401971  0.02344214  1
  O2-  O345  1  0.26069935  0.59136699  0.52330580  1
  O2-  O346  1  0.26080563  0.92657327  0.02399571  1
  O2-  O347  1  0.26701241  0.92608770  0.52133066  1
  O2-  O348  1  0.59727964  0.26565737  0.01707887  1
  O2-  O349  1  0.59118175  0.26077650  0.51561142  1
  O2-  O350  1  0.59848150  0.59658156  0.02340262  1
  O2-  O351  1  0.59466734  0.59880375  0.51377995  1
  O2-  O352  1  0.58885100  0.92598412  0.01574238  1
  O2-  O353  1  0.59806077  0.92880658  0.52445404  1
  O2-  O354  1  0.92562800  0.26182435  0.02098687  1
  O2-  O355  1  0.93058451  0.26029175  0.52240897  1
  O2-  O356  1  0.92954387  0.59668605  0.02440657  1
  O2-  O357  1  0.92854334  0.59451877  0.51621343  1
  O2-  O358  1  0.93144641  0.92962388  0.01476885  1
  O2-  O359  1  0.93065035  0.92808086  0.52025326  1
