# generated using pymatgen
data_Sr7Ca15Pr50Mn72O216
_symmetry_space_group_name_H-M   'P 1'
_cell_length_a   16.55655209
_cell_length_b   16.59757395
_cell_length_c   15.58894510
_cell_angle_alpha   90.00348060
_cell_angle_beta   89.99623406
_cell_angle_gamma   89.99478819
_symmetry_Int_Tables_number   1
_chemical_formula_structural   Sr7Ca15Pr50Mn72O216
_chemical_formula_sum   'Sr7 Ca15 Pr50 Mn72 O216'
_cell_volume   4283.82021667
_cell_formula_units_Z   1
loop_
 _symmetry_equiv_pos_site_id
 _symmetry_equiv_pos_as_xyz
  1  'x, y, z'
loop_
 _atom_type_symbol
 _atom_type_oxidation_number
  Sr2+  2.0
  Ca2+  2.0
  Pr3+  3.0
  Mn3.30+  3.3
  O2-  -2.0
loop_
 _atom_site_type_symbol
 _atom_site_label
 _atom_site_symmetry_multiplicity
 _atom_site_fract_x
 _atom_site_fract_y
 _atom_site_fract_z
 _atom_site_occupancy
  Sr2+  Sr0  1  0.16400630  0.49043621  0.87445560  1
  Sr2+  Sr1  1  1.00315075  0.98971127  0.87627520  1
  Sr2+  Sr2  1  0.83306405  0.82746748  0.37812170  1
  Sr2+  Sr3  1  0.16797685  0.84404492  0.62740280  1
  Sr2+  Sr4  1  0.67159017  0.99031296  0.87580615  1
  Sr2+  Sr5  1  1.00128230  0.98939934  0.37395647  1
  Sr2+  Sr6  1  0.82995999  0.48915490  0.87527178  1
  Ca2+  Ca7  1  0.32826803  0.68170170  0.12322207  1
  Ca2+  Ca8  1  0.67513418  0.98448361  0.37365906  1
  Ca2+  Ca9  1  0.32943433  0.34761846  0.62507992  1
  Ca2+  Ca10  1  0.66446498  0.01308009  0.12495894  1
  Ca2+  Ca11  1  0.84106100  0.85140419  0.62492818  1
  Ca2+  Ca12  1  0.33553531  0.98475160  0.87435403  1
  Ca2+  Ca13  1  0.66982414  0.31905987  0.87473217  1
  Ca2+  Ca14  1  1.00088214  0.31915279  0.37502761  1
  Ca2+  Ca15  1  0.50165033  0.51401011  0.62459130  1
  Ca2+  Ca16  1  -0.00312067  0.68213633  0.12348532  1
  Ca2+  Ca17  1  -0.00101874  0.01061998  0.62376236  1
  Ca2+  Ca18  1  -0.00232838  0.01389711  0.12548257  1
  Ca2+  Ca19  1  0.83122814  0.48615036  0.37432688  1
  Ca2+  Ca20  1  0.32912921  0.34648353  0.12467791  1
  Ca2+  Ca21  1  0.16329162  0.82073137  0.87514046  1
  Pr3+  Pr22  1  0.83150634  0.82295388  0.87320812  1
  Pr3+  Pr23  1  1.00047993  0.65866832  0.37391062  1
  Pr3+  Pr24  1  -0.00403189  0.34569375  0.62354857  1
  Pr3+  Pr25  1  -0.00401793  0.34558578  0.12631201  1
  Pr3+  Pr26  1  0.83781735  0.17549000  0.62570500  1
  Pr3+  Pr27  1  0.66312191  0.34790115  0.62609242  1
  Pr3+  Pr28  1  0.50446715  0.84770061  0.12453496  1
  Pr3+  Pr29  1  0.83892691  0.84846586  0.12553286  1
  Pr3+  Pr30  1  0.16115061  0.82153392  0.37528850  1
  Pr3+  Pr31  1  0.33153623  0.01149646  0.12326608  1
  Pr3+  Pr32  1  0.32824663  0.01064918  0.62698835  1
  Pr3+  Pr33  1  0.49904542  0.51293736  0.12547979  1
  Pr3+  Pr34  1  0.16074019  0.48408764  0.37516561  1
  Pr3+  Pr35  1  0.33455811  0.32219674  0.87518853  1
  Pr3+  Pr36  1  0.66802383  0.01054345  0.62411187  1
  Pr3+  Pr37  1  0.50149921  0.82191731  0.37525803  1
  Pr3+  Pr38  1  0.16818359  0.17904046  0.12504922  1
  Pr3+  Pr39  1  0.50464266  0.17795847  0.12399058  1
  Pr3+  Pr40  1  0.16164861  0.15365084  0.37416664  1
  Pr3+  Pr41  1  0.16763638  0.17582581  0.62488284  1
  Pr3+  Pr42  1  0.33503873  0.65506707  0.37418521  1
  Pr3+  Pr43  1  0.16657129  0.84447950  0.12295363  1
  Pr3+  Pr44  1  -0.00372040  0.68276746  0.62712081  1
  Pr3+  Pr45  1  0.16947242  0.51461495  0.12333644  1
  Pr3+  Pr46  1  0.49870047  0.15148636  0.37519635  1
  Pr3+  Pr47  1  0.83114597  0.15379253  0.87535365  1
  Pr3+  Pr48  1  0.66907732  0.65469949  0.87562296  1
  Pr3+  Pr49  1  0.83590298  0.51287903  0.62443529  1
  Pr3+  Pr50  1  0.49828828  0.82226778  0.87529067  1
  Pr3+  Pr51  1  0.83433467  0.17629805  0.12396081  1
  Pr3+  Pr52  1  0.49777830  0.15108864  0.87467193  1
  Pr3+  Pr53  1  0.66514744  0.67777832  0.62513632  1
  Pr3+  Pr54  1  0.83822408  0.51599679  0.12634490  1
  Pr3+  Pr55  1  0.33065535  0.67865748  0.62601082  1
  Pr3+  Pr56  1  0.33437641  0.98663970  0.37432739  1
  Pr3+  Pr57  1  0.66544005  0.67927056  0.12467660  1
  Pr3+  Pr58  1  0.50263708  0.17852825  0.62565814  1
  Pr3+  Pr59  1  1.00427959  0.65607678  0.87659412  1
  Pr3+  Pr60  1  0.16815932  0.51181506  0.62620880  1
  Pr3+  Pr61  1  0.66890429  0.32167658  0.37497883  1
  Pr3+  Pr62  1  0.50183410  0.84413013  0.62586961  1
  Pr3+  Pr63  1  0.49594364  0.48700349  0.37609128  1
  Pr3+  Pr64  1  1.00338931  0.32240922  0.87466821  1
  Pr3+  Pr65  1  0.33615584  0.31940697  0.37511432  1
  Pr3+  Pr66  1  0.67409112  0.65228017  0.37430207  1
  Pr3+  Pr67  1  0.33267906  0.65496147  0.87584297  1
  Pr3+  Pr68  1  0.49600536  0.48735572  0.87408565  1
  Pr3+  Pr69  1  0.83195477  0.15173003  0.37446979  1
  Pr3+  Pr70  1  0.66448480  0.34533749  0.12341786  1
  Pr3+  Pr71  1  0.16428964  0.15448073  0.87568315  1
  Mn3.30+  Mn72  1  0.16660990  -0.00137748  -0.00139405  1
  Mn3.30+  Mn73  1  0.16475678  -0.00086423  0.50190360  1
  Mn3.30+  Mn74  1  0.16751608  0.33434710  0.00087207  1
  Mn3.30+  Mn75  1  0.16601781  0.33213786  0.50015062  1
  Mn3.30+  Mn76  1  0.16596299  0.66841712  0.00146178  1
  Mn3.30+  Mn77  1  0.16647231  0.66617195  0.49987191  1
  Mn3.30+  Mn78  1  0.50022947  -0.00067950  -0.00112187  1
  Mn3.30+  Mn79  1  0.50149702  -0.00126265  0.49973293  1
  Mn3.30+  Mn80  1  0.49972088  0.33274987  -0.00066456  1
  Mn3.30+  Mn81  1  0.49815683  0.33412484  0.50286709  1
  Mn3.30+  Mn82  1  0.49809401  0.66719089  0.00177110  1
  Mn3.30+  Mn83  1  0.50127263  0.66544644  0.49961205  1
  Mn3.30+  Mn84  1  0.83444142  0.00006406  0.00144952  1
  Mn3.30+  Mn85  1  0.83426855  -0.00070157  0.49992862  1
  Mn3.30+  Mn86  1  0.83145350  0.33415409  -0.00087102  1
  Mn3.30+  Mn87  1  0.83349541  0.33360207  0.49802941  1
  Mn3.30+  Mn88  1  0.83470534  0.66804894  0.00048968  1
  Mn3.30+  Mn89  1  0.83367278  0.66803083  0.49945853  1
  Mn3.30+  Mn90  1  -0.00045280  0.16690824  0.24962023  1
  Mn3.30+  Mn91  1  0.00110394  0.16523742  0.74970796  1
  Mn3.30+  Mn92  1  -0.00146096  0.50090418  0.25167496  1
  Mn3.30+  Mn93  1  -0.00068853  0.50008489  0.75032848  1
  Mn3.30+  Mn94  1  -0.00036025  0.83389432  0.24898408  1
  Mn3.30+  Mn95  1  0.00033538  0.83718144  0.74999788  1
  Mn3.30+  Mn96  1  0.33377540  0.16727820  0.24853940  1
  Mn3.30+  Mn97  1  0.33353320  0.16649797  0.75058724  1
  Mn3.30+  Mn98  1  0.33090902  0.49964439  0.24929500  1
  Mn3.30+  Mn99  1  0.33408033  0.49840594  0.74826739  1
  Mn3.30+  Mn100  1  0.33344444  0.83194473  0.24822842  1
  Mn3.30+  Mn101  1  0.33142595  0.83390741  0.75325589  1
  Mn3.30+  Mn102  1  0.66693705  0.16433350  0.25053894  1
  Mn3.30+  Mn103  1  0.66762849  0.16747215  0.75015187  1
  Mn3.30+  Mn104  1  0.66793495  0.49937505  0.24976229  1
  Mn3.30+  Mn105  1  0.66479190  0.49914265  0.75036337  1
  Mn3.30+  Mn106  1  0.66913067  0.83538302  0.24956420  1
  Mn3.30+  Mn107  1  0.66911403  0.83426308  0.74842383  1
  Mn3.30+  Mn108  1  0.16479243  -0.00054744  0.24739328  1
  Mn3.30+  Mn109  1  0.16623647  -0.00183061  0.75251424  1
  Mn3.30+  Mn110  1  0.16580230  0.33344724  0.25005371  1
  Mn3.30+  Mn111  1  0.16808843  0.33325588  0.74867081  1
  Mn3.30+  Mn112  1  0.16662884  0.66663041  0.24789917  1
  Mn3.30+  Mn113  1  0.16578750  0.66820416  0.75090462  1
  Mn3.30+  Mn114  1  0.50386875  -0.00055463  0.25101757  1
  Mn3.30+  Mn115  1  0.49897921  -0.00152489  0.75057063  1
  Mn3.30+  Mn116  1  0.49812971  0.33301066  0.24820365  1
  Mn3.30+  Mn117  1  0.49983328  0.33405276  0.74928683  1
  Mn3.30+  Mn118  1  0.49948579  0.66750252  0.24903828  1
  Mn3.30+  Mn119  1  0.49979388  0.66546175  0.74982913  1
  Mn3.30+  Mn120  1  0.83222383  -0.00015916  0.24865940  1
  Mn3.30+  Mn121  1  0.83625543  -0.00045963  0.74964843  1
  Mn3.30+  Mn122  1  0.83362025  0.33383585  0.25190327  1
  Mn3.30+  Mn123  1  0.83129629  0.33355941  0.75084932  1
  Mn3.30+  Mn124  1  0.83538273  0.66845047  0.25067766  1
  Mn3.30+  Mn125  1  0.83312237  0.66797217  0.74961017  1
  Mn3.30+  Mn126  1  0.00029805  0.16602912  0.00125986  1
  Mn3.30+  Mn127  1  0.00044911  0.16617577  0.49932930  1
  Mn3.30+  Mn128  1  -0.00014939  0.50105514  0.00079165  1
  Mn3.30+  Mn129  1  -0.00228969  0.49971404  0.49680513  1
  Mn3.30+  Mn130  1  0.00115976  0.83467855  -0.00049069  1
  Mn3.30+  Mn131  1  -0.00130642  0.83592754  0.50160593  1
  Mn3.30+  Mn132  1  0.33377418  0.16627409  -0.00018838  1
  Mn3.30+  Mn133  1  0.33331482  0.16718402  0.50081772  1
  Mn3.30+  Mn134  1  0.33219000  0.49918567  0.00079775  1
  Mn3.30+  Mn135  1  0.33272376  0.49877828  0.50167442  1
  Mn3.30+  Mn136  1  0.33229051  0.83306531  -0.00048058  1
  Mn3.30+  Mn137  1  0.33275657  0.83302521  0.49931024  1
  Mn3.30+  Mn138  1  0.66708819  0.16615112  -0.00067851  1
  Mn3.30+  Mn139  1  0.66739852  0.16593754  0.49967050  1
  Mn3.30+  Mn140  1  0.66661470  0.49896049  -0.00007476  1
  Mn3.30+  Mn141  1  0.66649775  0.49960341  0.49970335  1
  Mn3.30+  Mn142  1  0.66807192  0.83573114  0.00024027  1
  Mn3.30+  Mn143  1  0.66970451  0.83392203  0.50166492  1
  O2-  O144  1  0.02284110  0.16394303  0.12556069  1
  O2-  O145  1  0.02246117  0.16046752  0.62541995  1
  O2-  O146  1  0.02533295  0.49187001  0.12692296  1
  O2-  O147  1  0.02362896  0.49365008  0.62137047  1
  O2-  O148  1  0.02369318  0.82550377  0.12375936  1
  O2-  O149  1  0.02070968  0.82844135  0.62634779  1
  O2-  O150  1  0.36206585  0.15765809  0.12482945  1
  O2-  O151  1  0.36042181  0.15592230  0.62674110  1
  O2-  O152  1  0.35696406  0.49014468  0.12661319  1
  O2-  O153  1  0.35981492  0.49426320  0.62566881  1
  O2-  O154  1  0.36044067  0.82777455  0.12603548  1
  O2-  O155  1  0.35750727  0.82812625  0.62609480  1
  O2-  O156  1  0.68917533  0.16134091  0.12687556  1
  O2-  O157  1  0.69226763  0.16128910  0.62400909  1
  O2-  O158  1  0.69310090  0.49379964  0.12598460  1
  O2-  O159  1  0.69212273  0.49614475  0.62541395  1
  O2-  O160  1  0.69344885  0.82452054  0.12358776  1
  O2-  O161  1  0.69550047  0.82423320  0.62592003  1
  O2-  O162  1  0.14029361  0.32839523  0.12566530  1
  O2-  O163  1  0.13966249  0.32664627  0.62333618  1
  O2-  O164  1  0.13903762  0.66183719  0.12593653  1
  O2-  O165  1  0.14251143  0.66052193  0.62432994  1
  O2-  O166  1  0.14108084  0.99357008  0.12427173  1
  O2-  O167  1  0.14400007  1.00160148  0.62682798  1
  O2-  O168  1  0.47142893  0.32539369  0.12446098  1
  O2-  O169  1  0.47055967  0.32375268  0.62525491  1
  O2-  O170  1  0.47168700  0.66196399  0.12657561  1
  O2-  O171  1  0.47483016  0.66282969  0.62517437  1
  O2-  O172  1  0.47512946  0.99679912  0.12521343  1
  O2-  O173  1  0.47211034  0.99361785  0.62582897  1
  O2-  O174  1  0.80808004  0.32625680  0.12501727  1
  O2-  O175  1  0.80786503  0.32623740  0.62302516  1
  O2-  O176  1  0.80851975  0.66308391  0.12536080  1
  O2-  O177  1  0.80823143  0.65829419  0.62347347  1
  O2-  O178  1  0.80643005  0.99808332  0.12524407  1
  O2-  O179  1  0.81189413  1.00441876  0.62442334  1
  O2-  O180  1  0.30645606  0.17205626  0.37295884  1
  O2-  O181  1  0.30708268  0.17665325  0.87516709  1
  O2-  O182  1  0.30543892  0.50769661  0.37380708  1
  O2-  O183  1  0.31346933  0.50465942  0.87409884  1
  O2-  O184  1  0.30674718  0.83883579  0.37185922  1
  O2-  O185  1  0.30739407  0.83846171  0.87661015  1
  O2-  O186  1  0.64051784  0.17570529  0.37553203  1
  O2-  O187  1  0.64263129  0.17298316  0.87287801  1
  O2-  O188  1  0.64010878  0.50319636  0.37314625  1
  O2-  O189  1  0.63954826  0.50776842  0.87512215  1
  O2-  O190  1  0.64432422  0.83947723  0.37581624  1
  O2-  O191  1  0.64308450  0.83522515  0.87487253  1
  O2-  O192  1  0.97739330  0.17355735  0.37279940  1
  O2-  O193  1  0.97676729  0.17478544  0.87585179  1
  O2-  O194  1  0.97112440  0.51220968  0.37462410  1
  O2-  O195  1  0.97951022  0.50634308  0.87698951  1
  O2-  O196  1  0.98317441  0.83187255  0.37552677  1
  O2-  O197  1  0.97405272  0.83559464  0.87462040  1
  O2-  O198  1  0.19095354  0.00454896  0.37220847  1
  O2-  O199  1  0.19509261  0.00913790  0.87679938  1
  O2-  O200  1  0.19312471  0.33601522  0.37548211  1
  O2-  O201  1  0.19023754  0.33386523  0.87512805  1
  O2-  O202  1  0.19131934  0.67183696  0.37354585  1
  O2-  O203  1  0.18860353  0.67130834  0.87615295  1
  O2-  O204  1  0.53043847  0.00340806  0.37601090  1
  O2-  O205  1  0.52229418  0.00132483  0.87305722  1
  O2-  O206  1  0.52441509  0.33915038  0.37600113  1
  O2-  O207  1  0.52817887  0.34053618  0.87403333  1
  O2-  O208  1  0.52845245  0.67234013  0.37288923  1
  O2-  O209  1  0.52490708  0.67234280  0.87563931  1
  O2-  O210  1  0.85225586  0.00334639  0.37414580  1
  O2-  O211  1  0.85330578  0.00366902  0.87588008  1
  O2-  O212  1  0.85853921  0.34035549  0.37589038  1
  O2-  O213  1  0.85947494  0.33485896  0.87628554  1
  O2-  O214  1  0.85736192  0.67325715  0.37571823  1
  O2-  O215  1  0.85905694  0.67328585  0.87593075  1
  O2-  O216  1  0.23945333  0.09426665  0.02283458  1
  O2-  O217  1  0.23981916  0.09437600  0.51900222  1
  O2-  O218  1  0.23729990  0.42725645  0.02005029  1
  O2-  O219  1  0.23366359  0.42865426  0.51792442  1
  O2-  O220  1  0.23963668  0.76024851  0.02124982  1
  O2-  O221  1  0.24311489  0.75795876  0.51672837  1
  O2-  O222  1  0.56942801  0.09533267  0.01500218  1
  O2-  O223  1  0.57119081  0.09321961  0.52243518  1
  O2-  O224  1  0.56907092  0.42756299  0.02326557  1
  O2-  O225  1  0.56822040  0.42778532  0.52196874  1
  O2-  O226  1  0.57253240  0.76083426  0.02078653  1
  O2-  O227  1  0.57260434  0.76077845  0.52028333  1
  O2-  O228  1  0.90514851  0.09559292  0.01791320  1
  O2-  O229  1  0.90350994  0.09694567  0.51325484  1
  O2-  O230  1  0.90399737  0.42752660  0.02308153  1
  O2-  O231  1  0.90334581  0.42752972  0.52182811  1
  O2-  O232  1  0.90339953  0.76364566  0.01718239  1
  O2-  O233  1  0.90629975  0.76082566  0.52336127  1
  O2-  O234  1  0.26416424  0.26083306  0.22725722  1
  O2-  O235  1  0.26285958  0.26035184  0.72697763  1
  O2-  O236  1  0.26200765  0.59593252  0.22658303  1
  O2-  O237  1  0.26132584  0.59186761  0.72978659  1
  O2-  O238  1  0.26391364  0.92743757  0.22887955  1
  O2-  O239  1  0.26411828  0.92950660  0.73292736  1
  O2-  O240  1  0.59507920  0.26043685  0.22932669  1
  O2-  O241  1  0.59202591  0.26087804  0.72622618  1
  O2-  O242  1  0.59470388  0.59343064  0.22788381  1
  O2-  O243  1  0.59479454  0.59490593  0.73148264  1
  O2-  O244  1  0.59564961  0.92705642  0.22565530  1
  O2-  O245  1  0.59517288  0.92419501  0.72526764  1
  O2-  O246  1  0.92580492  0.25997334  0.22878285  1
  O2-  O247  1  0.92931724  0.26075640  0.72938864  1
  O2-  O248  1  0.92991917  0.59748431  0.22747524  1
  O2-  O249  1  0.92625936  0.59452222  0.72974601  1
  O2-  O250  1  0.92800094  0.92866261  0.22695574  1
  O2-  O251  1  0.93065790  0.93103999  0.72885157  1
  O2-  O252  1  0.09746964  0.23826705  0.26665558  1
  O2-  O253  1  0.09482380  0.23893364  0.76887176  1
  O2-  O254  1  0.09528609  0.57091528  0.27132624  1
  O2-  O255  1  0.09131298  0.57507208  0.76500985  1
  O2-  O256  1  0.09772224  0.90168106  0.26500090  1
  O2-  O257  1  0.09843017  0.90430818  0.77187777  1
  O2-  O258  1  0.42858738  0.23741894  0.27246543  1
  O2-  O259  1  0.42919878  0.23834428  0.77267728  1
  O2-  O260  1  0.42689793  0.57139329  0.27159642  1
  O2-  O261  1  0.42519999  0.57369750  0.77156635  1
  O2-  O262  1  0.42990180  0.90592420  0.27084271  1
  O2-  O263  1  0.42930538  0.90156180  0.76819944  1
  O2-  O264  1  0.76024140  0.23780278  0.27083591  1
  O2-  O265  1  0.76393174  0.23811380  0.76805713  1
  O2-  O266  1  0.76426694  0.57174027  0.27005403  1
  O2-  O267  1  0.75678299  0.57406759  0.76781334  1
  O2-  O268  1  0.76202469  0.90425848  0.26353845  1
  O2-  O269  1  0.76397942  0.90498089  0.76440418  1
  O2-  O270  1  0.07685752  0.07494885  0.48047544  1
  O2-  O271  1  0.07798329  0.07626569  0.98251331  1
  O2-  O272  1  0.06754528  0.40503550  0.47658557  1
  O2-  O273  1  0.06853835  0.40353398  0.98379160  1
  O2-  O274  1  0.07248980  0.73846696  0.48237116  1
  O2-  O275  1  0.07136551  0.73968852  0.98055477  1
  O2-  O276  1  0.40579775  0.07248820  0.47684785  1
  O2-  O277  1  0.40288416  0.07206199  0.97775322  1
  O2-  O278  1  0.40299176  0.40674392  0.47645369  1
  O2-  O279  1  0.40745480  0.40506783  0.97759880  1
  O2-  O280  1  0.40744818  0.73935795  0.47872077  1
  O2-  O281  1  0.40537427  0.74052099  0.97666002  1
  O2-  O282  1  0.73729434  0.07237040  0.47927147  1
  O2-  O283  1  0.74317727  0.07643587  0.98240934  1
  O2-  O284  1  0.73446399  0.40269994  0.48332339  1
  O2-  O285  1  0.73414890  0.40154277  0.98251025  1
  O2-  O286  1  0.73529807  0.73476949  0.48264090  1
  O2-  O287  1  0.73838864  0.73930000  0.97951382  1
  O2-  O288  1  0.09734563  0.23710937  0.48248741  1
  O2-  O289  1  0.09550849  0.24034279  0.98165316  1
  O2-  O290  1  0.09374591  0.57141880  0.47885845  1
  O2-  O291  1  0.09334998  0.57472718  0.98422787  1
  O2-  O292  1  0.09692222  0.90475740  0.48245581  1
  O2-  O293  1  0.10004291  0.90205501  0.98177342  1
  O2-  O294  1  0.42904446  0.23786646  0.47845570  1
  O2-  O295  1  0.42961975  0.23821554  0.97648904  1
  O2-  O296  1  0.42702212  0.57427762  0.47698849  1
  O2-  O297  1  0.42768605  0.57162116  0.98113922  1
  O2-  O298  1  0.42822023  0.90513851  0.47820433  1
  O2-  O299  1  0.43034078  0.90312169  0.98374607  1
  O2-  O300  1  0.76279604  0.23960283  0.47757065  1
  O2-  O301  1  0.76282186  0.23818154  0.98311292  1
  O2-  O302  1  0.76357312  0.57039843  0.47800325  1
  O2-  O303  1  0.75862523  0.57621128  0.98369646  1
  O2-  O304  1  0.75828264  0.90844408  0.48881845  1
  O2-  O305  1  0.76586018  0.90282650  0.98390069  1
  O2-  O306  1  0.07532960  0.07662465  0.26690391  1
  O2-  O307  1  0.07761249  0.07634399  0.77083216  1
  O2-  O308  1  0.06748875  0.40524146  0.27389876  1
  O2-  O309  1  0.06927070  0.40380654  0.76466579  1
  O2-  O310  1  0.07484378  0.73835227  0.27055703  1
  O2-  O311  1  0.06833965  0.73938254  0.76697231  1
  O2-  O312  1  0.40592990  0.07177647  0.27257554  1
  O2-  O313  1  0.40387085  0.07251670  0.77280041  1
  O2-  O314  1  0.40349250  0.40713477  0.27356915  1
  O2-  O315  1  0.40653378  0.40526863  0.77318244  1
  O2-  O316  1  0.40694981  0.74157757  0.27490644  1
  O2-  O317  1  0.40568013  0.73932829  0.77147644  1
  O2-  O318  1  0.73749647  0.07337165  0.27290269  1
  O2-  O319  1  0.74261878  0.07403997  0.76562893  1
  O2-  O320  1  0.73583843  0.40270224  0.26783571  1
  O2-  O321  1  0.73185232  0.40249508  0.76635160  1
  O2-  O322  1  0.73584834  0.73561071  0.26587653  1
  O2-  O323  1  0.73799601  0.73859135  0.77177358  1
  O2-  O324  1  0.24091578  0.09449926  0.22789045  1
  O2-  O325  1  0.23942990  0.09502986  0.73022587  1
  O2-  O326  1  0.23339255  0.43045065  0.23331896  1
  O2-  O327  1  0.23928827  0.42698862  0.72846382  1
  O2-  O328  1  0.23798549  0.76188908  0.23014126  1
  O2-  O329  1  0.24411277  0.75611432  0.73221369  1
  O2-  O330  1  0.56932767  0.09739616  0.23277370  1
  O2-  O331  1  0.57264435  0.09308496  0.72918977  1
  O2-  O332  1  0.56936040  0.42678921  0.22810219  1
  O2-  O333  1  0.56861334  0.42985062  0.72596326  1
  O2-  O334  1  0.57324338  0.76296118  0.22937985  1
  O2-  O335  1  0.57321087  0.76055351  0.72973509  1
  O2-  O336  1  0.90232355  0.09623845  0.23314742  1
  O2-  O337  1  0.90542211  0.09724791  0.73579648  1
  O2-  O338  1  0.90492237  0.42922106  0.22789767  1
  O2-  O339  1  0.90418069  0.42647117  0.72832006  1
  O2-  O340  1  0.90613191  0.76201609  0.23041982  1
  O2-  O341  1  0.90411673  0.76364281  0.73006361  1
  O2-  O342  1  0.26291111  0.26033323  0.02262975  1
  O2-  O343  1  0.26464448  0.26008724  0.52214197  1
  O2-  O344  1  0.26079891  0.59537527  0.02055522  1
  O2-  O345  1  0.26152854  0.59288893  0.52165311  1
  O2-  O346  1  0.26216090  0.92640280  0.02374217  1
  O2-  O347  1  0.26360968  0.93092458  0.51543289  1
  O2-  O348  1  0.59272560  0.26024960  0.02208772  1
  O2-  O349  1  0.59479206  0.26064263  0.52130058  1
  O2-  O350  1  0.59255164  0.59351563  0.02204210  1
  O2-  O351  1  0.59725097  0.59507384  0.51734886  1
  O2-  O352  1  0.59623840  0.92614560  0.02327696  1
  O2-  O353  1  0.59274913  0.92355269  0.52616634  1
  O2-  O354  1  0.92685185  0.26214315  0.02038385  1
  O2-  O355  1  0.92640118  0.26033014  0.52108011  1
  O2-  O356  1  0.92767141  0.59559093  0.02196999  1
  O2-  O357  1  0.92872102  0.59590416  0.52182616  1
  O2-  O358  1  0.92932167  0.92864151  0.02403999  1
  O2-  O359  1  0.92825839  0.92956996  0.51960491  1
