# generated using pymatgen
data_Sr7Ca15Pr50Mn72O216
_symmetry_space_group_name_H-M   'P 1'
_cell_length_a   16.55898063
_cell_length_b   16.60403003
_cell_length_c   15.59403965
_cell_angle_alpha   90.00260284
_cell_angle_beta   89.99896934
_cell_angle_gamma   89.98501577
_symmetry_Int_Tables_number   1
_chemical_formula_structural   Sr7Ca15Pr50Mn72O216
_chemical_formula_sum   'Sr7 Ca15 Pr50 Mn72 O216'
_cell_volume   4287.51573908
_cell_formula_units_Z   1
loop_
 _symmetry_equiv_pos_site_id
 _symmetry_equiv_pos_as_xyz
  1  'x, y, z'
loop_
 _atom_type_symbol
 _atom_type_oxidation_number
  Sr2+  2.0
  Ca2+  2.0
  Pr3+  3.0
  Mn3.30+  3.3
  O2-  -2.0
loop_
 _atom_site_type_symbol
 _atom_site_label
 _atom_site_symmetry_multiplicity
 _atom_site_fract_x
 _atom_site_fract_y
 _atom_site_fract_z
 _atom_site_occupancy
  Sr2+  Sr0  1  0.67068369  0.65643526  0.37468640  1
  Sr2+  Sr1  1  0.50498763  0.17994636  0.62555345  1
  Sr2+  Sr2  1  0.49949690  0.17437160  0.12415354  1
  Sr2+  Sr3  1  0.66900801  0.67516608  0.62368472  1
  Sr2+  Sr4  1  0.33381906  0.34139396  0.12468157  1
  Sr2+  Sr5  1  0.16608752  0.15612242  0.87522987  1
  Sr2+  Sr6  1  0.99773647  0.65931100  0.37164643  1
  Ca2+  Ca7  1  1.00222514  0.98409696  0.37446094  1
  Ca2+  Ca8  1  0.66245401  0.34814542  0.62406694  1
  Ca2+  Ca9  1  0.83056375  0.81662604  0.37203413  1
  Ca2+  Ca10  1  0.49800923  0.48514395  0.87680077  1
  Ca2+  Ca11  1  -0.00486948  0.01526628  0.62336615  1
  Ca2+  Ca12  1  1.00095834  0.32163222  0.37540338  1
  Ca2+  Ca13  1  0.83092981  0.51408462  0.62288029  1
  Ca2+  Ca14  1  -0.00562366  0.68423102  0.12761464  1
  Ca2+  Ca15  1  0.33050000  0.01457899  0.12510028  1
  Ca2+  Ca16  1  0.50510936  0.51395480  0.12579958  1
  Ca2+  Ca17  1  0.83532050  0.84464645  0.13072238  1
  Ca2+  Ca18  1  0.66425347  0.68111422  0.12772255  1
  Ca2+  Ca19  1  0.50058154  0.48799028  0.37251578  1
  Ca2+  Ca20  1  0.66445530  0.01469326  0.12608413  1
  Ca2+  Ca21  1  0.49538581  0.15269262  0.87738158  1
  Pr3+  Pr22  1  -0.00307484  0.01231836  0.12738658  1
  Pr3+  Pr23  1  0.82850925  0.48706654  0.87370653  1
  Pr3+  Pr24  1  0.33806346  0.99095124  0.87763052  1
  Pr3+  Pr25  1  0.66429859  0.31950384  0.87372163  1
  Pr3+  Pr26  1  0.49847519  0.15488357  0.37401739  1
  Pr3+  Pr27  1  0.50661705  0.84330295  0.62410065  1
  Pr3+  Pr28  1  1.00175752  0.31934655  0.87491835  1
  Pr3+  Pr29  1  0.16014433  0.48608617  0.37399049  1
  Pr3+  Pr30  1  0.16952019  0.51441118  0.62494509  1
  Pr3+  Pr31  1  0.66474702  0.01093472  0.62374609  1
  Pr3+  Pr32  1  0.33893560  0.65071474  0.37305707  1
  Pr3+  Pr33  1  0.49847635  0.82058049  0.87630502  1
  Pr3+  Pr34  1  0.17003363  0.51275854  0.12562688  1
  Pr3+  Pr35  1  0.50682129  0.84699776  0.12610948  1
  Pr3+  Pr36  1  0.50089969  0.81773125  0.37369410  1
  Pr3+  Pr37  1  0.83221841  0.15535751  0.37468272  1
  Pr3+  Pr38  1  0.83521930  0.17938657  0.62473322  1
  Pr3+  Pr39  1  0.83192612  0.17858330  0.12567371  1
  Pr3+  Pr40  1  0.33703061  0.98612646  0.37284219  1
  Pr3+  Pr41  1  0.33909998  0.31639567  0.87553837  1
  Pr3+  Pr42  1  0.83449360  0.51549802  0.12490123  1
  Pr3+  Pr43  1  0.33194095  0.34610114  0.62502215  1
  Pr3+  Pr44  1  0.16480709  0.48615888  0.87625585  1
  Pr3+  Pr45  1  -0.00505286  0.67756250  0.62300836  1
  Pr3+  Pr46  1  0.33411566  0.67660161  0.12503944  1
  Pr3+  Pr47  1  1.00380400  0.98829965  0.87542869  1
  Pr3+  Pr48  1  0.33971600  0.65041525  0.87668500  1
  Pr3+  Pr49  1  0.83004371  0.82214232  0.87704083  1
  Pr3+  Pr50  1  0.82954348  0.49237224  0.37666308  1
  Pr3+  Pr51  1  0.33211343  0.01252680  0.62358135  1
  Pr3+  Pr52  1  0.50495369  0.50973734  0.62512767  1
  Pr3+  Pr53  1  0.66687802  0.32399845  0.37635914  1
  Pr3+  Pr54  1  -0.00288064  0.34407688  0.12596349  1
  Pr3+  Pr55  1  0.65848727  0.34597799  0.12551091  1
  Pr3+  Pr56  1  0.66643769  0.99138308  0.87743713  1
  Pr3+  Pr57  1  1.00218886  0.65462294  0.87803265  1
  Pr3+  Pr58  1  0.16711734  0.17859779  0.62517505  1
  Pr3+  Pr59  1  0.67229529  0.98657963  0.37195536  1
  Pr3+  Pr60  1  0.83009289  0.15312165  0.87572554  1
  Pr3+  Pr61  1  0.17268136  0.17826682  0.12458587  1
  Pr3+  Pr62  1  0.66912505  0.65297452  0.87640583  1
  Pr3+  Pr63  1  0.16293574  0.81997129  0.37327272  1
  Pr3+  Pr64  1  0.16488341  0.82355786  0.87651828  1
  Pr3+  Pr65  1  0.16697522  0.84557468  0.62264732  1
  Pr3+  Pr66  1  -0.00633747  0.34919906  0.62416155  1
  Pr3+  Pr67  1  0.16076465  0.15298605  0.37453477  1
  Pr3+  Pr68  1  0.33172011  0.67866244  0.62495464  1
  Pr3+  Pr69  1  0.16900210  0.84723267  0.12678706  1
  Pr3+  Pr70  1  0.33658167  0.32185329  0.37454401  1
  Pr3+  Pr71  1  0.83699584  0.84563455  0.62097257  1
  Mn3.30+  Mn72  1  0.16825137  0.00005221  0.00013863  1
  Mn3.30+  Mn73  1  0.16288776  -0.00020760  0.50012291  1
  Mn3.30+  Mn74  1  0.16704175  0.33286338  -0.00004952  1
  Mn3.30+  Mn75  1  0.16384261  0.33363817  0.50022905  1
  Mn3.30+  Mn76  1  0.16651471  0.66769239  0.00182357  1
  Mn3.30+  Mn77  1  0.16595878  0.66641688  0.49828977  1
  Mn3.30+  Mn78  1  0.50127609  0.00094071  0.00312203  1
  Mn3.30+  Mn79  1  0.50139147  -0.00091812  0.49798907  1
  Mn3.30+  Mn80  1  0.49908889  0.33423626  0.00085447  1
  Mn3.30+  Mn81  1  0.50151216  0.33430060  0.49979772  1
  Mn3.30+  Mn82  1  0.50319153  0.66433242  0.00182242  1
  Mn3.30+  Mn83  1  0.50163429  0.66353379  0.49867827  1
  Mn3.30+  Mn84  1  0.83247287  -0.00159289  0.00400088  1
  Mn3.30+  Mn85  1  0.83694969  -0.00070620  0.49680720  1
  Mn3.30+  Mn86  1  0.83055433  0.33373347  0.00027979  1
  Mn3.30+  Mn87  1  0.83294840  0.33537058  0.50040443  1
  Mn3.30+  Mn88  1  0.83309606  0.66898384  0.00312579  1
  Mn3.30+  Mn89  1  0.83309663  0.66641274  0.49910109  1
  Mn3.30+  Mn90  1  -0.00028479  0.16703995  0.25178062  1
  Mn3.30+  Mn91  1  -0.00045477  0.16542232  0.74889613  1
  Mn3.30+  Mn92  1  -0.00123427  0.50107806  0.24946693  1
  Mn3.30+  Mn93  1  -0.00207862  0.50127592  0.75030393  1
  Mn3.30+  Mn94  1  -0.00227177  0.83340460  0.25053911  1
  Mn3.30+  Mn95  1  -0.00050238  0.83473107  0.74952175  1
  Mn3.30+  Mn96  1  0.33233851  0.16595376  0.25027017  1
  Mn3.30+  Mn97  1  0.33570103  0.16554278  0.74888835  1
  Mn3.30+  Mn98  1  0.33574520  0.49824501  0.24830094  1
  Mn3.30+  Mn99  1  0.33532706  0.49878245  0.75125243  1
  Mn3.30+  Mn100  1  0.33465750  0.83335442  0.24827833  1
  Mn3.30+  Mn101  1  0.33391015  0.83349064  0.74985920  1
  Mn3.30+  Mn102  1  0.66572325  0.16663874  0.25006390  1
  Mn3.30+  Mn103  1  0.66465010  0.16729789  0.74992166  1
  Mn3.30+  Mn104  1  0.66456684  0.50183110  0.24960619  1
  Mn3.30+  Mn105  1  0.66517985  0.49857067  0.74978150  1
  Mn3.30+  Mn106  1  0.67109438  0.83264738  0.24741155  1
  Mn3.30+  Mn107  1  0.66748061  0.83331786  0.75048554  1
  Mn3.30+  Mn108  1  0.16632917  -0.00031680  0.25136652  1
  Mn3.30+  Mn109  1  0.16546199  0.00015353  0.74793475  1
  Mn3.30+  Mn110  1  0.16532850  0.33295756  0.25096824  1
  Mn3.30+  Mn111  1  0.16552200  0.33328626  0.74941623  1
  Mn3.30+  Mn112  1  0.16534266  0.66669004  0.24796904  1
  Mn3.30+  Mn113  1  0.16696053  0.66763936  0.75180780  1
  Mn3.30+  Mn114  1  0.50161935  -0.00010541  0.24835664  1
  Mn3.30+  Mn115  1  0.50061499  0.00033273  0.75016494  1
  Mn3.30+  Mn116  1  0.49949784  0.33553751  0.24911347  1
  Mn3.30+  Mn117  1  0.50096093  0.33285698  0.75020148  1
  Mn3.30+  Mn118  1  0.50314127  0.66336177  0.24889171  1
  Mn3.30+  Mn119  1  0.50138557  0.66433356  0.75071018  1
  Mn3.30+  Mn120  1  0.83432889  -0.00214310  0.25017645  1
  Mn3.30+  Mn121  1  0.83475048  -0.00006968  0.74946159  1
  Mn3.30+  Mn122  1  0.83267370  0.33491282  0.25127995  1
  Mn3.30+  Mn123  1  0.83035178  0.33476119  0.74748065  1
  Mn3.30+  Mn124  1  0.83248435  0.66843441  0.24792436  1
  Mn3.30+  Mn125  1  0.83379164  0.66656288  0.75000946  1
  Mn3.30+  Mn126  1  0.00007515  0.16620946  0.00140031  1
  Mn3.30+  Mn127  1  -0.00084204  0.16645188  0.49881453  1
  Mn3.30+  Mn128  1  -0.00085834  0.50116036  0.00153891  1
  Mn3.30+  Mn129  1  -0.00202569  0.50071314  0.49880784  1
  Mn3.30+  Mn130  1  -0.00254630  0.83334315  0.00324154  1
  Mn3.30+  Mn131  1  -0.00050198  0.83494057  0.49730393  1
  Mn3.30+  Mn132  1  0.33452160  0.16451756  0.00016858  1
  Mn3.30+  Mn133  1  0.33297555  0.16722876  0.50045597  1
  Mn3.30+  Mn134  1  0.33685360  0.49796504  0.00201969  1
  Mn3.30+  Mn135  1  0.33424190  0.49943472  0.49841006  1
  Mn3.30+  Mn136  1  0.33449673  0.83411527  0.00198364  1
  Mn3.30+  Mn137  1  0.33439858  0.83228302  0.49916493  1
  Mn3.30+  Mn138  1  0.66367791  0.16592153  -0.00014941  1
  Mn3.30+  Mn139  1  0.66696681  0.16773657  0.50032452  1
  Mn3.30+  Mn140  1  0.66354418  0.50076326  0.00070039  1
  Mn3.30+  Mn141  1  0.66586787  0.49935898  0.50018372  1
  Mn3.30+  Mn142  1  0.66804496  0.83401402  0.00341838  1
  Mn3.30+  Mn143  1  0.67035485  0.83230451  0.49815741  1
  O2-  O144  1  0.02696291  0.16177518  0.12659530  1
  O2-  O145  1  0.02344086  0.16043048  0.62271234  1
  O2-  O146  1  0.02640538  0.48991562  0.12477289  1
  O2-  O147  1  0.02634381  0.49727261  0.62641196  1
  O2-  O148  1  0.02551332  0.83029195  0.12521202  1
  O2-  O149  1  0.02481353  0.82394570  0.62297796  1
  O2-  O150  1  0.34887011  0.16080007  0.12752801  1
  O2-  O151  1  0.35523278  0.16138950  0.62324478  1
  O2-  O152  1  0.36073050  0.49869367  0.12449955  1
  O2-  O153  1  0.35856793  0.49608060  0.62374768  1
  O2-  O154  1  0.36272376  0.82425991  0.12596262  1
  O2-  O155  1  0.36226835  0.82625119  0.62625960  1
  O2-  O156  1  0.68882102  0.16477159  0.12702526  1
  O2-  O157  1  0.69199034  0.15808149  0.62491888  1
  O2-  O158  1  0.69236400  0.49060943  0.12347376  1
  O2-  O159  1  0.68909695  0.49217159  0.62699934  1
  O2-  O160  1  0.69380921  0.82471946  0.12398791  1
  O2-  O161  1  0.69059019  0.83608615  0.62400114  1
  O2-  O162  1  0.14176240  0.32702070  0.12653230  1
  O2-  O163  1  0.13882056  0.32923399  0.62577713  1
  O2-  O164  1  0.13934605  0.66021440  0.12413105  1
  O2-  O165  1  0.14114962  0.66182908  0.62683624  1
  O2-  O166  1  0.14118515  0.99621629  0.12731659  1
  O2-  O167  1  0.13683870  0.99246044  0.62336437  1
  O2-  O168  1  0.48237833  0.32751593  0.12560340  1
  O2-  O169  1  0.47539931  0.33411427  0.62492558  1
  O2-  O170  1  0.47626704  0.66092667  0.12450441  1
  O2-  O171  1  0.47425482  0.66007291  0.62371090  1
  O2-  O172  1  0.47301604  0.99388788  0.12674524  1
  O2-  O173  1  0.47648604  0.98997601  0.62124644  1
  O2-  O174  1  0.80395400  0.32754882  0.12655735  1
  O2-  O175  1  0.80406068  0.32475841  0.62579507  1
  O2-  O176  1  0.80491888  0.66069946  0.12287137  1
  O2-  O177  1  0.81866355  0.66409252  0.62741955  1
  O2-  O178  1  0.80647316  0.99368623  0.12563951  1
  O2-  O179  1  0.80812808  0.99441900  0.62184690  1
  O2-  O180  1  0.30684176  0.17181523  0.37761465  1
  O2-  O181  1  0.31532167  0.16539235  0.87210633  1
  O2-  O182  1  0.30485838  0.50377465  0.37490974  1
  O2-  O183  1  0.30762027  0.50410054  0.87681693  1
  O2-  O184  1  0.30745252  0.83792006  0.37205083  1
  O2-  O185  1  0.30891772  0.84128905  0.87492524  1
  O2-  O186  1  0.64311441  0.17263687  0.37554126  1
  O2-  O187  1  0.63973467  0.16978697  0.87256932  1
  O2-  O188  1  0.64317755  0.50028030  0.37305119  1
  O2-  O189  1  0.64052012  0.50608994  0.87711045  1
  O2-  O190  1  0.64344903  0.83936921  0.37313505  1
  O2-  O191  1  0.64156699  0.84255053  0.87765807  1
  O2-  O192  1  0.97446163  0.17829965  0.37503225  1
  O2-  O193  1  0.97391484  0.17099245  0.87635637  1
  O2-  O194  1  0.97424954  0.50436824  0.37201148  1
  O2-  O195  1  0.97316001  0.50601530  0.87664896  1
  O2-  O196  1  0.97458825  0.83980597  0.37420264  1
  O2-  O197  1  0.97458557  0.84125726  0.87768947  1
  O2-  O198  1  0.19366587  0.00372601  0.37622970  1
  O2-  O199  1  0.19268604  -0.00352469  0.87253678  1
  O2-  O200  1  0.19158789  0.33887126  0.37615974  1
  O2-  O201  1  0.19175676  0.33863741  0.87215764  1
  O2-  O202  1  0.19369491  0.67133252  0.37188760  1
  O2-  O203  1  0.19471563  0.67489854  0.87672262  1
  O2-  O204  1  0.52599252  0.00372634  0.37395357  1
  O2-  O205  1  0.52213139  0.00281087  0.87810059  1
  O2-  O206  1  0.52269990  0.34081867  0.37465731  1
  O2-  O207  1  0.52199077  0.34166033  0.87530640  1
  O2-  O208  1  0.52045172  0.67166856  0.37380469  1
  O2-  O209  1  0.52549589  0.67408239  0.87771906  1
  O2-  O210  1  0.86248474  0.01036586  0.37437772  1
  O2-  O211  1  0.86049208  0.00531550  0.87763359  1
  O2-  O212  1  0.86009923  0.34244330  0.37483872  1
  O2-  O213  1  0.85888450  0.33910320  0.87280823  1
  O2-  O214  1  0.84944493  0.66412626  0.37236182  1
  O2-  O215  1  0.85885125  0.67301491  0.87747506  1
  O2-  O216  1  0.23818224  0.09217251  0.01781128  1
  O2-  O217  1  0.23436329  0.09147394  0.52139001  1
  O2-  O218  1  0.23630951  0.42985322  0.01753107  1
  O2-  O219  1  0.23693312  0.42888762  0.52136984  1
  O2-  O220  1  0.23904454  0.76158443  0.02250319  1
  O2-  O221  1  0.24038950  0.76081668  0.52057891  1
  O2-  O222  1  0.57482107  0.09163418  0.01713859  1
  O2-  O223  1  0.57371056  0.09130348  0.51650673  1
  O2-  O224  1  0.57105622  0.43015967  0.02186350  1
  O2-  O225  1  0.57111161  0.42790003  0.51800419  1
  O2-  O226  1  0.57015725  0.76447239  0.01770330  1
  O2-  O227  1  0.57022469  0.76219661  0.51515692  1
  O2-  O228  1  0.90480934  0.09463001  0.02326424  1
  O2-  O229  1  0.90257994  0.09805323  0.51814315  1
  O2-  O230  1  0.90345200  0.42756349  0.02038428  1
  O2-  O231  1  0.90310768  0.42908068  0.52415985  1
  O2-  O232  1  0.90174990  0.76575898  0.02043784  1
  O2-  O233  1  0.90986798  0.76107736  0.51841881  1
  O2-  O234  1  0.25785799  0.25911678  0.23424954  1
  O2-  O235  1  0.26087521  0.25944966  0.72945107  1
  O2-  O236  1  0.26276581  0.59350986  0.22857059  1
  O2-  O237  1  0.26264330  0.59475739  0.73067797  1
  O2-  O238  1  0.26401562  0.92885570  0.22874069  1
  O2-  O239  1  0.25908022  0.92727046  0.72416103  1
  O2-  O240  1  0.59626766  0.26444853  0.23767991  1
  O2-  O241  1  0.59924234  0.26573413  0.73207374  1
  O2-  O242  1  0.59693388  0.59544995  0.22725875  1
  O2-  O243  1  0.59337702  0.59250166  0.73183089  1
  O2-  O244  1  0.59887362  0.92727763  0.22820283  1
  O2-  O245  1  0.59438832  0.92764724  0.73098164  1
  O2-  O246  1  0.92371472  0.26041745  0.22634492  1
  O2-  O247  1  0.92554243  0.26339148  0.72934032  1
  O2-  O248  1  0.92649876  0.59496763  0.22453696  1
  O2-  O249  1  0.93287248  0.59808595  0.73601937  1
  O2-  O250  1  0.92977089  0.92854845  0.22913049  1
  O2-  O251  1  0.92933241  0.92954323  0.72821557  1
  O2-  O252  1  0.09556795  0.23743435  0.26838478  1
  O2-  O253  1  0.09009835  0.24057881  0.76721536  1
  O2-  O254  1  0.09608029  0.56742633  0.26625069  1
  O2-  O255  1  0.09719561  0.57330808  0.77313687  1
  O2-  O256  1  0.09827439  0.90454394  0.26771645  1
  O2-  O257  1  0.09492191  0.90349044  0.76995080  1
  O2-  O258  1  0.42529127  0.24061126  0.27287302  1
  O2-  O259  1  0.43072320  0.23926029  0.77156987  1
  O2-  O260  1  0.42715992  0.57170111  0.27184282  1
  O2-  O261  1  0.42836093  0.56922471  0.77208157  1
  O2-  O262  1  0.42944653  0.90367634  0.27190300  1
  O2-  O263  1  0.42776390  0.90497354  0.77033941  1
  O2-  O264  1  0.76124182  0.24018781  0.27188043  1
  O2-  O265  1  0.76113353  0.23756692  0.77228448  1
  O2-  O266  1  0.76357449  0.56763653  0.26366223  1
  O2-  O267  1  0.75916910  0.57331641  0.77171346  1
  O2-  O268  1  0.76427185  0.90695247  0.27447130  1
  O2-  O269  1  0.76224575  0.90694727  0.77018880  1
  O2-  O270  1  0.07025304  0.07259084  0.47474660  1
  O2-  O271  1  0.07142256  0.06911473  0.98266871  1
  O2-  O272  1  0.06863625  0.40475176  0.47990652  1
  O2-  O273  1  0.07103151  0.40576154  0.97861450  1
  O2-  O274  1  0.07542189  0.74165690  0.48035215  1
  O2-  O275  1  0.07192315  0.74254241  0.97803294  1
  O2-  O276  1  0.40726347  0.06929532  0.47862860  1
  O2-  O277  1  0.40627445  0.07063672  0.98350747  1
  O2-  O278  1  0.40055854  0.40299007  0.48388652  1
  O2-  O279  1  0.40341511  0.40331355  0.97922774  1
  O2-  O280  1  0.40493982  0.73627239  0.47995883  1
  O2-  O281  1  0.40541950  0.73772356  0.98021156  1
  O2-  O282  1  0.74036744  0.07166535  0.47843048  1
  O2-  O283  1  0.74206077  0.07407586  0.97948603  1
  O2-  O284  1  0.74000629  0.40695550  0.47785892  1
  O2-  O285  1  0.73690038  0.40529478  0.97761906  1
  O2-  O286  1  0.74295164  0.74262309  0.48544718  1
  O2-  O287  1  0.73903196  0.74086202  0.97498678  1
  O2-  O288  1  0.09551568  0.23613695  0.48353288  1
  O2-  O289  1  0.08975515  0.24177825  0.98257800  1
  O2-  O290  1  0.09708956  0.56935483  0.48334652  1
  O2-  O291  1  0.09619856  0.57263629  0.97794385  1
  O2-  O292  1  0.09752452  0.90315009  0.47977957  1
  O2-  O293  1  0.09602619  0.90571552  0.98206272  1
  O2-  O294  1  0.42978529  0.24251325  0.47761528  1
  O2-  O295  1  0.42669819  0.23907503  0.97911235  1
  O2-  O296  1  0.42700962  0.56922632  0.47692486  1
  O2-  O297  1  0.42919431  0.57205450  0.97740463  1
  O2-  O298  1  0.42898262  0.90374657  0.47709186  1
  O2-  O299  1  0.42961685  0.90523174  0.98064932  1
  O2-  O300  1  0.76347250  0.24001422  0.47815948  1
  O2-  O301  1  0.75994740  0.23861496  0.97911404  1
  O2-  O302  1  0.75948509  0.56980223  0.48653160  1
  O2-  O303  1  0.76320894  0.57095549  0.97931865  1
  O2-  O304  1  0.76558562  0.90700237  0.47592339  1
  O2-  O305  1  0.75953474  0.90862658  0.97605998  1
  O2-  O306  1  0.07023711  0.07033328  0.27364452  1
  O2-  O307  1  0.07250782  0.06956434  0.76885632  1
  O2-  O308  1  0.07023115  0.40241833  0.27070160  1
  O2-  O309  1  0.06901756  0.40714964  0.77125944  1
  O2-  O310  1  0.07571952  0.74421162  0.26772276  1
  O2-  O311  1  0.07155955  0.74015612  0.77283974  1
  O2-  O312  1  0.40570065  0.07431313  0.27348247  1
  O2-  O313  1  0.40461128  0.06768307  0.76444532  1
  O2-  O314  1  0.40323287  0.40514149  0.27074916  1
  O2-  O315  1  0.40115809  0.40063107  0.76629572  1
  O2-  O316  1  0.40566305  0.73686082  0.26929984  1
  O2-  O317  1  0.40574953  0.73619029  0.77105768  1
  O2-  O318  1  0.74216506  0.07414573  0.27098371  1
  O2-  O319  1  0.73990314  0.07187997  0.77099248  1
  O2-  O320  1  0.73873482  0.40599869  0.27067022  1
  O2-  O321  1  0.73794487  0.40651245  0.77473333  1
  O2-  O322  1  0.74053855  0.74076281  0.26656536  1
  O2-  O323  1  0.73995014  0.74146605  0.77282839  1
  O2-  O324  1  0.23440065  0.09509101  0.23543236  1
  O2-  O325  1  0.23849974  0.09073550  0.72541055  1
  O2-  O326  1  0.23552788  0.42973404  0.23259640  1
  O2-  O327  1  0.23783477  0.42868471  0.72864025  1
  O2-  O328  1  0.24136626  0.76155749  0.22685323  1
  O2-  O329  1  0.23889315  0.76162756  0.72848958  1
  O2-  O330  1  0.57341658  0.09507646  0.23684664  1
  O2-  O331  1  0.57658514  0.09007507  0.73018996  1
  O2-  O332  1  0.57265822  0.42937615  0.22832359  1
  O2-  O333  1  0.56988170  0.42813552  0.73303124  1
  O2-  O334  1  0.57048317  0.76288213  0.23272978  1
  O2-  O335  1  0.57057446  0.76317894  0.73401568  1
  O2-  O336  1  0.90444244  0.09451305  0.22738051  1
  O2-  O337  1  0.90303812  0.09707691  0.73223614  1
  O2-  O338  1  0.90504423  0.42808992  0.22611576  1
  O2-  O339  1  0.90142498  0.42990724  0.72721788  1
  O2-  O340  1  0.90548249  0.76102332  0.23084996  1
  O2-  O341  1  0.90615557  0.76474930  0.73133416  1
  O2-  O342  1  0.25816120  0.25695572  0.01394286  1
  O2-  O343  1  0.25777468  0.26295020  0.52200850  1
  O2-  O344  1  0.26362700  0.59350378  0.02032247  1
  O2-  O345  1  0.26278604  0.59445886  0.52034190  1
  O2-  O346  1  0.26226395  0.92772198  0.02336278  1
  O2-  O347  1  0.26246006  0.92687021  0.52012229  1
  O2-  O348  1  0.59604823  0.26571508  0.01366744  1
  O2-  O349  1  0.59759199  0.26496019  0.51622410  1
  O2-  O350  1  0.60105323  0.59989309  0.01929394  1
  O2-  O351  1  0.59045929  0.59037054  0.52101620  1
  O2-  O352  1  0.59575199  0.92860665  0.02393315  1
  O2-  O353  1  0.59578086  0.92744880  0.51736679  1
  O2-  O354  1  0.92443759  0.26144574  0.02088662  1
  O2-  O355  1  0.92638254  0.26184911  0.52322199  1
  O2-  O356  1  0.93002628  0.59791217  0.02189216  1
  O2-  O357  1  0.92902979  0.59361681  0.51770073  1
  O2-  O358  1  0.93022472  0.93088885  0.01962043  1
  O2-  O359  1  0.92928330  0.92854480  0.52426425  1
