# generated using pymatgen
data_Sr7Ca15Pr50Mn72O216
_symmetry_space_group_name_H-M   'P 1'
_cell_length_a   16.55857933
_cell_length_b   16.60558245
_cell_length_c   15.59293841
_cell_angle_alpha   89.99731428
_cell_angle_beta   89.99272047
_cell_angle_gamma   90.01118695
_symmetry_Int_Tables_number   1
_chemical_formula_structural   Sr7Ca15Pr50Mn72O216
_chemical_formula_sum   'Sr7 Ca15 Pr50 Mn72 O216'
_cell_volume   4287.50991664
_cell_formula_units_Z   1
loop_
 _symmetry_equiv_pos_site_id
 _symmetry_equiv_pos_as_xyz
  1  'x, y, z'
loop_
 _atom_type_symbol
 _atom_type_oxidation_number
  Sr2+  2.0
  Ca2+  2.0
  Pr3+  3.0
  Mn3.30+  3.3
  O2-  -2.0
loop_
 _atom_site_type_symbol
 _atom_site_label
 _atom_site_symmetry_multiplicity
 _atom_site_fract_x
 _atom_site_fract_y
 _atom_site_fract_z
 _atom_site_occupancy
  Sr2+  Sr0  1  0.66770654  0.65681679  0.37587758  1
  Sr2+  Sr1  1  0.82898524  0.49309425  0.37740787  1
  Sr2+  Sr2  1  0.33576353  0.99134406  0.87583407  1
  Sr2+  Sr3  1  1.00118014  0.99300786  0.37567507  1
  Sr2+  Sr4  1  0.33608594  0.65678239  0.37640544  1
  Sr2+  Sr5  1  0.66989371  0.99324861  0.37432918  1
  Sr2+  Sr6  1  0.16500148  0.15594306  0.37500068  1
  Ca2+  Ca7  1  0.83591793  0.84816665  0.12709706  1
  Ca2+  Ca8  1  0.17030241  0.51261754  0.12491802  1
  Ca2+  Ca9  1  0.83480828  0.51501066  0.62548425  1
  Ca2+  Ca10  1  0.49646080  0.15212346  0.37290439  1
  Ca2+  Ca11  1  0.82918931  0.48531932  0.87292923  1
  Ca2+  Ca12  1  1.00116780  0.32032324  0.87450567  1
  Ca2+  Ca13  1  0.33170742  0.67997870  0.62494935  1
  Ca2+  Ca14  1  -0.00284467  0.01605690  0.62238903  1
  Ca2+  Ca15  1  0.82922862  0.15214595  0.37379581  1
  Ca2+  Ca16  1  0.67250621  0.64875651  0.87447586  1
  Ca2+  Ca17  1  0.50192028  0.51559114  0.62507366  1
  Ca2+  Ca18  1  0.33238757  0.01646787  0.12441585  1
  Ca2+  Ca19  1  0.49384850  0.15043118  0.87663705  1
  Ca2+  Ca20  1  0.32947595  0.34759185  0.12617717  1
  Ca2+  Ca21  1  0.50156678  0.17944677  0.12478250  1
  Pr3+  Pr22  1  0.49965571  0.81929671  0.37531695  1
  Pr3+  Pr23  1  0.50103318  0.51088248  0.12406354  1
  Pr3+  Pr24  1  0.49815234  0.82051281  0.87480539  1
  Pr3+  Pr25  1  0.50148579  0.84278075  0.62398688  1
  Pr3+  Pr26  1  -0.00565275  0.34671600  0.62589785  1
  Pr3+  Pr27  1  0.66996979  0.31971507  0.37414732  1
  Pr3+  Pr28  1  0.83837110  0.84865233  0.62429390  1
  Pr3+  Pr29  1  0.66715576  0.98927460  0.87581332  1
  Pr3+  Pr30  1  0.16448146  0.15550148  0.87563987  1
  Pr3+  Pr31  1  0.33601362  0.65339270  0.87384506  1
  Pr3+  Pr32  1  0.66500793  0.67865790  0.12519722  1
  Pr3+  Pr33  1  0.50405622  0.17818774  0.62517680  1
  Pr3+  Pr34  1  0.33737909  0.31773059  0.37273813  1
  Pr3+  Pr35  1  0.33769049  0.98918425  0.37389763  1
  Pr3+  Pr36  1  -0.00244165  0.01402953  0.12640334  1
  Pr3+  Pr37  1  0.49783902  0.48733837  0.87367456  1
  Pr3+  Pr38  1  0.33217689  0.01269206  0.62561104  1
  Pr3+  Pr39  1  0.16549442  0.81965742  0.87563166  1
  Pr3+  Pr40  1  0.16978776  0.51499831  0.62597554  1
  Pr3+  Pr41  1  1.00005700  0.32115747  0.37526621  1
  Pr3+  Pr42  1  0.16377917  0.82176467  0.37414019  1
  Pr3+  Pr43  1  -0.00289968  0.68069608  0.12478714  1
  Pr3+  Pr44  1  1.00281266  0.65493888  0.37495853  1
  Pr3+  Pr45  1  0.17295035  0.84910535  0.12515150  1
  Pr3+  Pr46  1  0.16384495  0.48903277  0.37399666  1
  Pr3+  Pr47  1  0.66252205  0.35000500  0.62581265  1
  Pr3+  Pr48  1  0.83016669  0.82298622  0.37326881  1
  Pr3+  Pr49  1  0.66647069  0.67544374  0.62477261  1
  Pr3+  Pr50  1  0.66683005  0.32036741  0.87579079  1
  Pr3+  Pr51  1  0.50211202  0.84563995  0.12585448  1
  Pr3+  Pr52  1  0.33800217  0.31810162  0.87693395  1
  Pr3+  Pr53  1  0.83541404  0.17714360  0.62234283  1
  Pr3+  Pr54  1  0.83316550  0.15574384  0.87582146  1
  Pr3+  Pr55  1  0.66366360  0.01452737  0.12588490  1
  Pr3+  Pr56  1  0.66453450  0.01258495  0.62428447  1
  Pr3+  Pr57  1  0.83478260  0.17941016  0.12726741  1
  Pr3+  Pr58  1  -0.00168628  0.34497335  0.12434754  1
  Pr3+  Pr59  1  0.83454395  0.51202226  0.12420427  1
  Pr3+  Pr60  1  1.00242851  0.65163279  0.87484774  1
  Pr3+  Pr61  1  0.49609048  0.48894454  0.37574718  1
  Pr3+  Pr62  1  0.16626836  0.17727350  0.62287940  1
  Pr3+  Pr63  1  0.17252398  0.17975350  0.12726285  1
  Pr3+  Pr64  1  -0.00549581  0.67868645  0.62541323  1
  Pr3+  Pr65  1  0.82859973  0.81903085  0.87693336  1
  Pr3+  Pr66  1  0.16917955  0.84538360  0.62488418  1
  Pr3+  Pr67  1  0.33029799  0.34513259  0.62397983  1
  Pr3+  Pr68  1  0.16185281  0.48322384  0.87613927  1
  Pr3+  Pr69  1  0.66316261  0.34474467  0.12411813  1
  Pr3+  Pr70  1  1.00565267  0.98769124  0.87465457  1
  Pr3+  Pr71  1  0.33056261  0.67719725  0.12483823  1
  Mn3.30+  Mn72  1  0.16939963  0.00121430  0.00048879  1
  Mn3.30+  Mn73  1  0.16539866  0.00046482  0.50050288  1
  Mn3.30+  Mn74  1  0.16756141  0.33337466  0.00094154  1
  Mn3.30+  Mn75  1  0.16533069  0.33387762  0.49964654  1
  Mn3.30+  Mn76  1  0.16643997  0.66468709  0.00068150  1
  Mn3.30+  Mn77  1  0.16791278  0.66702652  0.50064616  1
  Mn3.30+  Mn78  1  0.49792181  0.00206548  0.00250317  1
  Mn3.30+  Mn79  1  0.50127992  0.00021139  0.49760930  1
  Mn3.30+  Mn80  1  0.49757280  0.33084445  0.00192442  1
  Mn3.30+  Mn81  1  0.50013947  0.33332333  0.49969513  1
  Mn3.30+  Mn82  1  0.50211893  0.66558155  -0.00259106  1
  Mn3.30+  Mn83  1  0.49865465  0.66463422  0.50300078  1
  Mn3.30+  Mn84  1  0.83415542  -0.00052013  0.00062530  1
  Mn3.30+  Mn85  1  0.83466782  0.00181477  0.49843319  1
  Mn3.30+  Mn86  1  0.83365967  0.33435049  -0.00279411  1
  Mn3.30+  Mn87  1  0.83109418  0.33479939  0.50057303  1
  Mn3.30+  Mn88  1  0.83234506  0.66564797  -0.00108305  1
  Mn3.30+  Mn89  1  0.83242104  0.66615392  0.50051436  1
  Mn3.30+  Mn90  1  0.00055415  0.16727920  0.25159506  1
  Mn3.30+  Mn91  1  -0.00057064  0.16767266  0.74973478  1
  Mn3.30+  Mn92  1  0.00035054  0.49995195  0.24853491  1
  Mn3.30+  Mn93  1  -0.00369556  0.49807885  0.75167137  1
  Mn3.30+  Mn94  1  -0.00044591  0.83536087  0.24865876  1
  Mn3.30+  Mn95  1  -0.00050816  0.83420158  0.75060753  1
  Mn3.30+  Mn96  1  0.33685601  0.16614325  0.24815364  1
  Mn3.30+  Mn97  1  0.33506538  0.16657080  0.75011085  1
  Mn3.30+  Mn98  1  0.33136411  0.49877637  0.24937425  1
  Mn3.30+  Mn99  1  0.33384733  0.50027909  0.74816552  1
  Mn3.30+  Mn100  1  0.33446188  0.83456178  0.24916531  1
  Mn3.30+  Mn101  1  0.33381757  0.83269025  0.75035524  1
  Mn3.30+  Mn102  1  0.66463171  0.16707082  0.25036165  1
  Mn3.30+  Mn103  1  0.66562743  0.16665337  0.75244186  1
  Mn3.30+  Mn104  1  0.66624502  0.50015678  0.25049466  1
  Mn3.30+  Mn105  1  0.66752334  0.50101726  0.75036542  1
  Mn3.30+  Mn106  1  0.66885277  0.83470976  0.24863270  1
  Mn3.30+  Mn107  1  0.66780843  0.83143735  0.75089903  1
  Mn3.30+  Mn108  1  0.16871904  0.00145164  0.25030817  1
  Mn3.30+  Mn109  1  0.16584275  0.00007890  0.74885284  1
  Mn3.30+  Mn110  1  0.16799763  0.33494485  0.24931863  1
  Mn3.30+  Mn111  1  0.16472752  0.33232778  0.75024500  1
  Mn3.30+  Mn112  1  0.16704186  0.66543853  0.24882423  1
  Mn3.30+  Mn113  1  0.16736170  0.66631927  0.74971863  1
  Mn3.30+  Mn114  1  0.49995482  0.00231392  0.24884148  1
  Mn3.30+  Mn115  1  0.49998105  -0.00026910  0.75075514  1
  Mn3.30+  Mn116  1  0.49857254  0.33093210  0.24847758  1
  Mn3.30+  Mn117  1  0.49928895  0.33357141  0.74965454  1
  Mn3.30+  Mn118  1  0.49923131  0.66538614  0.25010325  1
  Mn3.30+  Mn119  1  0.50153965  0.66519542  0.74964179  1
  Mn3.30+  Mn120  1  0.83291711  0.00058604  0.24949626  1
  Mn3.30+  Mn121  1  0.83582411  0.00064203  0.75069973  1
  Mn3.30+  Mn122  1  0.83231666  0.33398054  0.25126351  1
  Mn3.30+  Mn123  1  0.83242431  0.33518840  0.75116355  1
  Mn3.30+  Mn124  1  0.83293469  0.66798159  0.24838802  1
  Mn3.30+  Mn125  1  0.83195255  0.66406114  0.75253001  1
  Mn3.30+  Mn126  1  0.00101583  0.16880906  0.00019534  1
  Mn3.30+  Mn127  1  -0.00113497  0.16617647  0.49880786  1
  Mn3.30+  Mn128  1  -0.00037887  0.49752975  -0.00086116  1
  Mn3.30+  Mn129  1  -0.00257562  0.50019837  0.50070218  1
  Mn3.30+  Mn130  1  -0.00120409  0.83363002  0.00107929  1
  Mn3.30+  Mn131  1  0.00030599  0.83560053  0.49969267  1
  Mn3.30+  Mn132  1  0.33653379  0.16685228  0.00314330  1
  Mn3.30+  Mn133  1  0.33551564  0.16601265  0.49819330  1
  Mn3.30+  Mn134  1  0.33108769  0.49803921  0.00056362  1
  Mn3.30+  Mn135  1  0.33391553  0.50108634  0.50159362  1
  Mn3.30+  Mn136  1  0.33468598  0.83501989  -0.00032892  1
  Mn3.30+  Mn137  1  0.33360628  0.83230620  0.50081652  1
  Mn3.30+  Mn138  1  0.66292368  0.16673351  -0.00073370  1
  Mn3.30+  Mn139  1  0.66726433  0.16699158  0.49813119  1
  Mn3.30+  Mn140  1  0.66802698  0.50002477  -0.00243358  1
  Mn3.30+  Mn141  1  0.66516685  0.50084332  0.50210537  1
  Mn3.30+  Mn142  1  0.66765099  0.83265243  0.00065237  1
  Mn3.30+  Mn143  1  0.66862623  0.83383408  0.50005637  1
  O2-  O144  1  0.02578149  0.16460815  0.12491179  1
  O2-  O145  1  0.02171963  0.16434751  0.62514014  1
  O2-  O146  1  0.02803551  0.49283929  0.12373717  1
  O2-  O147  1  0.02570213  0.49554571  0.62731722  1
  O2-  O148  1  0.02871722  0.82822557  0.12374075  1
  O2-  O149  1  0.02524639  0.82457097  0.62799281  1
  O2-  O150  1  0.36044445  0.15987832  0.12562726  1
  O2-  O151  1  0.35958063  0.16332545  0.62353070  1
  O2-  O152  1  0.35732333  0.49418957  0.12458096  1
  O2-  O153  1  0.35937430  0.49012123  0.62685525  1
  O2-  O154  1  0.35840083  0.82416772  0.12420624  1
  O2-  O155  1  0.35697876  0.82841718  0.62727409  1
  O2-  O156  1  0.69172403  0.16560418  0.12249898  1
  O2-  O157  1  0.69108762  0.16240981  0.62843972  1
  O2-  O158  1  0.69009635  0.49315564  0.12269326  1
  O2-  O159  1  0.69339152  0.49635525  0.62922024  1
  O2-  O160  1  0.69344130  0.82664892  0.12270731  1
  O2-  O161  1  0.69380825  0.82645547  0.62741455  1
  O2-  O162  1  0.14175756  0.32620698  0.12487735  1
  O2-  O163  1  0.14043345  0.32704230  0.62446020  1
  O2-  O164  1  0.14177806  0.66069079  0.12240422  1
  O2-  O165  1  0.13839934  0.66328208  0.62560654  1
  O2-  O166  1  0.14166650  0.99682152  0.12321437  1
  O2-  O167  1  0.13940394  0.99326117  0.62601825  1
  O2-  O168  1  0.47211477  0.32619276  0.12365783  1
  O2-  O169  1  0.47307245  0.32319248  0.62503744  1
  O2-  O170  1  0.47478678  0.66067503  0.12199474  1
  O2-  O171  1  0.47335545  0.66227274  0.62702054  1
  O2-  O172  1  0.47265328  0.99010900  0.12560970  1
  O2-  O173  1  0.47651367  0.99240832  0.62291295  1
  O2-  O174  1  0.80778321  0.32746806  0.12279164  1
  O2-  O175  1  0.80526957  0.32248819  0.62608492  1
  O2-  O176  1  0.80838569  0.65930336  0.12174862  1
  O2-  O177  1  0.81196216  0.66322602  0.62925458  1
  O2-  O178  1  0.80906494  0.99583535  0.12261772  1
  O2-  O179  1  0.80868287  0.99689958  0.62744713  1
  O2-  O180  1  0.31368146  0.16936828  0.37452446  1
  O2-  O181  1  0.30796026  0.17141582  0.87562377  1
  O2-  O182  1  0.30800579  0.50199405  0.37549126  1
  O2-  O183  1  0.30697446  0.50523116  0.87253254  1
  O2-  O184  1  0.30846604  0.84021704  0.37354681  1
  O2-  O185  1  0.30943074  0.83522869  0.87468737  1
  O2-  O186  1  0.63852230  0.17255341  0.37333747  1
  O2-  O187  1  0.63665187  0.17062763  0.87548427  1
  O2-  O188  1  0.64095653  0.50070885  0.37388795  1
  O2-  O189  1  0.64062040  0.50311701  0.87407213  1
  O2-  O190  1  0.64415485  0.83681233  0.37428502  1
  O2-  O191  1  0.64154713  0.84190223  0.87574185  1
  O2-  O192  1  0.97304929  0.17314617  0.37461930  1
  O2-  O193  1  0.97725237  0.17247216  0.87563084  1
  O2-  O194  1  0.97906362  0.50695589  0.37363145  1
  O2-  O195  1  0.97111823  0.50620066  0.87478874  1
  O2-  O196  1  0.97519376  0.83539272  0.37233626  1
  O2-  O197  1  0.97346000  0.84048865  0.87532175  1
  O2-  O198  1  0.19275754  -0.00064616  0.37640656  1
  O2-  O199  1  0.18613136  0.00649231  0.87483768  1
  O2-  O200  1  0.19208918  0.34119639  0.37512080  1
  O2-  O201  1  0.19346262  0.33545159  0.87562983  1
  O2-  O202  1  0.18581064  0.67201893  0.37559312  1
  O2-  O203  1  0.19129421  0.67115502  0.87588372  1
  O2-  O204  1  0.52045906  0.00587134  0.37414805  1
  O2-  O205  1  0.52384236  0.00478877  0.87740063  1
  O2-  O206  1  0.52616160  0.34338289  0.37551000  1
  O2-  O207  1  0.52354113  0.34175087  0.87492828  1
  O2-  O208  1  0.51781166  0.66930422  0.37721622  1
  O2-  O209  1  0.52996446  0.67284690  0.87452478  1
  O2-  O210  1  0.85131081  0.00491407  0.37419943  1
  O2-  O211  1  0.86151085  0.00679392  0.87567835  1
  O2-  O212  1  0.85683062  0.34102848  0.37684757  1
  O2-  O213  1  0.85975702  0.33931989  0.87489859  1
  O2-  O214  1  0.85864399  0.67373475  0.37301775  1
  O2-  O215  1  0.86076733  0.67458629  0.87656832  1
  O2-  O216  1  0.23768242  0.09917297  0.01788873  1
  O2-  O217  1  0.24087180  0.09102520  0.52405442  1
  O2-  O218  1  0.23207456  0.43036634  0.01675082  1
  O2-  O219  1  0.23777145  0.42890265  0.52175020  1
  O2-  O220  1  0.24048058  0.76266638  0.01924843  1
  O2-  O221  1  0.23582561  0.76202393  0.51795900  1
  O2-  O222  1  0.57256189  0.09269073  0.02526184  1
  O2-  O223  1  0.57408462  0.09279316  0.52244850  1
  O2-  O224  1  0.56987417  0.42562539  0.01964107  1
  O2-  O225  1  0.56862595  0.42831192  0.52393073  1
  O2-  O226  1  0.57170639  0.76047786  0.02197398  1
  O2-  O227  1  0.57471679  0.75821604  0.52025935  1
  O2-  O228  1  0.90545343  0.09553186  0.02108380  1
  O2-  O229  1  0.90546928  0.09440723  0.51895835  1
  O2-  O230  1  0.90679487  0.42679342  0.02390747  1
  O2-  O231  1  0.90357207  0.42698227  0.52514549  1
  O2-  O232  1  0.90383429  0.76328736  0.02184108  1
  O2-  O233  1  0.90677751  0.76205991  0.52045801  1
  O2-  O234  1  0.26456996  0.26136226  0.23063461  1
  O2-  O235  1  0.26287872  0.25961581  0.72897898  1
  O2-  O236  1  0.26182705  0.59424232  0.22955333  1
  O2-  O237  1  0.26245582  0.59558493  0.72735881  1
  O2-  O238  1  0.26478108  0.92827709  0.22735953  1
  O2-  O239  1  0.25838402  0.92749980  0.72798656  1
  O2-  O240  1  0.59673553  0.26343824  0.23095749  1
  O2-  O241  1  0.59320925  0.26315961  0.72946234  1
  O2-  O242  1  0.59271908  0.59125692  0.22670948  1
  O2-  O243  1  0.59626709  0.59498599  0.72988021  1
  O2-  O244  1  0.59364769  0.92675747  0.22666046  1
  O2-  O245  1  0.59639527  0.92663778  0.73044545  1
  O2-  O246  1  0.92740593  0.26164452  0.22962609  1
  O2-  O247  1  0.92480172  0.26157267  0.72935411  1
  O2-  O248  1  0.92830673  0.59452135  0.22784898  1
  O2-  O249  1  0.93109018  0.59750733  0.73354765  1
  O2-  O250  1  0.93004322  0.92779799  0.22854063  1
  O2-  O251  1  0.93047810  0.93130466  0.72831916  1
  O2-  O252  1  0.09184336  0.24331484  0.26868865  1
  O2-  O253  1  0.09709499  0.23734994  0.76693270  1
  O2-  O254  1  0.09259785  0.57334508  0.27045942  1
  O2-  O255  1  0.09540901  0.57030443  0.77045722  1
  O2-  O256  1  0.09843745  0.90300763  0.26487265  1
  O2-  O257  1  0.09486962  0.90377990  0.77261366  1
  O2-  O258  1  0.43009762  0.23872892  0.27383048  1
  O2-  O259  1  0.42900450  0.23747653  0.77172460  1
  O2-  O260  1  0.42739955  0.56722383  0.26463351  1
  O2-  O261  1  0.42911300  0.57412169  0.77395962  1
  O2-  O262  1  0.43009383  0.90474553  0.27161747  1
  O2-  O263  1  0.43148990  0.90320099  0.76640070  1
  O2-  O264  1  0.76151482  0.23841328  0.27056395  1
  O2-  O265  1  0.75963900  0.23904885  0.77503002  1
  O2-  O266  1  0.75904390  0.57134768  0.26087987  1
  O2-  O267  1  0.76320477  0.57074136  0.77257213  1
  O2-  O268  1  0.76267907  0.90469120  0.26566291  1
  O2-  O269  1  0.76457699  0.90587546  0.77085704  1
  O2-  O270  1  0.07548273  0.07400115  0.48669574  1
  O2-  O271  1  0.07199321  0.07213973  0.98109187  1
  O2-  O272  1  0.07008005  0.40732144  0.48008469  1
  O2-  O273  1  0.06918369  0.40199002  0.97657422  1
  O2-  O274  1  0.07110342  0.73922717  0.48012851  1
  O2-  O275  1  0.07014838  0.73948442  0.97911649  1
  O2-  O276  1  0.40483695  0.06901060  0.48442060  1
  O2-  O277  1  0.40634480  0.07319613  0.98345463  1
  O2-  O278  1  0.40355664  0.40201295  0.47962122  1
  O2-  O279  1  0.40435168  0.40666530  0.97830614  1
  O2-  O280  1  0.40998402  0.74367736  0.48367060  1
  O2-  O281  1  0.40776716  0.73637397  0.97797791  1
  O2-  O282  1  0.73907848  0.07385504  0.48843580  1
  O2-  O283  1  0.73775913  0.07432372  0.97884459  1
  O2-  O284  1  0.73321193  0.40217721  0.48532624  1
  O2-  O285  1  0.73713501  0.40306791  0.98030247  1
  O2-  O286  1  0.74377123  0.74226130  0.48251582  1
  O2-  O287  1  0.73780106  0.73547564  0.97724522  1
  O2-  O288  1  0.08969355  0.24255097  0.48165281  1
  O2-  O289  1  0.09900233  0.23744512  0.98283920  1
  O2-  O290  1  0.09600024  0.57314336  0.48208744  1
  O2-  O291  1  0.09107750  0.56988119  0.97598170  1
  O2-  O292  1  0.09814150  0.90183287  0.48311544  1
  O2-  O293  1  0.09591381  0.90462477  0.97995667  1
  O2-  O294  1  0.43147381  0.23815109  0.47810974  1
  O2-  O295  1  0.42841598  0.23842629  0.97484043  1
  O2-  O296  1  0.42841986  0.56890519  0.48330780  1
  O2-  O297  1  0.42959744  0.57206067  0.97822252  1
  O2-  O298  1  0.42941324  0.90602526  0.47880467  1
  O2-  O299  1  0.43194462  0.90166328  0.98285302  1
  O2-  O300  1  0.76124826  0.23789237  0.47739117  1
  O2-  O301  1  0.76052960  0.23956738  0.97762968  1
  O2-  O302  1  0.75948051  0.57589913  0.48824004  1
  O2-  O303  1  0.76620594  0.56882601  0.98047293  1
  O2-  O304  1  0.76612371  0.90516990  0.48542552  1
  O2-  O305  1  0.76029244  0.90751214  0.97681273  1
  O2-  O306  1  0.07270229  0.07406251  0.26319624  1
  O2-  O307  1  0.07343996  0.07339459  0.77005256  1
  O2-  O308  1  0.07042894  0.40650550  0.27135096  1
  O2-  O309  1  0.06795510  0.40450442  0.77205206  1
  O2-  O310  1  0.07146109  0.73941000  0.26818041  1
  O2-  O311  1  0.07138576  0.73861328  0.77285071  1
  O2-  O312  1  0.40482254  0.07072919  0.26902472  1
  O2-  O313  1  0.40543596  0.07291006  0.76226815  1
  O2-  O314  1  0.40482297  0.40499058  0.27102690  1
  O2-  O315  1  0.40372788  0.40319675  0.77067691  1
  O2-  O316  1  0.40803086  0.74247398  0.26618423  1
  O2-  O317  1  0.40914333  0.73864228  0.77316088  1
  O2-  O318  1  0.73736763  0.07549559  0.26088551  1
  O2-  O319  1  0.74037154  0.07096905  0.77258689  1
  O2-  O320  1  0.73494313  0.40323910  0.26504084  1
  O2-  O321  1  0.73451927  0.40249501  0.76917626  1
  O2-  O322  1  0.74166554  0.74155708  0.26689151  1
  O2-  O323  1  0.73843299  0.73681348  0.77357314  1
  O2-  O324  1  0.24105210  0.09519312  0.23028223  1
  O2-  O325  1  0.23904221  0.09517958  0.72809245  1
  O2-  O326  1  0.23539754  0.43127894  0.23125709  1
  O2-  O327  1  0.23502457  0.42663630  0.72973520  1
  O2-  O328  1  0.23921252  0.76136163  0.22919637  1
  O2-  O329  1  0.23688202  0.76210962  0.73306728  1
  O2-  O330  1  0.57159249  0.09402551  0.22470075  1
  O2-  O331  1  0.57445989  0.09151369  0.72773304  1
  O2-  O332  1  0.56999479  0.42652314  0.22727527  1
  O2-  O333  1  0.56915574  0.42939264  0.72903732  1
  O2-  O334  1  0.57560541  0.76068856  0.23037783  1
  O2-  O335  1  0.57141338  0.75938862  0.72726504  1
  O2-  O336  1  0.90736088  0.09416462  0.22748937  1
  O2-  O337  1  0.90239284  0.09769512  0.73339976  1
  O2-  O338  1  0.90770059  0.42674270  0.22634509  1
  O2-  O339  1  0.90279098  0.42829765  0.72471233  1
  O2-  O340  1  0.90759425  0.76279127  0.22637422  1
  O2-  O341  1  0.90449289  0.76298960  0.73181096  1
  O2-  O342  1  0.26516562  0.26297538  0.02223375  1
  O2-  O343  1  0.26030454  0.25999452  0.51897368  1
  O2-  O344  1  0.26520475  0.59526262  0.01685781  1
  O2-  O345  1  0.25945344  0.59530245  0.52499089  1
  O2-  O346  1  0.26059935  0.92983673  0.02258546  1
  O2-  O347  1  0.26203135  0.92707212  0.52196727  1
  O2-  O348  1  0.59551172  0.26275097  0.01767952  1
  O2-  O349  1  0.59578970  0.26193779  0.52153834  1
  O2-  O350  1  0.59416032  0.59306876  0.02148504  1
  O2-  O351  1  0.59328215  0.59372546  0.52221841  1
  O2-  O352  1  0.59426738  0.92856826  0.02111016  1
  O2-  O353  1  0.59353920  0.92528130  0.52251284  1
  O2-  O354  1  0.92564965  0.26005570  0.02137128  1
  O2-  O355  1  0.92527864  0.26297518  0.52073305  1
  O2-  O356  1  0.92926770  0.59569575  0.02147956  1
  O2-  O357  1  0.92980897  0.59701662  0.51686153  1
  O2-  O358  1  0.93286105  0.92925901  0.01851273  1
  O2-  O359  1  0.92933770  0.92768505  0.52279687  1
