# generated using pymatgen
data_Sr7Ca15Pr50Mn72O216
_symmetry_space_group_name_H-M   'P 1'
_cell_length_a   16.55739024
_cell_length_b   16.60076042
_cell_length_c   15.59074388
_cell_angle_alpha   90.00190057
_cell_angle_beta   89.99683502
_cell_angle_gamma   90.01456144
_symmetry_Int_Tables_number   1
_chemical_formula_structural   Sr7Ca15Pr50Mn72O216
_chemical_formula_sum   'Sr7 Ca15 Pr50 Mn72 O216'
_cell_volume   4285.35385881
_cell_formula_units_Z   1
loop_
 _symmetry_equiv_pos_site_id
 _symmetry_equiv_pos_as_xyz
  1  'x, y, z'
loop_
 _atom_type_symbol
 _atom_type_oxidation_number
  Sr2+  2.0
  Ca2+  2.0
  Pr3+  3.0
  Mn3.30+  3.3
  O2-  -2.0
loop_
 _atom_site_type_symbol
 _atom_site_label
 _atom_site_symmetry_multiplicity
 _atom_site_fract_x
 _atom_site_fract_y
 _atom_site_fract_z
 _atom_site_occupancy
  Sr2+  Sr0  1  0.33091799  0.67610043  0.12517730  1
  Sr2+  Sr1  1  0.32913017  0.67561053  0.62474932  1
  Sr2+  Sr2  1  0.67067275  0.65400947  0.87410225  1
  Sr2+  Sr3  1  0.66971501  0.31979345  0.37620004  1
  Sr2+  Sr4  1  0.33254163  0.34288100  0.62291968  1
  Sr2+  Sr5  1  0.66317994  0.01321308  0.12558001  1
  Sr2+  Sr6  1  0.16639928  0.49138796  0.87379569  1
  Ca2+  Ca7  1  0.16571863  0.82090760  0.37719624  1
  Ca2+  Ca8  1  0.66148635  0.34671338  0.62405891  1
  Ca2+  Ca9  1  0.34072206  0.31896957  0.37460769  1
  Ca2+  Ca10  1  0.17184185  0.84648568  0.62204796  1
  Ca2+  Ca11  1  0.33151472  0.34536245  0.12747656  1
  Ca2+  Ca12  1  0.50426529  0.18533642  0.62309974  1
  Ca2+  Ca13  1  0.33574626  0.98467487  0.37495560  1
  Ca2+  Ca14  1  0.17403751  0.51329843  0.62567229  1
  Ca2+  Ca15  1  0.82966425  0.48568754  0.87470631  1
  Ca2+  Ca16  1  -0.00514197  0.01455928  0.12667711  1
  Ca2+  Ca17  1  0.82849348  0.81737465  0.87569481  1
  Ca2+  Ca18  1  0.50359866  0.18021167  0.12765927  1
  Ca2+  Ca19  1  0.82884518  0.15282137  0.37321891  1
  Ca2+  Ca20  1  -0.00340250  0.34862031  0.12482491  1
  Ca2+  Ca21  1  0.82970395  0.82035919  0.37443293  1
  Pr3+  Pr22  1  0.16807924  0.51095308  0.12468824  1
  Pr3+  Pr23  1  0.49571143  0.82381707  0.37406519  1
  Pr3+  Pr24  1  0.50123344  0.84567400  0.62450635  1
  Pr3+  Pr25  1  1.00263333  0.65631804  0.37525912  1
  Pr3+  Pr26  1  0.83768099  0.84921190  0.12498312  1
  Pr3+  Pr27  1  0.16736491  0.48767977  0.37607943  1
  Pr3+  Pr28  1  0.83017719  0.15571808  0.87525117  1
  Pr3+  Pr29  1  0.67128351  0.98991464  0.37405104  1
  Pr3+  Pr30  1  -0.00033089  0.01080037  0.62393937  1
  Pr3+  Pr31  1  0.50213938  0.51073479  0.12552745  1
  Pr3+  Pr32  1  0.16989388  0.15513925  0.37649185  1
  Pr3+  Pr33  1  1.00141925  0.98568057  0.37409318  1
  Pr3+  Pr34  1  0.83559017  0.84413328  0.62574171  1
  Pr3+  Pr35  1  0.50237208  0.84671192  0.12521495  1
  Pr3+  Pr36  1  0.49682049  0.82000729  0.87555954  1
  Pr3+  Pr37  1  0.83459256  0.18023054  0.62205663  1
  Pr3+  Pr38  1  0.33550888  0.32249099  0.87582616  1
  Pr3+  Pr39  1  0.83269867  0.51020681  0.62492211  1
  Pr3+  Pr40  1  0.00137366  0.34695978  0.62354363  1
  Pr3+  Pr41  1  0.16288417  0.81999248  0.87363495  1
  Pr3+  Pr42  1  1.00176139  0.98770777  0.87632786  1
  Pr3+  Pr43  1  0.66942458  0.32411990  0.87356067  1
  Pr3+  Pr44  1  0.16745073  0.84694665  0.12707744  1
  Pr3+  Pr45  1  0.83824721  0.18085881  0.12755808  1
  Pr3+  Pr46  1  0.16811713  0.18087944  0.12662162  1
  Pr3+  Pr47  1  0.49787142  0.15562651  0.87515072  1
  Pr3+  Pr48  1  0.50285392  0.50979741  0.62460915  1
  Pr3+  Pr49  1  0.83701770  0.51037596  0.12460041  1
  Pr3+  Pr50  1  0.33414872  0.65459235  0.37456811  1
  Pr3+  Pr51  1  1.00282895  0.31920126  0.37347532  1
  Pr3+  Pr52  1  0.99977505  0.65265963  0.87445083  1
  Pr3+  Pr53  1  0.16488939  0.15750141  0.87420809  1
  Pr3+  Pr54  1  0.49555404  0.15361750  0.37491871  1
  Pr3+  Pr55  1  1.00382851  0.32445181  0.87666229  1
  Pr3+  Pr56  1  0.67140215  0.98578244  0.87625756  1
  Pr3+  Pr57  1  0.33169615  0.01236238  0.12727465  1
  Pr3+  Pr58  1  0.49463459  0.48283465  0.37454622  1
  Pr3+  Pr59  1  0.49677396  0.48648242  0.87534887  1
  Pr3+  Pr60  1  0.66990323  0.65492721  0.37547985  1
  Pr3+  Pr61  1  0.17116749  0.17920479  0.62386554  1
  Pr3+  Pr62  1  0.66473908  0.34227147  0.12652238  1
  Pr3+  Pr63  1  0.33550779  0.65100143  0.87536260  1
  Pr3+  Pr64  1  0.83100437  0.48710137  0.37533338  1
  Pr3+  Pr65  1  0.66054697  0.01619341  0.62469479  1
  Pr3+  Pr66  1  0.33474228  0.98661775  0.87519652  1
  Pr3+  Pr67  1  0.66372216  0.67935339  0.12410097  1
  Pr3+  Pr68  1  0.00221065  0.67768517  0.62536092  1
  Pr3+  Pr69  1  -0.00334722  0.67872746  0.12471453  1
  Pr3+  Pr70  1  0.66188423  0.67945622  0.62572618  1
  Pr3+  Pr71  1  0.33054853  0.01108880  0.62312559  1
  Mn3.30+  Mn72  1  0.16434809  0.00162826  0.00248022  1
  Mn3.30+  Mn73  1  0.16794538  -0.00296901  0.49719471  1
  Mn3.30+  Mn74  1  0.16698843  0.33405944  0.00316431  1
  Mn3.30+  Mn75  1  0.17040827  0.33367067  0.49769819  1
  Mn3.30+  Mn76  1  0.16528950  0.66661793  0.00008294  1
  Mn3.30+  Mn77  1  0.16817826  0.66802541  0.49994938  1
  Mn3.30+  Mn78  1  0.50069316  0.00230283  0.00018675  1
  Mn3.30+  Mn79  1  0.49818485  0.00156593  0.49977040  1
  Mn3.30+  Mn80  1  0.49965178  0.33147909  0.00311579  1
  Mn3.30+  Mn81  1  0.50096164  0.33161909  0.49997908  1
  Mn3.30+  Mn82  1  0.50024884  0.66601689  0.00036879  1
  Mn3.30+  Mn83  1  0.49910583  0.66674049  0.49949578  1
  Mn3.30+  Mn84  1  0.83429589  0.00082179  0.00060112  1
  Mn3.30+  Mn85  1  0.83232387  -0.00029193  0.49959996  1
  Mn3.30+  Mn86  1  0.83544445  0.33443807  -0.00045900  1
  Mn3.30+  Mn87  1  0.83204892  0.33202223  0.50041506  1
  Mn3.30+  Mn88  1  0.83168683  0.66613047  -0.00128403  1
  Mn3.30+  Mn89  1  0.83378717  0.66798106  0.50039044  1
  Mn3.30+  Mn90  1  -0.00020924  0.16564719  0.25123112  1
  Mn3.30+  Mn91  1  -0.00073341  0.16763915  0.74864995  1
  Mn3.30+  Mn92  1  0.00053054  0.49869886  0.25116590  1
  Mn3.30+  Mn93  1  0.00057255  0.50002895  0.74868974  1
  Mn3.30+  Mn94  1  -0.00030402  0.83388231  0.25225210  1
  Mn3.30+  Mn95  1  -0.00043095  0.83334104  0.74943069  1
  Mn3.30+  Mn96  1  0.33503405  0.16778067  0.24883346  1
  Mn3.30+  Mn97  1  0.33484330  0.16686712  0.74886274  1
  Mn3.30+  Mn98  1  0.33296556  0.49724127  0.24908231  1
  Mn3.30+  Mn99  1  0.33226056  0.49795578  0.74880861  1
  Mn3.30+  Mn100  1  0.33099495  0.83412223  0.25131097  1
  Mn3.30+  Mn101  1  0.33084853  0.83182379  0.74855882  1
  Mn3.30+  Mn102  1  0.66656826  0.16644566  0.25041137  1
  Mn3.30+  Mn103  1  0.66478038  0.16938018  0.74861103  1
  Mn3.30+  Mn104  1  0.66734236  0.49860871  0.25025679  1
  Mn3.30+  Mn105  1  0.66819647  0.49905865  0.75060732  1
  Mn3.30+  Mn106  1  0.66788272  0.83494491  0.25061103  1
  Mn3.30+  Mn107  1  0.66815909  0.83338755  0.75051611  1
  Mn3.30+  Mn108  1  0.16590000  -0.00023209  0.25192671  1
  Mn3.30+  Mn109  1  0.16647434  -0.00094752  0.74934381  1
  Mn3.30+  Mn110  1  0.16902483  0.33294375  0.25004327  1
  Mn3.30+  Mn111  1  0.16831359  0.33516674  0.74952930  1
  Mn3.30+  Mn112  1  0.16639571  0.66818185  0.25074369  1
  Mn3.30+  Mn113  1  0.16721268  0.66609612  0.74868143  1
  Mn3.30+  Mn114  1  0.49891991  0.00198447  0.25024201  1
  Mn3.30+  Mn115  1  0.49970370  0.00170468  0.74994218  1
  Mn3.30+  Mn116  1  0.49841409  0.33035856  0.24908694  1
  Mn3.30+  Mn117  1  0.50178039  0.33294671  0.74802559  1
  Mn3.30+  Mn118  1  0.50008668  0.66702166  0.24963329  1
  Mn3.30+  Mn119  1  0.49934268  0.66576313  0.75015565  1
  Mn3.30+  Mn120  1  0.83425491  0.00145235  0.25041824  1
  Mn3.30+  Mn121  1  0.83248327  -0.00060829  0.74953406  1
  Mn3.30+  Mn122  1  0.83466648  0.33184805  0.25141258  1
  Mn3.30+  Mn123  1  0.83318646  0.33454447  0.74754734  1
  Mn3.30+  Mn124  1  0.83310803  0.66823721  0.25088566  1
  Mn3.30+  Mn125  1  0.83243879  0.66571768  0.74982917  1
  Mn3.30+  Mn126  1  -0.00019896  0.16765985  0.00212651  1
  Mn3.30+  Mn127  1  -0.00058237  0.16572497  0.49758417  1
  Mn3.30+  Mn128  1  -0.00125532  0.49881320  -0.00118829  1
  Mn3.30+  Mn129  1  0.00271633  0.50066887  0.50151915  1
  Mn3.30+  Mn130  1  -0.00256080  0.83438633  -0.00111168  1
  Mn3.30+  Mn131  1  0.00142901  0.83267458  0.50001583  1
  Mn3.30+  Mn132  1  0.33436527  0.16801478  0.00320545  1
  Mn3.30+  Mn133  1  0.33602487  0.16656717  0.49961103  1
  Mn3.30+  Mn134  1  0.33268298  0.49728155  0.00185528  1
  Mn3.30+  Mn135  1  0.33232349  0.49816109  0.50017728  1
  Mn3.30+  Mn136  1  0.33170263  0.83288194  0.00140928  1
  Mn3.30+  Mn137  1  0.33050181  0.83315938  0.49894687  1
  Mn3.30+  Mn138  1  0.66549818  0.16736313  0.00137950  1
  Mn3.30+  Mn139  1  0.66581712  0.16833395  0.49962676  1
  Mn3.30+  Mn140  1  0.66917879  0.49922435  -0.00067817  1
  Mn3.30+  Mn141  1  0.66625639  0.49839691  0.49951336  1
  Mn3.30+  Mn142  1  0.66857358  0.83324901  -0.00040731  1
  Mn3.30+  Mn143  1  0.66747382  0.83478162  0.49907796  1
  O2-  O144  1  0.02503837  0.15762701  0.12757004  1
  O2-  O145  1  0.02691712  0.16018599  0.62218421  1
  O2-  O146  1  0.02335737  0.49650124  0.12852714  1
  O2-  O147  1  0.03114550  0.49503696  0.62358495  1
  O2-  O148  1  0.02437044  0.82591829  0.12498816  1
  O2-  O149  1  0.02950336  0.82802172  0.62483326  1
  O2-  O150  1  0.36267964  0.15679154  0.12463393  1
  O2-  O151  1  0.36029000  0.15767940  0.62376471  1
  O2-  O152  1  0.35809119  0.49361833  0.12596579  1
  O2-  O153  1  0.35840486  0.49894208  0.62382528  1
  O2-  O154  1  0.35822205  0.83279114  0.12448078  1
  O2-  O155  1  0.35833608  0.83191362  0.62465391  1
  O2-  O156  1  0.69300378  0.16931079  0.12397783  1
  O2-  O157  1  0.69208881  0.16066902  0.62483566  1
  O2-  O158  1  0.69272693  0.49264734  0.12510177  1
  O2-  O159  1  0.68839084  0.49462765  0.62408409  1
  O2-  O160  1  0.69222006  0.82882190  0.12529112  1
  O2-  O161  1  0.69015359  0.82980262  0.62389899  1
  O2-  O162  1  0.13744783  0.32798765  0.12702058  1
  O2-  O163  1  0.14398120  0.32532080  0.62135843  1
  O2-  O164  1  0.14132403  0.66092327  0.12516800  1
  O2-  O165  1  0.14542066  0.65750815  0.62440213  1
  O2-  O166  1  0.13760568  0.99469055  0.12661317  1
  O2-  O167  1  0.14276331  0.99365504  0.62234108  1
  O2-  O168  1  0.47394079  0.32609879  0.12512763  1
  O2-  O169  1  0.48178711  0.33291121  0.62468189  1
  O2-  O170  1  0.48082235  0.66085676  0.12502632  1
  O2-  O171  1  0.48078877  0.66064294  0.62431052  1
  O2-  O172  1  0.47469775  0.99218676  0.12346112  1
  O2-  O173  1  0.47440835  0.99158374  0.62494595  1
  O2-  O174  1  0.80937058  0.32941603  0.12731371  1
  O2-  O175  1  0.80468216  0.32798398  0.62337095  1
  O2-  O176  1  0.80767257  0.65819674  0.12644943  1
  O2-  O177  1  0.80571382  0.65940823  0.62426518  1
  O2-  O178  1  0.81249479  0.99534969  0.12415813  1
  O2-  O179  1  0.80526669  0.99148511  0.62531757  1
  O2-  O180  1  0.31219606  0.17560610  0.37373710  1
  O2-  O181  1  0.30868222  0.17281984  0.87800412  1
  O2-  O182  1  0.31173015  0.50578714  0.37339705  1
  O2-  O183  1  0.31702745  0.50021952  0.87660215  1
  O2-  O184  1  0.30780242  0.83965039  0.37461916  1
  O2-  O185  1  0.30674892  0.83945041  0.87625928  1
  O2-  O186  1  0.64087993  0.16320137  0.37696736  1
  O2-  O187  1  0.64229363  0.17476822  0.87432535  1
  O2-  O188  1  0.64085846  0.50704523  0.37450194  1
  O2-  O189  1  0.64156400  0.49663476  0.87656336  1
  O2-  O190  1  0.64063137  0.83957216  0.37588023  1
  O2-  O191  1  0.64178390  0.83775087  0.87474033  1
  O2-  O192  1  0.97174706  0.17232037  0.37573924  1
  O2-  O193  1  0.97430247  0.17619631  0.87409136  1
  O2-  O194  1  0.97401980  0.50687918  0.37582497  1
  O2-  O195  1  0.97181791  0.50355997  0.87144171  1
  O2-  O196  1  0.97032531  0.83729454  0.37659979  1
  O2-  O197  1  0.97033181  0.84090049  0.87426628  1
  O2-  O198  1  0.19557805  0.00809178  0.37459500  1
  O2-  O199  1  0.19129905  0.00821810  0.87736950  1
  O2-  O200  1  0.19725983  0.33917978  0.37430159  1
  O2-  O201  1  0.19060110  0.33215415  0.87821792  1
  O2-  O202  1  0.18990579  0.67433465  0.37439068  1
  O2-  O203  1  0.19045405  0.67315095  0.87542514  1
  O2-  O204  1  0.52646137  0.00421819  0.37684662  1
  O2-  O205  1  0.52646223  0.00720222  0.87483483  1
  O2-  O206  1  0.52038248  0.33556862  0.37429743  1
  O2-  O207  1  0.52480640  0.33792091  0.87611650  1
  O2-  O208  1  0.52574736  0.67398166  0.37430873  1
  O2-  O209  1  0.51968704  0.67099723  0.87580434  1
  O2-  O210  1  0.85721534  0.00866323  0.37730861  1
  O2-  O211  1  0.85853887  0.00929081  0.87422701  1
  O2-  O212  1  0.85970512  0.34069550  0.37678793  1
  O2-  O213  1  0.86008613  0.33821090  0.87104494  1
  O2-  O214  1  0.85818403  0.67375681  0.37628122  1
  O2-  O215  1  0.85722902  0.67430151  0.87267995  1
  O2-  O216  1  0.23854929  0.09595470  0.02274342  1
  O2-  O217  1  0.23871411  0.09348458  0.52002304  1
  O2-  O218  1  0.23798082  0.42544985  0.02256036  1
  O2-  O219  1  0.23544538  0.43231911  0.51709335  1
  O2-  O220  1  0.23405599  0.76452036  0.01768291  1
  O2-  O221  1  0.23556530  0.76385546  0.51795637  1
  O2-  O222  1  0.56689009  0.09867105  0.01699675  1
  O2-  O223  1  0.56874707  0.09598874  0.52300701  1
  O2-  O224  1  0.57211837  0.42620811  0.02238345  1
  O2-  O225  1  0.56964163  0.42994961  0.51451244  1
  O2-  O226  1  0.57254805  0.76096383  0.02007251  1
  O2-  O227  1  0.57217400  0.76294912  0.51986069  1
  O2-  O228  1  0.90415735  0.09908233  0.01694302  1
  O2-  O229  1  0.90568357  0.09025768  0.52466390  1
  O2-  O230  1  0.90494711  0.42774546  0.01961360  1
  O2-  O231  1  0.90861023  0.42789550  0.52150324  1
  O2-  O232  1  0.90513694  0.76086948  0.02259215  1
  O2-  O233  1  0.90704337  0.75927780  0.52537060  1
  O2-  O234  1  0.26155679  0.25949996  0.22466607  1
  O2-  O235  1  0.25975891  0.25711303  0.73294609  1
  O2-  O236  1  0.25851895  0.59092698  0.23390421  1
  O2-  O237  1  0.26161023  0.59306857  0.73977149  1
  O2-  O238  1  0.25853494  0.92808106  0.22664686  1
  O2-  O239  1  0.26394263  0.92978983  0.73383491  1
  O2-  O240  1  0.59554733  0.26103863  0.23165136  1
  O2-  O241  1  0.59900837  0.26627326  0.73231727  1
  O2-  O242  1  0.59635283  0.59244708  0.22973156  1
  O2-  O243  1  0.59529678  0.59202096  0.72968510  1
  O2-  O244  1  0.59107132  0.92621055  0.23310347  1
  O2-  O245  1  0.59454303  0.92948757  0.73112405  1
  O2-  O246  1  0.93114676  0.26426634  0.22928833  1
  O2-  O247  1  0.92674984  0.26119771  0.72480325  1
  O2-  O248  1  0.92699239  0.59553063  0.23073557  1
  O2-  O249  1  0.92649794  0.59354175  0.72617687  1
  O2-  O250  1  0.93080999  0.92908920  0.23103552  1
  O2-  O251  1  0.92949261  0.92649768  0.72656843  1
  O2-  O252  1  0.09761181  0.23864987  0.27331563  1
  O2-  O253  1  0.09390560  0.24027686  0.76808612  1
  O2-  O254  1  0.09297834  0.57221307  0.27137479  1
  O2-  O255  1  0.08770396  0.57755658  0.76981954  1
  O2-  O256  1  0.09486346  0.90316930  0.27396228  1
  O2-  O257  1  0.09240292  0.90885457  0.77399201  1
  O2-  O258  1  0.42980403  0.23648217  0.26898186  1
  O2-  O259  1  0.42826882  0.24069359  0.77104540  1
  O2-  O260  1  0.42850192  0.57249004  0.26937530  1
  O2-  O261  1  0.42784257  0.57084216  0.76936090  1
  O2-  O262  1  0.42760482  0.90526800  0.26753008  1
  O2-  O263  1  0.42727917  0.90380050  0.77130751  1
  O2-  O264  1  0.76671382  0.23672046  0.26770485  1
  O2-  O265  1  0.76267338  0.23829210  0.76979123  1
  O2-  O266  1  0.76313188  0.57408816  0.27217765  1
  O2-  O267  1  0.76411626  0.56735049  0.76647135  1
  O2-  O268  1  0.76354638  0.90591118  0.27090590  1
  O2-  O269  1  0.76270548  0.90524869  0.77273839  1
  O2-  O270  1  0.07301888  0.07124881  0.47796315  1
  O2-  O271  1  0.07151108  0.07579387  0.97632290  1
  O2-  O272  1  0.07201573  0.40514764  0.47691474  1
  O2-  O273  1  0.07124162  0.40514934  0.98257438  1
  O2-  O274  1  0.06867012  0.73650841  0.48247681  1
  O2-  O275  1  0.06808484  0.74042493  0.97805856  1
  O2-  O276  1  0.40332878  0.06969111  0.47662452  1
  O2-  O277  1  0.40403136  0.07148201  0.97800588  1
  O2-  O278  1  0.40612907  0.40495383  0.47846319  1
  O2-  O279  1  0.40888825  0.40524300  0.98034590  1
  O2-  O280  1  0.40465229  0.74125028  0.47693020  1
  O2-  O281  1  0.40371075  0.74172242  0.97877341  1
  O2-  O282  1  0.73396529  0.06860874  0.48580092  1
  O2-  O283  1  0.73838927  0.07411534  0.97770269  1
  O2-  O284  1  0.74308541  0.41061987  0.48041969  1
  O2-  O285  1  0.73784034  0.40323337  0.98247063  1
  O2-  O286  1  0.73485641  0.73898396  0.48263668  1
  O2-  O287  1  0.73984089  0.73591247  0.98610539  1
  O2-  O288  1  0.09499763  0.23983917  0.47713992  1
  O2-  O289  1  0.09575341  0.23822484  0.98121099  1
  O2-  O290  1  0.09349616  0.57464690  0.47561825  1
  O2-  O291  1  0.08850746  0.57483673  0.98217147  1
  O2-  O292  1  0.09297574  0.90631987  0.47453551  1
  O2-  O293  1  0.09342016  0.90535582  0.97831169  1
  O2-  O294  1  0.43096735  0.23706258  0.48364846  1
  O2-  O295  1  0.42660348  0.24025964  0.97618430  1
  O2-  O296  1  0.42806793  0.57133801  0.47828263  1
  O2-  O297  1  0.42766670  0.57206025  0.98253811  1
  O2-  O298  1  0.43013116  0.90359444  0.48240763  1
  O2-  O299  1  0.42674738  0.90632284  0.97820995  1
  O2-  O300  1  0.76597525  0.23236432  0.48141089  1
  O2-  O301  1  0.76381444  0.24097289  0.97939896  1
  O2-  O302  1  0.76109049  0.57340829  0.47909912  1
  O2-  O303  1  0.76511736  0.56746912  0.98207085  1
  O2-  O304  1  0.76292134  0.90388895  0.47768897  1
  O2-  O305  1  0.76252087  0.90459241  0.97855455  1
  O2-  O306  1  0.07490799  0.07251423  0.27611207  1
  O2-  O307  1  0.07143256  0.07326116  0.76980144  1
  O2-  O308  1  0.07444081  0.40665811  0.27507425  1
  O2-  O309  1  0.06934728  0.40341558  0.76683273  1
  O2-  O310  1  0.06701667  0.73748603  0.26712356  1
  O2-  O311  1  0.06928099  0.74068293  0.77218628  1
  O2-  O312  1  0.40263004  0.06974701  0.27200754  1
  O2-  O313  1  0.40440177  0.07156075  0.77245945  1
  O2-  O314  1  0.40598572  0.40473935  0.27039294  1
  O2-  O315  1  0.40827884  0.40519679  0.77060603  1
  O2-  O316  1  0.40519872  0.74186998  0.27147460  1
  O2-  O317  1  0.40313471  0.74012009  0.77213242  1
  O2-  O318  1  0.73760962  0.07163299  0.26805661  1
  O2-  O319  1  0.73531685  0.07299357  0.76969405  1
  O2-  O320  1  0.74181800  0.40769386  0.26870574  1
  O2-  O321  1  0.74014203  0.40496663  0.76814291  1
  O2-  O322  1  0.73664275  0.73685378  0.26804214  1
  O2-  O323  1  0.74009509  0.73828589  0.76212947  1
  O2-  O324  1  0.23917389  0.09618775  0.22880387  1
  O2-  O325  1  0.23813355  0.09328734  0.72968414  1
  O2-  O326  1  0.23518449  0.42849658  0.23008114  1
  O2-  O327  1  0.23841602  0.42773345  0.73120617  1
  O2-  O328  1  0.23747990  0.76350843  0.23068248  1
  O2-  O329  1  0.23407479  0.76586309  0.73295543  1
  O2-  O330  1  0.56661977  0.09619232  0.23284251  1
  O2-  O331  1  0.57050351  0.09988129  0.72847812  1
  O2-  O332  1  0.57028088  0.42515235  0.22949821  1
  O2-  O333  1  0.57062325  0.43070664  0.73431977  1
  O2-  O334  1  0.57250693  0.76122496  0.22935672  1
  O2-  O335  1  0.57121604  0.76181127  0.73081503  1
  O2-  O336  1  0.90432579  0.09452895  0.23102239  1
  O2-  O337  1  0.90450167  0.09391268  0.72811580  1
  O2-  O338  1  0.90487422  0.42979821  0.23406962  1
  O2-  O339  1  0.90803862  0.42603838  0.72221873  1
  O2-  O340  1  0.90380680  0.76083978  0.22697153  1
  O2-  O341  1  0.90802291  0.75846450  0.72514229  1
  O2-  O342  1  0.26236147  0.26146602  0.02405654  1
  O2-  O343  1  0.25873779  0.25498049  0.51851103  1
  O2-  O344  1  0.25822612  0.59031114  0.01586885  1
  O2-  O345  1  0.26148566  0.59555752  0.50987954  1
  O2-  O346  1  0.26072171  0.92876501  0.02111515  1
  O2-  O347  1  0.26264235  0.92798254  0.52019544  1
  O2-  O348  1  0.59632960  0.26368786  0.01774171  1
  O2-  O349  1  0.59797788  0.26256049  0.51984812  1
  O2-  O350  1  0.59614872  0.58998107  0.02171102  1
  O2-  O351  1  0.59607177  0.59386319  0.51886317  1
  O2-  O352  1  0.59114444  0.92722327  0.01576718  1
  O2-  O353  1  0.59526164  0.92887626  0.52046713  1
  O2-  O354  1  0.93046449  0.26234758  0.02198765  1
  O2-  O355  1  0.92908285  0.26159560  0.52173984  1
  O2-  O356  1  0.92633761  0.59548630  0.01973408  1
  O2-  O357  1  0.92925318  0.59278106  0.52194429  1
  O2-  O358  1  0.93056425  0.92986015  0.02104313  1
  O2-  O359  1  0.92889249  0.92616889  0.52250148  1
