# generated using pymatgen
data_Sr7Ca15Pr50Mn72O216
_symmetry_space_group_name_H-M   'P 1'
_cell_length_a   16.55515995
_cell_length_b   16.60341569
_cell_length_c   15.59087442
_cell_angle_alpha   90.00488745
_cell_angle_beta   89.99843893
_cell_angle_gamma   89.99401849
_symmetry_Int_Tables_number   1
_chemical_formula_structural   Sr7Ca15Pr50Mn72O216
_chemical_formula_sum   'Sr7 Ca15 Pr50 Mn72 O216'
_cell_volume   4285.49794924
_cell_formula_units_Z   1
loop_
 _symmetry_equiv_pos_site_id
 _symmetry_equiv_pos_as_xyz
  1  'x, y, z'
loop_
 _atom_type_symbol
 _atom_type_oxidation_number
  Sr2+  2.0
  Ca2+  2.0
  Pr3+  3.0
  Mn3.30+  3.3
  O2-  -2.0
loop_
 _atom_site_type_symbol
 _atom_site_label
 _atom_site_symmetry_multiplicity
 _atom_site_fract_x
 _atom_site_fract_y
 _atom_site_fract_z
 _atom_site_occupancy
  Sr2+  Sr0  1  0.50162514  0.84237244  0.12689083  1
  Sr2+  Sr1  1  0.49836675  0.82684484  0.87776991  1
  Sr2+  Sr2  1  0.50329578  0.50985244  0.12507108  1
  Sr2+  Sr3  1  0.16376873  0.48780028  0.87490864  1
  Sr2+  Sr4  1  0.83095328  0.82479657  0.87633370  1
  Sr2+  Sr5  1  0.33203751  0.99146952  0.87464640  1
  Sr2+  Sr6  1  0.33201021  0.34336419  0.62560084  1
  Ca2+  Ca7  1  -0.00700885  0.68310935  0.12639703  1
  Ca2+  Ca8  1  0.66278268  0.34729207  0.12538291  1
  Ca2+  Ca9  1  1.00350267  0.65126104  0.37255712  1
  Ca2+  Ca10  1  0.83851992  0.84989399  0.12509149  1
  Ca2+  Ca11  1  0.32902330  0.01291076  0.62649484  1
  Ca2+  Ca12  1  -0.00537021  0.01323697  0.12508220  1
  Ca2+  Ca13  1  0.83149977  0.15103858  0.87737330  1
  Ca2+  Ca14  1  0.50620870  0.18134062  0.12416156  1
  Ca2+  Ca15  1  0.66265461  0.68315450  0.62471192  1
  Ca2+  Ca16  1  1.00326814  0.98591376  0.37051228  1
  Ca2+  Ca17  1  0.16484229  0.15260792  0.87567292  1
  Ca2+  Ca18  1  0.33891264  0.98371535  0.37477193  1
  Ca2+  Ca19  1  1.00589443  0.31456408  0.87643353  1
  Ca2+  Ca20  1  0.66992004  0.31913699  0.37122675  1
  Ca2+  Ca21  1  0.49689671  0.82029194  0.37263465  1
  Pr3+  Pr22  1  0.16678080  0.84678572  0.12629171  1
  Pr3+  Pr23  1  0.83405893  0.82084968  0.37378788  1
  Pr3+  Pr24  1  0.33318835  0.34517018  0.12421469  1
  Pr3+  Pr25  1  0.16355050  0.48656497  0.37519723  1
  Pr3+  Pr26  1  -0.00340107  0.34539007  0.12304028  1
  Pr3+  Pr27  1  0.32995297  0.68036788  0.62405937  1
  Pr3+  Pr28  1  0.33718818  0.31985396  0.37442359  1
  Pr3+  Pr29  1  0.83710830  0.17963108  0.62669954  1
  Pr3+  Pr30  1  0.83612436  0.17863737  0.12342004  1
  Pr3+  Pr31  1  0.17252584  0.84991894  0.62437276  1
  Pr3+  Pr32  1  0.66389893  0.01247364  0.62512339  1
  Pr3+  Pr33  1  0.17053102  0.51197032  0.62608590  1
  Pr3+  Pr34  1  1.00219844  0.31988481  0.37360053  1
  Pr3+  Pr35  1  1.00186589  0.65522870  0.87701498  1
  Pr3+  Pr36  1  0.16291773  0.82440380  0.87650129  1
  Pr3+  Pr37  1  0.50076627  0.84726761  0.62289599  1
  Pr3+  Pr38  1  0.16472641  0.15087661  0.37448062  1
  Pr3+  Pr39  1  0.33641616  0.65839216  0.87601715  1
  Pr3+  Pr40  1  0.83360582  0.84579824  0.62522361  1
  Pr3+  Pr41  1  1.00201725  0.98904189  0.87827895  1
  Pr3+  Pr42  1  0.33668667  0.65518029  0.37427018  1
  Pr3+  Pr43  1  -0.00263724  0.67927965  0.62371014  1
  Pr3+  Pr44  1  0.33420298  0.00945458  0.12417142  1
  Pr3+  Pr45  1  0.16724295  0.17592070  0.12194782  1
  Pr3+  Pr46  1  0.17199473  0.17735455  0.62817164  1
  Pr3+  Pr47  1  0.49605611  0.15338365  0.87693801  1
  Pr3+  Pr48  1  0.66216821  0.01195664  0.12474246  1
  Pr3+  Pr49  1  0.49681149  0.48948038  0.87689189  1
  Pr3+  Pr50  1  0.49874679  0.17704458  0.62604474  1
  Pr3+  Pr51  1  0.83526800  0.51384542  0.62511632  1
  Pr3+  Pr52  1  0.83593545  0.51404210  0.12477957  1
  Pr3+  Pr53  1  0.33559387  0.32053595  0.87535714  1
  Pr3+  Pr54  1  0.66447044  0.68049467  0.12584946  1
  Pr3+  Pr55  1  0.66729833  0.65653314  0.37417550  1
  Pr3+  Pr56  1  0.66843631  0.98642599  0.37447551  1
  Pr3+  Pr57  1  0.66314135  0.34518994  0.62444618  1
  Pr3+  Pr58  1  0.49877100  0.48518881  0.37299504  1
  Pr3+  Pr59  1  0.33243830  0.68112374  0.12609322  1
  Pr3+  Pr60  1  0.50385204  0.51602265  0.62470825  1
  Pr3+  Pr61  1  0.82991846  0.48596578  0.37430615  1
  Pr3+  Pr62  1  0.82965588  0.15366599  0.37377763  1
  Pr3+  Pr63  1  0.49696559  0.15430952  0.37283438  1
  Pr3+  Pr64  1  -0.00143235  0.01259206  0.62382030  1
  Pr3+  Pr65  1  0.66948979  0.65787173  0.87546303  1
  Pr3+  Pr66  1  0.16099588  0.81956067  0.37409710  1
  Pr3+  Pr67  1  0.67140983  0.31863385  0.87752488  1
  Pr3+  Pr68  1  0.83205953  0.48914811  0.87559961  1
  Pr3+  Pr69  1  0.67006691  0.98650953  0.87539675  1
  Pr3+  Pr70  1  -0.00188004  0.34534302  0.62693605  1
  Pr3+  Pr71  1  0.16903039  0.51352454  0.12397370  1
  Mn3.30+  Mn72  1  0.16411471  0.00092573  0.00212813  1
  Mn3.30+  Mn73  1  0.16888770  -0.00069789  0.49687230  1
  Mn3.30+  Mn74  1  0.16446149  0.33169576  -0.00189853  1
  Mn3.30+  Mn75  1  0.16766050  0.33134783  0.50021581  1
  Mn3.30+  Mn76  1  0.16404781  0.66774949  0.00228185  1
  Mn3.30+  Mn77  1  0.16469257  0.66670668  0.49837164  1
  Mn3.30+  Mn78  1  0.49970044  0.00030392  0.00139524  1
  Mn3.30+  Mn79  1  0.49641814  -0.00037987  0.49854806  1
  Mn3.30+  Mn80  1  0.50355830  0.33259213  0.00126196  1
  Mn3.30+  Mn81  1  0.50153940  0.33218572  0.49922871  1
  Mn3.30+  Mn82  1  0.50175483  0.66788750  0.00071208  1
  Mn3.30+  Mn83  1  0.50056446  0.66866929  0.49932875  1
  Mn3.30+  Mn84  1  0.83362157  0.00009924  0.00195838  1
  Mn3.30+  Mn85  1  0.83480406  -0.00003380  0.49790524  1
  Mn3.30+  Mn86  1  0.83410781  0.33249649  -0.00160048  1
  Mn3.30+  Mn87  1  0.83171750  0.33285912  0.49974855  1
  Mn3.30+  Mn88  1  0.83495799  0.66935148  0.00185178  1
  Mn3.30+  Mn89  1  0.83318046  0.66682225  0.49906251  1
  Mn3.30+  Mn90  1  -0.00035872  0.16371263  0.24950601  1
  Mn3.30+  Mn91  1  0.00114550  0.16656752  0.75329979  1
  Mn3.30+  Mn92  1  -0.00053310  0.50171252  0.24954448  1
  Mn3.30+  Mn93  1  0.00068158  0.49843674  0.75116186  1
  Mn3.30+  Mn94  1  -0.00174870  0.83372869  0.24916574  1
  Mn3.30+  Mn95  1  -0.00011199  0.83368833  0.74981535  1
  Mn3.30+  Mn96  1  0.33519398  0.16459283  0.24748999  1
  Mn3.30+  Mn97  1  0.33187520  0.16557418  0.75167506  1
  Mn3.30+  Mn98  1  0.33313655  0.50012760  0.24903716  1
  Mn3.30+  Mn99  1  0.33314814  0.50021884  0.75064007  1
  Mn3.30+  Mn100  1  0.33351630  0.83547275  0.25180773  1
  Mn3.30+  Mn101  1  0.33404542  0.83554005  0.75010993  1
  Mn3.30+  Mn102  1  0.66534955  0.16844955  0.24887597  1
  Mn3.30+  Mn103  1  0.66845617  0.16636967  0.75138760  1
  Mn3.30+  Mn104  1  0.66709265  0.49800131  0.24989464  1
  Mn3.30+  Mn105  1  0.66672411  0.50165951  0.74957844  1
  Mn3.30+  Mn106  1  0.66780690  0.83391046  0.25045421  1
  Mn3.30+  Mn107  1  0.66596842  0.83265969  0.74875082  1
  Mn3.30+  Mn108  1  0.16588103  -0.00054926  0.25024065  1
  Mn3.30+  Mn109  1  0.16672677  0.00104069  0.75137074  1
  Mn3.30+  Mn110  1  0.16689678  0.33173727  0.24832640  1
  Mn3.30+  Mn111  1  0.16524430  0.33147775  0.75293223  1
  Mn3.30+  Mn112  1  0.16243047  0.66720253  0.24896148  1
  Mn3.30+  Mn113  1  0.16606080  0.66749908  0.75070754  1
  Mn3.30+  Mn114  1  0.49920366  -0.00039805  0.25085717  1
  Mn3.30+  Mn115  1  0.49727438  0.00035797  0.74856721  1
  Mn3.30+  Mn116  1  0.50441188  0.33127974  0.24904019  1
  Mn3.30+  Mn117  1  0.50085317  0.33406191  0.75009884  1
  Mn3.30+  Mn118  1  0.50092773  0.66724271  0.25047269  1
  Mn3.30+  Mn119  1  0.50137520  0.66948050  0.74935394  1
  Mn3.30+  Mn120  1  0.83554916  -0.00120764  0.24968169  1
  Mn3.30+  Mn121  1  0.83349913  0.00142824  0.75034852  1
  Mn3.30+  Mn122  1  0.83053421  0.33307695  0.24800293  1
  Mn3.30+  Mn123  1  0.83525365  0.33226283  0.75395556  1
  Mn3.30+  Mn124  1  0.83655787  0.66781823  0.25086838  1
  Mn3.30+  Mn125  1  0.83184364  0.66813033  0.74850131  1
  Mn3.30+  Mn126  1  -0.00024610  0.16552803  -0.00143403  1
  Mn3.30+  Mn127  1  0.00094890  0.16490897  0.49898364  1
  Mn3.30+  Mn128  1  0.00049545  0.50008919  0.00016056  1
  Mn3.30+  Mn129  1  -0.00022513  0.50004780  0.49906204  1
  Mn3.30+  Mn130  1  -0.00328338  0.83360598  0.00324004  1
  Mn3.30+  Mn131  1  0.00092714  0.83355900  0.49845629  1
  Mn3.30+  Mn132  1  0.33474886  0.16630493  0.00158292  1
  Mn3.30+  Mn133  1  0.33253116  0.16311392  0.49851455  1
  Mn3.30+  Mn134  1  0.33273775  0.50089442  0.00020467  1
  Mn3.30+  Mn135  1  0.33379035  0.49943161  0.50035920  1
  Mn3.30+  Mn136  1  0.33299301  0.83514727  0.00098479  1
  Mn3.30+  Mn137  1  0.33403132  0.83592966  0.49720485  1
  Mn3.30+  Mn138  1  0.66733576  0.16681457  0.00054541  1
  Mn3.30+  Mn139  1  0.66625315  0.16776757  0.49901518  1
  Mn3.30+  Mn140  1  0.66692305  0.49939150  0.00057682  1
  Mn3.30+  Mn141  1  0.66696053  0.50068182  0.49974350  1
  Mn3.30+  Mn142  1  0.66882099  0.83384529  0.00173812  1
  Mn3.30+  Mn143  1  0.66494268  0.83261613  0.49831266  1
  O2-  O144  1  0.02345372  0.16098035  0.12568176  1
  O2-  O145  1  0.02700677  0.16101433  0.62385925  1
  O2-  O146  1  0.02564097  0.49136733  0.12499902  1
  O2-  O147  1  0.02584144  0.49317561  0.62491342  1
  O2-  O148  1  0.02486674  0.82431502  0.12682852  1
  O2-  O149  1  0.02779863  0.82653877  0.62245446  1
  O2-  O150  1  0.36277115  0.15912759  0.12539625  1
  O2-  O151  1  0.35455450  0.15866432  0.62315428  1
  O2-  O152  1  0.35320656  0.49479080  0.12448947  1
  O2-  O153  1  0.35839400  0.50010797  0.62466227  1
  O2-  O154  1  0.35177009  0.82916818  0.12700503  1
  O2-  O155  1  0.35631744  0.82651925  0.62165882  1
  O2-  O156  1  0.69359095  0.15798758  0.12463740  1
  O2-  O157  1  0.69310000  0.16153628  0.62634500  1
  O2-  O158  1  0.69219116  0.49300511  0.12596555  1
  O2-  O159  1  0.69287763  0.49076301  0.62436334  1
  O2-  O160  1  0.69404639  0.82939739  0.12908095  1
  O2-  O161  1  0.68989457  0.83070595  0.62184516  1
  O2-  O162  1  0.14059327  0.32522084  0.12445666  1
  O2-  O163  1  0.14179160  0.32551976  0.62734819  1
  O2-  O164  1  0.13624947  0.66100463  0.12635178  1
  O2-  O165  1  0.14179208  0.66112773  0.62272650  1
  O2-  O166  1  0.13712445  0.99640332  0.12688161  1
  O2-  O167  1  0.14212088  0.99808156  0.62323947  1
  O2-  O168  1  0.47663657  0.32785928  0.12461673  1
  O2-  O169  1  0.48170059  0.32696021  0.62510698  1
  O2-  O170  1  0.47744781  0.66462302  0.12748239  1
  O2-  O171  1  0.47345351  0.66284411  0.62311960  1
  O2-  O172  1  0.47831691  0.99632782  0.12757738  1
  O2-  O173  1  0.47155198  0.99599631  0.62060436  1
  O2-  O174  1  0.80583016  0.32722696  0.12370338  1
  O2-  O175  1  0.80726368  0.32723666  0.62833070  1
  O2-  O176  1  0.80737805  0.65976320  0.12696040  1
  O2-  O177  1  0.80527468  0.66102691  0.62139582  1
  O2-  O178  1  0.80675534  0.99688718  0.12768961  1
  O2-  O179  1  0.80876224  0.99661839  0.62233757  1
  O2-  O180  1  0.30833262  0.17471875  0.37164445  1
  O2-  O181  1  0.30908831  0.17308163  0.87924068  1
  O2-  O182  1  0.30793551  0.50440741  0.37433905  1
  O2-  O183  1  0.31376575  0.50903474  0.87636169  1
  O2-  O184  1  0.30488849  0.83800001  0.37468166  1
  O2-  O185  1  0.30786909  0.83197924  0.87761771  1
  O2-  O186  1  0.64142577  0.17319737  0.37368108  1
  O2-  O187  1  0.63958143  0.17063031  0.87556586  1
  O2-  O188  1  0.64182870  0.50931024  0.37662680  1
  O2-  O189  1  0.64132658  0.50946729  0.87309747  1
  O2-  O190  1  0.63991774  0.83808706  0.37608336  1
  O2-  O191  1  0.64872939  0.83754055  0.87254403  1
  O2-  O192  1  0.97336844  0.17436861  0.37477642  1
  O2-  O193  1  0.97259920  0.16936222  0.87528976  1
  O2-  O194  1  0.97456332  0.50403241  0.37467489  1
  O2-  O195  1  0.97524724  0.50913057  0.87558050  1
  O2-  O196  1  0.97661426  0.84319234  0.37456609  1
  O2-  O197  1  0.98065137  0.84033172  0.87697830  1
  O2-  O198  1  0.19648569  0.00423425  0.37329602  1
  O2-  O199  1  0.18177824  -0.00003190  0.87719217  1
  O2-  O200  1  0.19231983  0.33805011  0.37206141  1
  O2-  O201  1  0.19290253  0.33587436  0.87625712  1
  O2-  O202  1  0.19237927  0.67045517  0.37445425  1
  O2-  O203  1  0.19139563  0.67481992  0.87713307  1
  O2-  O204  1  0.52643342  0.00925575  0.37522300  1
  O2-  O205  1  0.52517323  0.00569923  0.87571057  1
  O2-  O206  1  0.52668700  0.33580397  0.37519160  1
  O2-  O207  1  0.52628716  0.33927413  0.87456708  1
  O2-  O208  1  0.52283698  0.67186473  0.37564337  1
  O2-  O209  1  0.52480438  0.66982777  0.87387881  1
  O2-  O210  1  0.86064675  0.00626023  0.37535764  1
  O2-  O211  1  0.85728796  0.00434214  0.87498235  1
  O2-  O212  1  0.85970842  0.33769135  0.37303495  1
  O2-  O213  1  0.86413890  0.34337569  0.87481815  1
  O2-  O214  1  0.86279698  0.67221947  0.37533055  1
  O2-  O215  1  0.85759144  0.66832565  0.87636452  1
  O2-  O216  1  0.24093198  0.09074034  0.02335823  1
  O2-  O217  1  0.23413139  0.09661475  0.51577108  1
  O2-  O218  1  0.23799972  0.42450083  0.02132059  1
  O2-  O219  1  0.23730560  0.43021456  0.51726360  1
  O2-  O220  1  0.23699519  0.76033276  0.02276781  1
  O2-  O221  1  0.23605019  0.76205121  0.51879272  1
  O2-  O222  1  0.57227820  0.09714489  0.02063918  1
  O2-  O223  1  0.57046354  0.09481575  0.52123691  1
  O2-  O224  1  0.57379220  0.42820496  0.01328040  1
  O2-  O225  1  0.57255682  0.43043713  0.51999223  1
  O2-  O226  1  0.57688464  0.75804989  0.01912710  1
  O2-  O227  1  0.57100853  0.76159739  0.51948449  1
  O2-  O228  1  0.90378085  0.09430900  0.01935965  1
  O2-  O229  1  0.90668944  0.09621152  0.52142110  1
  O2-  O230  1  0.90456043  0.42917264  0.02194783  1
  O2-  O231  1  0.90348124  0.42706094  0.52023230  1
  O2-  O232  1  0.90415222  0.76357713  0.02196225  1
  O2-  O233  1  0.90367408  0.76041733  0.52153234  1
  O2-  O234  1  0.26336124  0.25898865  0.22674232  1
  O2-  O235  1  0.26011314  0.25897063  0.73324821  1
  O2-  O236  1  0.25873659  0.59595732  0.22867158  1
  O2-  O237  1  0.26040459  0.59515643  0.73014879  1
  O2-  O238  1  0.25938872  0.92760682  0.22677913  1
  O2-  O239  1  0.25920594  0.92772882  0.72888372  1
  O2-  O240  1  0.59791126  0.26272455  0.22742089  1
  O2-  O241  1  0.59771141  0.26060627  0.73172457  1
  O2-  O242  1  0.59959695  0.59428496  0.23407448  1
  O2-  O243  1  0.59446474  0.59761010  0.72617133  1
  O2-  O244  1  0.59778138  0.93211560  0.23510340  1
  O2-  O245  1  0.59248034  0.92888721  0.72837201  1
  O2-  O246  1  0.92665289  0.26239238  0.22905552  1
  O2-  O247  1  0.92874008  0.25968925  0.72690410  1
  O2-  O248  1  0.92795560  0.59501448  0.22702678  1
  O2-  O249  1  0.92582661  0.59516945  0.72857986  1
  O2-  O250  1  0.93016405  0.92986383  0.22910154  1
  O2-  O251  1  0.92801417  0.92716501  0.72821728  1
  O2-  O252  1  0.09454360  0.23788650  0.26988596  1
  O2-  O253  1  0.09659157  0.23303090  0.77042529  1
  O2-  O254  1  0.09744502  0.56950869  0.26941752  1
  O2-  O255  1  0.09159378  0.57436365  0.76643436  1
  O2-  O256  1  0.09716757  0.90221273  0.26788133  1
  O2-  O257  1  0.09513874  0.90493522  0.76633503  1
  O2-  O258  1  0.42868881  0.24013911  0.27107167  1
  O2-  O259  1  0.42834027  0.24053371  0.76964439  1
  O2-  O260  1  0.42575087  0.57314934  0.27269263  1
  O2-  O261  1  0.43048743  0.57426807  0.76845534  1
  O2-  O262  1  0.42811492  0.90516167  0.27198100  1
  O2-  O263  1  0.42728286  0.90494662  0.76293814  1
  O2-  O264  1  0.76343867  0.23671128  0.26867755  1
  O2-  O265  1  0.76520844  0.23857440  0.77452277  1
  O2-  O266  1  0.76321837  0.57189326  0.27080976  1
  O2-  O267  1  0.76161323  0.57112233  0.76967787  1
  O2-  O268  1  0.76150872  0.90711455  0.27499300  1
  O2-  O269  1  0.75833677  0.90828713  0.76317859  1
  O2-  O270  1  0.07079901  0.06871540  0.47669383  1
  O2-  O271  1  0.07042734  0.07291670  0.98140577  1
  O2-  O272  1  0.07158587  0.40338811  0.47961440  1
  O2-  O273  1  0.06887944  0.39925299  0.98282605  1
  O2-  O274  1  0.06966546  0.73553744  0.47708151  1
  O2-  O275  1  0.07262205  0.74091776  0.97796105  1
  O2-  O276  1  0.40466062  0.07212619  0.47414162  1
  O2-  O277  1  0.40857642  0.07537255  0.98124357  1
  O2-  O278  1  0.40835355  0.40509795  0.47689235  1
  O2-  O279  1  0.40694452  0.40556550  0.98056960  1
  O2-  O280  1  0.40020615  0.73755959  0.48127070  1
  O2-  O281  1  0.40354384  0.73774126  0.98617733  1
  O2-  O282  1  0.73776815  0.07350732  0.47877424  1
  O2-  O283  1  0.73632465  0.07146438  0.98123256  1
  O2-  O284  1  0.73689144  0.40457281  0.47843924  1
  O2-  O285  1  0.74089243  0.40786286  0.97532874  1
  O2-  O286  1  0.74133948  0.73993925  0.47582612  1
  O2-  O287  1  0.73820410  0.73545046  0.98426656  1
  O2-  O288  1  0.09310897  0.23618518  0.47791665  1
  O2-  O289  1  0.09808921  0.23390694  0.98156977  1
  O2-  O290  1  0.09677465  0.56946314  0.48153319  1
  O2-  O291  1  0.09294276  0.57402794  0.98196391  1
  O2-  O292  1  0.10072903  0.90386651  0.48277302  1
  O2-  O293  1  0.09296014  0.90455669  0.98405539  1
  O2-  O294  1  0.42657850  0.23643562  0.48053080  1
  O2-  O295  1  0.42895251  0.24243980  0.97834042  1
  O2-  O296  1  0.42888524  0.57192437  0.47903824  1
  O2-  O297  1  0.42799111  0.57636238  0.97989656  1
  O2-  O298  1  0.43224175  0.90146212  0.47810564  1
  O2-  O299  1  0.42229262  0.90989216  0.98726586  1
  O2-  O300  1  0.76410574  0.23794107  0.48216419  1
  O2-  O301  1  0.76329645  0.23722343  0.97627221  1
  O2-  O302  1  0.76267734  0.57160665  0.47732908  1
  O2-  O303  1  0.76174511  0.57142460  0.98165157  1
  O2-  O304  1  0.76048612  0.90565578  0.47871647  1
  O2-  O305  1  0.75918628  0.91021274  0.98304644  1
  O2-  O306  1  0.07466519  0.07151137  0.27493960  1
  O2-  O307  1  0.06776833  0.06846647  0.76651725  1
  O2-  O308  1  0.07066034  0.40529594  0.27007955  1
  O2-  O309  1  0.06822124  0.39861046  0.76783703  1
  O2-  O310  1  0.07028629  0.73809876  0.27434121  1
  O2-  O311  1  0.07154363  0.73908441  0.77039596  1
  O2-  O312  1  0.40367038  0.07036541  0.27186101  1
  O2-  O313  1  0.40899127  0.07718542  0.76933653  1
  O2-  O314  1  0.40716047  0.40351244  0.26923666  1
  O2-  O315  1  0.40678315  0.40816995  0.77291062  1
  O2-  O316  1  0.40137032  0.73899547  0.26769103  1
  O2-  O317  1  0.40253665  0.73637298  0.76540649  1
  O2-  O318  1  0.73765582  0.07255982  0.27184586  1
  O2-  O319  1  0.73664203  0.07184401  0.76838720  1
  O2-  O320  1  0.73986551  0.40622625  0.27442771  1
  O2-  O321  1  0.73973572  0.40425672  0.77230466  1
  O2-  O322  1  0.74143947  0.73793709  0.27330343  1
  O2-  O323  1  0.73784672  0.73747727  0.76522815  1
  O2-  O324  1  0.23796246  0.09363486  0.22680156  1
  O2-  O325  1  0.23656022  0.09318670  0.73461991  1
  O2-  O326  1  0.23828559  0.42666836  0.22897775  1
  O2-  O327  1  0.23654949  0.42751911  0.73204962  1
  O2-  O328  1  0.23563276  0.76053179  0.23076698  1
  O2-  O329  1  0.23845898  0.76214503  0.72938121  1
  O2-  O330  1  0.57115969  0.09754888  0.23000979  1
  O2-  O331  1  0.57148311  0.09356658  0.72796178  1
  O2-  O332  1  0.57203009  0.42795435  0.23688396  1
  O2-  O333  1  0.57247215  0.42954853  0.72956733  1
  O2-  O334  1  0.57855593  0.75767619  0.23323944  1
  O2-  O335  1  0.57020250  0.76294311  0.72812986  1
  O2-  O336  1  0.90218108  0.09666782  0.23185108  1
  O2-  O337  1  0.90724136  0.09383969  0.72730710  1
  O2-  O338  1  0.90369601  0.42765275  0.22910384  1
  O2-  O339  1  0.90394080  0.42861668  0.72806399  1
  O2-  O340  1  0.90155646  0.76639812  0.23231240  1
  O2-  O341  1  0.90692389  0.76032681  0.72609828  1
  O2-  O342  1  0.26273284  0.26038384  0.02300129  1
  O2-  O343  1  0.25982357  0.25792638  0.51669192  1
  O2-  O344  1  0.25846883  0.59619628  0.02228575  1
  O2-  O345  1  0.25996276  0.59614692  0.51901852  1
  O2-  O346  1  0.25563733  0.92624973  0.02300206  1
  O2-  O347  1  0.26333317  0.92939760  0.52288123  1
  O2-  O348  1  0.60002609  0.26392651  0.01796375  1
  O2-  O349  1  0.59430825  0.25874427  0.52276039  1
  O2-  O350  1  0.59801665  0.59588666  0.01756380  1
  O2-  O351  1  0.59711156  0.59511091  0.52186857  1
  O2-  O352  1  0.59547093  0.93031528  0.01581722  1
  O2-  O353  1  0.59383674  0.93058130  0.52026912  1
  O2-  O354  1  0.92892859  0.25918117  0.02236585  1
  O2-  O355  1  0.92880907  0.26115214  0.52100275  1
  O2-  O356  1  0.92678247  0.59711517  0.02164675  1
  O2-  O357  1  0.92628474  0.59318740  0.52347312  1
  O2-  O358  1  0.92991043  0.93050349  0.01988593  1
  O2-  O359  1  0.92685382  0.92501116  0.52338325  1
