# generated using pymatgen
data_Sr7Ca15Pr50Mn72O216
_symmetry_space_group_name_H-M   'P 1'
_cell_length_a   16.55879107
_cell_length_b   16.60358416
_cell_length_c   15.59287171
_cell_angle_alpha   89.99942055
_cell_angle_beta   89.99489626
_cell_angle_gamma   89.99857452
_symmetry_Int_Tables_number   1
_chemical_formula_structural   Sr7Ca15Pr50Mn72O216
_chemical_formula_sum   'Sr7 Ca15 Pr50 Mn72 O216'
_cell_volume   4287.03054760
_cell_formula_units_Z   1
loop_
 _symmetry_equiv_pos_site_id
 _symmetry_equiv_pos_as_xyz
  1  'x, y, z'
loop_
 _atom_type_symbol
 _atom_type_oxidation_number
  Sr2+  2.0
  Ca2+  2.0
  Pr3+  3.0
  Mn3.30+  3.3
  O2-  -2.0
loop_
 _atom_site_type_symbol
 _atom_site_label
 _atom_site_symmetry_multiplicity
 _atom_site_fract_x
 _atom_site_fract_y
 _atom_site_fract_z
 _atom_site_occupancy
  Sr2+  Sr0  1  0.00021435  0.67667537  0.62617386  1
  Sr2+  Sr1  1  0.66810384  0.65690438  0.37376161  1
  Sr2+  Sr2  1  0.16763031  0.82482642  0.37448340  1
  Sr2+  Sr3  1  0.33445884  0.32336838  0.37362593  1
  Sr2+  Sr4  1  0.49862082  0.17551162  0.12245750  1
  Sr2+  Sr5  1  -0.00050465  0.00810816  0.62440276  1
  Sr2+  Sr6  1  0.66723973  0.65426888  0.87652135  1
  Ca2+  Ca7  1  0.17131790  0.51620175  0.12240928  1
  Ca2+  Ca8  1  0.50328381  0.51388638  0.62934556  1
  Ca2+  Ca9  1  0.33969073  0.98448127  0.87766098  1
  Ca2+  Ca10  1  0.33118667  0.01450053  0.12352512  1
  Ca2+  Ca11  1  0.33992801  0.64809783  0.87599511  1
  Ca2+  Ca12  1  0.49581193  0.48519471  0.87500221  1
  Ca2+  Ca13  1  0.33766450  0.31933011  0.87713423  1
  Ca2+  Ca14  1  0.33514300  0.98559039  0.37186362  1
  Ca2+  Ca15  1  0.49366771  0.81417157  0.87508794  1
  Ca2+  Ca16  1  0.83740976  0.51741625  0.12134244  1
  Ca2+  Ca17  1  0.00157629  0.67930288  0.12410756  1
  Ca2+  Ca18  1  0.16621940  0.48720365  0.87576976  1
  Ca2+  Ca19  1  0.49327918  0.15210611  0.87721976  1
  Ca2+  Ca20  1  0.82979563  0.15290256  0.37533460  1
  Ca2+  Ca21  1  0.82940751  0.48826527  0.87708260  1
  Pr3+  Pr22  1  0.66344268  0.34621280  0.12400613  1
  Pr3+  Pr23  1  0.83578890  0.51440628  0.62816164  1
  Pr3+  Pr24  1  0.32926834  0.34738960  0.12318202  1
  Pr3+  Pr25  1  0.66271141  0.67740820  0.62703268  1
  Pr3+  Pr26  1  0.66822303  0.98878608  0.37390950  1
  Pr3+  Pr27  1  0.83122209  0.82047803  0.87534051  1
  Pr3+  Pr28  1  -0.00235672  0.35050779  0.12343699  1
  Pr3+  Pr29  1  0.17196954  0.17915536  0.12415826  1
  Pr3+  Pr30  1  0.66216417  0.01274367  0.62617559  1
  Pr3+  Pr31  1  0.17174200  0.84743468  0.12480420  1
  Pr3+  Pr32  1  0.66144399  0.35061630  0.62636273  1
  Pr3+  Pr33  1  0.16951362  0.51411868  0.62754491  1
  Pr3+  Pr34  1  0.50149548  0.84538933  0.12136007  1
  Pr3+  Pr35  1  0.32881567  0.01187108  0.62618655  1
  Pr3+  Pr36  1  0.49512210  0.82006660  0.37465524  1
  Pr3+  Pr37  1  0.33172838  0.67853509  0.62837356  1
  Pr3+  Pr38  1  1.00456672  0.98728897  0.87494812  1
  Pr3+  Pr39  1  0.16734908  0.82103958  0.87586025  1
  Pr3+  Pr40  1  0.49286628  0.15113940  0.37358318  1
  Pr3+  Pr41  1  0.66984495  0.31959045  0.37480916  1
  Pr3+  Pr42  1  0.66544052  0.32546360  0.87619806  1
  Pr3+  Pr43  1  1.00246623  0.98682338  0.37483295  1
  Pr3+  Pr44  1  0.83484246  0.84367956  0.12415661  1
  Pr3+  Pr45  1  0.16451248  0.48943659  0.37359158  1
  Pr3+  Pr46  1  0.66362759  0.98834253  0.87679536  1
  Pr3+  Pr47  1  1.00457272  0.65186517  0.87626518  1
  Pr3+  Pr48  1  0.32948107  0.67789999  0.12167175  1
  Pr3+  Pr49  1  0.83047521  0.49160643  0.37337770  1
  Pr3+  Pr50  1  0.49763039  0.48621876  0.37500952  1
  Pr3+  Pr51  1  0.83598965  0.84384300  0.62596382  1
  Pr3+  Pr52  1  0.82997688  0.15544313  0.87514236  1
  Pr3+  Pr53  1  0.50115149  0.50903853  0.12174475  1
  Pr3+  Pr54  1  0.66108889  0.01392335  0.12406508  1
  Pr3+  Pr55  1  0.16644856  0.15418489  0.37488429  1
  Pr3+  Pr56  1  0.50242774  0.17971112  0.62745824  1
  Pr3+  Pr57  1  0.83610636  0.17955911  0.62462486  1
  Pr3+  Pr58  1  0.16760859  0.15522688  0.87526753  1
  Pr3+  Pr59  1  -0.00052273  0.01229425  0.12508530  1
  Pr3+  Pr60  1  -0.00218754  0.34693602  0.62671446  1
  Pr3+  Pr61  1  0.66437394  0.67685764  0.12333149  1
  Pr3+  Pr62  1  0.50235653  0.84506062  0.62848818  1
  Pr3+  Pr63  1  0.83531804  0.18099982  0.12531484  1
  Pr3+  Pr64  1  1.00471163  0.65642659  0.37320058  1
  Pr3+  Pr65  1  0.33614886  0.65420587  0.37419390  1
  Pr3+  Pr66  1  0.16926295  0.18023165  0.62600298  1
  Pr3+  Pr67  1  1.00380576  0.32168549  0.37467123  1
  Pr3+  Pr68  1  0.16902180  0.84450801  0.62507802  1
  Pr3+  Pr69  1  0.33206268  0.34700027  0.62728112  1
  Pr3+  Pr70  1  1.00256842  0.32380622  0.87497923  1
  Pr3+  Pr71  1  0.83093757  0.82011796  0.37450324  1
  Mn3.30+  Mn72  1  0.17136200  0.00032566  -0.00128223  1
  Mn3.30+  Mn73  1  0.16732005  -0.00006223  0.49941600  1
  Mn3.30+  Mn74  1  0.16818679  0.33679991  -0.00172398  1
  Mn3.30+  Mn75  1  0.16712655  0.33409049  0.50018985  1
  Mn3.30+  Mn76  1  0.16816201  0.66407483  -0.00175358  1
  Mn3.30+  Mn77  1  0.16790471  0.66799851  0.50021263  1
  Mn3.30+  Mn78  1  0.49585406  -0.00022001  -0.00140766  1
  Mn3.30+  Mn79  1  0.49747860  -0.00108795  0.50020951  1
  Mn3.30+  Mn80  1  0.49698670  0.33247781  -0.00161162  1
  Mn3.30+  Mn81  1  0.49987685  0.33372547  0.50089315  1
  Mn3.30+  Mn82  1  0.49728310  0.66363981  -0.00353044  1
  Mn3.30+  Mn83  1  0.50020038  0.66453752  0.50122806  1
  Mn3.30+  Mn84  1  0.83281751  0.00063536  -0.00001167  1
  Mn3.30+  Mn85  1  0.83279868  0.00115951  0.49922940  1
  Mn3.30+  Mn86  1  0.83356343  0.33764552  0.00028953  1
  Mn3.30+  Mn87  1  0.83276445  0.33371339  0.49908708  1
  Mn3.30+  Mn88  1  0.83552744  0.66466060  0.00049446  1
  Mn3.30+  Mn89  1  0.83333925  0.66666026  0.50008764  1
  Mn3.30+  Mn90  1  -0.00097233  0.16788049  0.25087040  1
  Mn3.30+  Mn91  1  -0.00000103  0.16654860  0.74964820  1
  Mn3.30+  Mn92  1  -0.00033539  0.50338105  0.24505339  1
  Mn3.30+  Mn93  1  0.00018548  0.50038406  0.75392240  1
  Mn3.30+  Mn94  1  0.00122796  0.83239694  0.24772484  1
  Mn3.30+  Mn95  1  0.00019486  0.83242361  0.75077928  1
  Mn3.30+  Mn96  1  0.33313698  0.16568446  0.24918182  1
  Mn3.30+  Mn97  1  0.33612330  0.16670982  0.75262407  1
  Mn3.30+  Mn98  1  0.33190763  0.50009056  0.24820540  1
  Mn3.30+  Mn99  1  0.33577864  0.49896607  0.75357312  1
  Mn3.30+  Mn100  1  0.33345536  0.83465383  0.24853991  1
  Mn3.30+  Mn101  1  0.33587094  0.83237764  0.75363111  1
  Mn3.30+  Mn102  1  0.66649762  0.16706743  0.25052216  1
  Mn3.30+  Mn103  1  0.66425097  0.16791479  0.75240538  1
  Mn3.30+  Mn104  1  0.66827557  0.50056861  0.24805341  1
  Mn3.30+  Mn105  1  0.66483038  0.50095054  0.75362711  1
  Mn3.30+  Mn106  1  0.66606663  0.83287740  0.24879099  1
  Mn3.30+  Mn107  1  0.66457841  0.83253338  0.75296210  1
  Mn3.30+  Mn108  1  0.16909227  0.00052889  0.25034666  1
  Mn3.30+  Mn109  1  0.16939958  0.00000584  0.75146530  1
  Mn3.30+  Mn110  1  0.16607590  0.33501059  0.24864430  1
  Mn3.30+  Mn111  1  0.16920862  0.33536031  0.75329228  1
  Mn3.30+  Mn112  1  0.16629908  0.66673359  0.24748645  1
  Mn3.30+  Mn113  1  0.17005110  0.66575799  0.75393179  1
  Mn3.30+  Mn114  1  0.49710165  -0.00093644  0.24806852  1
  Mn3.30+  Mn115  1  0.49596365  -0.00047653  0.75292010  1
  Mn3.30+  Mn116  1  0.49954663  0.33158663  0.24845817  1
  Mn3.30+  Mn117  1  0.49746085  0.33453665  0.75238362  1
  Mn3.30+  Mn118  1  0.49968345  0.66517259  0.24829558  1
  Mn3.30+  Mn119  1  0.49787739  0.66311137  0.75319373  1
  Mn3.30+  Mn120  1  0.83306263  0.00185494  0.24958442  1
  Mn3.30+  Mn121  1  0.83242278  0.00012938  0.75112534  1
  Mn3.30+  Mn122  1  0.83430306  0.33562561  0.24966745  1
  Mn3.30+  Mn123  1  0.83176963  0.33525845  0.75123005  1
  Mn3.30+  Mn124  1  0.83569178  0.66619154  0.24654683  1
  Mn3.30+  Mn125  1  0.83287549  0.66520573  0.75312848  1
  Mn3.30+  Mn126  1  0.00098826  0.16795540  -0.00021394  1
  Mn3.30+  Mn127  1  -0.00207271  0.16649699  0.49891430  1
  Mn3.30+  Mn128  1  0.00124150  0.50234793  0.00040964  1
  Mn3.30+  Mn129  1  -0.00117955  0.50126951  0.49999467  1
  Mn3.30+  Mn130  1  0.00133402  0.83168513  0.00100469  1
  Mn3.30+  Mn131  1  -0.00005609  0.83277743  0.50029665  1
  Mn3.30+  Mn132  1  0.33501452  0.16634897  -0.00140978  1
  Mn3.30+  Mn133  1  0.33398717  0.16592383  0.49956996  1
  Mn3.30+  Mn134  1  0.33184648  0.49899407  -0.00413008  1
  Mn3.30+  Mn135  1  0.33554838  0.49971497  0.50255402  1
  Mn3.30+  Mn136  1  0.33548453  0.83331258  -0.00187090  1
  Mn3.30+  Mn137  1  0.33426035  0.83354367  0.49953103  1
  Mn3.30+  Mn138  1  0.66339445  0.16795294  -0.00176438  1
  Mn3.30+  Mn139  1  0.66699139  0.16685037  0.49982005  1
  Mn3.30+  Mn140  1  0.66864162  0.50031503  -0.00084401  1
  Mn3.30+  Mn141  1  0.66524383  0.50160489  0.50021414  1
  Mn3.30+  Mn142  1  0.66469350  0.83177645  -0.00208519  1
  Mn3.30+  Mn143  1  0.66615445  0.83322695  0.50033025  1
  O2-  O144  1  0.02647714  0.16163313  0.12382645  1
  O2-  O145  1  0.02460458  0.16556507  0.62424992  1
  O2-  O146  1  0.03096643  0.49485226  0.12276562  1
  O2-  O147  1  0.02459262  0.49538552  0.62863059  1
  O2-  O148  1  0.02655003  0.82978468  0.12296232  1
  O2-  O149  1  0.02380976  0.83196035  0.62807892  1
  O2-  O150  1  0.34955905  0.16038495  0.12413168  1
  O2-  O151  1  0.35880629  0.15845239  0.62553130  1
  O2-  O152  1  0.35703443  0.49638547  0.12273214  1
  O2-  O153  1  0.36086688  0.49423591  0.62705189  1
  O2-  O154  1  0.35868974  0.82431492  0.12240036  1
  O2-  O155  1  0.35909714  0.82693357  0.62764393  1
  O2-  O156  1  0.69164180  0.16223677  0.12337867  1
  O2-  O157  1  0.69174185  0.16088388  0.62581275  1
  O2-  O158  1  0.69409616  0.49355953  0.12480192  1
  O2-  O159  1  0.69198655  0.49765404  0.62733923  1
  O2-  O160  1  0.69025773  0.82833445  0.12289681  1
  O2-  O161  1  0.69124108  0.82894234  0.62737477  1
  O2-  O162  1  0.14075691  0.32465222  0.12444731  1
  O2-  O163  1  0.14187076  0.32884431  0.62715483  1
  O2-  O164  1  0.14362251  0.66100453  0.12212179  1
  O2-  O165  1  0.14987202  0.66266842  0.62783094  1
  O2-  O166  1  0.14302427  0.99858827  0.12421616  1
  O2-  O167  1  0.14933691  0.99500901  0.62647269  1
  O2-  O168  1  0.47492340  0.33231308  0.12275476  1
  O2-  O169  1  0.47553078  0.32574553  0.62698623  1
  O2-  O170  1  0.47345167  0.65769702  0.12240193  1
  O2-  O171  1  0.47500877  0.65966076  0.62826106  1
  O2-  O172  1  0.47358568  0.99295267  0.12292010  1
  O2-  O173  1  0.47293656  0.99357409  0.62810932  1
  O2-  O174  1  0.80700535  0.32587412  0.12664050  1
  O2-  O175  1  0.80599892  0.32648819  0.62639639  1
  O2-  O176  1  0.80843423  0.66347616  0.12347365  1
  O2-  O177  1  0.80814680  0.66241524  0.62829473  1
  O2-  O178  1  0.80563132  0.99373478  0.12457200  1
  O2-  O179  1  0.80584538  0.99287611  0.62775979  1
  O2-  O180  1  0.31014717  0.17112031  0.37589014  1
  O2-  O181  1  0.30886308  0.17556591  0.87409046  1
  O2-  O182  1  0.30882270  0.50549138  0.37508381  1
  O2-  O183  1  0.30563039  0.50599072  0.87497801  1
  O2-  O184  1  0.31775380  0.83738668  0.37378959  1
  O2-  O185  1  0.30875329  0.84251097  0.87646396  1
  O2-  O186  1  0.63834505  0.17068576  0.37660357  1
  O2-  O187  1  0.63757891  0.17507075  0.87498469  1
  O2-  O188  1  0.64186327  0.50188887  0.37254343  1
  O2-  O189  1  0.64012217  0.49646615  0.87573320  1
  O2-  O190  1  0.63989579  0.83953142  0.37392619  1
  O2-  O191  1  0.63762997  0.84005489  0.87612188  1
  O2-  O192  1  0.97079548  0.17544266  0.37541048  1
  O2-  O193  1  0.97411869  0.17331062  0.87586517  1
  O2-  O194  1  0.97460008  0.50744521  0.37119026  1
  O2-  O195  1  0.97189980  0.50393996  0.87689958  1
  O2-  O196  1  0.97551494  0.83733464  0.37235802  1
  O2-  O197  1  0.97658575  0.83932907  0.87657028  1
  O2-  O198  1  0.19247125  0.00558297  0.37488225  1
  O2-  O199  1  0.19593674  0.00548427  0.87451767  1
  O2-  O200  1  0.18470382  0.34131535  0.37351373  1
  O2-  O201  1  0.19438909  0.34131609  0.87451698  1
  O2-  O202  1  0.19185270  0.66764389  0.37484183  1
  O2-  O203  1  0.19769222  0.67554554  0.87536727  1
  O2-  O204  1  0.52417047  0.00209596  0.37361414  1
  O2-  O205  1  0.52238315  0.00832008  0.87503042  1
  O2-  O206  1  0.52450380  0.33796007  0.37534853  1
  O2-  O207  1  0.52303042  0.34131289  0.87493818  1
  O2-  O208  1  0.51886732  0.67279180  0.37318777  1
  O2-  O209  1  0.51972206  0.67209823  0.87576565  1
  O2-  O210  1  0.85890992  0.00740040  0.37167112  1
  O2-  O211  1  0.86046588  0.00720154  0.87594147  1
  O2-  O212  1  0.86120646  0.34564354  0.37206750  1
  O2-  O213  1  0.85862171  0.34095796  0.87517434  1
  O2-  O214  1  0.85912585  0.67108032  0.37131925  1
  O2-  O215  1  0.86039631  0.67442132  0.87709543  1
  O2-  O216  1  0.23502885  0.09869180  0.01445730  1
  O2-  O217  1  0.23825149  0.09628586  0.52062394  1
  O2-  O218  1  0.23723129  0.42842086  0.02449808  1
  O2-  O219  1  0.24011836  0.42958332  0.52138566  1
  O2-  O220  1  0.23764242  0.76357167  0.02001162  1
  O2-  O221  1  0.24200377  0.76077105  0.52148903  1
  O2-  O222  1  0.57510322  0.08939436  0.01804766  1
  O2-  O223  1  0.56945530  0.09340708  0.52068503  1
  O2-  O224  1  0.57359709  0.42494124  0.02134133  1
  O2-  O225  1  0.57238535  0.42966437  0.52126099  1
  O2-  O226  1  0.57270995  0.75663583  0.02199238  1
  O2-  O227  1  0.57220883  0.76063343  0.52144481  1
  O2-  O228  1  0.90483928  0.09476372  0.02150302  1
  O2-  O229  1  0.90288692  0.09614808  0.51972996  1
  O2-  O230  1  0.90630111  0.43028324  0.02436083  1
  O2-  O231  1  0.90425768  0.42756939  0.52197963  1
  O2-  O232  1  0.90384663  0.76337004  0.01830121  1
  O2-  O233  1  0.90279702  0.76245955  0.51657824  1
  O2-  O234  1  0.25942869  0.26174290  0.22901163  1
  O2-  O235  1  0.26206402  0.25936227  0.72751635  1
  O2-  O236  1  0.26230751  0.59675450  0.23244102  1
  O2-  O237  1  0.26302724  0.59193954  0.72870714  1
  O2-  O238  1  0.26303559  0.92685473  0.22693841  1
  O2-  O239  1  0.26129895  0.92529988  0.72881018  1
  O2-  O240  1  0.59822420  0.26267822  0.23355962  1
  O2-  O241  1  0.59513843  0.26339495  0.72925858  1
  O2-  O242  1  0.59362547  0.59131361  0.22599046  1
  O2-  O243  1  0.59583782  0.59492917  0.73164217  1
  O2-  O244  1  0.59396156  0.92737148  0.22765659  1
  O2-  O245  1  0.59334412  0.92905609  0.73032436  1
  O2-  O246  1  0.92906312  0.26400589  0.22796392  1
  O2-  O247  1  0.92604975  0.26191490  0.73011172  1
  O2-  O248  1  0.93310762  0.59958000  0.22826208  1
  O2-  O249  1  0.92692872  0.59289435  0.73395503  1
  O2-  O250  1  0.92602315  0.92947478  0.22794685  1
  O2-  O251  1  0.92308616  0.92605028  0.73415899  1
  O2-  O252  1  0.09458535  0.23961864  0.27158585  1
  O2-  O253  1  0.09651907  0.24198305  0.77155919  1
  O2-  O254  1  0.09455433  0.57288819  0.27217104  1
  O2-  O255  1  0.09728738  0.57231691  0.77257345  1
  O2-  O256  1  0.09184021  0.90973920  0.26594538  1
  O2-  O257  1  0.09546111  0.90728856  0.77148495  1
  O2-  O258  1  0.42773846  0.23550287  0.26709532  1
  O2-  O259  1  0.43287926  0.23197183  0.76689346  1
  O2-  O260  1  0.42887941  0.57219297  0.26987210  1
  O2-  O261  1  0.43006071  0.56627063  0.77203315  1
  O2-  O262  1  0.43244317  0.90095181  0.26498203  1
  O2-  O263  1  0.43205201  0.89884920  0.76957470  1
  O2-  O264  1  0.76367910  0.23885071  0.27265337  1
  O2-  O265  1  0.76168064  0.24062993  0.77262802  1
  O2-  O266  1  0.76360508  0.57203436  0.26641281  1
  O2-  O267  1  0.76412040  0.56898924  0.76940212  1
  O2-  O268  1  0.76256935  0.90885041  0.27113403  1
  O2-  O269  1  0.75940319  0.90817206  0.77404858  1
  O2-  O270  1  0.07054236  0.07627788  0.47554173  1
  O2-  O271  1  0.07388508  0.07043094  0.97858659  1
  O2-  O272  1  0.06988360  0.40809649  0.48110532  1
  O2-  O273  1  0.06877400  0.40413848  0.98104987  1
  O2-  O274  1  0.07198312  0.73989056  0.48205252  1
  O2-  O275  1  0.07575792  0.73883478  0.97703614  1
  O2-  O276  1  0.40229435  0.06802744  0.47862765  1
  O2-  O277  1  0.40216368  0.06906888  0.98078666  1
  O2-  O278  1  0.40694116  0.40646446  0.48220677  1
  O2-  O279  1  0.39974606  0.40187837  0.98282641  1
  O2-  O280  1  0.40537327  0.73740626  0.48247236  1
  O2-  O281  1  0.40066044  0.73371758  0.98219670  1
  O2-  O282  1  0.73550097  0.07065492  0.48182646  1
  O2-  O283  1  0.73794239  0.07485741  0.97781551  1
  O2-  O284  1  0.73808518  0.40573837  0.48061108  1
  O2-  O285  1  0.73766064  0.40386133  0.98193115  1
  O2-  O286  1  0.74122727  0.74164122  0.48235779  1
  O2-  O287  1  0.74128515  0.74223465  0.98221494  1
  O2-  O288  1  0.09291035  0.23893059  0.47965086  1
  O2-  O289  1  0.09589437  0.24138405  0.97736888  1
  O2-  O290  1  0.09476325  0.57299312  0.48091057  1
  O2-  O291  1  0.09651502  0.57203818  0.97278573  1
  O2-  O292  1  0.09030792  0.90913699  0.48289362  1
  O2-  O293  1  0.09747622  0.90695258  0.97993332  1
  O2-  O294  1  0.43102151  0.23334757  0.48491523  1
  O2-  O295  1  0.42834337  0.23599563  0.97953700  1
  O2-  O296  1  0.42674801  0.57212836  0.47718540  1
  O2-  O297  1  0.43061336  0.56523492  0.98105339  1
  O2-  O298  1  0.43172341  0.90070695  0.48521776  1
  O2-  O299  1  0.43261111  0.89851914  0.98080356  1
  O2-  O300  1  0.76362372  0.23934269  0.47671764  1
  O2-  O301  1  0.76133504  0.24034710  0.97945675  1
  O2-  O302  1  0.76307856  0.57103244  0.48354153  1
  O2-  O303  1  0.76551435  0.57102752  0.98190865  1
  O2-  O304  1  0.75935567  0.90717682  0.47792257  1
  O2-  O305  1  0.76008700  0.90764107  0.97818029  1
  O2-  O306  1  0.07004627  0.07399567  0.27152878  1
  O2-  O307  1  0.07509966  0.07332311  0.77314274  1
  O2-  O308  1  0.06882690  0.40634468  0.26862183  1
  O2-  O309  1  0.07003637  0.40525337  0.76924272  1
  O2-  O310  1  0.07334437  0.73712439  0.26661620  1
  O2-  O311  1  0.07601427  0.73955880  0.77362988  1
  O2-  O312  1  0.40467953  0.06954026  0.27153159  1
  O2-  O313  1  0.39972536  0.06562402  0.76865646  1
  O2-  O314  1  0.40851727  0.40829381  0.26561476  1
  O2-  O315  1  0.39969599  0.39848690  0.76895912  1
  O2-  O316  1  0.40401707  0.73795824  0.26719625  1
  O2-  O317  1  0.40134765  0.73305989  0.76866591  1
  O2-  O318  1  0.73707452  0.07178346  0.26778941  1
  O2-  O319  1  0.73688213  0.07277644  0.77317351  1
  O2-  O320  1  0.73910312  0.40503777  0.27174913  1
  O2-  O321  1  0.73550537  0.40394727  0.76676432  1
  O2-  O322  1  0.74282904  0.74202742  0.26563240  1
  O2-  O323  1  0.74157894  0.74092793  0.77004637  1
  O2-  O324  1  0.23504676  0.09854721  0.23471736  1
  O2-  O325  1  0.23812217  0.09658568  0.73016637  1
  O2-  O326  1  0.23611442  0.42878111  0.22848304  1
  O2-  O327  1  0.23948439  0.42788311  0.72617302  1
  O2-  O328  1  0.23981432  0.76073429  0.22745898  1
  O2-  O329  1  0.23947946  0.76340624  0.73081039  1
  O2-  O330  1  0.57220141  0.09033262  0.23240928  1
  O2-  O331  1  0.57113336  0.09184046  0.72826586  1
  O2-  O332  1  0.57430926  0.42712418  0.22910503  1
  O2-  O333  1  0.57114702  0.42738722  0.72791755  1
  O2-  O334  1  0.57016891  0.75720585  0.22685757  1
  O2-  O335  1  0.57191517  0.75763695  0.72871628  1
  O2-  O336  1  0.90549497  0.09371393  0.22512040  1
  O2-  O337  1  0.90020122  0.09562570  0.73281302  1
  O2-  O338  1  0.90532584  0.43249862  0.22501457  1
  O2-  O339  1  0.90498911  0.42483642  0.72721648  1
  O2-  O340  1  0.90412938  0.76409650  0.23031418  1
  O2-  O341  1  0.90296029  0.76199476  0.73438164  1
  O2-  O342  1  0.26026005  0.26155360  0.02003348  1
  O2-  O343  1  0.26139690  0.25869946  0.52294159  1
  O2-  O344  1  0.26301577  0.59504527  0.01890040  1
  O2-  O345  1  0.26340089  0.59330830  0.52072579  1
  O2-  O346  1  0.26252050  0.92867154  0.02374419  1
  O2-  O347  1  0.26259267  0.92363521  0.52087031  1
  O2-  O348  1  0.59676825  0.26341098  0.01745313  1
  O2-  O349  1  0.59678749  0.26228720  0.52091166  1
  O2-  O350  1  0.59537508  0.59083964  0.02240848  1
  O2-  O351  1  0.59470770  0.59551790  0.51965221  1
  O2-  O352  1  0.59459808  0.92769505  0.02002527  1
  O2-  O353  1  0.59409879  0.92849598  0.52141493  1
  O2-  O354  1  0.92561267  0.26456267  0.02051741  1
  O2-  O355  1  0.92858911  0.26281394  0.52127277  1
  O2-  O356  1  0.93560641  0.59939623  0.01930458  1
  O2-  O357  1  0.92609086  0.59236284  0.51758024  1
  O2-  O358  1  0.92886878  0.92810868  0.02074819  1
  O2-  O359  1  0.92297629  0.92519375  0.51573519  1
