# generated using pymatgen
data_Sr7Ca15Pr50Mn72O216
_symmetry_space_group_name_H-M   'P 1'
_cell_length_a   16.55873200
_cell_length_b   16.60405918
_cell_length_c   15.59292315
_cell_angle_alpha   90.00536599
_cell_angle_beta   90.00228699
_cell_angle_gamma   90.00209105
_symmetry_Int_Tables_number   1
_chemical_formula_structural   Sr7Ca15Pr50Mn72O216
_chemical_formula_sum   'Sr7 Ca15 Pr50 Mn72 O216'
_cell_volume   4287.15203851
_cell_formula_units_Z   1
loop_
 _symmetry_equiv_pos_site_id
 _symmetry_equiv_pos_as_xyz
  1  'x, y, z'
loop_
 _atom_type_symbol
 _atom_type_oxidation_number
  Sr2+  2.0
  Ca2+  2.0
  Pr3+  3.0
  Mn3.30+  3.3
  O2-  -2.0
loop_
 _atom_site_type_symbol
 _atom_site_label
 _atom_site_symmetry_multiplicity
 _atom_site_fract_x
 _atom_site_fract_y
 _atom_site_fract_z
 _atom_site_occupancy
  Sr2+  Sr0  1  0.83509947  0.17688133  0.12579657  1
  Sr2+  Sr1  1  0.33494697  0.01046325  0.62368374  1
  Sr2+  Sr2  1  0.83148738  0.82426662  0.87291952  1
  Sr2+  Sr3  1  0.16367682  0.84232903  0.12709208  1
  Sr2+  Sr4  1  0.50224813  0.17499875  0.62762374  1
  Sr2+  Sr5  1  0.33547310  0.32362984  0.37496449  1
  Sr2+  Sr6  1  -0.00242350  0.67639738  0.12780419  1
  Ca2+  Ca7  1  0.50385645  0.85013445  0.62380846  1
  Ca2+  Ca8  1  0.49846009  0.48525992  0.87466968  1
  Ca2+  Ca9  1  0.83105386  0.48909823  0.37301505  1
  Ca2+  Ca10  1  0.99837868  0.65397178  0.37398854  1
  Ca2+  Ca11  1  -0.00581129  0.01350533  0.12678622  1
  Ca2+  Ca12  1  0.99966611  0.98755914  0.37331886  1
  Ca2+  Ca13  1  0.67309874  0.64954546  0.37521790  1
  Ca2+  Ca14  1  0.66892890  0.31923462  0.87609640  1
  Ca2+  Ca15  1  -0.00542874  0.01361175  0.62351088  1
  Ca2+  Ca16  1  0.83851230  0.85162559  0.62232061  1
  Ca2+  Ca17  1  0.66525717  0.34950227  0.12379700  1
  Ca2+  Ca18  1  0.83197596  0.15153756  0.37403390  1
  Ca2+  Ca19  1  0.83091651  0.81798128  0.37617040  1
  Ca2+  Ca20  1  0.16246387  0.48494277  0.87635756  1
  Ca2+  Ca21  1  0.49909929  0.15269772  0.87409831  1
  Pr3+  Pr22  1  1.00100910  0.98660195  0.87575666  1
  Pr3+  Pr23  1  0.16622379  0.17505320  0.12568197  1
  Pr3+  Pr24  1  0.33187378  0.34551283  0.12525160  1
  Pr3+  Pr25  1  0.16206162  0.48772561  0.37444893  1
  Pr3+  Pr26  1  0.66917581  0.65602632  0.87447409  1
  Pr3+  Pr27  1  0.83098531  0.15399942  0.87569662  1
  Pr3+  Pr28  1  0.16396719  0.15215086  0.87541100  1
  Pr3+  Pr29  1  0.33526116  0.98904304  0.87311143  1
  Pr3+  Pr30  1  0.67358790  0.31996090  0.37343677  1
  Pr3+  Pr31  1  -0.00233344  0.34552667  0.62524455  1
  Pr3+  Pr32  1  0.49715447  0.82318955  0.87188841  1
  Pr3+  Pr33  1  0.66409116  0.01199179  0.62542673  1
  Pr3+  Pr34  1  -0.00689443  0.68259474  0.62215686  1
  Pr3+  Pr35  1  0.33461839  0.98892970  0.37668265  1
  Pr3+  Pr36  1  0.83550102  0.17748225  0.62358587  1
  Pr3+  Pr37  1  0.66848073  0.98850019  0.87373466  1
  Pr3+  Pr38  1  0.33853176  0.31908944  0.87579178  1
  Pr3+  Pr39  1  0.33085436  0.68029475  0.62381348  1
  Pr3+  Pr40  1  0.66277999  0.34477192  0.62572627  1
  Pr3+  Pr41  1  0.99929822  0.32200665  0.37431285  1
  Pr3+  Pr42  1  0.16305693  0.15275874  0.37466839  1
  Pr3+  Pr43  1  0.66688145  0.01244697  0.12447861  1
  Pr3+  Pr44  1  0.82856000  0.48710068  0.87554474  1
  Pr3+  Pr45  1  0.50384227  0.51251480  0.12441818  1
  Pr3+  Pr46  1  0.32806103  0.68012408  0.12632614  1
  Pr3+  Pr47  1  0.15937278  0.81993335  0.37565733  1
  Pr3+  Pr48  1  0.50340731  0.51045377  0.62536775  1
  Pr3+  Pr49  1  1.00317080  0.32032396  0.87561297  1
  Pr3+  Pr50  1  0.66684622  0.67879881  0.12759399  1
  Pr3+  Pr51  1  0.33418973  0.34172818  0.62504135  1
  Pr3+  Pr52  1  1.00207721  0.65440491  0.87539234  1
  Pr3+  Pr53  1  0.16635019  0.84938018  0.62279054  1
  Pr3+  Pr54  1  0.17111681  0.17599407  0.62459319  1
  Pr3+  Pr55  1  0.66411112  0.68241737  0.62243839  1
  Pr3+  Pr56  1  0.33752151  0.65107924  0.87507257  1
  Pr3+  Pr57  1  0.16829184  0.51291907  0.12406296  1
  Pr3+  Pr58  1  0.49988280  0.82103981  0.37875503  1
  Pr3+  Pr59  1  0.33456235  0.65419592  0.37520205  1
  Pr3+  Pr60  1  0.50813990  0.18290826  0.12312782  1
  Pr3+  Pr61  1  0.16236474  0.82288754  0.87402450  1
  Pr3+  Pr62  1  0.83461056  0.51221273  0.12680169  1
  Pr3+  Pr63  1  0.32928387  0.01153273  0.12600794  1
  Pr3+  Pr64  1  0.84038167  0.84635022  0.12630113  1
  Pr3+  Pr65  1  0.49815082  0.15604160  0.37541635  1
  Pr3+  Pr66  1  0.50322715  0.84626705  0.12617125  1
  Pr3+  Pr67  1  -0.00535617  0.34558228  0.12451340  1
  Pr3+  Pr68  1  0.49964198  0.48698080  0.37550565  1
  Pr3+  Pr69  1  0.67516606  0.98732247  0.37583304  1
  Pr3+  Pr70  1  0.17006368  0.51171488  0.62614282  1
  Pr3+  Pr71  1  0.83519268  0.51274183  0.62356309  1
  Mn3.30+  Mn72  1  0.16498576  -0.00112832  0.00326933  1
  Mn3.30+  Mn73  1  0.16260322  0.00026305  0.49899512  1
  Mn3.30+  Mn74  1  0.16699532  0.33326235  0.00012218  1
  Mn3.30+  Mn75  1  0.16594684  0.33229533  0.49935714  1
  Mn3.30+  Mn76  1  0.16737008  0.66652420  -0.00127062  1
  Mn3.30+  Mn77  1  0.16252281  0.66621468  0.50032674  1
  Mn3.30+  Mn78  1  0.49942290  0.00093651  -0.00037378  1
  Mn3.30+  Mn79  1  0.50320954  0.00021051  0.50013476  1
  Mn3.30+  Mn80  1  0.50393277  0.33424995  -0.00278096  1
  Mn3.30+  Mn81  1  0.50175059  0.33209477  0.50023903  1
  Mn3.30+  Mn82  1  0.50012251  0.66631429  -0.00056313  1
  Mn3.30+  Mn83  1  0.50219322  0.66758092  0.49962185  1
  Mn3.30+  Mn84  1  0.83413219  -0.00018029  0.00040068  1
  Mn3.30+  Mn85  1  0.83677311  -0.00110662  0.49875690  1
  Mn3.30+  Mn86  1  0.83017783  0.33290360  0.00071144  1
  Mn3.30+  Mn87  1  0.83323096  0.33367244  0.49868711  1
  Mn3.30+  Mn88  1  0.83358178  0.66729449  -0.00062114  1
  Mn3.30+  Mn89  1  0.83148559  0.66832329  0.49731780  1
  Mn3.30+  Mn90  1  -0.00312038  0.16426389  0.25202245  1
  Mn3.30+  Mn91  1  0.00035019  0.16514532  0.74804970  1
  Mn3.30+  Mn92  1  -0.00268683  0.50135452  0.25200707  1
  Mn3.30+  Mn93  1  0.00110808  0.50015494  0.75052246  1
  Mn3.30+  Mn94  1  -0.00343639  0.83391788  0.25294150  1
  Mn3.30+  Mn95  1  -0.00272640  0.83462546  0.74766299  1
  Mn3.30+  Mn96  1  0.33460786  0.16702029  0.24978733  1
  Mn3.30+  Mn97  1  0.33557862  0.16592078  0.75044905  1
  Mn3.30+  Mn98  1  0.33437199  0.49944225  0.24989554  1
  Mn3.30+  Mn99  1  0.33414530  0.49833271  0.75218728  1
  Mn3.30+  Mn100  1  0.33272596  0.83367319  0.25249938  1
  Mn3.30+  Mn101  1  0.33231917  0.83401225  0.74695978  1
  Mn3.30+  Mn102  1  0.66953727  0.16781541  0.24856213  1
  Mn3.30+  Mn103  1  0.66615831  0.16838142  0.75313914  1
  Mn3.30+  Mn104  1  0.66856704  0.50017496  0.25046309  1
  Mn3.30+  Mn105  1  0.66511435  0.49926611  0.75235941  1
  Mn3.30+  Mn106  1  0.67043653  0.83184681  0.25275868  1
  Mn3.30+  Mn107  1  0.66674461  0.83374232  0.74657196  1
  Mn3.30+  Mn108  1  0.16245645  -0.00138666  0.24989476  1
  Mn3.30+  Mn109  1  0.16512019  0.00040024  0.74783138  1
  Mn3.30+  Mn110  1  0.16531025  0.33199201  0.24960108  1
  Mn3.30+  Mn111  1  0.16771659  0.33340570  0.75125985  1
  Mn3.30+  Mn112  1  0.16373862  0.66684275  0.25130347  1
  Mn3.30+  Mn113  1  0.16608460  0.66606311  0.74972608  1
  Mn3.30+  Mn114  1  0.50155563  0.00034331  0.25090821  1
  Mn3.30+  Mn115  1  0.50094243  0.00036739  0.74916072  1
  Mn3.30+  Mn116  1  0.50325240  0.33434101  0.24844570  1
  Mn3.30+  Mn117  1  0.50220323  0.33213792  0.75393299  1
  Mn3.30+  Mn118  1  0.50171762  0.66725801  0.25246536  1
  Mn3.30+  Mn119  1  0.50008196  0.66692758  0.74856557  1
  Mn3.30+  Mn120  1  0.83671271  -0.00003211  0.25276693  1
  Mn3.30+  Mn121  1  0.83406873  -0.00077956  0.74766292  1
  Mn3.30+  Mn122  1  0.83209080  0.33325898  0.24922845  1
  Mn3.30+  Mn123  1  0.83152954  0.33313184  0.75080184  1
  Mn3.30+  Mn124  1  0.83266545  0.66688665  0.25462866  1
  Mn3.30+  Mn125  1  0.83251330  0.66855497  0.74852603  1
  Mn3.30+  Mn126  1  -0.00109709  0.16532580  0.00151632  1
  Mn3.30+  Mn127  1  -0.00134802  0.16391999  0.49858664  1
  Mn3.30+  Mn128  1  -0.00001356  0.50012793  -0.00112592  1
  Mn3.30+  Mn129  1  -0.00169360  0.50165517  0.49899833  1
  Mn3.30+  Mn130  1  -0.00078488  0.83268676  0.00178022  1
  Mn3.30+  Mn131  1  -0.00532938  0.83559387  0.49738024  1
  Mn3.30+  Mn132  1  0.33634991  0.16598835  0.00048446  1
  Mn3.30+  Mn133  1  0.33386607  0.16719007  0.49969592  1
  Mn3.30+  Mn134  1  0.33425714  0.49858352  -0.00226588  1
  Mn3.30+  Mn135  1  0.33406940  0.49938471  0.50084201  1
  Mn3.30+  Mn136  1  0.33192515  0.83318634  0.00021097  1
  Mn3.30+  Mn137  1  0.33304959  0.83453405  0.50074478  1
  Mn3.30+  Mn138  1  0.66644564  0.16972598  -0.00116831  1
  Mn3.30+  Mn139  1  0.66904135  0.16624602  0.49893543  1
  Mn3.30+  Mn140  1  0.66503453  0.49868971  -0.00145173  1
  Mn3.30+  Mn141  1  0.66957398  0.50076135  0.49867014  1
  Mn3.30+  Mn142  1  0.66736118  0.83315994  0.00047146  1
  Mn3.30+  Mn143  1  0.67010675  0.83301527  0.49981040  1
  O2-  O144  1  0.02304181  0.16218198  0.12634946  1
  O2-  O145  1  0.02729098  0.16048646  0.62411585  1
  O2-  O146  1  0.02408890  0.49439813  0.12420958  1
  O2-  O147  1  0.02608983  0.49453979  0.62625673  1
  O2-  O148  1  0.01600851  0.82760323  0.12662126  1
  O2-  O149  1  0.02485243  0.82696687  0.62323218  1
  O2-  O150  1  0.36237359  0.15914104  0.12481469  1
  O2-  O151  1  0.35093633  0.16904352  0.62531064  1
  O2-  O152  1  0.35934308  0.49509114  0.12282534  1
  O2-  O153  1  0.35879227  0.49345062  0.62623577  1
  O2-  O154  1  0.35962667  0.82758878  0.13026303  1
  O2-  O155  1  0.36014548  0.82700468  0.62429189  1
  O2-  O156  1  0.68655208  0.15900000  0.12429347  1
  O2-  O157  1  0.69138040  0.16237688  0.62748383  1
  O2-  O158  1  0.69066543  0.49749602  0.12376441  1
  O2-  O159  1  0.69147301  0.49272471  0.62506243  1
  O2-  O160  1  0.69389651  0.82727681  0.12907348  1
  O2-  O161  1  0.69576397  0.82911856  0.62196906  1
  O2-  O162  1  0.13941499  0.32540008  0.12434335  1
  O2-  O163  1  0.14164253  0.32529598  0.62394619  1
  O2-  O164  1  0.14906363  0.66042948  0.12528362  1
  O2-  O165  1  0.13796998  0.65855827  0.62548281  1
  O2-  O166  1  0.13857168  1.00101063  0.12648364  1
  O2-  O167  1  0.13767454  0.99825008  0.62163197  1
  O2-  O168  1  0.47529037  0.33017230  0.12334043  1
  O2-  O169  1  0.47860574  0.33159581  0.62863957  1
  O2-  O170  1  0.47208643  0.66126566  0.12760358  1
  O2-  O171  1  0.47325367  0.65653825  0.62468046  1
  O2-  O172  1  0.47394848  0.99327772  0.12581256  1
  O2-  O173  1  0.48452404  0.99624608  0.62373762  1
  O2-  O174  1  0.80798950  0.33243073  0.12343890  1
  O2-  O175  1  0.80729055  0.32664288  0.62505268  1
  O2-  O176  1  0.81023765  0.66099173  0.12762283  1
  O2-  O177  1  0.80776381  0.65810092  0.62378698  1
  O2-  O178  1  0.80980489  0.99387405  0.12647276  1
  O2-  O179  1  0.80788392  0.99865174  0.62499386  1
  O2-  O180  1  0.30964739  0.16840017  0.37339875  1
  O2-  O181  1  0.30797269  0.16972661  0.87676508  1
  O2-  O182  1  0.30726339  0.50520393  0.37682666  1
  O2-  O183  1  0.30444637  0.50410130  0.87470607  1
  O2-  O184  1  0.30636656  0.83915832  0.37578970  1
  O2-  O185  1  0.30688063  0.84001231  0.87003012  1
  O2-  O186  1  0.64166946  0.17166095  0.37119558  1
  O2-  O187  1  0.64071956  0.17256180  0.87684036  1
  O2-  O188  1  0.64192326  0.50459692  0.37535689  1
  O2-  O189  1  0.63824099  0.51201701  0.87558020  1
  O2-  O190  1  0.64165937  0.84128158  0.37532831  1
  O2-  O191  1  0.64115001  0.83750181  0.87294518  1
  O2-  O192  1  0.97232563  0.17711641  0.37580209  1
  O2-  O193  1  0.97606593  0.17294935  0.87339986  1
  O2-  O194  1  0.97493319  0.50366344  0.37704831  1
  O2-  O195  1  0.97359757  0.50495040  0.87328743  1
  O2-  O196  1  0.97067625  0.84512843  0.37690093  1
  O2-  O197  1  0.98129320  0.83826250  0.87302605  1
  O2-  O198  1  0.19152220  0.00384439  0.37438397  1
  O2-  O199  1  0.19055311  0.00245977  0.87722295  1
  O2-  O200  1  0.18604121  0.33982907  0.37529064  1
  O2-  O201  1  0.19287733  0.33805940  0.87718450  1
  O2-  O202  1  0.19060248  0.66916311  0.37701764  1
  O2-  O203  1  0.19418834  0.67685212  0.87211853  1
  O2-  O204  1  0.52883587  0.00705712  0.37425807  1
  O2-  O205  1  0.52312949  0.00051873  0.87587595  1
  O2-  O206  1  0.52757662  0.33841962  0.37245656  1
  O2-  O207  1  0.52830519  0.34377617  0.87620848  1
  O2-  O208  1  0.53012764  0.67406984  0.37603987  1
  O2-  O209  1  0.52632735  0.67773269  0.87195805  1
  O2-  O210  1  0.85814688  0.00918157  0.37598354  1
  O2-  O211  1  0.85673561  0.00454385  0.87294647  1
  O2-  O212  1  0.85688766  0.34404373  0.37615352  1
  O2-  O213  1  0.85998722  0.33902406  0.87482864  1
  O2-  O214  1  0.85875733  0.67417050  0.37727057  1
  O2-  O215  1  0.85672300  0.66832285  0.87130152  1
  O2-  O216  1  0.23776396  0.09325216  0.02147638  1
  O2-  O217  1  0.23515896  0.09518212  0.51427667  1
  O2-  O218  1  0.23900367  0.42520426  0.02423592  1
  O2-  O219  1  0.23779714  0.42508259  0.52128764  1
  O2-  O220  1  0.24199231  0.75968013  0.01805512  1
  O2-  O221  1  0.23436109  0.75846140  0.52106680  1
  O2-  O222  1  0.57312028  0.09369195  0.01970354  1
  O2-  O223  1  0.57635017  0.09361120  0.51644420  1
  O2-  O224  1  0.57066059  0.43032221  0.02116493  1
  O2-  O225  1  0.57298249  0.42836730  0.51882539  1
  O2-  O226  1  0.57136145  0.76179578  0.02166675  1
  O2-  O227  1  0.56862570  0.76345528  0.52227824  1
  O2-  O228  1  0.90718252  0.09460447  0.01276154  1
  O2-  O229  1  0.90540109  0.09527379  0.52164898  1
  O2-  O230  1  0.90292518  0.42715506  0.01947896  1
  O2-  O231  1  0.90847427  0.42693808  0.52454343  1
  O2-  O232  1  0.90396522  0.76201536  0.01585317  1
  O2-  O233  1  0.90153599  0.76291653  0.52285501  1
  O2-  O234  1  0.26093666  0.25702610  0.22576017  1
  O2-  O235  1  0.26241292  0.26118070  0.73270105  1
  O2-  O236  1  0.26350616  0.59152110  0.23089306  1
  O2-  O237  1  0.26135290  0.59571933  0.72776698  1
  O2-  O238  1  0.26384819  0.92919125  0.23366764  1
  O2-  O239  1  0.25763214  0.92607697  0.72899772  1
  O2-  O240  1  0.59771649  0.26439140  0.22735696  1
  O2-  O241  1  0.59770190  0.26294169  0.73295559  1
  O2-  O242  1  0.59345865  0.59366636  0.22792937  1
  O2-  O243  1  0.59552846  0.59471571  0.72705508  1
  O2-  O244  1  0.59670657  0.92721751  0.22896570  1
  O2-  O245  1  0.59576854  0.92705539  0.73209664  1
  O2-  O246  1  0.93041482  0.26506547  0.23338066  1
  O2-  O247  1  0.93062309  0.25969863  0.72865961  1
  O2-  O248  1  0.92437676  0.59160534  0.23290187  1
  O2-  O249  1  0.92876942  0.59506789  0.72907343  1
  O2-  O250  1  0.92810258  0.92874232  0.22731494  1
  O2-  O251  1  0.93045416  0.93199085  0.73179063  1
  O2-  O252  1  0.09374286  0.23820694  0.27020255  1
  O2-  O253  1  0.09565840  0.23794205  0.77068835  1
  O2-  O254  1  0.09521190  0.56923475  0.26704436  1
  O2-  O255  1  0.09732012  0.57149854  0.77383046  1
  O2-  O256  1  0.09392586  0.90431270  0.27152059  1
  O2-  O257  1  0.09458128  0.90446281  0.76720294  1
  O2-  O258  1  0.43371049  0.23851381  0.26521271  1
  O2-  O259  1  0.42976635  0.24026967  0.77565850  1
  O2-  O260  1  0.42955426  0.57506709  0.27405137  1
  O2-  O261  1  0.42797368  0.57070031  0.77269933  1
  O2-  O262  1  0.42894899  0.90549246  0.27360588  1
  O2-  O263  1  0.42461965  0.90694984  0.76989152  1
  O2-  O264  1  0.76288984  0.23872356  0.27372546  1
  O2-  O265  1  0.76407776  0.23788056  0.76946634  1
  O2-  O266  1  0.76314538  0.56959628  0.26834406  1
  O2-  O267  1  0.75991154  0.57036055  0.76938890  1
  O2-  O268  1  0.76408206  0.90381190  0.27228772  1
  O2-  O269  1  0.75621688  0.91046550  0.76773392  1
  O2-  O270  1  0.07121456  0.07295112  0.47285815  1
  O2-  O271  1  0.07415027  0.07387862  0.97752103  1
  O2-  O272  1  0.07194159  0.40503483  0.48127022  1
  O2-  O273  1  0.06968905  0.40490348  0.98102458  1
  O2-  O274  1  0.06562027  0.73868826  0.47823918  1
  O2-  O275  1  0.07394732  0.74015059  0.97758760  1
  O2-  O276  1  0.40895358  0.07450328  0.47847224  1
  O2-  O277  1  0.40299700  0.06964739  0.98112410  1
  O2-  O278  1  0.40982621  0.40830019  0.48325123  1
  O2-  O279  1  0.40320456  0.40267253  0.98161738  1
  O2-  O280  1  0.40447821  0.73813208  0.47829661  1
  O2-  O281  1  0.40647516  0.73725547  0.97952676  1
  O2-  O282  1  0.73932681  0.07004779  0.48363361  1
  O2-  O283  1  0.73831902  0.07353727  0.97967431  1
  O2-  O284  1  0.73611369  0.40330336  0.48314476  1
  O2-  O285  1  0.73749571  0.40788507  0.97518386  1
  O2-  O286  1  0.73225529  0.73295581  0.48097884  1
  O2-  O287  1  0.73544471  0.73595089  0.98433282  1
  O2-  O288  1  0.09388639  0.23840890  0.47943799  1
  O2-  O289  1  0.09582068  0.23797948  0.98008974  1
  O2-  O290  1  0.09603376  0.56906340  0.48218750  1
  O2-  O291  1  0.09666643  0.57276489  0.97807888  1
  O2-  O292  1  0.09507245  0.90234632  0.48165658  1
  O2-  O293  1  0.09314145  0.90624190  0.97921883  1
  O2-  O294  1  0.43050007  0.24058994  0.48138614  1
  O2-  O295  1  0.43327568  0.23879576  0.97866763  1
  O2-  O296  1  0.42933795  0.57487340  0.47768052  1
  O2-  O297  1  0.43028356  0.57138204  0.97693301  1
  O2-  O298  1  0.42893542  0.90989996  0.47754943  1
  O2-  O299  1  0.42635567  0.90370508  0.98012205  1
  O2-  O300  1  0.76305890  0.23609184  0.47834497  1
  O2-  O301  1  0.76246320  0.23932754  0.97797232  1
  O2-  O302  1  0.76497068  0.56771379  0.48125414  1
  O2-  O303  1  0.75942401  0.57192139  0.98045941  1
  O2-  O304  1  0.76398326  0.90545098  0.47696466  1
  O2-  O305  1  0.75653382  0.90819731  0.98301183  1
  O2-  O306  1  0.07265379  0.07475334  0.27460325  1
  O2-  O307  1  0.07174282  0.07309789  0.77375318  1
  O2-  O308  1  0.06935668  0.40670976  0.26937466  1
  O2-  O309  1  0.07128767  0.40336072  0.76821448  1
  O2-  O310  1  0.06886009  0.74158977  0.27519301  1
  O2-  O311  1  0.07161654  0.73738981  0.76878295  1
  O2-  O312  1  0.40523085  0.07213551  0.27159024  1
  O2-  O313  1  0.40593229  0.07336904  0.76915158  1
  O2-  O314  1  0.40819997  0.40880893  0.26712353  1
  O2-  O315  1  0.40504481  0.40172575  0.76962938  1
  O2-  O316  1  0.40681480  0.73963389  0.27449149  1
  O2-  O317  1  0.40293252  0.73822515  0.77007329  1
  O2-  O318  1  0.73813885  0.06869035  0.26568210  1
  O2-  O319  1  0.74013132  0.07477660  0.77206448  1
  O2-  O320  1  0.73846371  0.40519567  0.26764177  1
  O2-  O321  1  0.73578951  0.40644985  0.77286310  1
  O2-  O322  1  0.73347450  0.73278273  0.26969887  1
  O2-  O323  1  0.73337337  0.73650211  0.76538534  1
  O2-  O324  1  0.23841824  0.09233906  0.22985297  1
  O2-  O325  1  0.23555054  0.09545868  0.73518502  1
  O2-  O326  1  0.23746234  0.42557149  0.22824366  1
  O2-  O327  1  0.24075591  0.42524081  0.72646633  1
  O2-  O328  1  0.24238138  0.75799535  0.23543165  1
  O2-  O329  1  0.23703340  0.76109187  0.72484003  1
  O2-  O330  1  0.57194939  0.09541638  0.22899778  1
  O2-  O331  1  0.57886461  0.09111049  0.73494606  1
  O2-  O332  1  0.57115143  0.43112725  0.23201144  1
  O2-  O333  1  0.57235001  0.42813146  0.72849130  1
  O2-  O334  1  0.57075958  0.76219655  0.22920457  1
  O2-  O335  1  0.57026075  0.76346510  0.72489647  1
  O2-  O336  1  0.90682885  0.09343535  0.23285905  1
  O2-  O337  1  0.90420450  0.09708648  0.73172585  1
  O2-  O338  1  0.90593540  0.42669504  0.22784587  1
  O2-  O339  1  0.90353219  0.42680769  0.72942020  1
  O2-  O340  1  0.89978261  0.76342252  0.23539723  1
  O2-  O341  1  0.90586369  0.76344574  0.72585314  1
  O2-  O342  1  0.26414258  0.25882769  0.02163379  1
  O2-  O343  1  0.25839483  0.26072713  0.51987471  1
  O2-  O344  1  0.26393241  0.59377562  0.01918780  1
  O2-  O345  1  0.26160010  0.59314558  0.52184488  1
  O2-  O346  1  0.26142172  0.93050029  0.01906346  1
  O2-  O347  1  0.25668290  0.92693031  0.51816257  1
  O2-  O348  1  0.59644227  0.26384104  0.02353241  1
  O2-  O349  1  0.59903779  0.26344464  0.51531549  1
  O2-  O350  1  0.59383619  0.59657633  0.02235658  1
  O2-  O351  1  0.59465536  0.59239293  0.52229858  1
  O2-  O352  1  0.59314109  0.92695611  0.02109819  1
  O2-  O353  1  0.59924286  0.92845875  0.51662649  1
  O2-  O354  1  0.93137247  0.26325259  0.01566690  1
  O2-  O355  1  0.92926921  0.26088991  0.52188263  1
  O2-  O356  1  0.92553332  0.59211325  0.01561466  1
  O2-  O357  1  0.92720985  0.59472291  0.52220974  1
  O2-  O358  1  0.92864132  0.92805308  0.01813048  1
  O2-  O359  1  0.92917458  0.93056321  0.52393631  1
