# generated using pymatgen
data_Sr7Ca15Pr50Mn72O216
_symmetry_space_group_name_H-M   'P 1'
_cell_length_a   16.55912825
_cell_length_b   16.60362273
_cell_length_c   15.59529338
_cell_angle_alpha   89.99335531
_cell_angle_beta   90.00680772
_cell_angle_gamma   89.99555534
_symmetry_Int_Tables_number   1
_chemical_formula_structural   Sr7Ca15Pr50Mn72O216
_chemical_formula_sum   'Sr7 Ca15 Pr50 Mn72 O216'
_cell_volume   4287.79356787
_cell_formula_units_Z   1
loop_
 _symmetry_equiv_pos_site_id
 _symmetry_equiv_pos_as_xyz
  1  'x, y, z'
loop_
 _atom_type_symbol
 _atom_type_oxidation_number
  Sr2+  2.0
  Ca2+  2.0
  Pr3+  3.0
  Mn3.30+  3.3
  O2-  -2.0
loop_
 _atom_site_type_symbol
 _atom_site_label
 _atom_site_symmetry_multiplicity
 _atom_site_fract_x
 _atom_site_fract_y
 _atom_site_fract_z
 _atom_site_occupancy
  Sr2+  Sr0  1  0.33451094  0.32256870  0.87873153  1
  Sr2+  Sr1  1  0.33326573  0.98971005  0.87752337  1
  Sr2+  Sr2  1  0.83243352  0.15975192  0.37459087  1
  Sr2+  Sr3  1  0.67031101  0.65779076  0.37523269  1
  Sr2+  Sr4  1  1.00075482  0.32242918  0.37118545  1
  Sr2+  Sr5  1  0.66924938  0.31952018  0.37444445  1
  Sr2+  Sr6  1  0.99762284  0.99346764  0.37189711  1
  Ca2+  Ca7  1  0.49951125  0.15240937  0.37035800  1
  Ca2+  Ca8  1  0.83021213  0.82190996  0.37378850  1
  Ca2+  Ca9  1  0.50051339  0.17964945  0.12530329  1
  Ca2+  Ca10  1  -0.00158486  0.34445505  0.12746699  1
  Ca2+  Ca11  1  0.32782281  0.01717821  0.12478247  1
  Ca2+  Ca12  1  0.83284925  0.17719431  0.61997321  1
  Ca2+  Ca13  1  0.33840025  0.65167912  0.37341451  1
  Ca2+  Ca14  1  0.16497371  0.82066643  0.87857167  1
  Ca2+  Ca15  1  0.33179152  0.34366972  0.12472260  1
  Ca2+  Ca16  1  0.16958734  0.18078938  0.12684842  1
  Ca2+  Ca17  1  -0.00042675  0.01339703  0.12771847  1
  Ca2+  Ca18  1  0.66549416  0.01546180  0.62277367  1
  Ca2+  Ca19  1  0.83593943  0.51448485  0.62149221  1
  Ca2+  Ca20  1  0.17136894  0.85093861  0.12498362  1
  Ca2+  Ca21  1  0.66181217  0.01844132  0.12604570  1
  Pr3+  Pr22  1  0.66822155  0.34278030  0.62297681  1
  Pr3+  Pr23  1  0.83246484  0.82117149  0.87672886  1
  Pr3+  Pr24  1  0.67220027  0.99161775  0.37290627  1
  Pr3+  Pr25  1  0.16835739  0.17840266  0.62364770  1
  Pr3+  Pr26  1  0.16362563  0.48482499  0.87571163  1
  Pr3+  Pr27  1  0.33838730  0.31741091  0.37191722  1
  Pr3+  Pr28  1  0.33298949  0.65773981  0.87617045  1
  Pr3+  Pr29  1  0.83498054  0.84687486  0.62254707  1
  Pr3+  Pr30  1  0.66325564  0.67904945  0.12690536  1
  Pr3+  Pr31  1  0.50256113  0.84982586  0.12604824  1
  Pr3+  Pr32  1  0.49500608  0.82307155  0.87651179  1
  Pr3+  Pr33  1  0.66551516  0.67932879  0.62329714  1
  Pr3+  Pr34  1  0.16825586  0.50639986  0.12577719  1
  Pr3+  Pr35  1  0.16081111  0.15370507  0.37071087  1
  Pr3+  Pr36  1  0.82765440  0.48529923  0.37656571  1
  Pr3+  Pr37  1  0.66945262  0.65322157  0.87558364  1
  Pr3+  Pr38  1  0.83707976  0.84895523  0.12792547  1
  Pr3+  Pr39  1  -0.00682234  0.34638342  0.62276006  1
  Pr3+  Pr40  1  0.50270967  0.51158887  0.62475071  1
  Pr3+  Pr41  1  0.16485813  0.48680101  0.37403611  1
  Pr3+  Pr42  1  0.33049044  0.68086174  0.62251792  1
  Pr3+  Pr43  1  -0.00110605  0.67927565  0.12618764  1
  Pr3+  Pr44  1  -0.00373162  0.68060901  0.62397788  1
  Pr3+  Pr45  1  0.16809773  0.84724499  0.62548988  1
  Pr3+  Pr46  1  1.00528672  0.65429630  0.87510592  1
  Pr3+  Pr47  1  0.50367679  0.17651985  0.62449872  1
  Pr3+  Pr48  1  0.83162704  0.48569540  0.87319425  1
  Pr3+  Pr49  1  0.16620657  0.15346228  0.87935178  1
  Pr3+  Pr50  1  0.66371137  0.34194794  0.12771684  1
  Pr3+  Pr51  1  0.99889829  0.65689934  0.37458815  1
  Pr3+  Pr52  1  0.83650001  0.17810608  0.12692065  1
  Pr3+  Pr53  1  0.50016948  0.50823084  0.12514956  1
  Pr3+  Pr54  1  0.33676189  0.98982064  0.37141892  1
  Pr3+  Pr55  1  0.33165689  0.01359573  0.62517771  1
  Pr3+  Pr56  1  0.32747425  0.68046060  0.12741043  1
  Pr3+  Pr57  1  0.66811833  0.31826027  0.87590595  1
  Pr3+  Pr58  1  0.49922452  0.48738968  0.37479693  1
  Pr3+  Pr59  1  0.83722488  0.50966491  0.12766477  1
  Pr3+  Pr60  1  0.83166744  0.15262565  0.87548887  1
  Pr3+  Pr61  1  1.00626356  0.98489234  0.87811935  1
  Pr3+  Pr62  1  0.49351976  0.15300915  0.87813020  1
  Pr3+  Pr63  1  0.49548459  0.48581706  0.87482317  1
  Pr3+  Pr64  1  0.66807485  0.98830424  0.87734752  1
  Pr3+  Pr65  1  0.49643131  0.81872872  0.37302445  1
  Pr3+  Pr66  1  0.33012703  0.34564280  0.62518599  1
  Pr3+  Pr67  1  -0.00507316  0.01560804  0.62362355  1
  Pr3+  Pr68  1  0.16408828  0.82303088  0.37258415  1
  Pr3+  Pr69  1  0.50606069  0.84990814  0.62329587  1
  Pr3+  Pr70  1  0.16887440  0.51305231  0.62392226  1
  Pr3+  Pr71  1  1.00551778  0.31809251  0.87776181  1
  Mn3.30+  Mn72  1  0.16746152  -0.00085371  0.00402643  1
  Mn3.30+  Mn73  1  0.16609785  0.00046715  0.49891968  1
  Mn3.30+  Mn74  1  0.16768166  0.33082442  0.00377313  1
  Mn3.30+  Mn75  1  0.16585389  0.33272443  0.49852389  1
  Mn3.30+  Mn76  1  0.16651945  0.66846054  0.00190554  1
  Mn3.30+  Mn77  1  0.16770658  0.66766826  0.49690788  1
  Mn3.30+  Mn78  1  0.49809513  0.00222040  0.00457444  1
  Mn3.30+  Mn79  1  0.50265488  0.00179578  0.49713327  1
  Mn3.30+  Mn80  1  0.49843836  0.33134273  0.00263475  1
  Mn3.30+  Mn81  1  0.49997412  0.33054618  0.49817906  1
  Mn3.30+  Mn82  1  0.49897800  0.66686356  0.00106490  1
  Mn3.30+  Mn83  1  0.49905612  0.66625258  0.49824363  1
  Mn3.30+  Mn84  1  0.83449210  0.00033713  0.00261202  1
  Mn3.30+  Mn85  1  0.83165372  0.00140018  0.49911662  1
  Mn3.30+  Mn86  1  0.83562527  0.33230678  0.00034891  1
  Mn3.30+  Mn87  1  0.83234154  0.33108381  0.50071713  1
  Mn3.30+  Mn88  1  0.83398903  0.66652272  0.00064843  1
  Mn3.30+  Mn89  1  0.83260310  0.66763063  0.49984803  1
  Mn3.30+  Mn90  1  0.00177237  0.16609292  0.24688719  1
  Mn3.30+  Mn91  1  -0.00171796  0.16643417  0.75003680  1
  Mn3.30+  Mn92  1  0.00037019  0.49870241  0.25073029  1
  Mn3.30+  Mn93  1  -0.00172819  0.50002831  0.74828856  1
  Mn3.30+  Mn94  1  0.00121767  0.83645709  0.24934693  1
  Mn3.30+  Mn95  1  0.00124459  0.83381524  0.75069211  1
  Mn3.30+  Mn96  1  0.33376261  0.16610908  0.24644060  1
  Mn3.30+  Mn97  1  0.33364380  0.16716561  0.75131751  1
  Mn3.30+  Mn98  1  0.33349310  0.49880967  0.25031511  1
  Mn3.30+  Mn99  1  0.33304059  0.50103035  0.74987456  1
  Mn3.30+  Mn100  1  0.33171820  0.83496905  0.24832455  1
  Mn3.30+  Mn101  1  0.33290093  0.83442430  0.75113389  1
  Mn3.30+  Mn102  1  0.66386495  0.16543113  0.24908924  1
  Mn3.30+  Mn103  1  0.66750062  0.16460931  0.74930167  1
  Mn3.30+  Mn104  1  0.66711012  0.49981216  0.25032924  1
  Mn3.30+  Mn105  1  0.66779581  0.49871718  0.74890619  1
  Mn3.30+  Mn106  1  0.66792260  0.83609825  0.24928769  1
  Mn3.30+  Mn107  1  0.66682389  0.83507533  0.75062117  1
  Mn3.30+  Mn108  1  0.16706482  0.00081537  0.24526993  1
  Mn3.30+  Mn109  1  0.16598233  -0.00113548  0.75206164  1
  Mn3.30+  Mn110  1  0.16850446  0.33178166  0.24728205  1
  Mn3.30+  Mn111  1  0.16515545  0.33174555  0.75020220  1
  Mn3.30+  Mn112  1  0.16784128  0.66748744  0.25125813  1
  Mn3.30+  Mn113  1  0.16629267  0.66815552  0.74976576  1
  Mn3.30+  Mn114  1  0.50065865  0.00362721  0.24739800  1
  Mn3.30+  Mn115  1  0.50122556  0.00035103  0.75011077  1
  Mn3.30+  Mn116  1  0.49874072  0.32976403  0.24963637  1
  Mn3.30+  Mn117  1  0.49951038  0.33191605  0.74938386  1
  Mn3.30+  Mn118  1  0.49776404  0.66548782  0.25028407  1
  Mn3.30+  Mn119  1  0.50008421  0.66785831  0.74966401  1
  Mn3.30+  Mn120  1  0.83288520  0.00147250  0.24879754  1
  Mn3.30+  Mn121  1  0.83283271  0.00090364  0.74922788  1
  Mn3.30+  Mn122  1  0.83350779  0.33158358  0.24951162  1
  Mn3.30+  Mn123  1  0.83456279  0.33150260  0.74961650  1
  Mn3.30+  Mn124  1  0.83220916  0.66845844  0.25035470  1
  Mn3.30+  Mn125  1  0.83398643  0.66620075  0.74999828  1
  Mn3.30+  Mn126  1  0.00127364  0.16498474  0.00449065  1
  Mn3.30+  Mn127  1  -0.00116062  0.16754998  0.49791337  1
  Mn3.30+  Mn128  1  0.00007643  0.49858356  0.00117365  1
  Mn3.30+  Mn129  1  -0.00139219  0.50052574  0.49907073  1
  Mn3.30+  Mn130  1  0.00378726  0.83466098  0.00422521  1
  Mn3.30+  Mn131  1  -0.00113312  0.83557221  0.49609581  1
  Mn3.30+  Mn132  1  0.33233742  0.16683688  0.00505763  1
  Mn3.30+  Mn133  1  0.33511361  0.16590035  0.49731745  1
  Mn3.30+  Mn134  1  0.33287451  0.49938435  0.00113155  1
  Mn3.30+  Mn135  1  0.33355842  0.50028489  0.49856464  1
  Mn3.30+  Mn136  1  0.33020288  0.83584457  0.00154008  1
  Mn3.30+  Mn137  1  0.33414558  0.83363874  0.49850368  1
  Mn3.30+  Mn138  1  0.66428693  0.16529560  0.00170032  1
  Mn3.30+  Mn139  1  0.66686794  0.16492929  0.49979677  1
  Mn3.30+  Mn140  1  0.66699472  0.49831133  -0.00026370  1
  Mn3.30+  Mn141  1  0.66826936  0.49986102  0.50160604  1
  Mn3.30+  Mn142  1  0.66606870  0.83527222  0.00186924  1
  Mn3.30+  Mn143  1  0.66853507  0.83565959  0.49853927  1
  O2-  O144  1  0.02696946  0.15794604  0.12384075  1
  O2-  O145  1  0.02470831  0.16359953  0.62606031  1
  O2-  O146  1  0.02316897  0.49611008  0.12585759  1
  O2-  O147  1  0.02588784  0.49597624  0.62297129  1
  O2-  O148  1  0.02965014  0.82420772  0.12607240  1
  O2-  O149  1  0.02444718  0.82853977  0.62225566  1
  O2-  O150  1  0.36081541  0.15954581  0.12634960  1
  O2-  O151  1  0.35857130  0.16224410  0.62151879  1
  O2-  O152  1  0.35623360  0.49446471  0.12615505  1
  O2-  O153  1  0.35748073  0.49516105  0.62434922  1
  O2-  O154  1  0.35986956  0.82493174  0.12573660  1
  O2-  O155  1  0.36135918  0.82777736  0.62262080  1
  O2-  O156  1  0.69162600  0.16519054  0.12200100  1
  O2-  O157  1  0.69063961  0.16068888  0.62853215  1
  O2-  O158  1  0.69300563  0.49249768  0.12387839  1
  O2-  O159  1  0.69363552  0.49295850  0.62792229  1
  O2-  O160  1  0.69211859  0.82556011  0.12435936  1
  O2-  O161  1  0.69099406  0.82634142  0.62727175  1
  O2-  O162  1  0.14055843  0.33485493  0.12496828  1
  O2-  O163  1  0.13957451  0.32742253  0.62554805  1
  O2-  O164  1  0.14144426  0.65414623  0.12620346  1
  O2-  O165  1  0.14024004  0.66086272  0.62172559  1
  O2-  O166  1  0.13915697  0.99093420  0.12420186  1
  O2-  O167  1  0.14081878  0.99480334  0.62713555  1
  O2-  O168  1  0.47498567  0.33020700  0.12626619  1
  O2-  O169  1  0.47287127  0.32525020  0.62195353  1
  O2-  O170  1  0.47275908  0.65824531  0.12623888  1
  O2-  O171  1  0.47442318  0.66161499  0.62404351  1
  O2-  O172  1  0.46963314  0.99269154  0.12589036  1
  O2-  O173  1  0.47514512  0.99632597  0.62264254  1
  O2-  O174  1  0.80827253  0.33025240  0.12161199  1
  O2-  O175  1  0.81165503  0.32304261  0.62778948  1
  O2-  O176  1  0.80751842  0.65828878  0.12353449  1
  O2-  O177  1  0.80963046  0.66184051  0.62632435  1
  O2-  O178  1  0.80504021  0.99498159  0.12345546  1
  O2-  O179  1  0.80721134  0.99151088  0.62670410  1
  O2-  O180  1  0.30520903  0.16979524  0.37373908  1
  O2-  O181  1  0.30995537  0.16937314  0.87967397  1
  O2-  O182  1  0.30897171  0.50496557  0.37539209  1
  O2-  O183  1  0.30815232  0.50812214  0.87419821  1
  O2-  O184  1  0.30785842  0.84353069  0.37384499  1
  O2-  O185  1  0.30787117  0.83274767  0.87738060  1
  O2-  O186  1  0.64269268  0.16337920  0.37339105  1
  O2-  O187  1  0.63878537  0.17078554  0.87596105  1
  O2-  O188  1  0.64355645  0.50273290  0.37531335  1
  O2-  O189  1  0.63946795  0.50468372  0.87340191  1
  O2-  O190  1  0.64033803  0.84210248  0.37187109  1
  O2-  O191  1  0.63960421  0.83981255  0.87641333  1
  O2-  O192  1  0.98403608  0.16767979  0.37243584  1
  O2-  O193  1  0.97552219  0.17120760  0.87684564  1
  O2-  O194  1  0.97249367  0.50710760  0.37579001  1
  O2-  O195  1  0.97551965  0.50576172  0.87464692  1
  O2-  O196  1  0.97340454  0.83514510  0.37424752  1
  O2-  O197  1  0.97531023  0.83689120  0.87845525  1
  O2-  O198  1  0.19226912  0.00584672  0.37276354  1
  O2-  O199  1  0.18478359  0.00760874  0.87688500  1
  O2-  O200  1  0.19329935  0.33778583  0.37333240  1
  O2-  O201  1  0.18453583  0.33620786  0.87573753  1
  O2-  O202  1  0.19720137  0.67568635  0.37496210  1
  O2-  O203  1  0.18940340  0.67360478  0.87701377  1
  O2-  O204  1  0.52712079  0.00607140  0.37246920  1
  O2-  O205  1  0.52407012  0.00399586  0.87802995  1
  O2-  O206  1  0.52059426  0.34129247  0.37560706  1
  O2-  O207  1  0.52437857  0.33860976  0.87617724  1
  O2-  O208  1  0.52077824  0.66952828  0.37376015  1
  O2-  O209  1  0.52588909  0.67463779  0.87507053  1
  O2-  O210  1  0.84872963  0.00622066  0.37401536  1
  O2-  O211  1  0.86095339  0.00436813  0.87601234  1
  O2-  O212  1  0.85078038  0.33760261  0.37559255  1
  O2-  O213  1  0.86126865  0.33812547  0.87565799  1
  O2-  O214  1  0.85554684  0.67408807  0.37524410  1
  O2-  O215  1  0.86057160  0.67300418  0.87609520  1
  O2-  O216  1  0.23450094  0.09681776  0.02065923  1
  O2-  O217  1  0.24040886  0.09440085  0.52124810  1
  O2-  O218  1  0.23633188  0.42880181  0.01528913  1
  O2-  O219  1  0.23867367  0.42737875  0.52077758  1
  O2-  O220  1  0.23808142  0.76043293  0.02488014  1
  O2-  O221  1  0.23703547  0.76151763  0.52236600  1
  O2-  O222  1  0.56852531  0.09750782  0.01979655  1
  O2-  O223  1  0.57103379  0.09472340  0.52000549  1
  O2-  O224  1  0.57334099  0.42628798  0.02089145  1
  O2-  O225  1  0.57147719  0.42591768  0.52205100  1
  O2-  O226  1  0.57015369  0.75996978  0.02243389  1
  O2-  O227  1  0.57222599  0.76187530  0.51793124  1
  O2-  O228  1  0.90281764  0.09694504  0.01801048  1
  O2-  O229  1  0.90552725  0.09259831  0.52210778  1
  O2-  O230  1  0.90278957  0.42928574  0.01723919  1
  O2-  O231  1  0.90376542  0.42708262  0.52083499  1
  O2-  O232  1  0.90601060  0.76322321  0.02280329  1
  O2-  O233  1  0.90679594  0.75997582  0.52198740  1
  O2-  O234  1  0.26661662  0.26441245  0.23089224  1
  O2-  O235  1  0.25890855  0.26022277  0.72726326  1
  O2-  O236  1  0.26006121  0.59253898  0.22961459  1
  O2-  O237  1  0.26124437  0.59609195  0.72887939  1
  O2-  O238  1  0.26505221  0.93203527  0.23039804  1
  O2-  O239  1  0.26230924  0.92582395  0.72684163  1
  O2-  O240  1  0.59349258  0.26059368  0.22952314  1
  O2-  O241  1  0.59638908  0.26044981  0.72951814  1
  O2-  O242  1  0.59362791  0.59060116  0.22623202  1
  O2-  O243  1  0.59439617  0.59425988  0.72878154  1
  O2-  O244  1  0.59510462  0.93019648  0.22632204  1
  O2-  O245  1  0.59669930  0.93023008  0.72922889  1
  O2-  O246  1  0.92740443  0.25906217  0.22607259  1
  O2-  O247  1  0.93341343  0.26519939  0.73527470  1
  O2-  O248  1  0.92778754  0.59428220  0.23084499  1
  O2-  O249  1  0.93119480  0.59754569  0.73187236  1
  O2-  O250  1  0.92802708  0.92677841  0.22523881  1
  O2-  O251  1  0.92986167  0.92897955  0.73081217  1
  O2-  O252  1  0.09899713  0.23934941  0.26487229  1
  O2-  O253  1  0.09462708  0.23458810  0.77096167  1
  O2-  O254  1  0.09472556  0.57538971  0.27381542  1
  O2-  O255  1  0.09628139  0.57076607  0.76934758  1
  O2-  O256  1  0.09682339  0.90492684  0.26947264  1
  O2-  O257  1  0.09641862  0.90196043  0.77136308  1
  O2-  O258  1  0.42727849  0.23777118  0.27365859  1
  O2-  O259  1  0.43039224  0.23808063  0.76738569  1
  O2-  O260  1  0.42804807  0.56812984  0.26846288  1
  O2-  O261  1  0.42861088  0.57412671  0.77065546  1
  O2-  O262  1  0.43120593  0.90506360  0.27044487  1
  O2-  O263  1  0.43261586  0.90338990  0.76575978  1
  O2-  O264  1  0.76002852  0.23920486  0.26003063  1
  O2-  O265  1  0.75893509  0.23816803  0.77497948  1
  O2-  O266  1  0.76307295  0.56988074  0.26685929  1
  O2-  O267  1  0.76069424  0.57402261  0.77400902  1
  O2-  O268  1  0.76298411  0.90438952  0.26939984  1
  O2-  O269  1  0.76241032  0.90424181  0.77329325  1
  O2-  O270  1  0.07425845  0.07405269  0.48561283  1
  O2-  O271  1  0.07141119  0.07199806  0.97891908  1
  O2-  O272  1  0.07434816  0.40888166  0.48079480  1
  O2-  O273  1  0.07298795  0.40632883  0.97971680  1
  O2-  O274  1  0.07271834  0.73924836  0.47770884  1
  O2-  O275  1  0.06909115  0.73506390  0.98393295  1
  O2-  O276  1  0.40362903  0.06922864  0.48115489  1
  O2-  O277  1  0.40704337  0.07464690  0.98134671  1
  O2-  O278  1  0.40478369  0.40336027  0.48101654  1
  O2-  O279  1  0.41084843  0.41034914  0.98202476  1
  O2-  O280  1  0.40276665  0.73779955  0.47766267  1
  O2-  O281  1  0.40332330  0.73915950  0.98098816  1
  O2-  O282  1  0.73523735  0.06933715  0.48546627  1
  O2-  O283  1  0.73808675  0.07399059  0.97750623  1
  O2-  O284  1  0.73953785  0.40598626  0.48535750  1
  O2-  O285  1  0.73952273  0.40476105  0.97637283  1
  O2-  O286  1  0.73907813  0.73939637  0.48762903  1
  O2-  O287  1  0.73933642  0.73746922  0.97906982  1
  O2-  O288  1  0.09851431  0.23730966  0.48340375  1
  O2-  O289  1  0.09410622  0.23810988  0.98018230  1
  O2-  O290  1  0.09637192  0.57494191  0.47659822  1
  O2-  O291  1  0.09522910  0.57164171  0.97865605  1
  O2-  O292  1  0.09699067  0.90347168  0.48241213  1
  O2-  O293  1  0.09617285  0.90391071  0.97731254  1
  O2-  O294  1  0.42859371  0.23571910  0.47549524  1
  O2-  O295  1  0.42983859  0.23868100  0.98315136  1
  O2-  O296  1  0.43024056  0.56861996  0.48282170  1
  O2-  O297  1  0.42835966  0.57419941  0.97848748  1
  O2-  O298  1  0.43183066  0.90576233  0.47829645  1
  O2-  O299  1  0.43101228  0.90229199  0.98401820  1
  O2-  O300  1  0.75826049  0.23830710  0.48825721  1
  O2-  O301  1  0.76270640  0.23896028  0.97855866  1
  O2-  O302  1  0.76476448  0.57215239  0.48346935  1
  O2-  O303  1  0.76074378  0.57067054  0.97736942  1
  O2-  O304  1  0.76319207  0.90360414  0.47928872  1
  O2-  O305  1  0.76396931  0.90591829  0.97911573  1
  O2-  O306  1  0.07663649  0.07358440  0.26705230  1
  O2-  O307  1  0.06765666  0.07098726  0.76861572  1
  O2-  O308  1  0.07730802  0.41108544  0.26934468  1
  O2-  O309  1  0.07009894  0.40445914  0.76925394  1
  O2-  O310  1  0.07228293  0.73875895  0.27223417  1
  O2-  O311  1  0.06927935  0.73606028  0.76585139  1
  O2-  O312  1  0.40431751  0.07210220  0.27096278  1
  O2-  O313  1  0.40788914  0.07261253  0.76588965  1
  O2-  O314  1  0.40716791  0.40628946  0.27121770  1
  O2-  O315  1  0.40693784  0.40860727  0.76657932  1
  O2-  O316  1  0.40140389  0.73905278  0.27024858  1
  O2-  O317  1  0.40419552  0.73954618  0.77050886  1
  O2-  O318  1  0.73476237  0.07167943  0.26244095  1
  O2-  O319  1  0.73865269  0.07243585  0.77577709  1
  O2-  O320  1  0.74028896  0.40828051  0.26592042  1
  O2-  O321  1  0.73914550  0.40340084  0.77220180  1
  O2-  O322  1  0.73869620  0.73999435  0.26282188  1
  O2-  O323  1  0.73793848  0.73888910  0.77200497  1
  O2-  O324  1  0.23671411  0.09791592  0.22947463  1
  O2-  O325  1  0.23826269  0.09370065  0.73060328  1
  O2-  O326  1  0.23904306  0.42931341  0.23298065  1
  O2-  O327  1  0.23735812  0.42860372  0.72995198  1
  O2-  O328  1  0.23561497  0.76256338  0.22710131  1
  O2-  O329  1  0.23972893  0.75956119  0.72599890  1
  O2-  O330  1  0.56854518  0.09614170  0.22571562  1
  O2-  O331  1  0.57080789  0.09566289  0.73324549  1
  O2-  O332  1  0.57247268  0.42654793  0.22954960  1
  O2-  O333  1  0.57173638  0.42534629  0.72837115  1
  O2-  O334  1  0.57128445  0.76170140  0.23003119  1
  O2-  O335  1  0.57194019  0.76181854  0.72847734  1
  O2-  O336  1  0.90539900  0.09294102  0.22837448  1
  O2-  O337  1  0.90318303  0.09840317  0.72842276  1
  O2-  O338  1  0.90479982  0.42654474  0.23309137  1
  O2-  O339  1  0.90362057  0.43145567  0.72782924  1
  O2-  O340  1  0.90886879  0.75993622  0.22676702  1
  O2-  O341  1  0.90467964  0.76358366  0.73023654  1
  O2-  O342  1  0.26148748  0.26177376  0.02389080  1
  O2-  O343  1  0.26329050  0.26132581  0.51970419  1
  O2-  O344  1  0.26074799  0.59549297  0.01976294  1
  O2-  O345  1  0.25959601  0.59425135  0.52213207  1
  O2-  O346  1  0.26312635  0.92994101  0.02268355  1
  O2-  O347  1  0.26222594  0.92807431  0.52120674  1
  O2-  O348  1  0.59758921  0.26392797  0.01704626  1
  O2-  O349  1  0.59321699  0.25866651  0.52335881  1
  O2-  O350  1  0.59479977  0.59336044  0.02024088  1
  O2-  O351  1  0.59411383  0.59215067  0.52391117  1
  O2-  O352  1  0.59412139  0.93170574  0.02262864  1
  O2-  O353  1  0.59637336  0.92939746  0.52087092  1
  O2-  O354  1  0.93050796  0.26149820  0.02201698  1
  O2-  O355  1  0.92840931  0.26104197  0.51774349  1
  O2-  O356  1  0.92807377  0.59487966  0.02076006  1
  O2-  O357  1  0.92985145  0.59760227  0.51736566  1
  O2-  O358  1  0.93182630  0.92809152  0.02289544  1
  O2-  O359  1  0.92596458  0.92778248  0.52237895  1
