# generated using pymatgen
data_Sr7Ca15Pr50Mn72O216
_symmetry_space_group_name_H-M   'P 1'
_cell_length_a   16.55964513
_cell_length_b   16.60547924
_cell_length_c   15.59327343
_cell_angle_alpha   90.00582511
_cell_angle_beta   90.00055640
_cell_angle_gamma   89.99921515
_symmetry_Int_Tables_number   1
_chemical_formula_structural   Sr7Ca15Pr50Mn72O216
_chemical_formula_sum   'Sr7 Ca15 Pr50 Mn72 O216'
_cell_volume   4287.85145405
_cell_formula_units_Z   1
loop_
 _symmetry_equiv_pos_site_id
 _symmetry_equiv_pos_as_xyz
  1  'x, y, z'
loop_
 _atom_type_symbol
 _atom_type_oxidation_number
  Sr2+  2.0
  Ca2+  2.0
  Pr3+  3.0
  Mn3.30+  3.3
  O2-  -2.0
loop_
 _atom_site_type_symbol
 _atom_site_label
 _atom_site_symmetry_multiplicity
 _atom_site_fract_x
 _atom_site_fract_y
 _atom_site_fract_z
 _atom_site_occupancy
  Sr2+  Sr0  1  0.49841036  0.15505096  0.87479313  1
  Sr2+  Sr1  1  0.16723762  0.82419824  0.87522350  1
  Sr2+  Sr2  1  0.16609593  0.84248962  0.12698807  1
  Sr2+  Sr3  1  0.66648209  0.99001139  0.37442958  1
  Sr2+  Sr4  1  0.66605859  0.65666869  0.87544800  1
  Sr2+  Sr5  1  -0.00096901  0.67769880  0.12686023  1
  Sr2+  Sr6  1  0.16431279  0.49162922  0.87373168  1
  Ca2+  Ca7  1  0.49524652  0.48618323  0.87462137  1
  Ca2+  Ca8  1  0.16136164  0.81770781  0.37420533  1
  Ca2+  Ca9  1  -0.00104331  0.00964188  0.12603427  1
  Ca2+  Ca10  1  0.82881413  0.15232642  0.87342434  1
  Ca2+  Ca11  1  1.00624036  0.98374207  0.37472317  1
  Ca2+  Ca12  1  0.33782916  0.31559805  0.37599848  1
  Ca2+  Ca13  1  0.49736609  0.15211165  0.37590658  1
  Ca2+  Ca14  1  -0.00574129  0.01681405  0.62392825  1
  Ca2+  Ca15  1  0.50433251  0.84811159  0.62177934  1
  Ca2+  Ca16  1  0.49934635  0.81901510  0.37704206  1
  Ca2+  Ca17  1  0.17056693  0.51590851  0.62509966  1
  Ca2+  Ca18  1  1.00426156  0.65536968  0.37407772  1
  Ca2+  Ca19  1  0.83725357  0.17984905  0.62497322  1
  Ca2+  Ca20  1  0.66422202  0.68202662  0.12702944  1
  Ca2+  Ca21  1  0.66793145  0.65563248  0.37475245  1
  Pr3+  Pr22  1  0.49732060  0.82164124  0.87330628  1
  Pr3+  Pr23  1  0.33643300  0.32147031  0.87439159  1
  Pr3+  Pr24  1  0.50294516  0.17804450  0.12689884  1
  Pr3+  Pr25  1  0.83401969  0.51647222  0.12535728  1
  Pr3+  Pr26  1  0.16319066  0.15186857  0.37550753  1
  Pr3+  Pr27  1  0.82941394  0.49012116  0.87487943  1
  Pr3+  Pr28  1  1.00247520  0.32014394  0.87475362  1
  Pr3+  Pr29  1  1.00324768  0.65680409  0.87604890  1
  Pr3+  Pr30  1  0.16341843  0.48915962  0.37561747  1
  Pr3+  Pr31  1  0.66549818  0.01229702  0.62289066  1
  Pr3+  Pr32  1  0.16363960  0.15495570  0.87413948  1
  Pr3+  Pr33  1  0.83398422  0.51385904  0.62426189  1
  Pr3+  Pr34  1  1.00210879  0.98827825  0.87434270  1
  Pr3+  Pr35  1  0.67038273  0.98838776  0.87480319  1
  Pr3+  Pr36  1  0.33480872  0.65710617  0.37366764  1
  Pr3+  Pr37  1  0.16839577  0.51492255  0.12453217  1
  Pr3+  Pr38  1  0.50493188  0.51597769  0.12454897  1
  Pr3+  Pr39  1  -0.00015415  0.67893916  0.62367309  1
  Pr3+  Pr40  1  0.83791559  0.84861270  0.62418303  1
  Pr3+  Pr41  1  0.33054271  0.34449070  0.12590234  1
  Pr3+  Pr42  1  0.66887795  0.32084697  0.37544514  1
  Pr3+  Pr43  1  0.50336962  0.84355014  0.12785615  1
  Pr3+  Pr44  1  0.50363599  0.17836491  0.62330101  1
  Pr3+  Pr45  1  0.49534132  0.48697371  0.37539080  1
  Pr3+  Pr46  1  0.50300240  0.51253636  0.62516479  1
  Pr3+  Pr47  1  0.33035713  0.67864693  0.62361442  1
  Pr3+  Pr48  1  0.83159807  0.15131555  0.37634312  1
  Pr3+  Pr49  1  0.32892135  0.68113539  0.12614728  1
  Pr3+  Pr50  1  0.33316470  0.01221714  0.62396993  1
  Pr3+  Pr51  1  0.83177531  0.49161352  0.37460066  1
  Pr3+  Pr52  1  -0.00280913  0.34666989  0.12587690  1
  Pr3+  Pr53  1  0.83009462  0.82051551  0.87416973  1
  Pr3+  Pr54  1  0.66852675  0.31979777  0.87470690  1
  Pr3+  Pr55  1  1.00270471  0.31998367  0.37521895  1
  Pr3+  Pr56  1  0.16840075  0.84648000  0.62260012  1
  Pr3+  Pr57  1  0.83094293  0.82020574  0.37561495  1
  Pr3+  Pr58  1  0.33800953  0.65204730  0.87579461  1
  Pr3+  Pr59  1  0.16775589  0.17509573  0.12580886  1
  Pr3+  Pr60  1  0.83682807  0.17702111  0.12548449  1
  Pr3+  Pr61  1  0.66139340  0.68275759  0.62337949  1
  Pr3+  Pr62  1  0.32843353  0.34797645  0.62404417  1
  Pr3+  Pr63  1  0.33775439  0.98480038  0.37600148  1
  Pr3+  Pr64  1  0.66282079  0.34590718  0.12532157  1
  Pr3+  Pr65  1  0.83949444  0.84585021  0.12587535  1
  Pr3+  Pr66  1  0.16786537  0.17799483  0.62410901  1
  Pr3+  Pr67  1  0.32911640  0.01039078  0.12619350  1
  Pr3+  Pr68  1  0.66558785  0.01139526  0.12708199  1
  Pr3+  Pr69  1  0.66497571  0.34483542  0.62458660  1
  Pr3+  Pr70  1  -0.00203634  0.34656381  0.62433370  1
  Pr3+  Pr71  1  0.33609547  0.98683255  0.87423289  1
  Mn3.30+  Mn72  1  0.16499147  -0.00095379  0.00121360  1
  Mn3.30+  Mn73  1  0.16389803  -0.00155960  0.49947667  1
  Mn3.30+  Mn74  1  0.16597423  0.33353015  0.00020656  1
  Mn3.30+  Mn75  1  0.16827343  0.33392207  0.49869208  1
  Mn3.30+  Mn76  1  0.16671353  0.66865484  -0.00056352  1
  Mn3.30+  Mn77  1  0.16510293  0.66723895  0.49916198  1
  Mn3.30+  Mn78  1  0.50038902  -0.00066303  0.00101121  1
  Mn3.30+  Mn79  1  0.50058244  -0.00179905  0.49817442  1
  Mn3.30+  Mn80  1  0.49932410  0.33402216  -0.00031479  1
  Mn3.30+  Mn81  1  0.49784153  0.33165949  0.49853497  1
  Mn3.30+  Mn82  1  0.50167308  0.66638812  0.00034370  1
  Mn3.30+  Mn83  1  0.50060479  0.66869544  0.49825993  1
  Mn3.30+  Mn84  1  0.83519816  0.00106636  0.00003108  1
  Mn3.30+  Mn85  1  0.83691087  0.00034855  0.49938778  1
  Mn3.30+  Mn86  1  0.83274797  0.33258871  -0.00054655  1
  Mn3.30+  Mn87  1  0.83402365  0.33297969  0.50049014  1
  Mn3.30+  Mn88  1  0.83120512  0.66809198  0.00126702  1
  Mn3.30+  Mn89  1  0.83293352  0.66768729  0.49817614  1
  Mn3.30+  Mn90  1  0.00047495  0.16276107  0.25025815  1
  Mn3.30+  Mn91  1  -0.00375125  0.16610289  0.74972678  1
  Mn3.30+  Mn92  1  -0.00078249  0.50227077  0.25151951  1
  Mn3.30+  Mn93  1  0.00088508  0.50097419  0.74822355  1
  Mn3.30+  Mn94  1  0.00131417  0.83435615  0.25177842  1
  Mn3.30+  Mn95  1  0.00087947  0.83552731  0.74868328  1
  Mn3.30+  Mn96  1  0.33462882  0.16590171  0.25232586  1
  Mn3.30+  Mn97  1  0.33397674  0.16672602  0.74882907  1
  Mn3.30+  Mn98  1  0.33361606  0.49876404  0.25075469  1
  Mn3.30+  Mn99  1  0.33287120  0.49991883  0.74997054  1
  Mn3.30+  Mn100  1  0.33354639  0.83308539  0.25378657  1
  Mn3.30+  Mn101  1  0.33496181  0.83288347  0.74650894  1
  Mn3.30+  Mn102  1  0.66638854  0.16598590  0.25219393  1
  Mn3.30+  Mn103  1  0.66988823  0.16619038  0.74932810  1
  Mn3.30+  Mn104  1  0.66529008  0.50300579  0.25086380  1
  Mn3.30+  Mn105  1  0.66462255  0.50016116  0.75195845  1
  Mn3.30+  Mn106  1  0.66753692  0.83153182  0.25255829  1
  Mn3.30+  Mn107  1  0.66591987  0.83447149  0.74816813  1
  Mn3.30+  Mn108  1  0.16473661  -0.00284510  0.25159596  1
  Mn3.30+  Mn109  1  0.16444997  0.00035490  0.74733047  1
  Mn3.30+  Mn110  1  0.16809221  0.33249048  0.25133792  1
  Mn3.30+  Mn111  1  0.16593809  0.33533272  0.74943795  1
  Mn3.30+  Mn112  1  0.16524122  0.66900350  0.25178915  1
  Mn3.30+  Mn113  1  0.16702642  0.66686211  0.74995875  1
  Mn3.30+  Mn114  1  0.49944857  -0.00146679  0.25279283  1
  Mn3.30+  Mn115  1  0.50136729  -0.00073005  0.74828825  1
  Mn3.30+  Mn116  1  0.49782349  0.33194286  0.25215781  1
  Mn3.30+  Mn117  1  0.49931673  0.33380013  0.74968866  1
  Mn3.30+  Mn118  1  0.50288717  0.66807576  0.25218092  1
  Mn3.30+  Mn119  1  0.49946856  0.66651331  0.74911418  1
  Mn3.30+  Mn120  1  0.83677271  -0.00142521  0.25200305  1
  Mn3.30+  Mn121  1  0.83538468  0.00324775  0.74873881  1
  Mn3.30+  Mn122  1  0.83276420  0.33379505  0.25042769  1
  Mn3.30+  Mn123  1  0.83369136  0.33168958  0.74994086  1
  Mn3.30+  Mn124  1  0.83206272  0.66809001  0.25210896  1
  Mn3.30+  Mn125  1  0.83194466  0.66750738  0.74838906  1
  Mn3.30+  Mn126  1  -0.00182622  0.16484428  -0.00024910  1
  Mn3.30+  Mn127  1  -0.00141535  0.16413783  0.50058790  1
  Mn3.30+  Mn128  1  -0.00136263  0.50092901  -0.00016751  1
  Mn3.30+  Mn129  1  0.00154609  0.50213832  0.50061846  1
  Mn3.30+  Mn130  1  0.00029143  0.83469603  0.00154769  1
  Mn3.30+  Mn131  1  0.00176097  0.83500496  0.49781899  1
  Mn3.30+  Mn132  1  0.33379436  0.16562859  0.00026372  1
  Mn3.30+  Mn133  1  0.33467753  0.16679348  0.49821211  1
  Mn3.30+  Mn134  1  0.33526880  0.49908754  0.00009858  1
  Mn3.30+  Mn135  1  0.33134317  0.49978469  0.49920590  1
  Mn3.30+  Mn136  1  0.33342925  0.83309606  -0.00012333  1
  Mn3.30+  Mn137  1  0.33476000  0.83268138  0.49928590  1
  Mn3.30+  Mn138  1  0.66834961  0.16585739  -0.00099206  1
  Mn3.30+  Mn139  1  0.66834608  0.16607952  0.49980646  1
  Mn3.30+  Mn140  1  0.66447956  0.50149639  -0.00138501  1
  Mn3.30+  Mn141  1  0.66573485  0.50174463  0.49855818  1
  Mn3.30+  Mn142  1  0.66788999  0.83214381  0.00187951  1
  Mn3.30+  Mn143  1  0.66523739  0.83388576  0.49702926  1
  O2-  O144  1  0.02478433  0.15890429  0.12604968  1
  O2-  O145  1  0.02529293  0.16282007  0.62408329  1
  O2-  O146  1  0.02360923  0.49468423  0.12717706  1
  O2-  O147  1  0.02795202  0.49430520  0.62469161  1
  O2-  O148  1  0.01696915  0.83020327  0.12695576  1
  O2-  O149  1  0.02520419  0.82527620  0.62276305  1
  O2-  O150  1  0.35857821  0.15927415  0.12718472  1
  O2-  O151  1  0.35858603  0.16184952  0.62397462  1
  O2-  O152  1  0.36091876  0.49276857  0.12620736  1
  O2-  O153  1  0.35951384  0.49556455  0.62317179  1
  O2-  O154  1  0.35846355  0.83053605  0.12844142  1
  O2-  O155  1  0.36247538  0.82655407  0.62294949  1
  O2-  O156  1  0.69142020  0.16330530  0.12577616  1
  O2-  O157  1  0.69468490  0.16224018  0.62492736  1
  O2-  O158  1  0.69085000  0.49153286  0.12540412  1
  O2-  O159  1  0.68974952  0.49314393  0.62438638  1
  O2-  O160  1  0.69412564  0.82766222  0.12821937  1
  O2-  O161  1  0.69286472  0.83008212  0.62289383  1
  O2-  O162  1  0.14062855  0.32524287  0.12562590  1
  O2-  O163  1  0.14114912  0.32491944  0.62308567  1
  O2-  O164  1  0.15002433  0.66293874  0.12653170  1
  O2-  O165  1  0.14368844  0.66191514  0.62409608  1
  O2-  O166  1  0.14292712  1.00137087  0.12709847  1
  O2-  O167  1  0.13802826  0.99480809  0.62261766  1
  O2-  O168  1  0.47514413  0.32676989  0.12780962  1
  O2-  O169  1  0.47411091  0.32700113  0.62314505  1
  O2-  O170  1  0.47307207  0.66333699  0.12552186  1
  O2-  O171  1  0.47376244  0.65799200  0.62337766  1
  O2-  O172  1  0.47360193  0.99200350  0.12827527  1
  O2-  O173  1  0.47702267  0.99513400  0.62311837  1
  O2-  O174  1  0.80649315  0.32546553  0.12625687  1
  O2-  O175  1  0.80852854  0.32751290  0.62528415  1
  O2-  O176  1  0.80692988  0.66413561  0.12785544  1
  O2-  O177  1  0.80612804  0.66306989  0.62400531  1
  O2-  O178  1  0.80914448  0.99459910  0.12553184  1
  O2-  O179  1  0.80849803  0.99413995  0.62392779  1
  O2-  O180  1  0.30728973  0.17071744  0.37536394  1
  O2-  O181  1  0.30864586  0.17190362  0.87317397  1
  O2-  O182  1  0.30702334  0.50894733  0.37492638  1
  O2-  O183  1  0.31330323  0.50335553  0.87613954  1
  O2-  O184  1  0.30482247  0.83663705  0.37723706  1
  O2-  O185  1  0.31735658  0.83919252  0.87104964  1
  O2-  O186  1  0.64051188  0.17310959  0.37500628  1
  O2-  O187  1  0.64640819  0.16994679  0.87447643  1
  O2-  O188  1  0.63931318  0.50729762  0.37493522  1
  O2-  O189  1  0.63838892  0.50109380  0.87505991  1
  O2-  O190  1  0.64044066  0.83811851  0.37549948  1
  O2-  O191  1  0.64221224  0.84078557  0.87351594  1
  O2-  O192  1  0.97490112  0.17461602  0.37509112  1
  O2-  O193  1  0.97112439  0.17379347  0.87506885  1
  O2-  O194  1  0.97588232  0.50521382  0.37535270  1
  O2-  O195  1  0.97377473  0.50627682  0.87277930  1
  O2-  O196  1  0.97378648  0.84209675  0.37672190  1
  O2-  O197  1  0.97390460  0.84050106  0.87331779  1
  O2-  O198  1  0.19396501  0.00684328  0.37700777  1
  O2-  O199  1  0.19177376  0.00687712  0.87283582  1
  O2-  O200  1  0.19507264  0.34050616  0.37557637  1
  O2-  O201  1  0.19145193  0.33409967  0.87570604  1
  O2-  O202  1  0.19111460  0.66935967  0.37591844  1
  O2-  O203  1  0.19199464  0.66813606  0.87377819  1
  O2-  O204  1  0.51822169  0.00932665  0.37558849  1
  O2-  O205  1  0.52513459  -0.00030948  0.87344273  1
  O2-  O206  1  0.52594590  0.34050633  0.37500275  1
  O2-  O207  1  0.52349907  0.33980162  0.87362566  1
  O2-  O208  1  0.52622051  0.67160391  0.37606172  1
  O2-  O209  1  0.51825055  0.67532369  0.87452681  1
  O2-  O210  1  0.86330840  0.00511075  0.37680651  1
  O2-  O211  1  0.85821349  0.00685509  0.87446576  1
  O2-  O212  1  0.85898701  0.34258122  0.37452350  1
  O2-  O213  1  0.86003469  0.34419456  0.87388893  1
  O2-  O214  1  0.86151091  0.67053991  0.37687534  1
  O2-  O215  1  0.85773802  0.67063927  0.87144013  1
  O2-  O216  1  0.23790098  0.09416460  0.01938283  1
  O2-  O217  1  0.23754353  0.09383556  0.52092405  1
  O2-  O218  1  0.24019221  0.42609835  0.02422078  1
  O2-  O219  1  0.23652179  0.43021416  0.52290395  1
  O2-  O220  1  0.24515958  0.75899402  0.01787738  1
  O2-  O221  1  0.23959457  0.75981523  0.52237484  1
  O2-  O222  1  0.57208102  0.09131876  0.02333487  1
  O2-  O223  1  0.57513803  0.09370570  0.52201642  1
  O2-  O224  1  0.57259173  0.42714465  0.02327522  1
  O2-  O225  1  0.56973869  0.42671096  0.51887094  1
  O2-  O226  1  0.56996443  0.76262643  0.01788978  1
  O2-  O227  1  0.57133935  0.76095443  0.52403306  1
  O2-  O228  1  0.90446496  0.09506202  0.02085152  1
  O2-  O229  1  0.90259792  0.09920589  0.51960358  1
  O2-  O230  1  0.90318375  0.42723735  0.02204655  1
  O2-  O231  1  0.90610346  0.42841710  0.52116616  1
  O2-  O232  1  0.90341710  0.76471364  0.01347647  1
  O2-  O233  1  0.90371324  0.76273257  0.52010665  1
  O2-  O234  1  0.26164915  0.25813531  0.22810552  1
  O2-  O235  1  0.25986899  0.26104850  0.72889885  1
  O2-  O236  1  0.26227255  0.59299192  0.23008375  1
  O2-  O237  1  0.26459252  0.59493149  0.73264768  1
  O2-  O238  1  0.26442142  0.93047778  0.23460047  1
  O2-  O239  1  0.26237509  0.92634626  0.72712125  1
  O2-  O240  1  0.59409373  0.26274689  0.22976073  1
  O2-  O241  1  0.59637962  0.25932124  0.72913422  1
  O2-  O242  1  0.59438244  0.59465052  0.22623491  1
  O2-  O243  1  0.59274601  0.59528060  0.72651894  1
  O2-  O244  1  0.59496729  0.92498834  0.22759074  1
  O2-  O245  1  0.59794871  0.92966713  0.73027726  1
  O2-  O246  1  0.92949163  0.25984299  0.22987220  1
  O2-  O247  1  0.93101990  0.26482379  0.73111446  1
  O2-  O248  1  0.92200664  0.59194125  0.23176620  1
  O2-  O249  1  0.92601199  0.59390882  0.72654848  1
  O2-  O250  1  0.92921577  0.92895711  0.22840122  1
  O2-  O251  1  0.92911224  0.93090804  0.72853201  1
  O2-  O252  1  0.09494459  0.23792251  0.27102685  1
  O2-  O253  1  0.09276522  0.23821397  0.77010727  1
  O2-  O254  1  0.09723853  0.57143984  0.26702136  1
  O2-  O255  1  0.08840436  0.57670811  0.76883889  1
  O2-  O256  1  0.09726093  0.90407635  0.27259904  1
  O2-  O257  1  0.09294201  0.90767430  0.76746771  1
  O2-  O258  1  0.43070795  0.23322575  0.26918861  1
  O2-  O259  1  0.42653784  0.24144601  0.76741712  1
  O2-  O260  1  0.42972444  0.57223972  0.27032125  1
  O2-  O261  1  0.42929572  0.57003423  0.76977437  1
  O2-  O262  1  0.42916229  0.90270478  0.27437611  1
  O2-  O263  1  0.42859783  0.90679878  0.76798250  1
  O2-  O264  1  0.76167316  0.24068334  0.27279747  1
  O2-  O265  1  0.76213400  0.24044781  0.77372750  1
  O2-  O266  1  0.76222672  0.57121835  0.26921910  1
  O2-  O267  1  0.76100243  0.56845541  0.76618899  1
  O2-  O268  1  0.76494148  0.90388529  0.26814887  1
  O2-  O269  1  0.76384580  0.90812100  0.76963314  1
  O2-  O270  1  0.07134545  0.07217062  0.47669992  1
  O2-  O271  1  0.07247299  0.07566191  0.97568178  1
  O2-  O272  1  0.07295803  0.40385538  0.47766995  1
  O2-  O273  1  0.06875166  0.40375577  0.98409351  1
  O2-  O274  1  0.06812684  0.73565944  0.48199466  1
  O2-  O275  1  0.07033504  0.74207549  0.98057127  1
  O2-  O276  1  0.40324698  0.06936051  0.48465109  1
  O2-  O277  1  0.40279559  0.06907146  0.98273994  1
  O2-  O278  1  0.40106374  0.40435551  0.47839154  1
  O2-  O279  1  0.40285406  0.40326009  0.98279999  1
  O2-  O280  1  0.40304070  0.73598939  0.47992835  1
  O2-  O281  1  0.40628038  0.73791336  0.98225239  1
  O2-  O282  1  0.74207026  0.07384930  0.48017359  1
  O2-  O283  1  0.73805288  0.06964523  0.98406002  1
  O2-  O284  1  0.73784891  0.40713656  0.47954222  1
  O2-  O285  1  0.73623189  0.40553935  0.97907654  1
  O2-  O286  1  0.73657179  0.73802260  0.47900438  1
  O2-  O287  1  0.74122089  0.74269190  0.97964851  1
  O2-  O288  1  0.09518673  0.23795276  0.47893027  1
  O2-  O289  1  0.09279408  0.23769034  0.97983144  1
  O2-  O290  1  0.09534187  0.57195443  0.48006889  1
  O2-  O291  1  0.09050331  0.57520064  0.98458019  1
  O2-  O292  1  0.10035102  0.90007154  0.48044585  1
  O2-  O293  1  0.09102510  0.91076203  0.98005377  1
  O2-  O294  1  0.43189206  0.23536679  0.48013098  1
  O2-  O295  1  0.42516137  0.24036090  0.98368049  1
  O2-  O296  1  0.42769944  0.57143643  0.47859411  1
  O2-  O297  1  0.43076753  0.57058061  0.98089836  1
  O2-  O298  1  0.42718278  0.90382475  0.47680095  1
  O2-  O299  1  0.42974635  0.90463463  0.98135087  1
  O2-  O300  1  0.76019900  0.24132636  0.47616932  1
  O2-  O301  1  0.76370956  0.23978540  0.97820902  1
  O2-  O302  1  0.76377488  0.57169224  0.48186901  1
  O2-  O303  1  0.76099411  0.56892857  0.98308615  1
  O2-  O304  1  0.76569429  0.90418245  0.48326450  1
  O2-  O305  1  0.76274221  0.90716164  0.97911590  1
  O2-  O306  1  0.07316451  0.07195575  0.27454465  1
  O2-  O307  1  0.07024972  0.07641789  0.77233181  1
  O2-  O308  1  0.07178295  0.40539836  0.27059024  1
  O2-  O309  1  0.06833709  0.40319034  0.76778445  1
  O2-  O310  1  0.07088076  0.73912108  0.27183414  1
  O2-  O311  1  0.06969511  0.73894350  0.76675778  1
  O2-  O312  1  0.40092989  0.06916399  0.26724711  1
  O2-  O313  1  0.40384188  0.06942929  0.76548152  1
  O2-  O314  1  0.40329666  0.40225064  0.27303348  1
  O2-  O315  1  0.40101503  0.40429322  0.76588000  1
  O2-  O316  1  0.40622772  0.73739008  0.26850658  1
  O2-  O317  1  0.40435749  0.73651787  0.76881041  1
  O2-  O318  1  0.74370488  0.07354621  0.26752136  1
  O2-  O319  1  0.73686597  0.07009029  0.76818323  1
  O2-  O320  1  0.73581078  0.40770145  0.27124556  1
  O2-  O321  1  0.73884250  0.40391310  0.77005735  1
  O2-  O322  1  0.73906007  0.73863289  0.27704258  1
  O2-  O323  1  0.73951991  0.74252977  0.76672158  1
  O2-  O324  1  0.23788924  0.09463967  0.23134573  1
  O2-  O325  1  0.23751503  0.09386515  0.72798722  1
  O2-  O326  1  0.23748766  0.42759165  0.22711820  1
  O2-  O327  1  0.23865238  0.42856319  0.72651139  1
  O2-  O328  1  0.24361523  0.75753897  0.23359955  1
  O2-  O329  1  0.24125213  0.76077205  0.72587243  1
  O2-  O330  1  0.57337173  0.09154893  0.22795121  1
  O2-  O331  1  0.57344185  0.09283160  0.72665725  1
  O2-  O332  1  0.57017600  0.42879862  0.23083506  1
  O2-  O333  1  0.57261836  0.42536802  0.72658979  1
  O2-  O334  1  0.57275047  0.76021553  0.22920442  1
  O2-  O335  1  0.56950545  0.76198593  0.72788121  1
  O2-  O336  1  0.90390888  0.09665309  0.23268445  1
  O2-  O337  1  0.90318311  0.09798269  0.72847583  1
  O2-  O338  1  0.90368964  0.42668466  0.22857741  1
  O2-  O339  1  0.90470247  0.42865100  0.72707512  1
  O2-  O340  1  0.90121337  0.76473413  0.23596280  1
  O2-  O341  1  0.90723946  0.76373632  0.72940020  1
  O2-  O342  1  0.26011022  0.25920126  0.02120453  1
  O2-  O343  1  0.26051938  0.26076947  0.52124267  1
  O2-  O344  1  0.26422699  0.59156667  0.02005142  1
  O2-  O345  1  0.26270686  0.59560630  0.51791573  1
  O2-  O346  1  0.26347403  0.92935939  0.01464828  1
  O2-  O347  1  0.26332977  0.92745833  0.52292643  1
  O2-  O348  1  0.59423082  0.26085793  0.01921619  1
  O2-  O349  1  0.59671299  0.26080394  0.52145350  1
  O2-  O350  1  0.59471883  0.59573728  0.02455058  1
  O2-  O351  1  0.59319923  0.59376965  0.52241720  1
  O2-  O352  1  0.59659141  0.92635928  0.02244032  1
  O2-  O353  1  0.59567298  0.92808533  0.51966914  1
  O2-  O354  1  0.92977109  0.26047320  0.02295421  1
  O2-  O355  1  0.93124270  0.26347536  0.51650611  1
  O2-  O356  1  0.92256837  0.59333567  0.01711835  1
  O2-  O357  1  0.92548412  0.59425706  0.52417369  1
  O2-  O358  1  0.92820098  0.93020062  0.01929452  1
  O2-  O359  1  0.93024067  0.92878993  0.52448643  1
