# generated using pymatgen
data_Cs27Sn14Pb13I81
_symmetry_space_group_name_H-M   'P 1'
_cell_length_a   18.99099654
_cell_length_b   18.98582853
_cell_length_c   18.95892304
_cell_angle_alpha   89.99998065
_cell_angle_beta   89.99934714
_cell_angle_gamma   90.00056011
_symmetry_Int_Tables_number   1
_chemical_formula_structural   Cs27Sn14Pb13I81
_chemical_formula_sum   'Cs27 Sn14 Pb13 I81'
_cell_volume   6835.82557124
_cell_formula_units_Z   1
loop_
 _symmetry_equiv_pos_site_id
 _symmetry_equiv_pos_as_xyz
  1  'x, y, z'
loop_
 _atom_site_type_symbol
 _atom_site_label
 _atom_site_symmetry_multiplicity
 _atom_site_fract_x
 _atom_site_fract_y
 _atom_site_fract_z
 _atom_site_occupancy
  Cs  Cs0  1  -0.00148458  0.00003527  0.00570883  1
  Cs  Cs1  1  0.00087065  -0.00186505  0.32907378  1
  Cs  Cs2  1  -0.00070454  0.00138403  0.66642880  1
  Cs  Cs3  1  0.00314870  0.33206971  -0.00197955  1
  Cs  Cs4  1  -0.00035047  0.33607401  0.32869842  1
  Cs  Cs5  1  0.00021778  0.33285293  0.66743464  1
  Cs  Cs6  1  0.00121769  0.66797086  0.00466809  1
  Cs  Cs7  1  -0.00093874  0.66597961  0.32594680  1
  Cs  Cs8  1  0.00006575  0.66590362  0.66641343  1
  Cs  Cs9  1  0.33524958  -0.00815684  0.00507522  1
  Cs  Cs10  1  0.33064484  0.00077311  0.33348604  1
  Cs  Cs11  1  0.33329837  -0.00010427  0.66559803  1
  Cs  Cs12  1  0.33192665  0.33443887  0.00189671  1
  Cs  Cs13  1  0.33374086  0.33313698  0.33141014  1
  Cs  Cs14  1  0.33361089  0.33276315  0.66696757  1
  Cs  Cs15  1  0.33521001  0.67308723  0.00483145  1
  Cs  Cs16  1  0.33019229  0.66562822  0.33095881  1
  Cs  Cs17  1  0.33294332  0.66698153  0.66676741  1
  Cs  Cs18  1  0.66662972  -0.00270759  0.00541138  1
  Cs  Cs19  1  0.66699721  0.00074918  0.33302177  1
  Cs  Cs20  1  0.66706301  0.00134656  0.66622621  1
  Cs  Cs21  1  0.66472451  0.33208438  -0.00133832  1
  Cs  Cs22  1  0.66701015  0.33580632  0.33072895  1
  Cs  Cs23  1  0.66615665  0.33274219  0.66649404  1
  Cs  Cs24  1  0.66382511  0.67075649  0.00409575  1
  Cs  Cs25  1  0.66973505  0.66413099  0.33056959  1
  Cs  Cs26  1  0.66699913  0.66574195  0.66615727  1
  Sn  Sn27  1  0.49967474  0.16694018  0.83282486  1
  Sn  Sn28  1  0.50082989  0.83312618  0.50086501  1
  Sn  Sn29  1  0.16640750  0.16788103  0.50095739  1
  Sn  Sn30  1  0.83272099  0.83393812  0.50132390  1
  Sn  Sn31  1  0.16719047  0.49903347  0.50116462  1
  Sn  Sn32  1  0.50011399  0.16696138  0.50081038  1
  Sn  Sn33  1  0.16718005  0.16689647  0.83257277  1
  Sn  Sn34  1  0.83343453  0.16617456  0.50055357  1
  Sn  Sn35  1  0.83315035  0.16646697  0.83251388  1
  Sn  Sn36  1  0.83345267  0.83364317  0.83200572  1
  Sn  Sn37  1  0.83314159  0.50005014  0.83262391  1
  Sn  Sn38  1  0.16725140  0.49959892  0.83219465  1
  Sn  Sn39  1  0.49920173  0.49990562  0.50100871  1
  Sn  Sn40  1  0.49961680  0.49955550  0.83246156  1
  Pb  Pb41  1  0.83320288  0.16698167  0.16679601  1
  Pb  Pb42  1  0.16684733  0.16689611  0.16639300  1
  Pb  Pb43  1  0.50204934  0.83355661  0.83136433  1
  Pb  Pb44  1  0.50028011  0.83343029  0.17107785  1
  Pb  Pb45  1  0.16606208  0.83317235  0.50025263  1
  Pb  Pb46  1  0.49990995  0.49967375  0.16642384  1
  Pb  Pb47  1  0.83317664  0.49956127  0.16221644  1
  Pb  Pb48  1  0.83313596  0.83350455  0.16730629  1
  Pb  Pb49  1  0.49994272  0.16685332  0.16639523  1
  Pb  Pb50  1  0.16406125  0.83363415  0.83302762  1
  Pb  Pb51  1  0.83360509  0.49970583  0.50134709  1
  Pb  Pb52  1  0.16669594  0.83347392  0.16675720  1
  Pb  Pb53  1  0.16690284  0.49957935  0.16632286  1
  I  I54  1  0.16614881  0.00044068  0.16706689  1
  I  I55  1  0.16928385  0.00349885  0.50444476  1
  I  I56  1  0.16710964  0.00387471  0.82765376  1
  I  I57  1  0.16599139  0.33330744  0.16700474  1
  I  I58  1  0.16942345  0.33275213  0.50418632  1
  I  I59  1  0.16203534  0.33311886  0.82981975  1
  I  I60  1  0.16574225  0.66622171  0.16735937  1
  I  I61  1  0.17019797  0.66324042  0.50463770  1
  I  I62  1  0.16653515  0.66308754  0.82857886  1
  I  I63  1  0.50003413  0.00005188  0.16416211  1
  I  I64  1  0.50042994  0.00132947  0.50390140  1
  I  I65  1  0.49946935  0.00332928  0.82884709  1
  I  I66  1  0.50058954  0.33332711  0.17113418  1
  I  I67  1  0.49985986  0.33292584  0.50378426  1
  I  I68  1  0.50457814  0.33313690  0.82629968  1
  I  I69  1  0.50011035  0.66659308  0.16434872  1
  I  I70  1  0.50008390  0.66569536  0.50483199  1
  I  I71  1  0.50016050  0.66364695  0.82893180  1
  I  I72  1  0.83390894  0.00012025  0.16210729  1
  I  I73  1  0.83017551  0.00102031  0.50759655  1
  I  I74  1  0.83355626  0.00113069  0.82892292  1
  I  I75  1  0.83327318  0.33323040  0.16975089  1
  I  I76  1  0.83107758  0.33027554  0.50436276  1
  I  I77  1  0.83346109  0.33266629  0.82951217  1
  I  I78  1  0.83406518  0.66670064  0.16861036  1
  I  I79  1  0.82980687  0.66880467  0.50497956  1
  I  I80  1  0.83347123  0.66650823  0.82822284  1
  I  I81  1  0.16491006  0.17178982  -0.00436036  1
  I  I82  1  0.16714827  0.16981522  0.33758461  1
  I  I83  1  0.16608427  0.17088254  0.66648863  1
  I  I84  1  0.16528077  0.49485246  -0.00428536  1
  I  I85  1  0.17168723  0.49631356  0.33709822  1
  I  I86  1  0.16768832  0.49567771  0.66719243  1
  I  I87  1  0.16453023  0.83317615  -0.00065121  1
  I  I88  1  0.16487913  0.83332534  0.33421095  1
  I  I89  1  0.16811244  0.83233619  0.66650370  1
  I  I90  1  0.50101464  0.17250156  -0.00442783  1
  I  I91  1  0.50014381  0.16678557  0.33789000  1
  I  I92  1  0.50068313  0.16769813  0.66616842  1
  I  I93  1  0.50066417  0.49437984  -0.00437530  1
  I  I94  1  0.49545487  0.49941108  0.33756705  1
  I  I95  1  0.49936499  0.49872085  0.66663710  1
  I  I96  1  0.50132143  0.83310268  -0.00018915  1
  I  I97  1  0.50690858  0.83396707  0.33938400  1
  I  I98  1  0.50205908  0.83349659  0.66313923  1
  I  I99  1  0.83378761  0.16653215  -0.00459421  1
  I  I100  1  0.83304489  0.16110842  0.33760320  1
  I  I101  1  0.83321901  0.16551217  0.66716024  1
  I  I102  1  0.83383666  0.49939100  -0.00656742  1
  I  I103  1  0.83361214  0.50089197  0.33357206  1
  I  I104  1  0.83327660  0.50001894  0.66996010  1
  I  I105  1  0.83448399  0.83357323  -0.00339691  1
  I  I106  1  0.82965712  0.83854811  0.33738805  1
  I  I107  1  0.82972948  0.83514231  0.66632539  1
  I  I108  1  0.00000200  0.16604295  0.16666461  1
  I  I109  1  -0.00008094  0.16614108  0.50648616  1
  I  I110  1  -0.00024338  0.16978418  0.82756272  1
  I  I111  1  0.00010440  0.50134860  0.16947142  1
  I  I112  1  0.00257389  0.49714944  0.50486647  1
  I  I113  1  0.00032206  0.49706830  0.82894159  1
  I  I114  1  -0.00050633  0.83280856  0.16867581  1
  I  I115  1  -0.00344588  0.83693838  0.50426265  1
  I  I116  1  -0.00427647  0.83314192  0.82588479  1
  I  I117  1  0.33337037  0.16612691  0.16726754  1
  I  I118  1  0.33371585  0.16623530  0.50514540  1
  I  I119  1  0.33352729  0.17485610  0.82634274  1
  I  I120  1  0.33338568  0.50084691  0.16313014  1
  I  I121  1  0.33386177  0.49788743  0.50697348  1
  I  I122  1  0.33354335  0.49191183  0.82881171  1
  I  I123  1  0.33374549  0.83322038  0.16601275  1
  I  I124  1  0.33608853  0.83594683  0.49953941  1
  I  I125  1  0.33354507  0.83339155  0.83320296  1
  I  I126  1  0.66661660  0.16638104  0.16637176  1
  I  I127  1  0.66642519  0.16563627  0.50561930  1
  I  I128  1  0.66675327  0.17028656  0.82750516  1
  I  I129  1  0.66650490  0.50061308  0.16922950  1
  I  I130  1  0.66395114  0.49822479  0.50408048  1
  I  I131  1  0.66618325  0.49655401  0.82872899  1
  I  I132  1  0.66683135  0.83298980  0.16349652  1
  I  I133  1  0.66698367  0.83669321  0.50461039  1
  I  I134  1  0.67011712  0.83299046  0.83071859  1
