# generated using pymatgen
data_Cs27Sn13Pb14I81
_symmetry_space_group_name_H-M   'P 1'
_cell_length_a   18.97453102
_cell_length_b   18.98748913
_cell_length_c   18.97073605
_cell_angle_alpha   89.99851794
_cell_angle_beta   90.00178896
_cell_angle_gamma   89.99940064
_symmetry_Int_Tables_number   1
_chemical_formula_structural   Cs27Sn13Pb14I81
_chemical_formula_sum   'Cs27 Sn13 Pb14 I81'
_cell_volume   6834.75214208
_cell_formula_units_Z   1
loop_
 _symmetry_equiv_pos_site_id
 _symmetry_equiv_pos_as_xyz
  1  'x, y, z'
loop_
 _atom_site_type_symbol
 _atom_site_label
 _atom_site_symmetry_multiplicity
 _atom_site_fract_x
 _atom_site_fract_y
 _atom_site_fract_z
 _atom_site_occupancy
  Cs  Cs0  1  -0.00274783  -0.00064703  0.00408134  1
  Cs  Cs1  1  -0.00370443  -0.00335433  0.32752157  1
  Cs  Cs2  1  0.00306279  0.00184952  0.66700291  1
  Cs  Cs3  1  0.00340510  0.33276105  -0.00091549  1
  Cs  Cs4  1  -0.00192364  0.33445062  0.33311660  1
  Cs  Cs5  1  0.00084881  0.33377832  0.66746582  1
  Cs  Cs6  1  -0.00331463  0.66834625  0.00097227  1
  Cs  Cs7  1  0.00059571  0.66685823  0.33484611  1
  Cs  Cs8  1  -0.00096475  0.66573577  0.66514532  1
  Cs  Cs9  1  0.33426293  0.00388129  -0.00087571  1
  Cs  Cs10  1  0.33346073  -0.00675795  0.33501579  1
  Cs  Cs11  1  0.33120521  -0.00138261  0.66612400  1
  Cs  Cs12  1  0.33195395  0.33110145  0.00076702  1
  Cs  Cs13  1  0.33423281  0.33526742  0.33168632  1
  Cs  Cs14  1  0.33092233  0.33333706  0.66721717  1
  Cs  Cs15  1  0.33444553  0.66616255  0.00180613  1
  Cs  Cs16  1  0.33193424  0.67004367  0.33389606  1
  Cs  Cs17  1  0.33697067  0.66919639  0.66487601  1
  Cs  Cs18  1  0.66643560  -0.00296619  0.00106871  1
  Cs  Cs19  1  0.66966642  0.00415240  0.33394387  1
  Cs  Cs20  1  0.66509380  0.00093267  0.66416883  1
  Cs  Cs21  1  0.66482015  0.33502993  -0.00068523  1
  Cs  Cs22  1  0.66729377  0.33354391  0.33600846  1
  Cs  Cs23  1  0.66556366  0.33432119  0.66390672  1
  Cs  Cs24  1  0.66782464  0.66816710  -0.00473751  1
  Cs  Cs25  1  0.66766315  0.66361169  0.33316508  1
  Cs  Cs26  1  0.66368217  0.66674331  0.67271665  1
  Sn  Sn27  1  0.83319060  0.83249450  0.50048142  1
  Sn  Sn28  1  0.16668164  0.50051117  0.83254324  1
  Sn  Sn29  1  0.50023698  0.16695499  0.83360703  1
  Sn  Sn30  1  0.83269641  0.49963584  0.16689522  1
  Sn  Sn31  1  0.16648237  0.16723196  0.49986429  1
  Sn  Sn32  1  0.83330705  0.16678103  0.83323626  1
  Sn  Sn33  1  0.16608509  0.49912800  0.50087176  1
  Sn  Sn34  1  0.16647908  0.83320676  0.83364206  1
  Sn  Sn35  1  0.50017628  0.83332392  0.16666604  1
  Sn  Sn36  1  0.49982697  0.16664864  0.16637648  1
  Sn  Sn37  1  0.50095423  0.50005449  0.16665763  1
  Sn  Sn38  1  0.83387136  0.50092961  0.49979779  1
  Sn  Sn39  1  0.16642236  0.16656734  0.83280045  1
  Pb  Pb40  1  0.49804197  0.83574128  0.83506807  1
  Pb  Pb41  1  0.83107666  0.83086275  0.16845948  1
  Pb  Pb42  1  0.49710459  0.16672991  0.50003899  1
  Pb  Pb43  1  0.16853523  0.16653413  0.16712618  1
  Pb  Pb44  1  0.16843640  0.83335689  0.16400607  1
  Pb  Pb45  1  0.50297571  0.83328629  0.49800450  1
  Pb  Pb46  1  0.83522426  0.83571610  0.83120725  1
  Pb  Pb47  1  0.49734440  0.49796258  0.83549481  1
  Pb  Pb48  1  0.83093332  0.16909937  0.16439374  1
  Pb  Pb49  1  0.16640930  0.49997474  0.16710822  1
  Pb  Pb50  1  0.83572933  0.16731612  0.50172003  1
  Pb  Pb51  1  0.49973215  0.50005052  0.49810642  1
  Pb  Pb52  1  0.16499636  0.83308989  0.50171382  1
  Pb  Pb53  1  0.83518523  0.49834145  0.83296320  1
  I  I54  1  0.16864410  0.00008385  0.16734072  1
  I  I55  1  0.16688378  0.00247642  0.50546472  1
  I  I56  1  0.16806352  0.00175179  0.82916464  1
  I  I57  1  0.16979586  0.33340596  0.16225680  1
  I  I58  1  0.16194652  0.33407566  0.50833177  1
  I  I59  1  0.16694494  0.33255968  0.82962341  1
  I  I60  1  0.17045203  0.66641935  0.16565570  1
  I  I61  1  0.16452271  0.66351229  0.50368506  1
  I  I62  1  0.16622697  0.66578388  0.83012896  1
  I  I63  1  0.49738497  0.00075844  0.16130746  1
  I  I64  1  0.50008845  0.00016983  0.49726787  1
  I  I65  1  0.49752689  0.00395662  0.83918227  1
  I  I66  1  0.50267063  0.33327908  0.16236712  1
  I  I67  1  0.50394227  0.33331228  0.49711578  1
  I  I68  1  0.49725864  0.32982126  0.83925097  1
  I  I69  1  0.50282860  0.66597066  0.16833174  1
  I  I70  1  0.49443392  0.66655625  0.49734318  1
  I  I71  1  0.49787659  0.66660427  0.83547228  1
  I  I72  1  0.83228007  0.00006727  0.16808687  1
  I  I73  1  0.83423390  -0.00159027  0.50246358  1
  I  I74  1  0.83557064  0.00369546  0.83180785  1
  I  I75  1  0.82843459  0.33679930  0.17320217  1
  I  I76  1  0.83576891  0.33637884  0.49690628  1
  I  I77  1  0.83587535  0.33037176  0.83234968  1
  I  I78  1  0.82847280  0.66294592  0.16672290  1
  I  I79  1  0.84026739  0.66488017  0.49531172  1
  I  I80  1  0.83591153  0.66651981  0.83547643  1
  I  I81  1  0.16612139  0.16835546  -0.00361381  1
  I  I82  1  0.16801248  0.17314767  0.33652254  1
  I  I83  1  0.16887991  0.16774926  0.66836617  1
  I  I84  1  0.16752452  0.49735358  -0.00290659  1
  I  I85  1  0.16596166  0.49474933  0.33661833  1
  I  I86  1  0.16073121  0.49757023  0.66647672  1
  I  I87  1  0.16635420  0.83454481  -0.00430754  1
  I  I88  1  0.16745651  0.83349982  0.33356782  1
  I  I89  1  0.16683494  0.83519889  0.66976910  1
  I  I90  1  0.49680724  0.16746282  -0.00044451  1
  I  I91  1  0.49847687  0.16723459  0.33014746  1
  I  I92  1  0.50056054  0.16668631  0.66991356  1
  I  I93  1  0.50452582  0.50143673  0.00370884  1
  I  I94  1  0.49895545  0.49637958  0.32952735  1
  I  I95  1  0.50238160  0.49794796  0.66691947  1
  I  I96  1  0.49974852  0.83098119  0.00319551  1
  I  I97  1  0.49787436  0.83609574  0.32954866  1
  I  I98  1  0.49962203  0.83514339  0.66692385  1
  I  I99  1  0.83996024  0.16792415  -0.00363774  1
  I  I100  1  0.83351663  0.16501474  0.33337768  1
  I  I101  1  0.82967466  0.16867766  0.66986123  1
  I  I102  1  0.83055851  0.49748111  0.00226196  1
  I  I103  1  0.83525534  0.50253863  0.33397522  1
  I  I104  1  0.83725326  0.50170071  0.66374586  1
  I  I105  1  0.83397934  0.83289130  -0.00006372  1
  I  I106  1  0.83495739  0.83332450  0.33640961  1
  I  I107  1  0.83387426  0.82567641  0.66355294  1
  I  I108  1  -0.00024500  0.16855625  0.16495451  1
  I  I109  1  0.00358522  0.16867708  0.50759617  1
  I  I110  1  0.00155446  0.16744519  0.82786426  1
  I  I111  1  -0.00264385  0.49976045  0.16775050  1
  I  I112  1  0.00022505  0.49953137  0.49766795  1
  I  I113  1  0.00344440  0.49615218  0.83457851  1
  I  I114  1  -0.00049345  0.83195619  0.16654331  1
  I  I115  1  -0.00266156  0.83156154  0.50024725  1
  I  I116  1  0.00340649  0.83584040  0.83309970  1
  I  I117  1  0.33692879  0.17051040  0.16043000  1
  I  I118  1  0.32915021  0.17237556  0.50570644  1
  I  I119  1  0.33242832  0.16700957  0.83481548  1
  I  I120  1  0.33617066  0.49897153  0.16532861  1
  I  I121  1  0.32984263  0.49525147  0.50285426  1
  I  I122  1  0.32913004  0.49732305  0.82919036  1
  I  I123  1  0.33679314  0.83071764  0.16723350  1
  I  I124  1  0.33313864  0.83346866  0.49936086  1
  I  I125  1  0.32989168  0.83522713  0.83275385  1
  I  I126  1  0.66276525  0.16471958  0.16146082  1
  I  I127  1  0.66683128  0.16680431  0.50175637  1
  I  I128  1  0.66611247  0.16721133  0.83868970  1
  I  I129  1  0.66656681  0.49867886  0.17256353  1
  I  I130  1  0.66983671  0.50274096  0.49686513  1
  I  I131  1  0.66660935  0.49735112  0.83150554  1
  I  I132  1  0.66316092  0.83652135  0.16617288  1
  I  I133  1  0.67082418  0.82748137  0.50052763  1
  I  I134  1  0.66665751  0.83512910  0.83329369  1
