# generated using pymatgen
data_Cs27Sn14Pb13I81
_symmetry_space_group_name_H-M   'P 1'
_cell_length_a   18.96331492
_cell_length_b   18.95876201
_cell_length_c   18.95899513
_cell_angle_alpha   90.00019321
_cell_angle_beta   90.00155512
_cell_angle_gamma   89.99974775
_symmetry_Int_Tables_number   1
_chemical_formula_structural   Cs27Sn14Pb13I81
_chemical_formula_sum   'Cs27 Sn14 Pb13 I81'
_cell_volume   6816.15640348
_cell_formula_units_Z   1
loop_
 _symmetry_equiv_pos_site_id
 _symmetry_equiv_pos_as_xyz
  1  'x, y, z'
loop_
 _atom_site_type_symbol
 _atom_site_label
 _atom_site_symmetry_multiplicity
 _atom_site_fract_x
 _atom_site_fract_y
 _atom_site_fract_z
 _atom_site_occupancy
  Cs  Cs0  1  0.00391361  -0.00022650  -0.00071259  1
  Cs  Cs1  1  -0.00249447  -0.00315766  0.33398961  1
  Cs  Cs2  1  -0.00293167  0.01017673  0.66799728  1
  Cs  Cs3  1  -0.00164911  0.33133139  0.00137914  1
  Cs  Cs4  1  0.00308839  0.33618657  0.33050179  1
  Cs  Cs5  1  0.00004844  0.32640722  0.66875759  1
  Cs  Cs6  1  0.00099004  0.67037531  0.00288455  1
  Cs  Cs7  1  -0.00121228  0.66629687  0.33249610  1
  Cs  Cs8  1  0.00022079  0.66594893  0.66479691  1
  Cs  Cs9  1  0.33451949  -0.00348182  0.00117442  1
  Cs  Cs10  1  0.33572240  0.00231296  0.33275790  1
  Cs  Cs11  1  0.33179109  -0.00016880  0.66546714  1
  Cs  Cs12  1  0.33397860  0.33612473  0.00115509  1
  Cs  Cs13  1  0.33281681  0.33182407  0.33298856  1
  Cs  Cs14  1  0.32924839  0.33624981  0.66641011  1
  Cs  Cs15  1  0.33291064  0.66782068  -0.00255776  1
  Cs  Cs16  1  0.33311842  0.66545224  0.33545690  1
  Cs  Cs17  1  0.33496906  0.66494132  0.66597967  1
  Cs  Cs18  1  0.66378795  0.00156579  -0.00261430  1
  Cs  Cs19  1  0.66502022  0.00085409  0.33647947  1
  Cs  Cs20  1  0.66943769  -0.00067171  0.66821228  1
  Cs  Cs21  1  0.66758960  0.33287801  0.00063108  1
  Cs  Cs22  1  0.66365631  0.33363110  0.33074481  1
  Cs  Cs23  1  0.66873452  0.33356911  0.66843656  1
  Cs  Cs24  1  0.66666692  0.66563151  -0.00092287  1
  Cs  Cs25  1  0.66888617  0.66622439  0.33429660  1
  Cs  Cs26  1  0.66504476  0.66704409  0.66684470  1
  Sn  Sn27  1  0.16574679  0.16703441  0.16687247  1
  Sn  Sn28  1  0.16653145  0.50073252  0.49934993  1
  Sn  Sn29  1  0.49933454  0.83257662  0.49993968  1
  Sn  Sn30  1  0.49945931  0.16626154  0.83283780  1
  Sn  Sn31  1  0.50012022  0.50060043  0.49926152  1
  Sn  Sn32  1  0.50053654  0.83416029  0.83298415  1
  Sn  Sn33  1  0.83359317  0.50098719  0.83278460  1
  Sn  Sn34  1  0.16708950  0.83286146  0.50033704  1
  Sn  Sn35  1  0.83403686  0.16629273  0.16713601  1
  Sn  Sn36  1  0.83341486  0.50002942  0.50093511  1
  Sn  Sn37  1  0.50019906  0.83217879  0.16701379  1
  Sn  Sn38  1  0.83311149  0.83234188  0.83329973  1
  Sn  Sn39  1  0.49919622  0.50115063  0.16731037  1
  Sn  Sn40  1  0.16761948  0.49969399  0.16714153  1
  Pb  Pb41  1  0.83327569  0.83168042  0.50201564  1
  Pb  Pb42  1  0.16669215  0.83324695  0.83017365  1
  Pb  Pb43  1  0.50137013  0.50050578  0.83323653  1
  Pb  Pb44  1  0.49997789  0.16696103  0.50271964  1
  Pb  Pb45  1  0.16351553  0.50015479  0.83344354  1
  Pb  Pb46  1  0.83327624  0.49916470  0.16672740  1
  Pb  Pb47  1  0.83317568  0.16980635  0.49718423  1
  Pb  Pb48  1  0.83061600  0.83582190  0.16435723  1
  Pb  Pb49  1  0.16676540  0.16673896  0.49768918  1
  Pb  Pb50  1  0.49960165  0.16697891  0.16525854  1
  Pb  Pb51  1  0.16874623  0.83281765  0.16891442  1
  Pb  Pb52  1  0.83184179  0.16653989  0.83515713  1
  Pb  Pb53  1  0.16970360  0.16668201  0.83626871  1
  I  I54  1  0.16485439  0.00205415  0.16721283  1
  I  I55  1  0.17284927  -0.00298599  0.49914867  1
  I  I56  1  0.16278419  -0.00014416  0.83308587  1
  I  I57  1  0.16898928  0.33493177  0.17198985  1
  I  I58  1  0.16812044  0.33705520  0.49793776  1
  I  I59  1  0.16747665  0.33352578  0.82916149  1
  I  I60  1  0.16867321  0.66358615  0.16887723  1
  I  I61  1  0.16797345  0.66519576  0.49483313  1
  I  I62  1  0.17028506  0.66665114  0.83826402  1
  I  I63  1  0.50038158  -0.00260817  0.16800644  1
  I  I64  1  0.49569251  -0.00359058  0.49687626  1
  I  I65  1  0.50567479  -0.00214069  0.83470314  1
  I  I66  1  0.49960891  0.33631235  0.16931572  1
  I  I67  1  0.49920109  0.33720258  0.49600623  1
  I  I68  1  0.50262032  0.33192898  0.83528148  1
  I  I69  1  0.49560338  0.66597408  0.16506296  1
  I  I70  1  0.49919654  0.66641997  0.50133943  1
  I  I71  1  0.50269467  0.66957386  0.83347758  1
  I  I72  1  0.83809229  0.00339827  0.16428884  1
  I  I73  1  0.83324620  -0.00015595  0.50106520  1
  I  I74  1  0.82944900  -0.00263286  0.83482269  1
  I  I75  1  0.83188360  0.33139727  0.16476528  1
  I  I76  1  0.83295262  0.33839649  0.50701385  1
  I  I77  1  0.83105626  0.33584114  0.83061421  1
  I  I78  1  0.83488435  0.66681050  0.16690697  1
  I  I79  1  0.83260609  0.66314069  0.50018693  1
  I  I80  1  0.82623429  0.66665830  0.83066915  1
  I  I81  1  0.16291122  0.17281939  0.00426570  1
  I  I82  1  0.16540762  0.16953907  0.32968146  1
  I  I83  1  0.16711125  0.16734026  0.66660709  1
  I  I84  1  0.17065614  0.49582403  0.00340905  1
  I  I85  1  0.16572964  0.49956755  0.33368930  1
  I  I86  1  0.17094762  0.50443415  0.66309169  1
  I  I87  1  0.16783753  0.83332246  0.00021519  1
  I  I88  1  0.17165170  0.83152715  0.33688730  1
  I  I89  1  0.17311161  0.82550253  0.66226893  1
  I  I90  1  0.50058855  0.16274803  -0.00247333  1
  I  I91  1  0.50035886  0.16446960  0.33317924  1
  I  I92  1  0.50264762  0.16296738  0.67046095  1
  I  I93  1  0.49771938  0.50183064  0.00264632  1
  I  I94  1  0.50185883  0.50592121  0.33357998  1
  I  I95  1  0.49792217  0.50248963  0.66368673  1
  I  I96  1  0.50421715  0.83374459  -0.00013577  1
  I  I97  1  0.49567583  0.82925877  0.33384171  1
  I  I98  1  0.50015081  0.83257160  0.66624446  1
  I  I99  1  0.83558237  0.17016717  0.00278782  1
  I  I100  1  0.83499224  0.16784536  0.32940288  1
  I  I101  1  0.83203425  0.16597185  0.66682402  1
  I  I102  1  0.83138279  0.50121976  -0.00216909  1
  I  I103  1  0.83283455  0.49805458  0.33602741  1
  I  I104  1  0.83129966  0.50379213  0.66606838  1
  I  I105  1  0.82759690  0.82666128  -0.00367118  1
  I  I106  1  0.83218895  0.83323348  0.33344231  1
  I  I107  1  0.82684375  0.83154949  0.66995662  1
  I  I108  1  0.00078958  0.17395541  0.16607745  1
  I  I109  1  0.00000946  0.16527519  0.50270796  1
  I  I110  1  -0.00001228  0.16624783  0.83311013  1
  I  I111  1  0.00252560  0.49671815  0.16968280  1
  I  I112  1  0.00089935  0.50442805  0.49865977  1
  I  I113  1  -0.00453944  0.50481928  0.83020806  1
  I  I114  1  0.00004791  0.83181076  0.16630235  1
  I  I115  1  0.00239969  0.82808228  0.49990982  1
  I  I116  1  -0.00289119  0.82857386  0.83300100  1
  I  I117  1  0.33106332  0.16880287  0.16537240  1
  I  I118  1  0.33346563  0.17008502  0.49833059  1
  I  I119  1  0.33752158  0.16074235  0.83489122  1
  I  I120  1  0.33378373  0.49708733  0.17313396  1
  I  I121  1  0.33373759  0.50394866  0.49523528  1
  I  I122  1  0.33340214  0.49954407  0.83197421  1
  I  I123  1  0.33716305  0.83453999  0.16177506  1
  I  I124  1  0.33491800  0.82582346  0.50179747  1
  I  I125  1  0.33690982  0.83715738  0.83541243  1
  I  I126  1  0.66802818  0.16792517  0.16392691  1
  I  I127  1  0.66650760  0.16701843  0.49647350  1
  I  I128  1  0.66404043  0.16520233  0.83725875  1
  I  I129  1  0.66389647  0.50128358  0.16927941  1
  I  I130  1  0.66557104  0.50365053  0.49944966  1
  I  I131  1  0.66925789  0.50083397  0.83040078  1
  I  I132  1  0.66225184  0.82861848  0.17117309  1
  I  I133  1  0.66335879  0.82917270  0.49867588  1
  I  I134  1  0.66513056  0.83334197  0.83167130  1
