# generated using pymatgen
data_Cs27Sn14Pb13I81
_symmetry_space_group_name_H-M   'P 1'
_cell_length_a   18.97662850
_cell_length_b   18.98552979
_cell_length_c   18.96653817
_cell_angle_alpha   90.00165749
_cell_angle_beta   90.00278856
_cell_angle_gamma   90.00039702
_symmetry_Int_Tables_number   1
_chemical_formula_structural   Cs27Sn14Pb13I81
_chemical_formula_sum   'Cs27 Sn14 Pb13 I81'
_cell_volume   6833.28988261
_cell_formula_units_Z   1
loop_
 _symmetry_equiv_pos_site_id
 _symmetry_equiv_pos_as_xyz
  1  'x, y, z'
loop_
 _atom_site_type_symbol
 _atom_site_label
 _atom_site_symmetry_multiplicity
 _atom_site_fract_x
 _atom_site_fract_y
 _atom_site_fract_z
 _atom_site_occupancy
  Cs  Cs0  1  -0.00108223  0.00250450  -0.00195537  1
  Cs  Cs1  1  -0.00073536  -0.00077540  0.33422979  1
  Cs  Cs2  1  0.00130401  0.00013827  0.66538307  1
  Cs  Cs3  1  0.00156034  0.32870079  -0.00072379  1
  Cs  Cs4  1  0.00171939  0.33445892  0.33292599  1
  Cs  Cs5  1  0.00063443  0.33279738  0.66681084  1
  Cs  Cs6  1  -0.00031422  0.66964855  -0.00267143  1
  Cs  Cs7  1  -0.00182546  0.66674553  0.33448977  1
  Cs  Cs8  1  -0.00037833  0.66864260  0.66602275  1
  Cs  Cs9  1  0.33227434  0.00120986  -0.00015497  1
  Cs  Cs10  1  0.33470199  -0.00068592  0.33380577  1
  Cs  Cs11  1  0.33275991  0.00112255  0.66728390  1
  Cs  Cs12  1  0.33076056  0.33084962  0.00071630  1
  Cs  Cs13  1  0.33058958  0.33709278  0.33465329  1
  Cs  Cs14  1  0.33271915  0.33286143  0.66603704  1
  Cs  Cs15  1  0.33407688  0.66854581  -0.00042230  1
  Cs  Cs16  1  0.33188202  0.66422076  0.33316038  1
  Cs  Cs17  1  0.34066356  0.66383926  0.67000595  1
  Cs  Cs18  1  0.66876076  0.00268451  0.00085424  1
  Cs  Cs19  1  0.66673404  -0.00184728  0.33406259  1
  Cs  Cs20  1  0.66451614  -0.00070883  0.66361811  1
  Cs  Cs21  1  0.66799490  0.33325184  -0.00159541  1
  Cs  Cs22  1  0.66702878  0.33418407  0.33387457  1
  Cs  Cs23  1  0.66475861  0.33582560  0.66909224  1
  Cs  Cs24  1  0.66592881  0.66439967  0.00049367  1
  Cs  Cs25  1  0.67097245  0.66876890  0.33045734  1
  Cs  Cs26  1  0.66004175  0.66360640  0.67536134  1
  Sn  Sn27  1  0.50015674  0.83336517  0.16693310  1
  Sn  Sn28  1  0.16652190  0.83378929  0.49926670  1
  Sn  Sn29  1  0.83366761  0.83281093  0.16705156  1
  Sn  Sn30  1  0.83322221  0.50057343  0.49970593  1
  Sn  Sn31  1  0.16730426  0.16746990  0.83247963  1
  Sn  Sn32  1  0.16633468  0.49953889  0.83332872  1
  Sn  Sn33  1  0.49982567  0.16688383  0.16624886  1
  Sn  Sn34  1  0.83405338  0.16661584  0.49986529  1
  Sn  Sn35  1  0.16624222  0.83363503  0.16757376  1
  Sn  Sn36  1  0.50042608  0.49980541  0.16693615  1
  Sn  Sn37  1  0.49937821  0.16643605  0.83409294  1
  Sn  Sn38  1  0.83307346  0.50032169  0.16721948  1
  Sn  Sn39  1  0.16590179  0.16607257  0.50034635  1
  Sn  Sn40  1  0.83378376  0.83286803  0.49969582  1
  Pb  Pb41  1  0.83317698  0.83333244  0.83296309  1
  Pb  Pb42  1  0.83548165  0.49997316  0.83394948  1
  Pb  Pb43  1  0.16855419  0.16444870  0.16728921  1
  Pb  Pb44  1  0.49994871  0.83311143  0.49803472  1
  Pb  Pb45  1  0.83132452  0.16671643  0.16889983  1
  Pb  Pb46  1  0.16475048  0.50068833  0.50180386  1
  Pb  Pb47  1  0.49950588  0.16674426  0.49982743  1
  Pb  Pb48  1  0.16665010  0.83392189  0.83243418  1
  Pb  Pb49  1  0.50007414  0.83615215  0.83629269  1
  Pb  Pb50  1  0.16584469  0.50249968  0.16484616  1
  Pb  Pb51  1  0.49773504  0.49749090  0.83628459  1
  Pb  Pb52  1  0.50293947  0.50017337  0.49750979  1
  Pb  Pb53  1  0.83334900  0.16656582  0.83027006  1
  I  I54  1  0.16571787  -0.00361653  0.16560646  1
  I  I55  1  0.15910045  0.00021575  0.50156093  1
  I  I56  1  0.17106989  0.00312718  0.83223180  1
  I  I57  1  0.16768859  0.33323837  0.16821567  1
  I  I58  1  0.16305816  0.33072137  0.50264411  1
  I  I59  1  0.17026311  0.33163025  0.82848414  1
  I  I60  1  0.17093172  0.67046843  0.17076385  1
  I  I61  1  0.16216108  0.66981879  0.49629168  1
  I  I62  1  0.16453054  0.66474616  0.83508992  1
  I  I63  1  0.49978256  -0.00037169  0.16278374  1
  I  I64  1  0.50498746  0.00008871  0.49734889  1
  I  I65  1  0.49269271  0.00398974  0.83813222  1
  I  I66  1  0.50532315  0.33334676  0.16265104  1
  I  I67  1  0.50040608  0.33323322  0.49631649  1
  I  I68  1  0.49840695  0.32983649  0.83904828  1
  I  I69  1  0.50118123  0.66701970  0.16889351  1
  I  I70  1  0.49688102  0.66666202  0.49968191  1
  I  I71  1  0.49835489  0.66636609  0.83317297  1
  I  I72  1  0.83241202  -0.00291808  0.17034588  1
  I  I73  1  0.83728870  -0.00062610  0.49603700  1
  I  I74  1  0.83542811  0.00022093  0.83577186  1
  I  I75  1  0.82802409  0.33595917  0.17093702  1
  I  I76  1  0.83684800  0.33339456  0.49570991  1
  I  I77  1  0.83200444  0.33317916  0.83360469  1
  I  I78  1  0.82853715  0.66724500  0.17454948  1
  I  I79  1  0.83910513  0.66750785  0.49334447  1
  I  I80  1  0.83646166  0.66649681  0.82921190  1
  I  I81  1  0.16967426  0.16868346  -0.00220155  1
  I  I82  1  0.16392322  0.16416315  0.33632230  1
  I  I83  1  0.16852741  0.16445061  0.66622324  1
  I  I84  1  0.16577752  0.49400809  -0.00275621  1
  I  I85  1  0.16930526  0.49691988  0.33323281  1
  I  I86  1  0.16424688  0.49954752  0.66951502  1
  I  I87  1  0.16691762  0.83269962  0.00291413  1
  I  I88  1  0.16592203  0.83894630  0.33344461  1
  I  I89  1  0.15918065  0.83520480  0.66313322  1
  I  I90  1  0.49401862  0.16576164  0.00069380  1
  I  I91  1  0.50076793  0.16539034  0.33020185  1
  I  I92  1  0.49888442  0.16707241  0.66913403  1
  I  I93  1  0.50706266  0.50346717  0.00425555  1
  I  I94  1  0.49868462  0.49671499  0.32894935  1
  I  I95  1  0.50125508  0.49849382  0.66709464  1
  I  I96  1  0.49925066  0.83036526  0.00503382  1
  I  I97  1  0.50032675  0.83749995  0.32922296  1
  I  I98  1  0.50017912  0.83515004  0.66671903  1
  I  I99  1  0.83532289  0.16666474  0.00016630  1
  I  I100  1  0.83809079  0.16621099  0.33693992  1
  I  I101  1  0.83267711  0.16584540  0.66201757  1
  I  I102  1  0.82949473  0.50572835  0.00371433  1
  I  I103  1  0.83009910  0.50110366  0.33293890  1
  I  I104  1  0.83669363  0.50035117  0.66356716  1
  I  I105  1  0.83377250  0.82811693  0.00407517  1
  I  I106  1  0.83370825  0.83297903  0.33290572  1
  I  I107  1  0.84067175  0.83389803  0.66245682  1
  I  I108  1  0.00005800  0.16702834  0.16343742  1
  I  I109  1  0.00055450  0.16525847  0.50521459  1
  I  I110  1  0.00322134  0.16985781  0.83166506  1
  I  I111  1  -0.00324386  0.50480072  0.16985531  1
  I  I112  1  -0.00337349  0.49940312  0.49280369  1
  I  I113  1  0.00309897  0.49256256  0.83589203  1
  I  I114  1  -0.00068246  0.82818147  0.17063732  1
  I  I115  1  -0.00027259  0.83472537  0.49179873  1
  I  I116  1  0.00023838  0.83574002  0.84023556  1
  I  I117  1  0.33667239  0.16658399  0.16708485  1
  I  I118  1  0.33006759  0.16101997  0.50118896  1
  I  I119  1  0.33239383  0.17025401  0.83190262  1
  I  I120  1  0.33566791  0.50106786  0.16342310  1
  I  I121  1  0.33313178  0.49890732  0.49967862  1
  I  I122  1  0.33009865  0.49896929  0.83368266  1
  I  I123  1  0.33330632  0.83408091  0.16993164  1
  I  I124  1  0.32998383  0.84040286  0.49564073  1
  I  I125  1  0.33320130  0.83079254  0.83367466  1
  I  I126  1  0.66320648  0.16239293  0.16254541  1
  I  I127  1  0.66952714  0.16509852  0.49870144  1
  I  I128  1  0.66386796  0.16564980  0.83757962  1
  I  I129  1  0.66699184  0.50471571  0.17034607  1
  I  I130  1  0.67149422  0.49931171  0.49934463  1
  I  I131  1  0.66647857  0.49874059  0.83096866  1
  I  I132  1  0.66719333  0.83318918  0.17055324  1
  I  I133  1  0.67028895  0.83576703  0.49512934  1
  I  I134  1  0.66647335  0.83499365  0.83177461  1
