# generated using pymatgen
data_Cs27Sn13Pb14I81
_symmetry_space_group_name_H-M   'P 1'
_cell_length_a   18.99319500
_cell_length_b   19.00516108
_cell_length_c   18.98213483
_cell_angle_alpha   89.99987888
_cell_angle_beta   90.00121071
_cell_angle_gamma   89.99993665
_symmetry_Int_Tables_number   1
_chemical_formula_structural   Cs27Sn13Pb14I81
_chemical_formula_sum   'Cs27 Sn13 Pb14 I81'
_cell_volume   6851.95710758
_cell_formula_units_Z   1
loop_
 _symmetry_equiv_pos_site_id
 _symmetry_equiv_pos_as_xyz
  1  'x, y, z'
loop_
 _atom_site_type_symbol
 _atom_site_label
 _atom_site_symmetry_multiplicity
 _atom_site_fract_x
 _atom_site_fract_y
 _atom_site_fract_z
 _atom_site_occupancy
  Cs  Cs0  1  0.00281856  0.00378181  0.00577272  1
  Cs  Cs1  1  -0.00582536  -0.00744037  0.32503827  1
  Cs  Cs2  1  0.00224050  -0.00098407  0.66601061  1
  Cs  Cs3  1  0.00312967  0.32699074  0.00354682  1
  Cs  Cs4  1  -0.00659934  0.33960080  0.32811094  1
  Cs  Cs5  1  0.00242613  0.33556523  0.66625118  1
  Cs  Cs6  1  -0.00105275  0.66890118  0.00081229  1
  Cs  Cs7  1  0.00161081  0.66856706  0.33638659  1
  Cs  Cs8  1  0.00158768  0.66543310  0.66280033  1
  Cs  Cs9  1  0.33348515  0.00092928  -0.00032071  1
  Cs  Cs10  1  0.33359815  -0.00104099  0.33535667  1
  Cs  Cs11  1  0.33439227  0.00213025  0.66625035  1
  Cs  Cs12  1  0.33213722  0.33222119  0.00188864  1
  Cs  Cs13  1  0.33184277  0.33660028  0.33359183  1
  Cs  Cs14  1  0.33324740  0.33092344  0.66639845  1
  Cs  Cs15  1  0.33604541  0.66609740  -0.00012304  1
  Cs  Cs16  1  0.32741994  0.66437005  0.33319962  1
  Cs  Cs17  1  0.33375884  0.66711321  0.66726235  1
  Cs  Cs18  1  0.66453145  -0.00119727  -0.00161133  1
  Cs  Cs19  1  0.67092774  0.00375657  0.33596032  1
  Cs  Cs20  1  0.66479968  0.00103569  0.66614615  1
  Cs  Cs21  1  0.66523948  0.33552801  -0.00098715  1
  Cs  Cs22  1  0.67496786  0.33124701  0.33344747  1
  Cs  Cs23  1  0.66559964  0.33185925  0.66636534  1
  Cs  Cs24  1  0.66456098  0.66583449  -0.00215256  1
  Cs  Cs25  1  0.67123600  0.66438670  0.32955232  1
  Cs  Cs26  1  0.66524764  0.66716692  0.66964378  1
  Sn  Sn27  1  0.49991581  0.83419931  0.16721299  1
  Sn  Sn28  1  0.16678507  0.83263344  0.83318513  1
  Sn  Sn29  1  0.83365600  0.83357566  0.83309705  1
  Sn  Sn30  1  0.50066302  0.16671697  0.83409145  1
  Sn  Sn31  1  0.50007981  0.83212108  0.49957373  1
  Sn  Sn32  1  0.83365525  0.49990764  0.83324041  1
  Sn  Sn33  1  0.83262497  0.16653299  0.83279778  1
  Sn  Sn34  1  0.16585345  0.16646798  0.49925498  1
  Sn  Sn35  1  0.49970743  0.16611118  0.16623872  1
  Sn  Sn36  1  0.16685030  0.50082948  0.83331137  1
  Sn  Sn37  1  0.49990674  0.83351755  0.83315409  1
  Sn  Sn38  1  0.50020038  0.50077631  0.50079362  1
  Sn  Sn39  1  0.49968073  0.49981210  0.83235777  1
  Pb  Pb40  1  0.16669547  0.50016511  0.16415239  1
  Pb  Pb41  1  0.83673441  0.16652338  0.50239278  1
  Pb  Pb42  1  0.83089335  0.83333992  0.50227711  1
  Pb  Pb43  1  0.83057942  0.83311925  0.16410085  1
  Pb  Pb44  1  0.16858428  0.83497447  0.50196776  1
  Pb  Pb45  1  0.16914529  0.83322502  0.16429943  1
  Pb  Pb46  1  0.16669573  0.16656313  0.83248853  1
  Pb  Pb47  1  0.83086611  0.50012106  0.50239403  1
  Pb  Pb48  1  0.49926288  0.16699110  0.49965611  1
  Pb  Pb49  1  0.83330719  0.50038336  0.16376630  1
  Pb  Pb50  1  0.83054056  0.16660141  0.16393126  1
  Pb  Pb51  1  0.16861127  0.49833482  0.50204536  1
  Pb  Pb52  1  0.16914634  0.16661208  0.17037317  1
  Pb  Pb53  1  0.50002380  0.49998391  0.16697024  1
  I  I54  1  0.16697529  -0.00000094  0.16200669  1
  I  I55  1  0.17272124  0.00231559  0.50679302  1
  I  I56  1  0.16889588  -0.00250509  0.83105472  1
  I  I57  1  0.17121137  0.33307768  0.16221568  1
  I  I58  1  0.17287911  0.33093131  0.50636951  1
  I  I59  1  0.16813601  0.33567955  0.83078621  1
  I  I60  1  0.17109501  0.66685781  0.16782798  1
  I  I61  1  0.16707530  0.66670397  0.50026855  1
  I  I62  1  0.16926680  0.66688354  0.83279048  1
  I  I63  1  0.49928738  -0.00041410  0.16018228  1
  I  I64  1  0.49784077  -0.00239737  0.50473236  1
  I  I65  1  0.50179232  -0.00073589  0.83318442  1
  I  I66  1  0.49936151  0.33067206  0.16061351  1
  I  I67  1  0.49729102  0.33556465  0.50645160  1
  I  I68  1  0.50216038  0.33351658  0.83275849  1
  I  I69  1  0.50038873  0.66961133  0.16119315  1
  I  I70  1  0.49925435  0.66711842  0.50721362  1
  I  I71  1  0.50160633  0.66721872  0.83323043  1
  I  I72  1  0.83442488  -0.00007478  0.16332211  1
  I  I73  1  0.82903035  0.00000947  0.50540875  1
  I  I74  1  0.82804354  -0.00026582  0.83260839  1
  I  I75  1  0.82984352  0.33321988  0.16393230  1
  I  I76  1  0.82878477  0.33325185  0.50441661  1
  I  I77  1  0.82841429  0.33343676  0.83278094  1
  I  I78  1  0.82837382  0.66692950  0.16198548  1
  I  I79  1  0.83530402  0.66672485  0.50353893  1
  I  I80  1  0.82863481  0.66682181  0.83380420  1
  I  I81  1  0.16486354  0.16706332  -0.00000701  1
  I  I82  1  0.17411433  0.16680436  0.33759381  1
  I  I83  1  0.17170296  0.16650387  0.66571321  1
  I  I84  1  0.17170716  0.50211650  -0.00548221  1
  I  I85  1  0.17114354  0.49737206  0.33389760  1
  I  I86  1  0.16558349  0.50339937  0.67093732  1
  I  I87  1  0.16925255  0.83108659  -0.00484535  1
  I  I88  1  0.16972550  0.83548097  0.33341575  1
  I  I89  1  0.17015262  0.83034721  0.67088893  1
  I  I90  1  0.50287567  0.16353152  -0.00245222  1
  I  I91  1  0.49542539  0.16256993  0.33085218  1
  I  I92  1  0.50201454  0.16441452  0.66991151  1
  I  I93  1  0.50085300  0.50240264  -0.00384719  1
  I  I94  1  0.49788003  0.50286595  0.33646038  1
  I  I95  1  0.50017518  0.50267280  0.66948436  1
  I  I96  1  0.50033945  0.83380118  -0.00242825  1
  I  I97  1  0.49844263  0.83480584  0.33354493  1
  I  I98  1  0.50016028  0.83331181  0.66895038  1
  I  I99  1  0.83333947  0.16686944  -0.00487739  1
  I  I100  1  0.83142277  0.16732899  0.33309934  1
  I  I101  1  0.82357076  0.16647513  0.67137772  1
  I  I102  1  0.82725732  0.50075774  -0.00578351  1
  I  I103  1  0.83020166  0.49803567  0.33360945  1
  I  I104  1  0.83427826  0.50045807  0.67166015  1
  I  I105  1  0.83014853  0.83268578  -0.00514416  1
  I  I106  1  0.83177145  0.83433985  0.33316421  1
  I  I107  1  0.82940219  0.83290502  0.67165520  1
  I  I108  1  -0.00017299  0.16733805  0.16478204  1
  I  I109  1  0.00403708  0.16721525  0.50766218  1
  I  I110  1  -0.00257509  0.16694691  0.82947383  1
  I  I111  1  -0.00004382  0.49813007  0.16477440  1
  I  I112  1  0.00004671  0.49715274  0.50298600  1
  I  I113  1  -0.00009934  0.50266323  0.83440274  1
  I  I114  1  -0.00014434  0.83407592  0.16406809  1
  I  I115  1  0.00007428  0.83556485  0.50354868  1
  I  I116  1  -0.00011227  0.83054495  0.83221451  1
  I  I117  1  0.33740583  0.16295761  0.15629338  1
  I  I118  1  0.33234890  0.16626806  0.50565993  1
  I  I119  1  0.33651918  0.16623517  0.83481677  1
  I  I120  1  0.33396724  0.49945887  0.16244816  1
  I  I121  1  0.33693772  0.50290334  0.50779408  1
  I  I122  1  0.33472896  0.50271964  0.82978855  1
  I  I123  1  0.33777711  0.83713592  0.16198535  1
  I  I124  1  0.33737406  0.83100374  0.50467279  1
  I  I125  1  0.33517951  0.83127033  0.83336752  1
  I  I126  1  0.66240704  0.16246619  0.16564071  1
  I  I127  1  0.66660956  0.16680026  0.49854965  1
  I  I128  1  0.66497514  0.16653300  0.83617661  1
  I  I129  1  0.66611670  0.49988216  0.16372824  1
  I  I130  1  0.66230446  0.50215960  0.50749738  1
  I  I131  1  0.66544478  0.50197926  0.83027125  1
  I  I132  1  0.66209050  0.83694841  0.16297951  1
  I  I133  1  0.66189962  0.83205972  0.50418944  1
  I  I134  1  0.66496782  0.83151259  0.83368599  1
