# generated using pymatgen
data_Cs27Sn13Pb14I81
_symmetry_space_group_name_H-M   'P 1'
_cell_length_a   18.97434736
_cell_length_b   18.97553527
_cell_length_c   18.98074023
_cell_angle_alpha   89.99945687
_cell_angle_beta   89.99954153
_cell_angle_gamma   90.00083547
_symmetry_Int_Tables_number   1
_chemical_formula_structural   Cs27Sn13Pb14I81
_chemical_formula_sum   'Cs27 Sn13 Pb14 I81'
_cell_volume   6833.98510218
_cell_formula_units_Z   1
loop_
 _symmetry_equiv_pos_site_id
 _symmetry_equiv_pos_as_xyz
  1  'x, y, z'
loop_
 _atom_site_type_symbol
 _atom_site_label
 _atom_site_symmetry_multiplicity
 _atom_site_fract_x
 _atom_site_fract_y
 _atom_site_fract_z
 _atom_site_occupancy
  Cs  Cs0  1  0.00107001  -0.00069102  0.00239533  1
  Cs  Cs1  1  0.00095098  -0.00004090  0.33080259  1
  Cs  Cs2  1  -0.00074051  0.00028557  0.66622092  1
  Cs  Cs3  1  0.00070395  0.33248155  -0.00202214  1
  Cs  Cs4  1  0.00188471  0.33066561  0.33474880  1
  Cs  Cs5  1  -0.00538319  0.33108555  0.66676706  1
  Cs  Cs6  1  -0.00111238  0.66769310  0.00023852  1
  Cs  Cs7  1  0.00081096  0.66793227  0.33036626  1
  Cs  Cs8  1  0.00099823  0.66758619  0.66754856  1
  Cs  Cs9  1  0.33361998  0.00015059  -0.00137836  1
  Cs  Cs10  1  0.33326633  -0.00105125  0.33524813  1
  Cs  Cs11  1  0.33559086  -0.00179210  0.66684923  1
  Cs  Cs12  1  0.33357402  0.33197855  0.00113348  1
  Cs  Cs13  1  0.33490092  0.33428510  0.33121434  1
  Cs  Cs14  1  0.33187527  0.33300383  0.66941144  1
  Cs  Cs15  1  0.33253499  0.66806837  -0.00255050  1
  Cs  Cs16  1  0.33246649  0.66654746  0.33725722  1
  Cs  Cs17  1  0.33298543  0.66855906  0.66792012  1
  Cs  Cs18  1  0.66274843  -0.00272578  0.00059386  1
  Cs  Cs19  1  0.66686739  0.00249436  0.33511137  1
  Cs  Cs20  1  0.66751319  0.00494847  0.66337878  1
  Cs  Cs21  1  0.66382311  0.33437888  0.00035127  1
  Cs  Cs22  1  0.65912118  0.33851711  0.33963235  1
  Cs  Cs23  1  0.67757626  0.32672662  0.65888006  1
  Cs  Cs24  1  0.66820803  0.66803424  0.00019360  1
  Cs  Cs25  1  0.66712912  0.65822546  0.33216759  1
  Cs  Cs26  1  0.66560214  0.66567382  0.66734117  1
  Sn  Sn27  1  0.16590163  0.16661915  0.16741139  1
  Sn  Sn28  1  0.16680616  0.16726638  0.49947702  1
  Sn  Sn29  1  0.49956445  0.50030685  0.83293552  1
  Sn  Sn30  1  0.16769794  0.83327533  0.16587501  1
  Sn  Sn31  1  0.83338068  0.16721877  0.16647732  1
  Sn  Sn32  1  0.49998408  0.83262989  0.83400954  1
  Sn  Sn33  1  0.83331253  0.83341861  0.83238375  1
  Sn  Sn34  1  0.16648779  0.49911086  0.50046441  1
  Sn  Sn35  1  0.16656371  0.50016542  0.16638613  1
  Sn  Sn36  1  0.16660529  0.83277071  0.83402843  1
  Sn  Sn37  1  0.49906765  0.83311742  0.16657814  1
  Sn  Sn38  1  0.16726948  0.50078348  0.83325885  1
  Sn  Sn39  1  0.83345826  0.83276235  0.50022963  1
  Pb  Pb40  1  0.83333085  0.16390306  0.83616086  1
  Pb  Pb41  1  0.83566769  0.16467431  0.49737100  1
  Pb  Pb42  1  0.49741138  0.50009870  0.50346528  1
  Pb  Pb43  1  0.83606027  0.50230782  0.49991937  1
  Pb  Pb44  1  0.83305815  0.83444388  0.16661691  1
  Pb  Pb45  1  0.49751599  0.50255977  0.16446764  1
  Pb  Pb46  1  0.49946928  0.16459891  0.16667067  1
  Pb  Pb47  1  0.50018703  0.16714361  0.83322558  1
  Pb  Pb48  1  0.16670548  0.16676320  0.83349027  1
  Pb  Pb49  1  0.83537711  0.49676326  0.16659474  1
  Pb  Pb50  1  0.50286856  0.83313186  0.50001724  1
  Pb  Pb51  1  0.16543003  0.83333318  0.50002269  1
  Pb  Pb52  1  0.83330644  0.50183786  0.83350733  1
  Pb  Pb53  1  0.49685498  0.16676638  0.49995664  1
  I  I54  1  0.16589376  -0.00072559  0.16671416  1
  I  I55  1  0.16396529  0.00200639  0.49599180  1
  I  I56  1  0.16728623  -0.00352547  0.83628992  1
  I  I57  1  0.16136916  0.33341082  0.16685779  1
  I  I58  1  0.16678240  0.33374488  0.49655813  1
  I  I59  1  0.17198111  0.33670861  0.83586889  1
  I  I60  1  0.17045055  0.66727555  0.16629756  1
  I  I61  1  0.16486729  0.66420713  0.49802342  1
  I  I62  1  0.16677541  0.66750069  0.83563595  1
  I  I63  1  0.49411158  -0.00384335  0.15919820  1
  I  I64  1  0.49725340  -0.00042006  0.50209579  1
  I  I65  1  0.49788623  -0.00405473  0.83759805  1
  I  I66  1  0.49933534  0.33367454  0.16447065  1
  I  I67  1  0.50233385  0.33365380  0.50101335  1
  I  I68  1  0.49069800  0.33702549  0.83468714  1
  I  I69  1  0.49603027  0.67079076  0.16438731  1
  I  I70  1  0.49718739  0.66673092  0.49761348  1
  I  I71  1  0.49769120  0.66823579  0.83715767  1
  I  I72  1  0.84147539  0.00193216  0.16623997  1
  I  I73  1  0.83661887  -0.00303019  0.50461936  1
  I  I74  1  0.83510554  -0.00477932  0.82989387  1
  I  I75  1  0.84124625  0.32898915  0.16630416  1
  I  I76  1  0.83303043  0.33312551  0.49977682  1
  I  I77  1  0.83411159  0.33328390  0.83389906  1
  I  I78  1  0.83465169  0.66685660  0.16664027  1
  I  I79  1  0.83618390  0.67026804  0.50308141  1
  I  I80  1  0.83509966  0.67066671  0.83212358  1
  I  I81  1  0.16347922  0.16743349  0.00325222  1
  I  I82  1  0.16267863  0.16823019  0.33200304  1
  I  I83  1  0.16696083  0.16889695  0.66408089  1
  I  I84  1  0.16968153  0.50107806  -0.00017484  1
  I  I85  1  0.16454547  0.50052319  0.33268264  1
  I  I86  1  0.17070269  0.50159720  0.66753910  1
  I  I87  1  0.16492210  0.83137866  -0.00009616  1
  I  I88  1  0.16813237  0.83160917  0.33041998  1
  I  I89  1  0.16852343  0.83076226  0.66966024  1
  I  I90  1  0.49712307  0.16691342  0.00014059  1
  I  I91  1  0.50154158  0.16328751  0.33298562  1
  I  I92  1  0.49769094  0.16258888  0.66668856  1
  I  I93  1  0.49350610  0.50254056  -0.00344962  1
  I  I94  1  0.49916672  0.50149389  0.33332537  1
  I  I95  1  0.49207840  0.50990522  0.67134118  1
  I  I96  1  0.50062759  0.83090367  -0.00097027  1
  I  I97  1  0.49467667  0.83564976  0.33029297  1
  I  I98  1  0.49560040  0.82977180  0.67043589  1
  I  I99  1  0.84295388  0.16410791  0.00365287  1
  I  I100  1  0.83863459  0.16080444  0.33000536  1
  I  I101  1  0.83457434  0.16674556  0.66639285  1
  I  I102  1  0.83707339  0.50268322  -0.00000396  1
  I  I103  1  0.83553404  0.50541570  0.33326485  1
  I  I104  1  0.83638732  0.49869038  0.66679527  1
  I  I105  1  0.83426836  0.83476382  -0.00264355  1
  I  I106  1  0.83644495  0.83616776  0.33504020  1
  I  I107  1  0.83574535  0.83293335  0.66815898  1
  I  I108  1  0.00279256  0.16296132  0.16983338  1
  I  I109  1  0.00371381  0.16997741  0.49784263  1
  I  I110  1  0.00034945  0.16583202  0.83217208  1
  I  I111  1  0.00495704  0.50689231  0.16365873  1
  I  I112  1  0.00474279  0.49672827  0.50295920  1
  I  I113  1  0.00384700  0.50448829  0.83382984  1
  I  I114  1  0.00325634  0.83212249  0.16375157  1
  I  I115  1  -0.00207894  0.83332118  0.50423019  1
  I  I116  1  0.00137415  0.82989285  0.83411796  1
  I  I117  1  0.32932399  0.16803110  0.16997853  1
  I  I118  1  0.32833159  0.16776519  0.49308246  1
  I  I119  1  0.33298198  0.16144950  0.83450395  1
  I  I120  1  0.32868528  0.49504792  0.16861009  1
  I  I121  1  0.32872585  0.49863904  0.49680538  1
  I  I122  1  0.33141038  0.50878228  0.83315255  1
  I  I123  1  0.33135828  0.83538782  0.15929307  1
  I  I124  1  0.33310534  0.83407664  0.50175935  1
  I  I125  1  0.33240368  0.82957083  0.83833475  1
  I  I126  1  0.66908938  0.16071809  0.16419975  1
  I  I127  1  0.66718883  0.16483697  0.49893214  1
  I  I128  1  0.66682673  0.16619689  0.83577096  1
  I  I129  1  0.66615615  0.50061815  0.16486217  1
  I  I130  1  0.66661631  0.50096830  0.50060886  1
  I  I131  1  0.66355085  0.50659457  0.83564272  1
  I  I132  1  0.66424853  0.83680001  0.16241244  1
  I  I133  1  0.67054558  0.83538343  0.50372082  1
  I  I134  1  0.66589259  0.82954063  0.83525402  1
