# generated using pymatgen
data_Cs27Sn13Pb14I81
_symmetry_space_group_name_H-M   'P 1'
_cell_length_a   18.98755511
_cell_length_b   18.98831763
_cell_length_c   18.99942339
_cell_angle_alpha   89.99898366
_cell_angle_beta   89.99952030
_cell_angle_gamma   89.99795149
_symmetry_Int_Tables_number   1
_chemical_formula_structural   Cs27Sn13Pb14I81
_chemical_formula_sum   'Cs27 Sn13 Pb14 I81'
_cell_volume   6850.08492406
_cell_formula_units_Z   1
loop_
 _symmetry_equiv_pos_site_id
 _symmetry_equiv_pos_as_xyz
  1  'x, y, z'
loop_
 _atom_site_type_symbol
 _atom_site_label
 _atom_site_symmetry_multiplicity
 _atom_site_fract_x
 _atom_site_fract_y
 _atom_site_fract_z
 _atom_site_occupancy
  Cs  Cs0  1  0.00134564  -0.00339731  -0.00101186  1
  Cs  Cs1  1  0.00073818  -0.00062115  0.33467862  1
  Cs  Cs2  1  -0.00001728  0.00103657  0.66782976  1
  Cs  Cs3  1  -0.00279435  0.33392196  -0.00084042  1
  Cs  Cs4  1  -0.00363745  0.33626296  0.33507340  1
  Cs  Cs5  1  -0.00291645  0.33325485  0.66577479  1
  Cs  Cs6  1  0.00154739  0.67107281  0.00096766  1
  Cs  Cs7  1  0.00090757  0.66487541  0.33499376  1
  Cs  Cs8  1  0.00124624  0.66579672  0.66422687  1
  Cs  Cs9  1  0.33301734  -0.00073316  -0.00081757  1
  Cs  Cs10  1  0.33301964  0.00178843  0.33356304  1
  Cs  Cs11  1  0.33431295  0.00229594  0.66763635  1
  Cs  Cs12  1  0.33446196  0.33230150  0.00030799  1
  Cs  Cs13  1  0.33431647  0.33211379  0.33382972  1
  Cs  Cs14  1  0.33128064  0.32977307  0.66646520  1
  Cs  Cs15  1  0.33239022  0.66919027  -0.00087833  1
  Cs  Cs16  1  0.33370547  0.66509236  0.33818582  1
  Cs  Cs17  1  0.33494447  0.66425916  0.66537966  1
  Cs  Cs18  1  0.66497327  0.00007452  0.00065718  1
  Cs  Cs19  1  0.66797909  0.00028874  0.33599220  1
  Cs  Cs20  1  0.66580695  -0.00188232  0.66402803  1
  Cs  Cs21  1  0.67332536  0.34262012  0.00855064  1
  Cs  Cs22  1  0.67464133  0.33773556  0.31844921  1
  Cs  Cs23  1  0.67608461  0.33865793  0.67054209  1
  Cs  Cs24  1  0.66655716  0.66416843  -0.00074132  1
  Cs  Cs25  1  0.66568831  0.66370739  0.34187712  1
  Cs  Cs26  1  0.66334157  0.66333308  0.65990870  1
  Sn  Sn27  1  0.16717280  0.49972225  0.83438727  1
  Sn  Sn28  1  0.50113073  0.83347752  0.16623406  1
  Sn  Sn29  1  0.49991938  0.16651845  0.83276771  1
  Sn  Sn30  1  0.16733639  0.49893636  0.16555949  1
  Sn  Sn31  1  0.83161269  0.83368061  0.16602738  1
  Sn  Sn32  1  0.49996104  0.16711872  0.50087040  1
  Sn  Sn33  1  0.16667811  0.16763829  0.16643767  1
  Sn  Sn34  1  0.16725977  0.16560256  0.50019847  1
  Sn  Sn35  1  0.16718151  0.16687748  0.83348491  1
  Sn  Sn36  1  0.16712385  0.83444013  0.50143672  1
  Sn  Sn37  1  0.83270563  0.83364409  0.83384202  1
  Sn  Sn38  1  0.50017091  0.83404244  0.83395594  1
  Sn  Sn39  1  0.16702722  0.83327241  0.83216487  1
  Pb  Pb40  1  0.83624416  0.50349086  0.83337072  1
  Pb  Pb41  1  0.83591479  0.83356162  0.50037842  1
  Pb  Pb42  1  0.83638355  0.50368112  0.16634667  1
  Pb  Pb43  1  0.83321901  0.49986643  0.50004082  1
  Pb  Pb44  1  0.16694135  0.49902946  0.50038538  1
  Pb  Pb45  1  0.49970283  0.49496768  0.50015078  1
  Pb  Pb46  1  0.49717232  0.50323334  0.16649921  1
  Pb  Pb47  1  0.49829718  0.16490540  0.16604708  1
  Pb  Pb48  1  0.83632035  0.16374511  0.16633633  1
  Pb  Pb49  1  0.83256899  0.16657581  0.50010506  1
  Pb  Pb50  1  0.16709067  0.83341547  0.16685954  1
  Pb  Pb51  1  0.49762384  0.83494061  0.50047073  1
  Pb  Pb52  1  0.49787769  0.49929045  0.83322391  1
  Pb  Pb53  1  0.83239048  0.16447223  0.83345853  1
  I  I54  1  0.16648227  0.00222062  0.16485130  1
  I  I55  1  0.16895599  0.00062375  0.50206608  1
  I  I56  1  0.16648714  -0.00029689  0.83341577  1
  I  I57  1  0.16808999  0.33237524  0.16355330  1
  I  I58  1  0.17064547  0.32951071  0.50213061  1
  I  I59  1  0.17218286  0.33200108  0.83370126  1
  I  I60  1  0.16581415  0.66509728  0.16287431  1
  I  I61  1  0.16529248  0.66926217  0.50211775  1
  I  I62  1  0.16581424  0.66814252  0.83461987  1
  I  I63  1  0.49925190  -0.00316709  0.16420687  1
  I  I64  1  0.49547178  0.00275642  0.50139414  1
  I  I65  1  0.49364045  -0.00089121  0.83386644  1
  I  I66  1  0.50010216  0.33320631  0.16731867  1
  I  I67  1  0.48700722  0.32731795  0.50736468  1
  I  I68  1  0.49164932  0.32943065  0.82754025  1
  I  I69  1  0.50024945  0.67150869  0.15893052  1
  I  I70  1  0.49838648  0.66674221  0.49945704  1
  I  I71  1  0.49803366  0.67015261  0.83838674  1
  I  I72  1  0.83353059  -0.00402284  0.16221548  1
  I  I73  1  0.83453907  -0.00026450  0.49893341  1
  I  I74  1  0.84072164  -0.00376796  0.83711590  1
  I  I75  1  0.83185367  0.33362907  0.16797070  1
  I  I76  1  0.83763444  0.33304224  0.50102949  1
  I  I77  1  0.83382829  0.33351448  0.83192484  1
  I  I78  1  0.83372839  0.67123584  0.16064202  1
  I  I79  1  0.83708162  0.66735416  0.49952658  1
  I  I80  1  0.83437523  0.67171250  0.83856835  1
  I  I81  1  0.17015007  0.16530739  -0.00125163  1
  I  I82  1  0.17067888  0.16433535  0.33380239  1
  I  I83  1  0.17030603  0.16504669  0.66754677  1
  I  I84  1  0.16689774  0.49854502  -0.00089208  1
  I  I85  1  0.16596740  0.49904831  0.33070889  1
  I  I86  1  0.16648907  0.49996489  0.66984758  1
  I  I87  1  0.16635101  0.83544751  -0.00293323  1
  I  I88  1  0.16647290  0.83640010  0.33529233  1
  I  I89  1  0.16572267  0.83538277  0.66861748  1
  I  I90  1  0.49230022  0.16168453  -0.00328408  1
  I  I91  1  0.49194740  0.16298248  0.33550639  1
  I  I92  1  0.48811646  0.15812847  0.66789773  1
  I  I93  1  0.49952799  0.49568680  -0.00012191  1
  I  I94  1  0.49582768  0.50270842  0.33326584  1
  I  I95  1  0.49653526  0.50776183  0.66683127  1
  I  I96  1  0.49666228  0.83910384  -0.00174991  1
  I  I97  1  0.50147791  0.83498434  0.33116081  1
  I  I98  1  0.50140825  0.83514104  0.67011012  1
  I  I99  1  0.83529954  0.16651147  -0.00011282  1
  I  I100  1  0.83440619  0.16342492  0.33313554  1
  I  I101  1  0.83930967  0.16384122  0.66693344  1
  I  I102  1  0.83301937  0.49784983  -0.00010013  1
  I  I103  1  0.83710798  0.50217365  0.33270624  1
  I  I104  1  0.83679578  0.50176942  0.66718245  1
  I  I105  1  0.83763710  0.83432099  -0.00101525  1
  I  I106  1  0.83168418  0.83378440  0.33052050  1
  I  I107  1  0.83296504  0.83420830  0.67004211  1
  I  I108  1  0.00513718  0.16756826  0.16644966  1
  I  I109  1  0.00398353  0.16282844  0.50094231  1
  I  I110  1  0.00376503  0.16564044  0.83250548  1
  I  I111  1  0.00424092  0.49804263  0.16276057  1
  I  I112  1  0.00095187  0.49985337  0.49943850  1
  I  I113  1  0.00489928  0.49855353  0.83684452  1
  I  I114  1  -0.00126920  0.83344306  0.16310198  1
  I  I115  1  0.00436388  0.83912384  0.50294048  1
  I  I116  1  0.00168660  0.83334822  0.83471757  1
  I  I117  1  0.32965070  0.16612169  0.16635642  1
  I  I118  1  0.33133147  0.16152805  0.50117929  1
  I  I119  1  0.33149579  0.16131688  0.83292020  1
  I  I120  1  0.32915719  0.49886391  0.16238676  1
  I  I121  1  0.33276912  0.50511490  0.49889223  1
  I  I122  1  0.32923756  0.50575595  0.83710333  1
  I  I123  1  0.33516527  0.83377298  0.16254277  1
  I  I124  1  0.32953697  0.83503468  0.50248822  1
  I  I125  1  0.33249826  0.83416297  0.83492397  1
  I  I126  1  0.66654308  0.16707890  0.16782277  1
  I  I127  1  0.66274482  0.16359396  0.50710485  1
  I  I128  1  0.66274650  0.15927564  0.82652491  1
  I  I129  1  0.66686156  0.49739485  0.16744122  1
  I  I130  1  0.66626552  0.50216881  0.50113186  1
  I  I131  1  0.66674095  0.49909006  0.83243587  1
  I  I132  1  0.66620089  0.83529284  0.15692342  1
  I  I133  1  0.66636658  0.83476090  0.50159176  1
  I  I134  1  0.66572115  0.84016563  0.83949147  1
