# generated using pymatgen
data_Cs27Sn14Pb13I81
_symmetry_space_group_name_H-M   'P 1'
_cell_length_a   18.97231564
_cell_length_b   18.97458281
_cell_length_c   18.97986504
_cell_angle_alpha   89.99971780
_cell_angle_beta   90.00025999
_cell_angle_gamma   89.99869191
_symmetry_Int_Tables_number   1
_chemical_formula_structural   Cs27Sn14Pb13I81
_chemical_formula_sum   'Cs27 Sn14 Pb13 I81'
_cell_volume   6832.59528854
_cell_formula_units_Z   1
loop_
 _symmetry_equiv_pos_site_id
 _symmetry_equiv_pos_as_xyz
  1  'x, y, z'
loop_
 _atom_site_type_symbol
 _atom_site_label
 _atom_site_symmetry_multiplicity
 _atom_site_fract_x
 _atom_site_fract_y
 _atom_site_fract_z
 _atom_site_occupancy
  Cs  Cs0  1  -0.00097563  0.00183163  0.00107863  1
  Cs  Cs1  1  -0.00072536  0.00324218  0.33062573  1
  Cs  Cs2  1  0.00227440  0.00421810  0.66673885  1
  Cs  Cs3  1  0.00050449  0.33236649  0.00176227  1
  Cs  Cs4  1  -0.00037942  0.33311882  0.33354758  1
  Cs  Cs5  1  -0.00042824  0.33110288  0.66554991  1
  Cs  Cs6  1  0.00212940  0.66679073  -0.00021974  1
  Cs  Cs7  1  0.00033202  0.66448119  0.33338903  1
  Cs  Cs8  1  -0.00159128  0.66642647  0.66717702  1
  Cs  Cs9  1  0.33845995  0.00283183  0.00126251  1
  Cs  Cs10  1  0.33427951  0.00001762  0.33440296  1
  Cs  Cs11  1  0.33214500  0.00078309  0.66511784  1
  Cs  Cs12  1  0.33599842  0.33367111  0.00048882  1
  Cs  Cs13  1  0.33318183  0.33526630  0.33457371  1
  Cs  Cs14  1  0.33299097  0.33257811  0.66464409  1
  Cs  Cs15  1  0.33041771  0.66378558  0.00041700  1
  Cs  Cs16  1  0.33235426  0.66366268  0.33304327  1
  Cs  Cs17  1  0.33157642  0.66747067  0.66608785  1
  Cs  Cs18  1  0.65932883  -0.00662005  0.00785589  1
  Cs  Cs19  1  0.66680208  -0.00917119  0.32684333  1
  Cs  Cs20  1  0.66533205  -0.00412908  0.66689852  1
  Cs  Cs21  1  0.66079941  0.33315003  -0.00221405  1
  Cs  Cs22  1  0.66621515  0.33441278  0.33521505  1
  Cs  Cs23  1  0.66853410  0.33369903  0.66799715  1
  Cs  Cs24  1  0.66795550  0.67159967  -0.00786816  1
  Cs  Cs25  1  0.66769491  0.67142426  0.33472374  1
  Cs  Cs26  1  0.67619699  0.67406524  0.67404253  1
  Sn  Sn27  1  0.16659516  0.49945591  0.83290274  1
  Sn  Sn28  1  0.83279954  0.16667238  0.50037651  1
  Sn  Sn29  1  0.50044169  0.16723536  0.49984923  1
  Sn  Sn30  1  0.50050685  0.50011937  0.16747610  1
  Sn  Sn31  1  0.16667699  0.50041963  0.16684834  1
  Sn  Sn32  1  0.16669279  0.16679697  0.50057728  1
  Sn  Sn33  1  0.16655668  0.83388193  0.83350148  1
  Sn  Sn34  1  0.83272378  0.49971259  0.16659909  1
  Sn  Sn35  1  0.16666815  0.83284467  0.16677697  1
  Sn  Sn36  1  0.16607799  0.16681439  0.83277117  1
  Sn  Sn37  1  0.83362801  0.16651849  0.83329020  1
  Sn  Sn38  1  0.50001456  0.49991582  0.50000860  1
  Sn  Sn39  1  0.16704169  0.50004538  0.50024201  1
  Sn  Sn40  1  0.16652698  0.83320586  0.49974535  1
  Pb  Pb41  1  0.50003571  0.16666795  0.83080526  1
  Pb  Pb42  1  0.83614128  0.83690184  0.83350346  1
  Pb  Pb43  1  0.49701366  0.82971652  0.16684031  1
  Pb  Pb44  1  0.83637565  0.83652445  0.49996942  1
  Pb  Pb45  1  0.83293075  0.49849419  0.49876572  1
  Pb  Pb46  1  0.49799374  0.83231320  0.50015203  1
  Pb  Pb47  1  0.49809290  0.50008297  0.83206802  1
  Pb  Pb48  1  0.83310289  0.16857289  0.16625757  1
  Pb  Pb49  1  0.83588808  0.49761373  0.83561685  1
  Pb  Pb50  1  0.50010003  0.16899831  0.16977070  1
  Pb  Pb51  1  0.16683222  0.16695598  0.16657713  1
  Pb  Pb52  1  0.49712204  0.83335298  0.83315645  1
  Pb  Pb53  1  0.83606414  0.83037436  0.16660816  1
  I  I54  1  0.16555756  -0.00277057  0.16746735  1
  I  I55  1  0.16652045  0.00098039  0.50268959  1
  I  I56  1  0.16270962  0.00055337  0.82954257  1
  I  I57  1  0.16680959  0.33706661  0.16699880  1
  I  I58  1  0.16688471  0.33327884  0.50167453  1
  I  I59  1  0.16340402  0.33326249  0.83089007  1
  I  I60  1  0.16683076  0.66508463  0.16660649  1
  I  I61  1  0.17166174  0.66561237  0.50137690  1
  I  I62  1  0.16885673  0.66621052  0.83174440  1
  I  I63  1  0.49901196  -0.00044279  0.16678656  1
  I  I64  1  0.49727126  0.00282399  0.50272546  1
  I  I65  1  0.49673117  0.00029484  0.83145946  1
  I  I66  1  0.49406459  0.33732820  0.16738788  1
  I  I67  1  0.49305223  0.33367962  0.49595217  1
  I  I68  1  0.49605572  0.33342887  0.83678594  1
  I  I69  1  0.49995083  0.66181428  0.17537885  1
  I  I70  1  0.49167779  0.66275387  0.49378042  1
  I  I71  1  0.49799047  0.66638029  0.83169314  1
  I  I72  1  0.83583865  -0.00014200  0.16725264  1
  I  I73  1  0.83407379  0.00492563  0.50360806  1
  I  I74  1  0.84175324  0.00464741  0.82784683  1
  I  I75  1  0.83987585  0.33669087  0.16780127  1
  I  I76  1  0.83966041  0.33031148  0.50216915  1
  I  I77  1  0.84131736  0.33001845  0.82885988  1
  I  I78  1  0.83317181  0.66223711  0.16850664  1
  I  I79  1  0.83375503  0.66672782  0.49774621  1
  I  I80  1  0.83400983  0.66670378  0.83475352  1
  I  I81  1  0.16088796  0.16699698  -0.00323297  1
  I  I82  1  0.16580654  0.16690346  0.33691813  1
  I  I83  1  0.16638029  0.16701157  0.66555052  1
  I  I84  1  0.16627562  0.50275705  0.00048552  1
  I  I85  1  0.16692401  0.50198876  0.33352509  1
  I  I86  1  0.17133789  0.50140380  0.66584459  1
  I  I87  1  0.16597141  0.82864561  -0.00019299  1
  I  I88  1  0.16688917  0.83013669  0.33380295  1
  I  I89  1  0.16734118  0.83131290  0.66642539  1
  I  I90  1  0.49919178  0.16781846  -0.00004675  1
  I  I91  1  0.49641268  0.16895122  0.33803653  1
  I  I92  1  0.49718903  0.17435321  0.66261347  1
  I  I93  1  0.49704919  0.50039224  0.00266186  1
  I  I94  1  0.49243798  0.49464550  0.33388378  1
  I  I95  1  0.49203271  0.49410666  0.66267465  1
  I  I96  1  0.49730335  0.83294700  0.00028601  1
  I  I97  1  0.49668683  0.83716665  0.33347964  1
  I  I98  1  0.49645637  0.83128833  0.66631453  1
  I  I99  1  0.84369993  0.16949415  -0.00316517  1
  I  I100  1  0.83708356  0.16898386  0.33654266  1
  I  I101  1  0.83724037  0.16894172  0.66579754  1
  I  I102  1  0.83521451  0.49723915  0.00358515  1
  I  I103  1  0.84042164  0.49648951  0.33081524  1
  I  I104  1  0.83366072  0.50050507  0.66685880  1
  I  I105  1  0.83695687  0.83543057  0.00001385  1
  I  I106  1  0.83688753  0.83663338  0.33332444  1
  I  I107  1  0.83533054  0.82837903  0.66671719  1
  I  I108  1  0.00036428  0.16978322  0.17172735  1
  I  I109  1  0.00171666  0.16685756  0.50385960  1
  I  I110  1  0.00222769  0.16722128  0.82497328  1
  I  I111  1  0.00212464  0.50329418  0.16689778  1
  I  I112  1  0.00363515  0.49939020  0.49894887  1
  I  I113  1  0.00485897  0.50225107  0.83225673  1
  I  I114  1  0.00462505  0.82741693  0.16702913  1
  I  I115  1  0.00531355  0.83070131  0.50029664  1
  I  I116  1  0.00492885  0.82987423  0.83284903  1
  I  I117  1  0.33305600  0.16801483  0.16538743  1
  I  I118  1  0.33162766  0.16749926  0.50328343  1
  I  I119  1  0.32954298  0.16639446  0.82985028  1
  I  I120  1  0.33175793  0.50384330  0.16759259  1
  I  I121  1  0.33117926  0.49524221  0.49548395  1
  I  I122  1  0.32864124  0.49751678  0.83780503  1
  I  I123  1  0.32863408  0.82805690  0.16694639  1
  I  I124  1  0.32872719  0.83775331  0.50034350  1
  I  I125  1  0.32772428  0.83577717  0.83267431  1
  I  I126  1  0.66659419  0.17005551  0.16578287  1
  I  I127  1  0.66652992  0.17548951  0.50409215  1
  I  I128  1  0.66965709  0.17004127  0.82826384  1
  I  I129  1  0.66593126  0.49477363  0.17375486  1
  I  I130  1  0.66359366  0.49241468  0.49259642  1
  I  I131  1  0.66693186  0.49739306  0.83448986  1
  I  I132  1  0.66651029  0.83331763  0.16682878  1
  I  I133  1  0.66680546  0.83318859  0.49940770  1
  I  I134  1  0.66714651  0.83377073  0.83333628  1
