# generated using pymatgen
data_Cs27Sn13Pb14I81
_symmetry_space_group_name_H-M   'P 1'
_cell_length_a   18.97936550
_cell_length_b   18.97459442
_cell_length_c   18.97455832
_cell_angle_alpha   89.99840799
_cell_angle_beta   89.99750462
_cell_angle_gamma   90.00132767
_symmetry_Int_Tables_number   1
_chemical_formula_structural   Cs27Sn13Pb14I81
_chemical_formula_sum   'Cs27 Sn13 Pb14 I81'
_cell_volume   6833.22727436
_cell_formula_units_Z   1
loop_
 _symmetry_equiv_pos_site_id
 _symmetry_equiv_pos_as_xyz
  1  'x, y, z'
loop_
 _atom_site_type_symbol
 _atom_site_label
 _atom_site_symmetry_multiplicity
 _atom_site_fract_x
 _atom_site_fract_y
 _atom_site_fract_z
 _atom_site_occupancy
  Cs  Cs0  1  0.00600535  0.00566584  -0.00063547  1
  Cs  Cs1  1  0.00302998  -0.00364128  0.33454430  1
  Cs  Cs2  1  -0.00252178  0.00048148  0.66606256  1
  Cs  Cs3  1  0.00184193  0.33047964  -0.00185702  1
  Cs  Cs4  1  0.00041535  0.33566116  0.32943070  1
  Cs  Cs5  1  0.00153399  0.33352361  0.67137151  1
  Cs  Cs6  1  -0.00303398  0.66517408  0.00069805  1
  Cs  Cs7  1  -0.00632126  0.66788018  0.33063889  1
  Cs  Cs8  1  0.00159572  0.66627844  0.66680987  1
  Cs  Cs9  1  0.33492093  -0.00077122  0.00369624  1
  Cs  Cs10  1  0.32953690  -0.00063283  0.33306121  1
  Cs  Cs11  1  0.33365176  -0.00453384  0.66393437  1
  Cs  Cs12  1  0.33309886  0.33293202  0.00063776  1
  Cs  Cs13  1  0.33597482  0.33462319  0.33524179  1
  Cs  Cs14  1  0.33278120  0.33776726  0.66374625  1
  Cs  Cs15  1  0.33698006  0.66883936  -0.00046722  1
  Cs  Cs16  1  0.33258016  0.66569634  0.33585160  1
  Cs  Cs17  1  0.33097735  0.66694198  0.66509877  1
  Cs  Cs18  1  0.66087598  0.00182431  -0.00188064  1
  Cs  Cs19  1  0.67041500  0.00093416  0.33736182  1
  Cs  Cs20  1  0.67011748  0.00210504  0.66460161  1
  Cs  Cs21  1  0.66666335  0.33437343  0.00107478  1
  Cs  Cs22  1  0.66368096  0.33250484  0.33161300  1
  Cs  Cs23  1  0.66585652  0.33078782  0.66523954  1
  Cs  Cs24  1  0.66573362  0.66613686  -0.00050918  1
  Cs  Cs25  1  0.67419188  0.66690863  0.33053180  1
  Cs  Cs26  1  0.66749723  0.66694677  0.66977747  1
  Sn  Sn27  1  0.49965670  0.16757395  0.83334391  1
  Sn  Sn28  1  0.16721708  0.83394600  0.50082784  1
  Sn  Sn29  1  0.16668702  0.16675526  0.50042273  1
  Sn  Sn30  1  0.50007699  0.83302506  0.49970093  1
  Sn  Sn31  1  0.50081431  0.16730198  0.16619990  1
  Sn  Sn32  1  0.83309796  0.49945471  0.50120646  1
  Sn  Sn33  1  0.16578115  0.83320511  0.83310124  1
  Sn  Sn34  1  0.83258944  0.50038996  0.83239640  1
  Sn  Sn35  1  0.16782826  0.50037134  0.16631567  1
  Sn  Sn36  1  0.83428940  0.83317182  0.83366476  1
  Sn  Sn37  1  0.50052254  0.49910321  0.83364931  1
  Sn  Sn38  1  0.83269274  0.16627843  0.16662447  1
  Sn  Sn39  1  0.49904943  0.49957878  0.16595672  1
  Pb  Pb40  1  0.83395267  0.83172736  0.50196112  1
  Pb  Pb41  1  0.16441679  0.50073640  0.49812770  1
  Pb  Pb42  1  0.83326302  0.83674917  0.16309358  1
  Pb  Pb43  1  0.16984150  0.16433061  0.83116073  1
  Pb  Pb44  1  0.16755046  0.16850614  0.16850375  1
  Pb  Pb45  1  0.83259633  0.49854595  0.16555016  1
  Pb  Pb46  1  0.50024137  0.83336121  0.16956379  1
  Pb  Pb47  1  0.83145875  0.16696537  0.83496483  1
  Pb  Pb48  1  0.83579625  0.16912257  0.49796289  1
  Pb  Pb49  1  0.16668926  0.83080394  0.16671446  1
  Pb  Pb50  1  0.50200615  0.50208342  0.49992664  1
  Pb  Pb51  1  0.49842473  0.16486377  0.49972221  1
  Pb  Pb52  1  0.50005944  0.83314601  0.83176189  1
  Pb  Pb53  1  0.16696551  0.50191566  0.83526199  1
  I  I54  1  0.16658456  0.00005128  0.16587189  1
  I  I55  1  0.17057852  -0.00127273  0.50203047  1
  I  I56  1  0.16164082  -0.00365439  0.83222521  1
  I  I57  1  0.16727746  0.33628205  0.16854602  1
  I  I58  1  0.16559935  0.33161172  0.49682556  1
  I  I59  1  0.16400733  0.33336745  0.83237014  1
  I  I60  1  0.17198075  0.66291197  0.16850852  1
  I  I61  1  0.16986796  0.66970106  0.50318455  1
  I  I62  1  0.16768877  0.66977108  0.82672067  1
  I  I63  1  0.50335458  0.00335316  0.16185055  1
  I  I64  1  0.49839187  -0.00299107  0.50140411  1
  I  I65  1  0.49954137  0.00221835  0.83704626  1
  I  I66  1  0.50016785  0.33366857  0.16336547  1
  I  I67  1  0.49868064  0.33348265  0.50015772  1
  I  I68  1  0.50572587  0.33444483  0.83692085  1
  I  I69  1  0.49637917  0.66330577  0.16244558  1
  I  I70  1  0.49290059  0.66962826  0.50161176  1
  I  I71  1  0.50164529  0.66383502  0.83691192  1
  I  I72  1  0.82701060  0.00435018  0.16725127  1
  I  I73  1  0.83170501  -0.00002620  0.50025055  1
  I  I74  1  0.83526588  -0.00237640  0.83461090  1
  I  I75  1  0.83211453  0.33096172  0.16563423  1
  I  I76  1  0.83399173  0.33685518  0.50622101  1
  I  I77  1  0.83079893  0.33634523  0.83135007  1
  I  I78  1  0.83353302  0.66649271  0.16904737  1
  I  I79  1  0.83461170  0.66377084  0.49965230  1
  I  I80  1  0.83107188  0.66562637  0.82995612  1
  I  I81  1  0.16498841  0.16574624  -0.00009086  1
  I  I82  1  0.16770387  0.16033776  0.33617506  1
  I  I83  1  0.16745722  0.16605200  0.66348040  1
  I  I84  1  0.16597958  0.50035355  0.00297559  1
  I  I85  1  0.17082691  0.50016278  0.33035290  1
  I  I86  1  0.16832635  0.49888912  0.66674888  1
  I  I87  1  0.16282977  0.83139286  -0.00296279  1
  I  I88  1  0.17108346  0.83643955  0.33650719  1
  I  I89  1  0.16752367  0.83575769  0.66616620  1
  I  I90  1  0.50362271  0.16961819  0.00039707  1
  I  I91  1  0.50229724  0.17088619  0.33033505  1
  I  I92  1  0.49869395  0.16993213  0.66920122  1
  I  I93  1  0.50205476  0.49730148  -0.00036778  1
  I  I94  1  0.49790913  0.49630329  0.33048153  1
  I  I95  1  0.50270201  0.49697216  0.66964878  1
  I  I96  1  0.49939496  0.83359561  -0.00015055  1
  I  I97  1  0.49287945  0.83330727  0.33725890  1
  I  I98  1  0.49782076  0.83326746  0.66416437  1
  I  I99  1  0.83240023  0.16914380  0.00284267  1
  I  I100  1  0.82608359  0.17009972  0.33021958  1
  I  I101  1  0.83205027  0.16548772  0.66686625  1
  I  I102  1  0.83180152  0.50331774  -0.00308072  1
  I  I103  1  0.83431290  0.49918801  0.33459170  1
  I  I104  1  0.82886981  0.50363417  0.66828979  1
  I  I105  1  0.83748416  0.82434862  -0.00468972  1
  I  I106  1  0.83361118  0.83089009  0.33342269  1
  I  I107  1  0.83371797  0.83171444  0.66990389  1
  I  I108  1  -0.00163271  0.16944397  0.16800199  1
  I  I109  1  0.00335132  0.15954416  0.49793999  1
  I  I110  1  0.00016647  0.16841304  0.83510459  1
  I  I111  1  0.00134712  0.49876053  0.16816850  1
  I  I112  1  -0.00320165  0.50136615  0.50345129  1
  I  I113  1  -0.00259865  0.50292273  0.83154443  1
  I  I114  1  -0.00003162  0.83171142  0.17140084  1
  I  I115  1  0.00293968  0.83591769  0.50222140  1
  I  I116  1  -0.00008195  0.82768041  0.82754720  1
  I  I117  1  0.33661470  0.16911840  0.16382624  1
  I  I118  1  0.33062727  0.16499546  0.49812902  1
  I  I119  1  0.33756442  0.17134824  0.84023851  1
  I  I120  1  0.33510473  0.49468217  0.16262565  1
  I  I121  1  0.33333308  0.49946497  0.50108261  1
  I  I122  1  0.33639376  0.49794738  0.83598813  1
  I  I123  1  0.33345737  0.83661803  0.16234981  1
  I  I124  1  0.33207127  0.83555984  0.50580797  1
  I  I125  1  0.33125420  0.83316613  0.82998261  1
  I  I126  1  0.66504634  0.17333064  0.16371649  1
  I  I127  1  0.66658312  0.16471588  0.50075801  1
  I  I128  1  0.66343248  0.16537154  0.83455737  1
  I  I129  1  0.66373909  0.49748619  0.16581683  1
  I  I130  1  0.66960385  0.50229816  0.49937118  1
  I  I131  1  0.66641011  0.50314287  0.83560325  1
  I  I132  1  0.66668001  0.82803199  0.16786387  1
  I  I133  1  0.66491122  0.83173208  0.50129702  1
  I  I134  1  0.66872848  0.83147517  0.83158636  1
