# generated using pymatgen
data_Cs27Sn13Pb14I81
_symmetry_space_group_name_H-M   'P 1'
_cell_length_a   19.06778510
_cell_length_b   19.05028335
_cell_length_c   19.07479965
_cell_angle_alpha   90.00070063
_cell_angle_beta   89.99904067
_cell_angle_gamma   89.99888478
_symmetry_Int_Tables_number   1
_chemical_formula_structural   Cs27Sn13Pb14I81
_chemical_formula_sum   'Cs27 Sn13 Pb14 I81'
_cell_volume   6928.85819561
_cell_formula_units_Z   1
loop_
 _symmetry_equiv_pos_site_id
 _symmetry_equiv_pos_as_xyz
  1  'x, y, z'
loop_
 _atom_site_type_symbol
 _atom_site_label
 _atom_site_symmetry_multiplicity
 _atom_site_fract_x
 _atom_site_fract_y
 _atom_site_fract_z
 _atom_site_occupancy
  Cs  Cs0  1  0.00224396  0.01055967  -0.00036847  1
  Cs  Cs1  1  0.00109787  -0.00061076  0.33536111  1
  Cs  Cs2  1  0.00338026  0.00239385  0.66586543  1
  Cs  Cs3  1  0.00823455  0.31639689  0.01163681  1
  Cs  Cs4  1  -0.00123330  0.34308340  0.32087151  1
  Cs  Cs5  1  -0.00005642  0.32900421  0.66917839  1
  Cs  Cs6  1  -0.00123422  0.66957279  -0.00466487  1
  Cs  Cs7  1  -0.00057596  0.65948042  0.33597194  1
  Cs  Cs8  1  0.00736595  0.66524411  0.66649593  1
  Cs  Cs9  1  0.33862866  -0.00098064  0.00283119  1
  Cs  Cs10  1  0.33799015  -0.00019983  0.33572330  1
  Cs  Cs11  1  0.33583251  0.00041154  0.66230841  1
  Cs  Cs12  1  0.32291858  0.34707536  0.00030527  1
  Cs  Cs13  1  0.33195054  0.33890153  0.33112197  1
  Cs  Cs14  1  0.33480525  0.34297521  0.66864238  1
  Cs  Cs15  1  0.33114237  0.65778725  -0.00309591  1
  Cs  Cs16  1  0.32768060  0.66001589  0.33346681  1
  Cs  Cs17  1  0.31827512  0.65698872  0.66892209  1
  Cs  Cs18  1  0.66495351  -0.00244688  -0.00041344  1
  Cs  Cs19  1  0.66166433  -0.00187232  0.33661990  1
  Cs  Cs20  1  0.66499294  0.00030482  0.66482331  1
  Cs  Cs21  1  0.67098908  0.33601236  0.00089258  1
  Cs  Cs22  1  0.67000743  0.34525902  0.33429270  1
  Cs  Cs23  1  0.66597382  0.33352437  0.66512554  1
  Cs  Cs24  1  0.66729090  0.66999306  -0.00470970  1
  Cs  Cs25  1  0.66886311  0.66592825  0.33294400  1
  Cs  Cs26  1  0.66909066  0.66642265  0.67153776  1
  Sn  Sn27  1  0.50004060  0.83430759  0.83231821  1
  Sn  Sn28  1  0.50024115  0.16635585  0.49963922  1
  Sn  Sn29  1  0.83341155  0.83433091  0.16676074  1
  Sn  Sn30  1  0.16670977  0.16629235  0.49946093  1
  Sn  Sn31  1  0.83288247  0.16560225  0.49941564  1
  Sn  Sn32  1  0.50044246  0.83265951  0.50062651  1
  Sn  Sn33  1  0.83335104  0.50010617  0.83344598  1
  Sn  Sn34  1  0.16664470  0.83433654  0.16681383  1
  Sn  Sn35  1  0.83245334  0.83453331  0.50034428  1
  Sn  Sn36  1  0.50049877  0.16621078  0.16652804  1
  Sn  Sn37  1  0.49991751  0.16587011  0.83392528  1
  Sn  Sn38  1  0.83288675  0.83364699  0.83280926  1
  Sn  Sn39  1  0.49990946  0.83357551  0.16696221  1
  Pb  Pb40  1  0.16607802  0.49599854  0.49985476  1
  Pb  Pb41  1  0.83322326  0.50065256  0.50244600  1
  Pb  Pb42  1  0.83321652  0.50321849  0.16325702  1
  Pb  Pb43  1  0.17016384  0.16367644  0.16935786  1
  Pb  Pb44  1  0.83004335  0.16333737  0.16978868  1
  Pb  Pb45  1  0.50222966  0.50043614  0.83327883  1
  Pb  Pb46  1  0.16707990  0.83425729  0.83553856  1
  Pb  Pb47  1  0.17070788  0.16590431  0.83109461  1
  Pb  Pb48  1  0.16689310  0.83490930  0.49806789  1
  Pb  Pb49  1  0.83104812  0.16555478  0.83141423  1
  Pb  Pb50  1  0.16185869  0.49950998  0.83361658  1
  Pb  Pb51  1  0.50055873  0.50073766  0.16651138  1
  Pb  Pb52  1  0.50025576  0.50134668  0.50019863  1
  Pb  Pb53  1  0.16610246  0.50356226  0.16654705  1
  I  I54  1  0.16192511  -0.00314711  0.16539937  1
  I  I55  1  0.16767220  0.00235087  0.49962118  1
  I  I56  1  0.15564663  -0.00005873  0.83423691  1
  I  I57  1  0.16775171  0.33314179  0.16739402  1
  I  I58  1  0.17025320  0.32818832  0.50051025  1
  I  I59  1  0.16770549  0.33297682  0.83264693  1
  I  I60  1  0.17267268  0.67113766  0.16941075  1
  I  I61  1  0.16734171  0.66641172  0.49842185  1
  I  I62  1  0.17581887  0.66696679  0.83299048  1
  I  I63  1  0.50010903  -0.00175352  0.16687145  1
  I  I64  1  0.50059327  -0.00025653  0.49987667  1
  I  I65  1  0.50786476  -0.00139038  0.83341795  1
  I  I66  1  0.49966340  0.33014100  0.16936499  1
  I  I67  1  0.50035543  0.32962095  0.50047229  1
  I  I68  1  0.50132170  0.33028276  0.82976271  1
  I  I69  1  0.50003224  0.67130135  0.16643853  1
  I  I70  1  0.50884299  0.67093421  0.49763715  1
  I  I71  1  0.50237169  0.67039661  0.83578658  1
  I  I72  1  0.83685795  -0.00434029  0.15670465  1
  I  I73  1  0.83181223  -0.00120908  0.50307402  1
  I  I74  1  0.83149396  -0.00388609  0.83690519  1
  I  I75  1  0.83237765  0.33313352  0.16718972  1
  I  I76  1  0.83049436  0.33022500  0.50406852  1
  I  I77  1  0.82895132  0.33500837  0.82613272  1
  I  I78  1  0.82877228  0.67177983  0.17670164  1
  I  I79  1  0.82617176  0.67065631  0.49444250  1
  I  I80  1  0.82415685  0.66967565  0.83254563  1
  I  I81  1  0.16469736  0.16917831  0.00039262  1
  I  I82  1  0.16933176  0.16379335  0.33649082  1
  I  I83  1  0.16688327  0.16364692  0.66326098  1
  I  I84  1  0.16992144  0.49873718  -0.00000584  1
  I  I85  1  0.16530181  0.50014135  0.33321233  1
  I  I86  1  0.16923633  0.50323696  0.66678578  1
  I  I87  1  0.16715292  0.83291566  0.00323871  1
  I  I88  1  0.16779159  0.83598251  0.33064514  1
  I  I89  1  0.16662764  0.83198669  0.66664044  1
  I  I90  1  0.50219146  0.15514963  0.00017948  1
  I  I91  1  0.49889397  0.15665098  0.33409460  1
  I  I92  1  0.50039940  0.15856023  0.66566633  1
  I  I93  1  0.50003869  0.49873637  -0.00021934  1
  I  I94  1  0.49961083  0.49938535  0.33341096  1
  I  I95  1  0.49978818  0.49784941  0.66680449  1
  I  I96  1  0.50406064  0.84135493  0.00008315  1
  I  I97  1  0.50395418  0.84179876  0.33357720  1
  I  I98  1  0.51162896  0.84274924  0.66634833  1
  I  I99  1  0.83351696  0.16933595  0.00030150  1
  I  I100  1  0.83099495  0.15909313  0.33730937  1
  I  I101  1  0.83071413  0.16019005  0.66343873  1
  I  I102  1  0.82861809  0.50917545  -0.00380930  1
  I  I103  1  0.83587793  0.49841477  0.33304194  1
  I  I104  1  0.83119551  0.50965036  0.66943731  1
  I  I105  1  0.82875765  0.82417474  0.00003135  1
  I  I106  1  0.82933527  0.84133739  0.33369796  1
  I  I107  1  0.82277151  0.83286256  0.66640782  1
  I  I108  1  0.00005108  0.16743340  0.16711215  1
  I  I109  1  -0.00097147  0.15843261  0.50350458  1
  I  I110  1  0.00019590  0.16902011  0.83093557  1
  I  I111  1  -0.00034288  0.49967254  0.16711407  1
  I  I112  1  -0.00040809  0.50287695  0.50195107  1
  I  I113  1  -0.00485857  0.51520546  0.82950542  1
  I  I114  1  -0.00087160  0.82984826  0.16778747  1
  I  I115  1  -0.00320496  0.83825879  0.50048036  1
  I  I116  1  -0.00320039  0.82445025  0.83192918  1
  I  I117  1  0.33759925  0.15689375  0.16925189  1
  I  I118  1  0.33567095  0.15918096  0.49995922  1
  I  I119  1  0.33863216  0.15553692  0.83067846  1
  I  I120  1  0.33332215  0.50131601  0.16533599  1
  I  I121  1  0.33329536  0.50284729  0.50167393  1
  I  I122  1  0.33274878  0.49946143  0.83341064  1
  I  I123  1  0.33529153  0.84041344  0.16746533  1
  I  I124  1  0.33692068  0.83944823  0.49969853  1
  I  I125  1  0.33700351  0.84054829  0.83243879  1
  I  I126  1  0.66282574  0.15817168  0.16771042  1
  I  I127  1  0.66573521  0.16056337  0.50164410  1
  I  I128  1  0.66328943  0.16473961  0.83004957  1
  I  I129  1  0.66700691  0.49998837  0.16893531  1
  I  I130  1  0.66688763  0.49161739  0.49885377  1
  I  I131  1  0.66924227  0.50439434  0.83248323  1
  I  I132  1  0.66608779  0.83749458  0.16630951  1
  I  I133  1  0.66635780  0.84288828  0.49500735  1
  I  I134  1  0.66624986  0.83276704  0.83857840  1
