# generated using pymatgen
data_Cs27Sn14Pb13I81
_symmetry_space_group_name_H-M   'P 1'
_cell_length_a   18.96697916
_cell_length_b   18.98643696
_cell_length_c   18.97197811
_cell_angle_alpha   89.99998995
_cell_angle_beta   89.99994900
_cell_angle_gamma   90.00003195
_symmetry_Int_Tables_number   1
_chemical_formula_structural   Cs27Sn14Pb13I81
_chemical_formula_sum   'Cs27 Sn14 Pb13 I81'
_cell_volume   6832.10061653
_cell_formula_units_Z   1
loop_
 _symmetry_equiv_pos_site_id
 _symmetry_equiv_pos_as_xyz
  1  'x, y, z'
loop_
 _atom_site_type_symbol
 _atom_site_label
 _atom_site_symmetry_multiplicity
 _atom_site_fract_x
 _atom_site_fract_y
 _atom_site_fract_z
 _atom_site_occupancy
  Cs  Cs0  1  -0.00017904  0.00166579  -0.00047396  1
  Cs  Cs1  1  0.00074195  -0.00064943  0.33535713  1
  Cs  Cs2  1  -0.00228343  -0.00162494  0.66435490  1
  Cs  Cs3  1  0.00343817  0.33474041  0.00331245  1
  Cs  Cs4  1  0.00127789  0.33390005  0.33195264  1
  Cs  Cs5  1  -0.00186073  0.33353595  0.66449477  1
  Cs  Cs6  1  0.00045456  0.66268062  0.00034242  1
  Cs  Cs7  1  0.00042333  0.66648819  0.33522705  1
  Cs  Cs8  1  -0.00069014  0.66800178  0.66404799  1
  Cs  Cs9  1  0.33311407  -0.00205355  -0.00721367  1
  Cs  Cs10  1  0.33247875  -0.00213837  0.33282358  1
  Cs  Cs11  1  0.33435495  0.00201685  0.67251321  1
  Cs  Cs12  1  0.32346147  0.33364090  -0.00429900  1
  Cs  Cs13  1  0.33405257  0.33275405  0.33466342  1
  Cs  Cs14  1  0.34447338  0.33468991  0.66945682  1
  Cs  Cs15  1  0.33586027  0.66951871  -0.01011948  1
  Cs  Cs16  1  0.33444511  0.67000083  0.33418352  1
  Cs  Cs17  1  0.33367651  0.66403438  0.67212449  1
  Cs  Cs18  1  0.66623286  -0.00127619  0.00331275  1
  Cs  Cs19  1  0.66648265  -0.00051624  0.33143338  1
  Cs  Cs20  1  0.67094712  0.00407410  0.66607206  1
  Cs  Cs21  1  0.66967010  0.33301687  0.00352706  1
  Cs  Cs22  1  0.66505263  0.33366308  0.33219337  1
  Cs  Cs23  1  0.66288425  0.33335610  0.66623739  1
  Cs  Cs24  1  0.66540725  0.66851551  0.00359048  1
  Cs  Cs25  1  0.66537249  0.66813475  0.33129491  1
  Cs  Cs26  1  0.66908554  0.66316601  0.66549409  1
  Sn  Sn27  1  0.49974016  0.16780920  0.16668612  1
  Sn  Sn28  1  0.83335150  0.49978679  0.83272845  1
  Sn  Sn29  1  0.83303384  0.16587679  0.16690728  1
  Sn  Sn30  1  0.16596472  0.83320286  0.16690471  1
  Sn  Sn31  1  0.49915841  0.49886108  0.16652297  1
  Sn  Sn32  1  0.49884198  0.83358973  0.50031921  1
  Sn  Sn33  1  0.83353379  0.83314798  0.83467008  1
  Sn  Sn34  1  0.83460029  0.83399550  0.16604265  1
  Sn  Sn35  1  0.16646607  0.49971747  0.49983369  1
  Sn  Sn36  1  0.83344476  0.16710704  0.83359523  1
  Sn  Sn37  1  0.83391473  0.16793787  0.49955265  1
  Sn  Sn38  1  0.83384531  0.49884891  0.50025504  1
  Sn  Sn39  1  0.16648944  0.16685803  0.50008737  1
  Sn  Sn40  1  0.16820529  0.83343079  0.49949277  1
  Pb  Pb41  1  0.83371040  0.83333695  0.49959908  1
  Pb  Pb42  1  0.50018461  0.16468114  0.49820292  1
  Pb  Pb43  1  0.16404576  0.83336556  0.83291193  1
  Pb  Pb44  1  0.50291359  0.49977259  0.83655833  1
  Pb  Pb45  1  0.50259289  0.16674051  0.83685303  1
  Pb  Pb46  1  0.16973768  0.50296360  0.16881723  1
  Pb  Pb47  1  0.50017106  0.50184689  0.49856108  1
  Pb  Pb48  1  0.50340473  0.83346333  0.82988725  1
  Pb  Pb49  1  0.16401131  0.16681161  0.82986859  1
  Pb  Pb50  1  0.49957691  0.83386178  0.16757765  1
  Pb  Pb51  1  0.16660231  0.16465746  0.16848642  1
  Pb  Pb52  1  0.16404883  0.49983501  0.83022620  1
  Pb  Pb53  1  0.83265410  0.49999379  0.16715748  1
  I  I54  1  0.16563297  -0.00319690  0.17438905  1
  I  I55  1  0.16445351  -0.00024906  0.49541599  1
  I  I56  1  0.16397071  -0.00002756  0.83092495  1
  I  I57  1  0.16428791  0.33336755  0.16842189  1
  I  I58  1  0.15868969  0.33318005  0.49923359  1
  I  I59  1  0.16325912  0.33331738  0.83481271  1
  I  I60  1  0.15995569  0.67066039  0.17425385  1
  I  I61  1  0.16449251  0.66702121  0.49544692  1
  I  I62  1  0.16311703  0.66673206  0.83168857  1
  I  I63  1  0.50409441  0.00227654  0.16979012  1
  I  I64  1  0.49830974  -0.00295359  0.49572130  1
  I  I65  1  0.50234644  -0.00001875  0.83527738  1
  I  I66  1  0.50948752  0.33235457  0.16962238  1
  I  I67  1  0.49807995  0.33319300  0.49968303  1
  I  I68  1  0.50308208  0.33326324  0.82862762  1
  I  I69  1  0.50236238  0.66533758  0.17017698  1
  I  I70  1  0.49865701  0.66955547  0.49519110  1
  I  I71  1  0.50344600  0.66671820  0.83635961  1
  I  I72  1  0.83055926  0.00038741  0.16523065  1
  I  I73  1  0.83531142  0.00239961  0.50181180  1
  I  I74  1  0.83343305  0.00040169  0.83244798  1
  I  I75  1  0.83046402  0.33058402  0.16545110  1
  I  I76  1  0.84003057  0.33274085  0.50204471  1
  I  I77  1  0.83298829  0.33292586  0.83199087  1
  I  I78  1  0.83410329  0.66926216  0.16495195  1
  I  I79  1  0.83535759  0.66465946  0.50273375  1
  I  I80  1  0.83356689  0.66669418  0.83182755  1
  I  I81  1  0.16660826  0.16426923  0.00005155  1
  I  I82  1  0.15942765  0.16735435  0.33676804  1
  I  I83  1  0.16030025  0.16226557  0.66144258  1
  I  I84  1  0.16639809  0.50182876  0.00009906  1
  I  I85  1  0.15797235  0.49891189  0.33706758  1
  I  I86  1  0.16482572  0.50427659  0.66175656  1
  I  I87  1  0.16435699  0.83414316  0.00280870  1
  I  I88  1  0.16316420  0.83372105  0.33450144  1
  I  I89  1  0.16821585  0.83309953  0.66289588  1
  I  I90  1  0.50683876  0.16781883  0.00490206  1
  I  I91  1  0.50815340  0.16867457  0.33051897  1
  I  I92  1  0.50057671  0.16475051  0.66660985  1
  I  I93  1  0.50338114  0.49862581  0.00429705  1
  I  I94  1  0.50473933  0.49751251  0.33098658  1
  I  I95  1  0.49876166  0.50228858  0.66668002  1
  I  I96  1  0.49809219  0.83290674  -0.00012379  1
  I  I97  1  0.50204941  0.83315205  0.33547818  1
  I  I98  1  0.49417798  0.83255500  0.66215374  1
  I  I99  1  0.82722674  0.16503135  0.00056829  1
  I  I100  1  0.83315322  0.16569266  0.33347515  1
  I  I101  1  0.83864771  0.16516495  0.66600524  1
  I  I102  1  0.82958174  0.49890557  -0.00219161  1
  I  I103  1  0.83564240  0.49782717  0.33628341  1
  I  I104  1  0.83681764  0.49897305  0.66568490  1
  I  I105  1  0.83747549  0.83617201  0.00112745  1
  I  I106  1  0.83339071  0.83624998  0.33093388  1
  I  I107  1  0.83254841  0.83551740  0.66837325  1
  I  I108  1  -0.00346851  0.16399749  0.16530761  1
  I  I109  1  -0.00150935  0.16445868  0.49812694  1
  I  I110  1  -0.00486606  0.16595055  0.83894799  1
  I  I111  1  0.00025073  0.49874569  0.16506792  1
  I  I112  1  -0.00091509  0.50226968  0.50280039  1
  I  I113  1  -0.00453334  0.50032724  0.83363742  1
  I  I114  1  -0.00131904  0.83858173  0.17010922  1
  I  I115  1  0.00226410  0.83332021  0.49921697  1
  I  I116  1  -0.00431004  0.83423584  0.83134532  1
  I  I117  1  0.33564787  0.16859522  0.17209281  1
  I  I118  1  0.33057541  0.16786870  0.49584228  1
  I  I119  1  0.33329325  0.16608256  0.83320106  1
  I  I120  1  0.33712560  0.49442963  0.17166894  1
  I  I121  1  0.33052539  0.49865379  0.49558710  1
  I  I122  1  0.33337757  0.50102345  0.83261642  1
  I  I123  1  0.33078405  0.83304491  0.17293644  1
  I  I124  1  0.33150044  0.83335550  0.49113747  1
  I  I125  1  0.33329721  0.83290401  0.83638257  1
  I  I126  1  0.66900166  0.16407249  0.16895838  1
  I  I127  1  0.67028516  0.16881318  0.50199805  1
  I  I128  1  0.67153665  0.16594332  0.82619027  1
  I  I129  1  0.66500742  0.50151331  0.16918389  1
  I  I130  1  0.66991076  0.49746974  0.50296362  1
  I  I131  1  0.67133693  0.50013488  0.82465268  1
  I  I132  1  0.66943664  0.83424609  0.16525735  1
  I  I133  1  0.66546976  0.83305772  0.49903900  1
  I  I134  1  0.67161278  0.83379255  0.83884130  1
