# generated using pymatgen
data_Cs27Sn14Pb13I81
_symmetry_space_group_name_H-M   'P 1'
_cell_length_a   18.98610130
_cell_length_b   18.97326720
_cell_length_c   18.96736947
_cell_angle_alpha   89.99734525
_cell_angle_beta   90.00077273
_cell_angle_gamma   89.99983462
_symmetry_Int_Tables_number   1
_chemical_formula_structural   Cs27Sn14Pb13I81
_chemical_formula_sum   'Cs27 Sn14 Pb13 I81'
_cell_volume   6832.58463606
_cell_formula_units_Z   1
loop_
 _symmetry_equiv_pos_site_id
 _symmetry_equiv_pos_as_xyz
  1  'x, y, z'
loop_
 _atom_site_type_symbol
 _atom_site_label
 _atom_site_symmetry_multiplicity
 _atom_site_fract_x
 _atom_site_fract_y
 _atom_site_fract_z
 _atom_site_occupancy
  Cs  Cs0  1  0.00184941  0.00122342  -0.00179469  1
  Cs  Cs1  1  -0.00442313  -0.00143275  0.33287609  1
  Cs  Cs2  1  -0.00165636  0.00115736  0.66791918  1
  Cs  Cs3  1  0.00302015  0.32846704  -0.00000522  1
  Cs  Cs4  1  -0.00291549  0.33348768  0.33476983  1
  Cs  Cs5  1  0.00342342  0.33548901  0.66593393  1
  Cs  Cs6  1  -0.00324499  0.66766221  0.00037751  1
  Cs  Cs7  1  0.00183880  0.66737433  0.33196622  1
  Cs  Cs8  1  0.00089942  0.66438393  0.66720243  1
  Cs  Cs9  1  0.33242590  0.00162238  -0.00251338  1
  Cs  Cs10  1  0.33218844  -0.00472487  0.33291427  1
  Cs  Cs11  1  0.33537495  0.00247917  0.66841767  1
  Cs  Cs12  1  0.33407431  0.33202996  0.01012253  1
  Cs  Cs13  1  0.33548459  0.33545158  0.33312058  1
  Cs  Cs14  1  0.33194093  0.33112711  0.66537088  1
  Cs  Cs15  1  0.33473684  0.66595896  0.00286826  1
  Cs  Cs16  1  0.32827581  0.66772257  0.33351573  1
  Cs  Cs17  1  0.33294155  0.66663505  0.66480380  1
  Cs  Cs18  1  0.66638086  -0.00261172  -0.00069833  1
  Cs  Cs19  1  0.67057245  0.00207809  0.33331019  1
  Cs  Cs20  1  0.66527391  -0.00052478  0.66622080  1
  Cs  Cs21  1  0.66322803  0.33600975  0.00134435  1
  Cs  Cs22  1  0.66681412  0.32978612  0.33272328  1
  Cs  Cs23  1  0.66532817  0.33535096  0.66731185  1
  Cs  Cs24  1  0.66818457  0.66686520  -0.00197561  1
  Cs  Cs25  1  0.66899766  0.66874956  0.33361110  1
  Cs  Cs26  1  0.66600142  0.66604529  0.66901520  1
  Sn  Sn27  1  0.50096375  0.16650389  0.83291429  1
  Sn  Sn28  1  0.83206407  0.16631080  0.83316078  1
  Sn  Sn29  1  0.49917179  0.16733638  0.50068389  1
  Sn  Sn30  1  0.49995180  0.49953375  0.50029575  1
  Sn  Sn31  1  0.16732107  0.16704062  0.50002674  1
  Sn  Sn32  1  0.16693393  0.49916531  0.50076907  1
  Sn  Sn33  1  0.16684420  0.83212446  0.83299451  1
  Sn  Sn34  1  0.49994676  0.83364561  0.83393607  1
  Sn  Sn35  1  0.83317505  0.50030807  0.49926537  1
  Sn  Sn36  1  0.83332867  0.50039401  0.16725108  1
  Sn  Sn37  1  0.83233557  0.83254671  0.16568424  1
  Sn  Sn38  1  0.16718126  0.50048655  0.83338428  1
  Sn  Sn39  1  0.83323565  0.83404936  0.83378269  1
  Sn  Sn40  1  0.50084542  0.83330722  0.16593110  1
  Pb  Pb41  1  0.83313839  0.16641094  0.16364615  1
  Pb  Pb42  1  0.83502664  0.49980717  0.83353233  1
  Pb  Pb43  1  0.50004093  0.16399348  0.16696266  1
  Pb  Pb44  1  0.16417233  0.49995410  0.16698600  1
  Pb  Pb45  1  0.83338906  0.83100150  0.50035511  1
  Pb  Pb46  1  0.49734209  0.49971598  0.83191102  1
  Pb  Pb47  1  0.16675123  0.16667339  0.17094746  1
  Pb  Pb48  1  0.50009598  0.83382642  0.50005234  1
  Pb  Pb49  1  0.83295734  0.16896669  0.50234290  1
  Pb  Pb50  1  0.16654882  0.83360652  0.50242440  1
  Pb  Pb51  1  0.16733691  0.16692856  0.83207971  1
  Pb  Pb52  1  0.16622310  0.83336648  0.16375301  1
  Pb  Pb53  1  0.50236941  0.50260515  0.16969997  1
  I  I54  1  0.16407510  -0.00032121  0.16664000  1
  I  I55  1  0.17294258  0.00307763  0.50189814  1
  I  I56  1  0.16604599  -0.00253983  0.83229258  1
  I  I57  1  0.16443850  0.33361232  0.15864569  1
  I  I58  1  0.16662758  0.33474386  0.50741354  1
  I  I59  1  0.16397875  0.33567914  0.82938388  1
  I  I60  1  0.16879424  0.66676857  0.17174130  1
  I  I61  1  0.16757587  0.66334538  0.50201288  1
  I  I62  1  0.16552321  0.66702515  0.82681063  1
  I  I63  1  0.50754222  -0.00391897  0.16727418  1
  I  I64  1  0.49448397  0.00313894  0.50191966  1
  I  I65  1  0.49885765  -0.00056674  0.83079173  1
  I  I66  1  0.50082935  0.33346620  0.16365668  1
  I  I67  1  0.49952364  0.33318294  0.50634894  1
  I  I68  1  0.50449257  0.33049155  0.82935401  1
  I  I69  1  0.50198488  0.67032568  0.16007005  1
  I  I70  1  0.49909956  0.66391541  0.50041334  1
  I  I71  1  0.50308695  0.66956059  0.83491381  1
  I  I72  1  0.82949870  -0.00348475  0.16474048  1
  I  I73  1  0.83380565  0.00021789  0.49747202  1
  I  I74  1  0.83562398  -0.00145372  0.83801676  1
  I  I75  1  0.83535182  0.33607408  0.17052210  1
  I  I76  1  0.83400466  0.33711263  0.49621160  1
  I  I77  1  0.83060259  0.33107398  0.83178790  1
  I  I78  1  0.82984578  0.66762649  0.16459170  1
  I  I79  1  0.83362833  0.66261610  0.50154663  1
  I  I80  1  0.83111750  0.66937851  0.83390413  1
  I  I81  1  0.16635721  0.16736525  -0.00041973  1
  I  I82  1  0.17247641  0.17406936  0.33914822  1
  I  I83  1  0.16788783  0.16888035  0.66414890  1
  I  I84  1  0.16444044  0.50499511  -0.00285643  1
  I  I85  1  0.16852485  0.49556005  0.33701758  1
  I  I86  1  0.16309654  0.50089764  0.66556741  1
  I  I87  1  0.16628107  0.82777224  -0.00467940  1
  I  I88  1  0.16701507  0.83347559  0.33327263  1
  I  I89  1  0.16668462  0.83137642  0.67079242  1
  I  I90  1  0.50406607  0.16429500  -0.00333889  1
  I  I91  1  0.49531685  0.17031533  0.33681850  1
  I  I92  1  0.50006940  0.16375397  0.66699787  1
  I  I93  1  0.49977689  0.49729242  0.00008244  1
  I  I94  1  0.49484822  0.49531411  0.33789069  1
  I  I95  1  0.50513896  0.50157176  0.66357211  1
  I  I96  1  0.50063243  0.83824456  -0.00184388  1
  I  I97  1  0.50574843  0.83250761  0.33071470  1
  I  I98  1  0.50106351  0.83422343  0.66998781  1
  I  I99  1  0.82837207  0.16759978  -0.00447741  1
  I  I100  1  0.83436815  0.16399726  0.33352797  1
  I  I101  1  0.83233633  0.16081400  0.67020168  1
  I  I102  1  0.83531869  0.50228243  0.00208068  1
  I  I103  1  0.83532092  0.50581815  0.33401280  1
  I  I104  1  0.83298895  0.49974378  0.66420801  1
  I  I105  1  0.83256590  0.83014367  -0.00101419  1
  I  I106  1  0.82836147  0.83115307  0.33031895  1
  I  I107  1  0.83218915  0.83573584  0.67039866  1
  I  I108  1  -0.00035251  0.16436437  0.16496008  1
  I  I109  1  0.00214104  0.17127519  0.50259192  1
  I  I110  1  -0.00175700  0.16352841  0.83244130  1
  I  I111  1  -0.00366956  0.50770580  0.17177662  1
  I  I112  1  0.00053676  0.49666495  0.50067084  1
  I  I113  1  0.00273111  0.50384002  0.82717571  1
  I  I114  1  -0.00352391  0.82910155  0.16328553  1
  I  I115  1  -0.00006802  0.83387858  0.50024870  1
  I  I116  1  -0.00080806  0.83348538  0.83611833  1
  I  I117  1  0.33363404  0.16453579  0.16023696  1
  I  I118  1  0.33418312  0.17512523  0.50752138  1
  I  I119  1  0.33616450  0.16195758  0.82967014  1
  I  I120  1  0.33353996  0.50143274  0.16700612  1
  I  I121  1  0.33300102  0.49621750  0.50605823  1
  I  I122  1  0.32966495  0.50454651  0.82624073  1
  I  I123  1  0.33615748  0.83483271  0.16366155  1
  I  I124  1  0.33345817  0.82847940  0.49888352  1
  I  I125  1  0.33417252  0.83409551  0.83592302  1
  I  I126  1  0.66668871  0.16912625  0.17230502  1
  I  I127  1  0.66380641  0.17061631  0.50234284  1
  I  I128  1  0.66577879  0.15871155  0.82728596  1
  I  I129  1  0.67023870  0.50198082  0.17035516  1
  I  I130  1  0.66656362  0.49680995  0.49627249  1
  I  I131  1  0.66655376  0.50199772  0.83140948  1
  I  I132  1  0.66746780  0.82907357  0.15820736  1
  I  I133  1  0.66665795  0.83197530  0.50425787  1
  I  I134  1  0.66670365  0.83782355  0.83708728  1
