# generated using pymatgen
data_Cs27Sn14Pb13I81
_symmetry_space_group_name_H-M   'P 1'
_cell_length_a   18.98244601
_cell_length_b   18.97411113
_cell_length_c   18.97016817
_cell_angle_alpha   89.99972156
_cell_angle_beta   89.99962443
_cell_angle_gamma   89.99824657
_symmetry_Int_Tables_number   1
_chemical_formula_structural   Cs27Sn14Pb13I81
_chemical_formula_sum   'Cs27 Sn14 Pb13 I81'
_cell_volume   6832.58107960
_cell_formula_units_Z   1
loop_
 _symmetry_equiv_pos_site_id
 _symmetry_equiv_pos_as_xyz
  1  'x, y, z'
loop_
 _atom_site_type_symbol
 _atom_site_label
 _atom_site_symmetry_multiplicity
 _atom_site_fract_x
 _atom_site_fract_y
 _atom_site_fract_z
 _atom_site_occupancy
  Cs  Cs0  1  0.00487526  -0.00220894  -0.00031820  1
  Cs  Cs1  1  -0.00140745  -0.00173374  0.33462188  1
  Cs  Cs2  1  -0.00071430  0.00129374  0.66497723  1
  Cs  Cs3  1  0.00080877  0.33589222  -0.00090606  1
  Cs  Cs4  1  -0.00081926  0.33032175  0.33903315  1
  Cs  Cs5  1  0.00112011  0.33156443  0.66394662  1
  Cs  Cs6  1  -0.00018251  0.66588234  -0.00136357  1
  Cs  Cs7  1  0.00042859  0.66968080  0.33374956  1
  Cs  Cs8  1  -0.00388025  0.66742473  0.66648324  1
  Cs  Cs9  1  0.33123767  0.00043764  -0.00020912  1
  Cs  Cs10  1  0.33166615  -0.00220509  0.32994821  1
  Cs  Cs11  1  0.33856572  0.00075966  0.66965151  1
  Cs  Cs12  1  0.33356863  0.33177270  -0.00121014  1
  Cs  Cs13  1  0.33364999  0.33890771  0.33568395  1
  Cs  Cs14  1  0.33321966  0.33329409  0.66728334  1
  Cs  Cs15  1  0.32934773  0.66743870  0.00009695  1
  Cs  Cs16  1  0.33466961  0.66589538  0.33547151  1
  Cs  Cs17  1  0.33837305  0.66629944  0.66443131  1
  Cs  Cs18  1  0.66455987  0.00136307  0.00047193  1
  Cs  Cs19  1  0.66962157  0.00049485  0.33193682  1
  Cs  Cs20  1  0.66237882  0.00073681  0.66793964  1
  Cs  Cs21  1  0.66658580  0.33504804  0.00385948  1
  Cs  Cs22  1  0.66711130  0.33305976  0.32334319  1
  Cs  Cs23  1  0.66564223  0.33001971  0.66945524  1
  Cs  Cs24  1  0.67326173  0.66318680  -0.00163044  1
  Cs  Cs25  1  0.66525190  0.66596075  0.33539869  1
  Cs  Cs26  1  0.66793133  0.66891665  0.66552559  1
  Sn  Sn27  1  0.49985401  0.16695570  0.49942598  1
  Sn  Sn28  1  0.16639216  0.16745806  0.83388882  1
  Sn  Sn29  1  0.49997079  0.16772929  0.83297275  1
  Sn  Sn30  1  0.83347987  0.83329555  0.16702433  1
  Sn  Sn31  1  0.16650396  0.49986014  0.16650774  1
  Sn  Sn32  1  0.16749366  0.49936056  0.83352516  1
  Sn  Sn33  1  0.16652530  0.83356940  0.49984397  1
  Sn  Sn34  1  0.83316729  0.49993604  0.49987431  1
  Sn  Sn35  1  0.50003144  0.83291208  0.16621462  1
  Sn  Sn36  1  0.83362893  0.16649781  0.83375481  1
  Sn  Sn37  1  0.16663690  0.16717914  0.16652527  1
  Sn  Sn38  1  0.16652282  0.83308342  0.16754776  1
  Sn  Sn39  1  0.83400861  0.83269365  0.49936577  1
  Sn  Sn40  1  0.49934838  0.49960309  0.83341934  1
  Pb  Pb41  1  0.83620176  0.16454787  0.16432158  1
  Pb  Pb42  1  0.83109256  0.16613519  0.50150899  1
  Pb  Pb43  1  0.83378295  0.49782832  0.83158466  1
  Pb  Pb44  1  0.49767744  0.16539438  0.16620985  1
  Pb  Pb45  1  0.49773490  0.50245572  0.16420093  1
  Pb  Pb46  1  0.50258084  0.49757916  0.50210685  1
  Pb  Pb47  1  0.50030334  0.83508879  0.49792302  1
  Pb  Pb48  1  0.16536893  0.50226720  0.50073611  1
  Pb  Pb49  1  0.83333501  0.83570059  0.83300920  1
  Pb  Pb50  1  0.50007195  0.83294116  0.83594192  1
  Pb  Pb51  1  0.16673956  0.83293549  0.83280869  1
  Pb  Pb52  1  0.16859484  0.16439956  0.50035582  1
  Pb  Pb53  1  0.83612071  0.50207808  0.16890163  1
  I  I54  1  0.16693967  -0.00069187  0.16550217  1
  I  I55  1  0.16038457  -0.00344462  0.49525319  1
  I  I56  1  0.16777255  0.00307787  0.83675338  1
  I  I57  1  0.16761017  0.33321012  0.16023639  1
  I  I58  1  0.16495333  0.33330157  0.49667255  1
  I  I59  1  0.16725987  0.33256426  0.84116669  1
  I  I60  1  0.16664772  0.66742777  0.16548872  1
  I  I61  1  0.16565530  0.67024282  0.49534326  1
  I  I62  1  0.17113410  0.66353742  0.83701902  1
  I  I63  1  0.49673203  -0.00267757  0.16481211  1
  I  I64  1  0.50090207  0.00271520  0.50828554  1
  I  I65  1  0.49889840  0.00328033  0.83064361  1
  I  I66  1  0.49884929  0.33349228  0.16898588  1
  I  I67  1  0.49963163  0.32982925  0.50219209  1
  I  I68  1  0.49843486  0.33205904  0.82922913  1
  I  I69  1  0.49711155  0.67039133  0.16652852  1
  I  I70  1  0.49864348  0.66667134  0.50132295  1
  I  I71  1  0.49374669  0.66358497  0.83528558  1
  I  I72  1  0.83582603  -0.00362934  0.17320162  1
  I  I73  1  0.83660344  -0.00305359  0.49663256  1
  I  I74  1  0.83380841  0.00372675  0.83187972  1
  I  I75  1  0.83399755  0.33333587  0.16834544  1
  I  I76  1  0.83354438  0.33517524  0.50402594  1
  I  I77  1  0.83383606  0.32996713  0.83033410  1
  I  I78  1  0.83568760  0.67043600  0.16642771  1
  I  I79  1  0.83743734  0.66826055  0.49773124  1
  I  I80  1  0.83311033  0.66654621  0.83457554  1
  I  I81  1  0.16859502  0.16351974  -0.00062926  1
  I  I82  1  0.16877532  0.16740488  0.33067483  1
  I  I83  1  0.16535868  0.16996563  0.66995381  1
  I  I84  1  0.16950914  0.50189486  -0.00015512  1
  I  I85  1  0.16447057  0.49837557  0.33067340  1
  I  I86  1  0.16883691  0.49536785  0.66981380  1
  I  I87  1  0.16587593  0.83412426  0.00319724  1
  I  I88  1  0.16592219  0.83408106  0.33156998  1
  I  I89  1  0.16066171  0.83402171  0.66379533  1
  I  I90  1  0.50102625  0.16845077  -0.00327620  1
  I  I91  1  0.49907116  0.16255092  0.33511812  1
  I  I92  1  0.49787770  0.16784764  0.66867239  1
  I  I93  1  0.49981049  0.49225528  -0.00368360  1
  I  I94  1  0.49915611  0.49872609  0.33319520  1
  I  I95  1  0.49212483  0.49898411  0.67021723  1
  I  I96  1  0.49743869  0.83664390  0.00385649  1
  I  I97  1  0.49810531  0.83627459  0.33003187  1
  I  I98  1  0.49977925  0.83293552  0.66670206  1
  I  I99  1  0.82782331  0.16588667  -0.00363780  1
  I  I100  1  0.83259026  0.16806519  0.33318360  1
  I  I101  1  0.83828418  0.16482026  0.66964439  1
  I  I102  1  0.83186979  0.50130993  0.00004684  1
  I  I103  1  0.83475996  0.50070589  0.33661548  1
  I  I104  1  0.83547259  0.50769928  0.66399358  1
  I  I105  1  0.83546733  0.83549796  0.00307250  1
  I  I106  1  0.83543437  0.83083207  0.33326963  1
  I  I107  1  0.83877914  0.83077702  0.66335084  1
  I  I108  1  0.00434384  0.16398688  0.16192288  1
  I  I109  1  0.00004736  0.16711375  0.50148549  1
  I  I110  1  0.00154137  0.16931758  0.83770607  1
  I  I111  1  0.00418793  0.50227683  0.15874822  1
  I  I112  1  -0.00241600  0.50155891  0.50202923  1
  I  I113  1  0.00314041  0.49640577  0.83653740  1
  I  I114  1  0.00112451  0.83410379  0.17102893  1
  I  I115  1  -0.00017766  0.83148508  0.49212945  1
  I  I116  1  0.00015815  0.83403706  0.83711707  1
  I  I117  1  0.32962373  0.16242912  0.16102089  1
  I  I118  1  0.33600642  0.16428878  0.50638690  1
  I  I119  1  0.33293463  0.16997040  0.83356646  1
  I  I120  1  0.32942705  0.50244696  0.16617517  1
  I  I121  1  0.33334118  0.50127948  0.49858220  1
  I  I122  1  0.33228859  0.49203085  0.83667554  1
  I  I123  1  0.33145236  0.83424772  0.16971112  1
  I  I124  1  0.33099993  0.83516656  0.49529699  1
  I  I125  1  0.33322667  0.83790120  0.83327718  1
  I  I126  1  0.66671472  0.16319666  0.16575055  1
  I  I127  1  0.66355942  0.16399398  0.50746822  1
  I  I128  1  0.66555930  0.16827957  0.82742941  1
  I  I129  1  0.66680964  0.50215560  0.16567544  1
  I  I130  1  0.67004493  0.50856615  0.50256686  1
  I  I131  1  0.66437739  0.49589019  0.83117919  1
  I  I132  1  0.66735790  0.83536049  0.17025945  1
  I  I133  1  0.66955745  0.83113496  0.49578575  1
  I  I134  1  0.66669358  0.83403118  0.83417525  1
