# generated using pymatgen
data_Cs27Sn13Pb14I81
_symmetry_space_group_name_H-M   'P 1'
_cell_length_a   18.99857090
_cell_length_b   18.99561281
_cell_length_c   18.97888499
_cell_angle_alpha   90.00319066
_cell_angle_beta   89.99883453
_cell_angle_gamma   90.00088670
_symmetry_Int_Tables_number   1
_chemical_formula_structural   Cs27Sn13Pb14I81
_chemical_formula_sum   'Cs27 Sn13 Pb14 I81'
_cell_volume   6849.28024074
_cell_formula_units_Z   1
loop_
 _symmetry_equiv_pos_site_id
 _symmetry_equiv_pos_as_xyz
  1  'x, y, z'
loop_
 _atom_site_type_symbol
 _atom_site_label
 _atom_site_symmetry_multiplicity
 _atom_site_fract_x
 _atom_site_fract_y
 _atom_site_fract_z
 _atom_site_occupancy
  Cs  Cs0  1  0.00057896  0.00051766  0.00245576  1
  Cs  Cs1  1  -0.00040742  0.00179786  0.33488740  1
  Cs  Cs2  1  -0.00152480  0.00169876  0.66520582  1
  Cs  Cs3  1  0.00216838  0.33215468  -0.00170984  1
  Cs  Cs4  1  -0.00426847  0.33326029  0.33063903  1
  Cs  Cs5  1  -0.00174347  0.33144138  0.66911795  1
  Cs  Cs6  1  0.00176281  0.66761679  -0.00063612  1
  Cs  Cs7  1  0.00119565  0.66336394  0.33830222  1
  Cs  Cs8  1  0.00150161  0.66643173  0.66406440  1
  Cs  Cs9  1  0.33196564  -0.00135773  0.00189431  1
  Cs  Cs10  1  0.33583946  0.00350230  0.33353071  1
  Cs  Cs11  1  0.33354165  0.00051356  0.66570396  1
  Cs  Cs12  1  0.32992989  0.33410292  -0.00321078  1
  Cs  Cs13  1  0.34489014  0.33107871  0.33286454  1
  Cs  Cs14  1  0.33547017  0.33221769  0.66864360  1
  Cs  Cs15  1  0.33214834  0.66722168  -0.00071862  1
  Cs  Cs16  1  0.33091958  0.66505718  0.33652815  1
  Cs  Cs17  1  0.33004922  0.66758168  0.66526160  1
  Cs  Cs18  1  0.66791085  -0.01184810  0.00604551  1
  Cs  Cs19  1  0.66428657  0.00041000  0.33167573  1
  Cs  Cs20  1  0.66832657  -0.00068987  0.66603876  1
  Cs  Cs21  1  0.66777233  0.33483879  0.00017233  1
  Cs  Cs22  1  0.65853375  0.34225124  0.32675525  1
  Cs  Cs23  1  0.66681735  0.33108216  0.66627853  1
  Cs  Cs24  1  0.66565297  0.67596914  0.00606226  1
  Cs  Cs25  1  0.66676615  0.65886202  0.32616115  1
  Cs  Cs26  1  0.66830109  0.67071510  0.66751899  1
  Sn  Sn27  1  0.16658595  0.50049448  0.16621401  1
  Sn  Sn28  1  0.83349928  0.16647665  0.50029327  1
  Sn  Sn29  1  0.16602017  0.16727180  0.50063953  1
  Sn  Sn30  1  0.83205379  0.83381597  0.50007521  1
  Sn  Sn31  1  0.16649107  0.50010641  0.83348824  1
  Sn  Sn32  1  0.50132544  0.83309294  0.50029899  1
  Sn  Sn33  1  0.50050498  0.49987168  0.83302397  1
  Sn  Sn34  1  0.16641435  0.83367274  0.83357606  1
  Sn  Sn35  1  0.83285360  0.16684228  0.83334956  1
  Sn  Sn36  1  0.50066381  0.16656672  0.83348879  1
  Sn  Sn37  1  0.16634323  0.83254193  0.16645818  1
  Sn  Sn38  1  0.83302463  0.49982910  0.83310464  1
  Sn  Sn39  1  0.16660620  0.16631507  0.83239343  1
  Pb  Pb40  1  0.50007130  0.50263158  0.50295691  1
  Pb  Pb41  1  0.83315525  0.16669291  0.16664244  1
  Pb  Pb42  1  0.16627826  0.83535920  0.49977836  1
  Pb  Pb43  1  0.49759284  0.83344148  0.83200652  1
  Pb  Pb44  1  0.49695251  0.83314433  0.16991200  1
  Pb  Pb45  1  0.83606644  0.49999897  0.16314851  1
  Pb  Pb46  1  0.16668641  0.49623693  0.50010527  1
  Pb  Pb47  1  0.83331025  0.49899981  0.50208912  1
  Pb  Pb48  1  0.50102543  0.16542164  0.50201299  1
  Pb  Pb49  1  0.49700278  0.50014304  0.16310453  1
  Pb  Pb50  1  0.16665629  0.16723178  0.16678454  1
  Pb  Pb51  1  0.83589816  0.83365656  0.83189519  1
  Pb  Pb52  1  0.50018994  0.16653794  0.16263041  1
  Pb  Pb53  1  0.83638782  0.83333521  0.17039207  1
  I  I54  1  0.16680000  -0.00235620  0.16233939  1
  I  I55  1  0.16586368  0.00289836  0.50557918  1
  I  I56  1  0.16713624  0.00081543  0.83302414  1
  I  I57  1  0.16576260  0.33613455  0.16051876  1
  I  I58  1  0.16034113  0.32854943  0.50598002  1
  I  I59  1  0.16682475  0.33326042  0.83385123  1
  I  I60  1  0.16689040  0.66658930  0.15673852  1
  I  I61  1  0.16654642  0.66656759  0.50278388  1
  I  I62  1  0.16713243  0.66619001  0.83758600  1
  I  I63  1  0.49632690  -0.00037960  0.16372008  1
  I  I64  1  0.49899933  -0.00225923  0.50422616  1
  I  I65  1  0.49839297  0.00275368  0.83032495  1
  I  I66  1  0.49709000  0.33351799  0.17192649  1
  I  I67  1  0.49867433  0.33321766  0.49858567  1
  I  I68  1  0.49422661  0.33306675  0.83219844  1
  I  I69  1  0.50113000  0.66666745  0.16432704  1
  I  I70  1  0.50350781  0.67048046  0.50313414  1
  I  I71  1  0.49825681  0.66399760  0.83090848  1
  I  I72  1  0.83679256  -0.00016226  0.16031905  1
  I  I73  1  0.83492158  0.00103744  0.50761697  1
  I  I74  1  0.83428071  0.00310951  0.83034352  1
  I  I75  1  0.83683622  0.33346298  0.17110480  1
  I  I76  1  0.84063103  0.32949913  0.50436172  1
  I  I77  1  0.83843925  0.33249773  0.82779764  1
  I  I78  1  0.83251422  0.66672090  0.16634447  1
  I  I79  1  0.83105816  0.66917866  0.50248261  1
  I  I80  1  0.83491558  0.66423976  0.83115120  1
  I  I81  1  0.16616595  0.16680831  -0.00377357  1
  I  I82  1  0.16093946  0.16423131  0.33644919  1
  I  I83  1  0.16612622  0.16565686  0.66889982  1
  I  I84  1  0.16683713  0.49879647  -0.00265177  1
  I  I85  1  0.16572853  0.50642774  0.33062430  1
  I  I86  1  0.16682709  0.50347160  0.67061132  1
  I  I87  1  0.16728546  0.83494966  -0.00171804  1
  I  I88  1  0.16668158  0.82909260  0.33098678  1
  I  I89  1  0.16709258  0.83063673  0.66932923  1
  I  I90  1  0.49633302  0.17069730  -0.00591356  1
  I  I91  1  0.49753143  0.16469646  0.33368815  1
  I  I92  1  0.49765273  0.17034137  0.67031349  1
  I  I93  1  0.50131589  0.49588874  -0.00499976  1
  I  I94  1  0.49822691  0.50031151  0.33303904  1
  I  I95  1  0.49471446  0.49530640  0.67121336  1
  I  I96  1  0.50067519  0.83368470  -0.00005866  1
  I  I97  1  0.50168351  0.83626929  0.33760886  1
  I  I98  1  0.50016901  0.83365233  0.66435240  1
  I  I99  1  0.83644700  0.17220618  -0.00439182  1
  I  I100  1  0.84246220  0.16014782  0.33719866  1
  I  I101  1  0.83580681  0.16643211  0.66794054  1
  I  I102  1  0.83220271  0.49260094  -0.00529259  1
  I  I103  1  0.83567616  0.50002872  0.33313738  1
  I  I104  1  0.83842790  0.49862812  0.67075127  1
  I  I105  1  0.83229770  0.83366592  -0.00002648  1
  I  I106  1  0.83206032  0.84162563  0.33826596  1
  I  I107  1  0.83342760  0.83504944  0.66410814  1
  I  I108  1  0.00024201  0.16646685  0.16269137  1
  I  I109  1  -0.00008545  0.15948431  0.50959302  1
  I  I110  1  0.00061703  0.16951667  0.82931022  1
  I  I111  1  0.00399279  0.50353517  0.16031755  1
  I  I112  1  0.00017610  0.50619761  0.50227713  1
  I  I113  1  0.00093326  0.49685825  0.83687596  1
  I  I114  1  0.00409665  0.83007689  0.16222920  1
  I  I115  1  -0.00202833  0.83629627  0.50070518  1
  I  I116  1  0.00396562  0.83290815  0.83406034  1
  I  I117  1  0.33298208  0.16589965  0.16888155  1
  I  I118  1  0.33106758  0.16440897  0.50455305  1
  I  I119  1  0.33202397  0.16942152  0.82951568  1
  I  I120  1  0.32920488  0.50367710  0.16018215  1
  I  I121  1  0.33310626  0.50154342  0.50258336  1
  I  I122  1  0.33218964  0.49691089  0.83692935  1
  I  I123  1  0.32918947  0.82999014  0.16297116  1
  I  I124  1  0.33456606  0.83489817  0.50111805  1
  I  I125  1  0.32948098  0.83349924  0.83339429  1
  I  I126  1  0.66666522  0.16641747  0.16783984  1
  I  I127  1  0.66992322  0.16239461  0.50738126  1
  I  I128  1  0.66741058  0.17602810  0.82754759  1
  I  I129  1  0.66649764  0.49929287  0.16681938  1
  I  I130  1  0.66671117  0.49622594  0.50254103  1
  I  I131  1  0.66686921  0.49067029  0.82914248  1
  I  I132  1  0.66669814  0.83396823  0.16449482  1
  I  I133  1  0.66755860  0.84055664  0.50470352  1
  I  I134  1  0.66681418  0.83273609  0.83297993  1
