# generated using pymatgen
data_Cs27Sn13Pb14I81
_symmetry_space_group_name_H-M   'P 1'
_cell_length_a   18.97580214
_cell_length_b   18.96991351
_cell_length_c   18.98472965
_cell_angle_alpha   89.99969872
_cell_angle_beta   90.00033595
_cell_angle_gamma   90.00174330
_symmetry_Int_Tables_number   1
_chemical_formula_structural   Cs27Sn13Pb14I81
_chemical_formula_sum   'Cs27 Sn13 Pb14 I81'
_cell_volume   6833.92032429
_cell_formula_units_Z   1
loop_
 _symmetry_equiv_pos_site_id
 _symmetry_equiv_pos_as_xyz
  1  'x, y, z'
loop_
 _atom_site_type_symbol
 _atom_site_label
 _atom_site_symmetry_multiplicity
 _atom_site_fract_x
 _atom_site_fract_y
 _atom_site_fract_z
 _atom_site_occupancy
  Cs  Cs0  1  -0.00070564  -0.00140465  -0.00089826  1
  Cs  Cs1  1  0.00182321  0.00031355  0.33456475  1
  Cs  Cs2  1  0.00148546  -0.00179426  0.66669215  1
  Cs  Cs3  1  -0.00116904  0.33698740  0.00356578  1
  Cs  Cs4  1  -0.00662197  0.33443331  0.33437147  1
  Cs  Cs5  1  0.00124916  0.33318699  0.66365502  1
  Cs  Cs6  1  0.00100578  0.66685365  -0.00113774  1
  Cs  Cs7  1  0.00037537  0.66625936  0.33123677  1
  Cs  Cs8  1  -0.00049963  0.66977752  0.66904276  1
  Cs  Cs9  1  0.33300716  0.00045040  0.00269003  1
  Cs  Cs10  1  0.33347753  0.00131066  0.33252839  1
  Cs  Cs11  1  0.33113575  0.00094224  0.66446409  1
  Cs  Cs12  1  0.33471600  0.33782079  -0.00208884  1
  Cs  Cs13  1  0.33251080  0.32694214  0.33405991  1
  Cs  Cs14  1  0.33287967  0.33363278  0.66842517  1
  Cs  Cs15  1  0.33351437  0.65955128  0.00609026  1
  Cs  Cs16  1  0.34111456  0.66649931  0.32695662  1
  Cs  Cs17  1  0.33445381  0.66426636  0.66627778  1
  Cs  Cs18  1  0.66889375  0.00136332  -0.00390105  1
  Cs  Cs19  1  0.66367437  -0.00033658  0.33265421  1
  Cs  Cs20  1  0.66766237  -0.00051317  0.67018203  1
  Cs  Cs21  1  0.66588927  0.33178563  -0.00087658  1
  Cs  Cs22  1  0.67494045  0.33975942  0.33355874  1
  Cs  Cs23  1  0.66628498  0.33409354  0.66764417  1
  Cs  Cs24  1  0.66757905  0.66686663  0.00041239  1
  Cs  Cs25  1  0.65942919  0.66070563  0.33384509  1
  Cs  Cs26  1  0.66655477  0.66780838  0.66491229  1
  Sn  Sn27  1  0.16755538  0.83371949  0.83307227  1
  Sn  Sn28  1  0.49891165  0.83330069  0.83338310  1
  Sn  Sn29  1  0.83364538  0.83363359  0.49943481  1
  Sn  Sn30  1  0.16699749  0.16642069  0.16655160  1
  Sn  Sn31  1  0.49976556  0.16638443  0.16748226  1
  Sn  Sn32  1  0.49986072  0.16645650  0.49945604  1
  Sn  Sn33  1  0.16718324  0.16669059  0.49999512  1
  Sn  Sn34  1  0.16644037  0.16618420  0.83356174  1
  Sn  Sn35  1  0.16646710  0.83261052  0.50022391  1
  Sn  Sn36  1  0.83353281  0.50055351  0.83298345  1
  Sn  Sn37  1  0.83334231  0.83361492  0.16723454  1
  Sn  Sn38  1  0.16698090  0.50073933  0.49969232  1
  Sn  Sn39  1  0.83344588  0.83249311  0.83315526  1
  Pb  Pb40  1  0.49941945  0.83517942  0.50160185  1
  Pb  Pb41  1  0.83347769  0.50304859  0.16430453  1
  Pb  Pb42  1  0.16544773  0.83488094  0.16681471  1
  Pb  Pb43  1  0.49752893  0.16494197  0.83322608  1
  Pb  Pb44  1  0.16663186  0.49679675  0.16984227  1
  Pb  Pb45  1  0.50004265  0.49633975  0.16670116  1
  Pb  Pb46  1  0.83606871  0.16653809  0.83321788  1
  Pb  Pb47  1  0.83546461  0.50312017  0.50202340  1
  Pb  Pb48  1  0.49744252  0.49676603  0.50015501  1
  Pb  Pb49  1  0.83322060  0.16474257  0.16674980  1
  Pb  Pb50  1  0.83331631  0.16449512  0.50011462  1
  Pb  Pb51  1  0.16511433  0.50040454  0.83167917  1
  Pb  Pb52  1  0.50238065  0.83552914  0.16413007  1
  Pb  Pb53  1  0.50255623  0.50284287  0.83308373  1
  I  I54  1  0.16901012  0.00318476  0.17043000  1
  I  I55  1  0.16597862  0.00003264  0.50142681  1
  I  I56  1  0.16417664  -0.00099420  0.82875322  1
  I  I57  1  0.17010886  0.32823953  0.16410023  1
  I  I58  1  0.17159460  0.33173772  0.50108935  1
  I  I59  1  0.16501871  0.33048434  0.83182720  1
  I  I60  1  0.16447721  0.66671221  0.16608284  1
  I  I61  1  0.15980461  0.66828403  0.50754599  1
  I  I62  1  0.16631642  0.67040391  0.82792786  1
  I  I63  1  0.49514525  0.00327140  0.17066053  1
  I  I64  1  0.49345598  0.00306889  0.49724657  1
  I  I65  1  0.50587713  -0.00301528  0.83295160  1
  I  I66  1  0.49512195  0.32809225  0.16883412  1
  I  I67  1  0.49412343  0.32843689  0.49789151  1
  I  I68  1  0.50088912  0.33305431  0.83380347  1
  I  I69  1  0.50115940  0.66695614  0.16562295  1
  I  I70  1  0.49958383  0.66684635  0.50170396  1
  I  I71  1  0.49533120  0.67129065  0.83204586  1
  I  I72  1  0.83439045  -0.00335038  0.16231373  1
  I  I73  1  0.83947388  -0.00393692  0.50437640  1
  I  I74  1  0.83214295  -0.00384675  0.83326932  1
  I  I75  1  0.83320478  0.33337650  0.16468042  1
  I  I76  1  0.83440536  0.33354279  0.50158716  1
  I  I77  1  0.83576141  0.33582034  0.83326770  1
  I  I78  1  0.83514306  0.67128313  0.16781979  1
  I  I79  1  0.83895012  0.67142889  0.49981090  1
  I  I80  1  0.83600928  0.66955819  0.83322558  1
  I  I81  1  0.16918895  0.16003533  -0.00042022  1
  I  I82  1  0.17102857  0.16540347  0.33435933  1
  I  I83  1  0.16956810  0.16511906  0.66590103  1
  I  I84  1  0.16515017  0.49948840  -0.00001407  1
  I  I85  1  0.16513683  0.50192374  0.33785970  1
  I  I86  1  0.16506548  0.49524773  0.66388050  1
  I  I87  1  0.16420516  0.83902992  -0.00316740  1
  I  I88  1  0.16080246  0.83546434  0.33662507  1
  I  I89  1  0.16138837  0.83893999  0.66674404  1
  I  I90  1  0.49593524  0.16404263  0.00230487  1
  I  I91  1  0.48996945  0.16376157  0.33379468  1
  I  I92  1  0.49513195  0.16474382  0.66413976  1
  I  I93  1  0.49939386  0.49814460  -0.00027276  1
  I  I94  1  0.50055482  0.50450935  0.33356436  1
  I  I95  1  0.50023631  0.49680578  0.66665471  1
  I  I96  1  0.49993602  0.83686293  -0.00377213  1
  I  I97  1  0.50100695  0.83345352  0.33328421  1
  I  I98  1  0.50445688  0.83690988  0.66948685  1
  I  I99  1  0.83369477  0.16327949  -0.00014333  1
  I  I100  1  0.83791024  0.16363692  0.33348493  1
  I  I101  1  0.83270282  0.16407953  0.66671602  1
  I  I102  1  0.83574567  0.50608611  -0.00359076  1
  I  I103  1  0.83433137  0.50053000  0.33357475  1
  I  I104  1  0.83465450  0.50656942  0.66968140  1
  I  I105  1  0.83378857  0.83084629  -0.00151352  1
  I  I106  1  0.84048362  0.83743452  0.33428045  1
  I  I107  1  0.83506559  0.83047600  0.66736883  1
  I  I108  1  0.00324316  0.16500811  0.16760500  1
  I  I109  1  0.00383162  0.16760549  0.49971247  1
  I  I110  1  0.00444329  0.16017522  0.83182510  1
  I  I111  1  0.00005625  0.49644783  0.16666829  1
  I  I112  1  0.00333849  0.49332733  0.50098180  1
  I  I113  1  -0.00257989  0.50694195  0.83236661  1
  I  I114  1  -0.00257007  0.83664424  0.16224211  1
  I  I115  1  0.00114973  0.83625649  0.50503987  1
  I  I116  1  0.00021676  0.83399880  0.83222593  1
  I  I117  1  0.33213616  0.16419945  0.16858303  1
  I  I118  1  0.33118671  0.16409596  0.49934094  1
  I  I119  1  0.32930253  0.16102391  0.83202408  1
  I  I120  1  0.33307795  0.50474665  0.16486571  1
  I  I121  1  0.32915230  0.50515131  0.50274997  1
  I  I122  1  0.33313296  0.50051913  0.83238638  1
  I  I123  1  0.33347980  0.83327435  0.16627188  1
  I  I124  1  0.32965615  0.83353616  0.50571080  1
  I  I125  1  0.33178066  0.84012713  0.82702907  1
  I  I126  1  0.66366240  0.16382734  0.17084572  1
  I  I127  1  0.66375945  0.16335827  0.49550580  1
  I  I128  1  0.66655683  0.16502912  0.83379405  1
  I  I129  1  0.66695122  0.49800466  0.16682982  1
  I  I130  1  0.66686770  0.49936544  0.50080901  1
  I  I131  1  0.67065266  0.50546466  0.83267580  1
  I  I132  1  0.67036850  0.83658553  0.16611276  1
  I  I133  1  0.66917426  0.83654570  0.50277554  1
  I  I134  1  0.66788370  0.82996398  0.83311798  1
