# generated using pymatgen
data_Cs27Sn14Pb13I81
_symmetry_space_group_name_H-M   'P 1'
_cell_length_a   18.96705970
_cell_length_b   18.98658483
_cell_length_c   18.97284936
_cell_angle_alpha   89.99996894
_cell_angle_beta   90.00264547
_cell_angle_gamma   89.99986898
_symmetry_Int_Tables_number   1
_chemical_formula_structural   Cs27Sn14Pb13I81
_chemical_formula_sum   'Cs27 Sn14 Pb13 I81'
_cell_volume   6832.49658804
_cell_formula_units_Z   1
loop_
 _symmetry_equiv_pos_site_id
 _symmetry_equiv_pos_as_xyz
  1  'x, y, z'
loop_
 _atom_site_type_symbol
 _atom_site_label
 _atom_site_symmetry_multiplicity
 _atom_site_fract_x
 _atom_site_fract_y
 _atom_site_fract_z
 _atom_site_occupancy
  Cs  Cs0  1  0.00091544  0.00225696  -0.00027994  1
  Cs  Cs1  1  -0.00254727  0.00266269  0.33456439  1
  Cs  Cs2  1  0.00334066  0.00352321  0.66595078  1
  Cs  Cs3  1  -0.00083433  0.33254819  0.00010483  1
  Cs  Cs4  1  -0.00102127  0.33165585  0.33311125  1
  Cs  Cs5  1  0.00204431  0.33105018  0.66676827  1
  Cs  Cs6  1  0.00523637  0.66550154  0.00083541  1
  Cs  Cs7  1  -0.00207139  0.66683003  0.33643095  1
  Cs  Cs8  1  0.00008781  0.66683202  0.66286300  1
  Cs  Cs9  1  0.33529380  -0.00647595  0.00290226  1
  Cs  Cs10  1  0.33524795  0.00344419  0.33202739  1
  Cs  Cs11  1  0.33103507  0.00071340  0.66563592  1
  Cs  Cs12  1  0.33187686  0.33918308  0.00237774  1
  Cs  Cs13  1  0.34293802  0.33141737  0.33596261  1
  Cs  Cs14  1  0.33195865  0.33004783  0.66246988  1
  Cs  Cs15  1  0.32369346  0.66784230  0.00609348  1
  Cs  Cs16  1  0.33339296  0.66525599  0.32785420  1
  Cs  Cs17  1  0.33401834  0.66761639  0.66783692  1
  Cs  Cs18  1  0.66572553  0.00031187  -0.00185594  1
  Cs  Cs19  1  0.66829343  -0.00032437  0.33103219  1
  Cs  Cs20  1  0.66701453  -0.00564539  0.67068316  1
  Cs  Cs21  1  0.66898515  0.33232938  -0.00246347  1
  Cs  Cs22  1  0.66344547  0.33405250  0.33309762  1
  Cs  Cs23  1  0.66582684  0.33508899  0.66941448  1
  Cs  Cs24  1  0.66697955  0.66750660  -0.00388704  1
  Cs  Cs25  1  0.66847892  0.66574309  0.33460760  1
  Cs  Cs26  1  0.66631022  0.66795076  0.66753140  1
  Sn  Sn27  1  0.49960536  0.16662109  0.83339684  1
  Sn  Sn28  1  0.49874531  0.83312051  0.50024451  1
  Sn  Sn29  1  0.83348823  0.83244109  0.83426790  1
  Sn  Sn30  1  0.83318709  0.50106386  0.83323524  1
  Sn  Sn31  1  0.16636686  0.50056534  0.49981283  1
  Sn  Sn32  1  0.16630879  0.16687268  0.16661992  1
  Sn  Sn33  1  0.50017659  0.50056594  0.83329035  1
  Sn  Sn34  1  0.16809657  0.83267077  0.49983954  1
  Sn  Sn35  1  0.83275180  0.16776545  0.49982901  1
  Sn  Sn36  1  0.83379227  0.49870287  0.50028618  1
  Sn  Sn37  1  0.83334430  0.83319674  0.16524414  1
  Sn  Sn38  1  0.50028739  0.83270235  0.83268673  1
  Sn  Sn39  1  0.83389063  0.16682385  0.16743771  1
  Sn  Sn40  1  0.83332160  0.50008742  0.16651006  1
  Pb  Pb41  1  0.17007281  0.16668128  0.83633298  1
  Pb  Pb42  1  0.50064015  0.16677351  0.16421807  1
  Pb  Pb43  1  0.16424565  0.49779094  0.16986962  1
  Pb  Pb44  1  0.50226797  0.83307418  0.16635207  1
  Pb  Pb45  1  0.16629740  0.83328722  0.83137311  1
  Pb  Pb46  1  0.50262039  0.50023331  0.16360984  1
  Pb  Pb47  1  0.50038355  0.50203359  0.50197014  1
  Pb  Pb48  1  0.83322331  0.83324498  0.50049135  1
  Pb  Pb49  1  0.16616804  0.49995370  0.83100624  1
  Pb  Pb50  1  0.50315136  0.16404402  0.50214185  1
  Pb  Pb51  1  0.16494538  0.16695050  0.49819127  1
  Pb  Pb52  1  0.16362267  0.83515748  0.16967074  1
  Pb  Pb53  1  0.83240044  0.16663496  0.83341847  1
  I  I54  1  0.15957144  0.00273520  0.16856584  1
  I  I55  1  0.16807460  -0.00233005  0.49944372  1
  I  I56  1  0.16456142  -0.00004795  0.82953585  1
  I  I57  1  0.15927468  0.33033490  0.16708887  1
  I  I58  1  0.16230409  0.33591011  0.50003479  1
  I  I59  1  0.16598405  0.33336021  0.83029215  1
  I  I60  1  0.16607568  0.66654584  0.16563382  1
  I  I61  1  0.16209102  0.66644173  0.50127949  1
  I  I62  1  0.17007243  0.66660934  0.83561542  1
  I  I63  1  0.50334649  -0.00008821  0.16424458  1
  I  I64  1  0.49625392  -0.00367387  0.50616880  1
  I  I65  1  0.50565786  -0.00142781  0.83004928  1
  I  I66  1  0.50171171  0.33341711  0.16524380  1
  I  I67  1  0.49744048  0.33336321  0.50204171  1
  I  I68  1  0.50663857  0.33423585  0.83487572  1
  I  I69  1  0.50143805  0.66670505  0.16586388  1
  I  I70  1  0.50268941  0.66981612  0.50663070  1
  I  I71  1  0.50782692  0.66722887  0.82756165  1
  I  I72  1  0.83623099  0.00024769  0.16800117  1
  I  I73  1  0.83307270  0.00169318  0.49660907  1
  I  I74  1  0.82829378  -0.00259721  0.83522508  1
  I  I75  1  0.83717653  0.33341053  0.16677151  1
  I  I76  1  0.83900761  0.33462801  0.49794805  1
  I  I77  1  0.82870158  0.33612029  0.83476613  1
  I  I78  1  0.83095094  0.66635043  0.16734461  1
  I  I79  1  0.83402581  0.66425933  0.49792414  1
  I  I80  1  0.82510906  0.66638286  0.83494268  1
  I  I81  1  0.15651299  0.16676221  0.00377750  1
  I  I82  1  0.16209723  0.16564534  0.33052253  1
  I  I83  1  0.16514722  0.16633548  0.66632698  1
  I  I84  1  0.16705630  0.49868795  0.00037723  1
  I  I85  1  0.15995150  0.50495804  0.33752570  1
  I  I86  1  0.15964026  0.50271077  0.66315245  1
  I  I87  1  0.16918673  0.83479616  0.00044490  1
  I  I88  1  0.17067271  0.82898347  0.33744690  1
  I  I89  1  0.16419786  0.83099417  0.66330276  1
  I  I90  1  0.50400762  0.16329538  -0.00371835  1
  I  I91  1  0.49895522  0.16486402  0.33341945  1
  I  I92  1  0.50296006  0.16883470  0.66995657  1
  I  I93  1  0.50601758  0.50182687  -0.00482197  1
  I  I94  1  0.50071878  0.50109694  0.33356515  1
  I  I95  1  0.50733910  0.49902839  0.67003985  1
  I  I96  1  0.50418077  0.83474933  -0.00361202  1
  I  I97  1  0.49858368  0.83373142  0.33614667  1
  I  I98  1  0.50408861  0.83339042  0.66795799  1
  I  I99  1  0.83498493  0.16850390  0.00270766  1
  I  I100  1  0.83688461  0.16784397  0.33268150  1
  I  I101  1  0.83159392  0.16898018  0.66442423  1
  I  I102  1  0.82734169  0.49961813  -0.00031008  1
  I  I103  1  0.83870468  0.50032082  0.33365048  1
  I  I104  1  0.83276653  0.50069462  0.66672963  1
  I  I105  1  0.82695289  0.83184182  -0.00076320  1
  I  I106  1  0.83367313  0.83199879  0.33148207  1
  I  I107  1  0.83125821  0.83047019  0.66920297  1
  I  I108  1  -0.00265378  0.16622659  0.17040005  1
  I  I109  1  -0.00338671  0.16483972  0.49960490  1
  I  I110  1  -0.00011199  0.16614065  0.83114278  1
  I  I111  1  -0.00445191  0.50218656  0.16122454  1
  I  I112  1  -0.00197864  0.50319296  0.50189023  1
  I  I113  1  -0.00396534  0.50466686  0.83522544  1
  I  I114  1  -0.00464702  0.83099066  0.16235224  1
  I  I115  1  0.00148442  0.83226793  0.49917554  1
  I  I116  1  -0.00357736  0.82838784  0.83571395  1
  I  I117  1  0.33095318  0.16569304  0.16551164  1
  I  I118  1  0.33361693  0.16891461  0.49861791  1
  I  I119  1  0.33812615  0.16599988  0.83264841  1
  I  I120  1  0.33303231  0.49763647  0.16630472  1
  I  I121  1  0.33108325  0.50213834  0.50279861  1
  I  I122  1  0.33639085  0.50029284  0.83073715  1
  I  I123  1  0.33300933  0.83611844  0.16425841  1
  I  I124  1  0.33363009  0.82892663  0.50725759  1
  I  I125  1  0.33668348  0.83349571  0.83016297  1
  I  I126  1  0.67052413  0.16665100  0.16956006  1
  I  I127  1  0.67102405  0.17182208  0.49284745  1
  I  I128  1  0.66445958  0.16594747  0.83452461  1
  I  I129  1  0.67156535  0.49688019  0.17310582  1
  I  I130  1  0.67017846  0.49799815  0.49813976  1
  I  I131  1  0.66816838  0.50073902  0.83134570  1
  I  I132  1  0.67090734  0.83640640  0.16835568  1
  I  I133  1  0.66491773  0.83395265  0.50217739  1
  I  I134  1  0.66689406  0.83291476  0.83058236  1
