# generated using pymatgen
data_Cs27Sn13Pb14I81
_symmetry_space_group_name_H-M   'P 1'
_cell_length_a   18.97438882
_cell_length_b   18.97537220
_cell_length_c   18.98288595
_cell_angle_alpha   89.99919231
_cell_angle_beta   89.99949410
_cell_angle_gamma   90.00337369
_symmetry_Int_Tables_number   1
_chemical_formula_structural   Cs27Sn13Pb14I81
_chemical_formula_sum   'Cs27 Sn13 Pb14 I81'
_cell_volume   6834.71385423
_cell_formula_units_Z   1
loop_
 _symmetry_equiv_pos_site_id
 _symmetry_equiv_pos_as_xyz
  1  'x, y, z'
loop_
 _atom_site_type_symbol
 _atom_site_label
 _atom_site_symmetry_multiplicity
 _atom_site_fract_x
 _atom_site_fract_y
 _atom_site_fract_z
 _atom_site_occupancy
  Cs  Cs0  1  0.00264633  0.00587821  0.00168271  1
  Cs  Cs1  1  -0.00262090  0.00061708  0.33254385  1
  Cs  Cs2  1  0.00011318  -0.00076214  0.66693243  1
  Cs  Cs3  1  0.00585588  0.32449940  -0.00417087  1
  Cs  Cs4  1  0.00248486  0.33386110  0.33179239  1
  Cs  Cs5  1  -0.00440105  0.33217676  0.67142689  1
  Cs  Cs6  1  0.00238179  0.66747526  -0.00280197  1
  Cs  Cs7  1  0.00018170  0.66550267  0.33453320  1
  Cs  Cs8  1  0.00074196  0.66821059  0.66585704  1
  Cs  Cs9  1  0.33172017  0.00096982  -0.00258168  1
  Cs  Cs10  1  0.33568133  -0.00205649  0.33579308  1
  Cs  Cs11  1  0.33413454  -0.00122131  0.66569007  1
  Cs  Cs12  1  0.33207848  0.33296002  0.00265543  1
  Cs  Cs13  1  0.33250013  0.33422877  0.33323864  1
  Cs  Cs14  1  0.33583384  0.33541437  0.66385822  1
  Cs  Cs15  1  0.32978101  0.66555007  -0.00448093  1
  Cs  Cs16  1  0.33282196  0.66703420  0.33434290  1
  Cs  Cs17  1  0.33023387  0.66619891  0.66769034  1
  Cs  Cs18  1  0.66689539  -0.00215076  0.00397275  1
  Cs  Cs19  1  0.66747221  -0.00222897  0.33093836  1
  Cs  Cs20  1  0.66579899  0.00004481  0.66513158  1
  Cs  Cs21  1  0.66488959  0.33694945  -0.00322630  1
  Cs  Cs22  1  0.66602098  0.33423718  0.33430137  1
  Cs  Cs23  1  0.66761658  0.33380443  0.66798622  1
  Cs  Cs24  1  0.66777516  0.66531602  0.00142961  1
  Cs  Cs25  1  0.66653650  0.66788463  0.33256467  1
  Cs  Cs26  1  0.66748661  0.66630435  0.66665573  1
  Sn  Sn27  1  0.16713621  0.16600073  0.50001256  1
  Sn  Sn28  1  0.83245337  0.50071631  0.49905863  1
  Sn  Sn29  1  0.16665506  0.83329149  0.16766049  1
  Sn  Sn30  1  0.49953086  0.16728605  0.49965650  1
  Sn  Sn31  1  0.50023557  0.16566737  0.83317863  1
  Sn  Sn32  1  0.83231118  0.83346133  0.83285529  1
  Sn  Sn33  1  0.16569361  0.83427173  0.49884355  1
  Sn  Sn34  1  0.50110461  0.83386812  0.83315640  1
  Sn  Sn35  1  0.50072887  0.49952031  0.16775879  1
  Sn  Sn36  1  0.83388780  0.83272041  0.50044570  1
  Sn  Sn37  1  0.50029787  0.16716410  0.16711111  1
  Sn  Sn38  1  0.50094101  0.49942645  0.49907933  1
  Sn  Sn39  1  0.83322550  0.49974973  0.16712849  1
  Pb  Pb40  1  0.83537910  0.83145493  0.16669128  1
  Pb  Pb41  1  0.83091174  0.16992881  0.16675711  1
  Pb  Pb42  1  0.83335172  0.50203749  0.83343827  1
  Pb  Pb43  1  0.16925803  0.16450319  0.16932276  1
  Pb  Pb44  1  0.16629517  0.83357160  0.83273546  1
  Pb  Pb45  1  0.83304766  0.16689186  0.49984698  1
  Pb  Pb46  1  0.16625451  0.49974482  0.50013531  1
  Pb  Pb47  1  0.49816200  0.83260689  0.16415717  1
  Pb  Pb48  1  0.16950612  0.16657586  0.83014877  1
  Pb  Pb49  1  0.16667850  0.50177303  0.16676475  1
  Pb  Pb50  1  0.50018526  0.83290984  0.50143786  1
  Pb  Pb51  1  0.49993570  0.49992125  0.83328079  1
  Pb  Pb52  1  0.83063377  0.16373843  0.83344862  1
  Pb  Pb53  1  0.16637691  0.49946001  0.83326887  1
  I  I54  1  0.16757589  -0.00332269  0.16832905  1
  I  I55  1  0.16840173  -0.00080915  0.49692730  1
  I  I56  1  0.16571343  -0.00012293  0.83517620  1
  I  I57  1  0.16531285  0.33307919  0.16755854  1
  I  I58  1  0.17003492  0.33055288  0.50050253  1
  I  I59  1  0.16811106  0.33260624  0.83238682  1
  I  I60  1  0.16942810  0.66972917  0.17316245  1
  I  I61  1  0.16643324  0.66963827  0.49747071  1
  I  I62  1  0.17089208  0.66748522  0.83163425  1
  I  I63  1  0.49714094  0.00250046  0.16920484  1
  I  I64  1  0.49880086  0.00245534  0.49871741  1
  I  I65  1  0.50333106  0.00038308  0.83220807  1
  I  I66  1  0.50336301  0.33342181  0.16571744  1
  I  I67  1  0.49918837  0.33295063  0.50178895  1
  I  I68  1  0.49836003  0.33035330  0.83255488  1
  I  I69  1  0.50242231  0.66358449  0.17089778  1
  I  I70  1  0.50071069  0.66398952  0.49681182  1
  I  I71  1  0.50295233  0.66941788  0.83287196  1
  I  I72  1  0.83256976  -0.00020187  0.16688034  1
  I  I73  1  0.83411158  -0.00302961  0.50464580  1
  I  I74  1  0.83174712  -0.00436694  0.82587883  1
  I  I75  1  0.83187866  0.33804522  0.17519701  1
  I  I76  1  0.83187090  0.33652790  0.49582086  1
  I  I77  1  0.83262588  0.33334048  0.83183108  1
  I  I78  1  0.82551389  0.66371356  0.16865323  1
  I  I79  1  0.83284285  0.66692772  0.50047678  1
  I  I80  1  0.82616193  0.67020076  0.83131577  1
  I  I81  1  0.16756684  0.16496299  0.00015822  1
  I  I82  1  0.17319521  0.16461020  0.33702614  1
  I  I83  1  0.17222173  0.15958624  0.66224245  1
  I  I84  1  0.16803967  0.50462398  0.00054649  1
  I  I85  1  0.16746829  0.49978054  0.33359783  1
  I  I86  1  0.16877936  0.50367841  0.66585046  1
  I  I87  1  0.16832165  0.83069356  0.00211408  1
  I  I88  1  0.16262398  0.83633210  0.33521548  1
  I  I89  1  0.16592550  0.83653380  0.66330895  1
  I  I90  1  0.50209864  0.16656347  0.00022202  1
  I  I91  1  0.49566281  0.17168790  0.33411291  1
  I  I92  1  0.49589284  0.16640321  0.66569402  1
  I  I93  1  0.50381887  0.49782013  0.00310095  1
  I  I94  1  0.50354567  0.49284913  0.33399473  1
  I  I95  1  0.50355407  0.49696555  0.66337006  1
  I  I96  1  0.50373948  0.83684867  -0.00359114  1
  I  I97  1  0.50145397  0.83585035  0.33334933  1
  I  I98  1  0.49927091  0.83693165  0.66923343  1
  I  I99  1  0.83216457  0.16608950  0.00008788  1
  I  I100  1  0.83058650  0.16057064  0.33354236  1
  I  I101  1  0.83127155  0.17108260  0.66641168  1
  I  I102  1  0.82645479  0.50249311  0.00310742  1
  I  I103  1  0.82799952  0.50668262  0.33463530  1
  I  I104  1  0.82872131  0.50196060  0.66319114  1
  I  I105  1  0.82971285  0.83152023  -0.00240047  1
  I  I106  1  0.83554476  0.83116775  0.33636279  1
  I  I107  1  0.83497156  0.82764206  0.66517198  1
  I  I108  1  0.00036812  0.16713204  0.16753001  1
  I  I109  1  0.00260925  0.16488146  0.49961447  1
  I  I110  1  0.00010378  0.16661804  0.83236127  1
  I  I111  1  -0.00308972  0.50477764  0.17272664  1
  I  I112  1  -0.00331206  0.50214854  0.49592952  1
  I  I113  1  -0.00064303  0.50379010  0.83220701  1
  I  I114  1  0.00305274  0.83081617  0.16702887  1
  I  I115  1  -0.00045054  0.83263440  0.50236819  1
  I  I116  1  -0.00288106  0.82954929  0.83109999  1
  I  I117  1  0.33750956  0.17324166  0.16418801  1
  I  I118  1  0.33494778  0.16572356  0.50043515  1
  I  I119  1  0.33788205  0.15907018  0.83534217  1
  I  I120  1  0.33689721  0.49685791  0.17088410  1
  I  I121  1  0.33648228  0.49914412  0.49647417  1
  I  I122  1  0.33413751  0.50487790  0.83243550  1
  I  I123  1  0.33063841  0.83216232  0.17279376  1
  I  I124  1  0.33127096  0.83410569  0.49854669  1
  I  I125  1  0.33602978  0.83683982  0.83320847  1
  I  I126  1  0.66213988  0.16495765  0.17060437  1
  I  I127  1  0.66300545  0.16731599  0.50072016  1
  I  I128  1  0.66220286  0.16577007  0.82893441  1
  I  I129  1  0.66550135  0.49781070  0.17117315  1
  I  I130  1  0.66608376  0.50047809  0.49659401  1
  I  I131  1  0.66643014  0.49900773  0.83287486  1
  I  I132  1  0.66653198  0.83510046  0.16824139  1
  I  I133  1  0.66906589  0.83228817  0.50290251  1
  I  I134  1  0.66654453  0.83695886  0.82736875  1
