# generated using pymatgen
data_Cs27Sn14Pb13I81
_symmetry_space_group_name_H-M   'P 1'
_cell_length_a   18.98006091
_cell_length_b   18.97112287
_cell_length_c   18.97413706
_cell_angle_alpha   89.99743695
_cell_angle_beta   90.00007624
_cell_angle_gamma   89.99945038
_symmetry_Int_Tables_number   1
_chemical_formula_structural   Cs27Sn14Pb13I81
_chemical_formula_sum   'Cs27 Sn14 Pb13 I81'
_cell_volume   6832.07573197
_cell_formula_units_Z   1
loop_
 _symmetry_equiv_pos_site_id
 _symmetry_equiv_pos_as_xyz
  1  'x, y, z'
loop_
 _atom_site_type_symbol
 _atom_site_label
 _atom_site_symmetry_multiplicity
 _atom_site_fract_x
 _atom_site_fract_y
 _atom_site_fract_z
 _atom_site_occupancy
  Cs  Cs0  1  0.00032778  -0.00160680  0.00021827  1
  Cs  Cs1  1  0.00206961  0.00087587  0.33515452  1
  Cs  Cs2  1  -0.00243468  -0.00086204  0.66407956  1
  Cs  Cs3  1  -0.00061943  0.33755559  -0.00062208  1
  Cs  Cs4  1  0.00707887  0.32953268  0.33272622  1
  Cs  Cs5  1  -0.00317800  0.33292336  0.66746104  1
  Cs  Cs6  1  -0.00351451  0.66402786  0.00297875  1
  Cs  Cs7  1  -0.00006834  0.66922322  0.33439353  1
  Cs  Cs8  1  0.00106858  0.66751410  0.66592792  1
  Cs  Cs9  1  0.33543854  -0.00081589  -0.00462329  1
  Cs  Cs10  1  0.33044566  0.00217180  0.33454460  1
  Cs  Cs11  1  0.33361241  -0.00127177  0.66914220  1
  Cs  Cs12  1  0.33135537  0.33186438  -0.00161471  1
  Cs  Cs13  1  0.33225644  0.33451538  0.32951806  1
  Cs  Cs14  1  0.33461928  0.33527998  0.66818830  1
  Cs  Cs15  1  0.33484694  0.67009034  -0.00227027  1
  Cs  Cs16  1  0.33386139  0.66231668  0.33505886  1
  Cs  Cs17  1  0.33125531  0.66646704  0.66708716  1
  Cs  Cs18  1  0.66465496  0.00004334  0.00457348  1
  Cs  Cs19  1  0.66766716  -0.00026214  0.33162348  1
  Cs  Cs20  1  0.66777630  0.00082203  0.66581763  1
  Cs  Cs21  1  0.67050856  0.33181213  -0.00410503  1
  Cs  Cs22  1  0.66109874  0.33289690  0.33373893  1
  Cs  Cs23  1  0.66704672  0.33288485  0.66916050  1
  Cs  Cs24  1  0.67036678  0.66891820  0.01067043  1
  Cs  Cs25  1  0.66592533  0.66579184  0.33010646  1
  Cs  Cs26  1  0.66869079  0.66577104  0.66378775  1
  Sn  Sn27  1  0.16561173  0.50047632  0.50089597  1
  Sn  Sn28  1  0.16709380  0.83311075  0.16745366  1
  Sn  Sn29  1  0.16735893  0.49931088  0.83237682  1
  Sn  Sn30  1  0.83316261  0.83262222  0.50069520  1
  Sn  Sn31  1  0.83325521  0.16703306  0.16688125  1
  Sn  Sn32  1  0.16686135  0.83273000  0.49925475  1
  Sn  Sn33  1  0.49976533  0.16601021  0.50021606  1
  Sn  Sn34  1  0.83294085  0.83323994  0.83302388  1
  Sn  Sn35  1  0.50053445  0.16664768  0.16648046  1
  Sn  Sn36  1  0.16672795  0.16726146  0.83273514  1
  Sn  Sn37  1  0.49996176  0.83396277  0.50024871  1
  Sn  Sn38  1  0.83429133  0.50018240  0.49987097  1
  Sn  Sn39  1  0.49935283  0.16728035  0.83313557  1
  Sn  Sn40  1  0.49983403  0.50010056  0.83341649  1
  Pb  Pb41  1  0.16499265  0.83280599  0.83271391  1
  Pb  Pb42  1  0.83116153  0.16680980  0.49818061  1
  Pb  Pb43  1  0.50253427  0.83305778  0.83144545  1
  Pb  Pb44  1  0.16712432  0.16485358  0.16391319  1
  Pb  Pb45  1  0.83347955  0.49707202  0.17045588  1
  Pb  Pb46  1  0.16681596  0.50246058  0.16641065  1
  Pb  Pb47  1  0.49988513  0.49736262  0.16295938  1
  Pb  Pb48  1  0.16887934  0.16698824  0.50231796  1
  Pb  Pb49  1  0.49752505  0.83541128  0.16962749  1
  Pb  Pb50  1  0.83504100  0.83496737  0.16779315  1
  Pb  Pb51  1  0.83308354  0.16467206  0.83492489  1
  Pb  Pb52  1  0.83329851  0.50228469  0.83167580  1
  Pb  Pb53  1  0.49967748  0.50004030  0.50152067  1
  I  I54  1  0.16581443  -0.00276964  0.17280878  1
  I  I55  1  0.16410225  -0.00276508  0.49790904  1
  I  I56  1  0.17081236  0.00195797  0.83425256  1
  I  I57  1  0.16679611  0.33316095  0.16937477  1
  I  I58  1  0.16284575  0.33619063  0.50261492  1
  I  I59  1  0.17046948  0.33378999  0.82872908  1
  I  I60  1  0.16465212  0.67035425  0.16665016  1
  I  I61  1  0.16815775  0.66725416  0.50219862  1
  I  I62  1  0.17070088  0.66388758  0.83149089  1
  I  I63  1  0.50320854  0.00353174  0.16108651  1
  I  I64  1  0.50017175  -0.00006885  0.50230709  1
  I  I65  1  0.49612771  0.00303441  0.83454511  1
  I  I66  1  0.50191275  0.32889926  0.17422795  1
  I  I67  1  0.50063197  0.33068692  0.49870397  1
  I  I68  1  0.49647995  0.33200512  0.83070460  1
  I  I69  1  0.49957102  0.66689167  0.16637869  1
  I  I70  1  0.49980030  0.66925544  0.50310388  1
  I  I71  1  0.49447612  0.66419023  0.82863612  1
  I  I72  1  0.82908833  0.00259951  0.16778320  1
  I  I73  1  0.83597051  -0.00297144  0.50220936  1
  I  I74  1  0.83488511  -0.00298177  0.82600744  1
  I  I75  1  0.82918551  0.32935659  0.16522954  1
  I  I76  1  0.83703521  0.33591360  0.49892712  1
  I  I77  1  0.83344444  0.33343003  0.83288690  1
  I  I78  1  0.83493551  0.66678640  0.16379411  1
  I  I79  1  0.83222282  0.66802255  0.50453311  1
  I  I80  1  0.83463970  0.66999920  0.83082797  1
  I  I81  1  0.17157576  0.16945006  -0.00383412  1
  I  I82  1  0.16780998  0.16838511  0.33353646  1
  I  I83  1  0.17201468  0.16506265  0.67010030  1
  I  I84  1  0.17104339  0.49698949  -0.00351113  1
  I  I85  1  0.16254864  0.50227578  0.33675143  1
  I  I86  1  0.16731107  0.50276347  0.66629726  1
  I  I87  1  0.16372416  0.83539348  0.00137289  1
  I  I88  1  0.16435280  0.82990501  0.33580370  1
  I  I89  1  0.16800264  0.83242425  0.66352002  1
  I  I90  1  0.49984313  0.17139158  -0.00084678  1
  I  I91  1  0.50541509  0.16088438  0.33373652  1
  I  I92  1  0.49546279  0.16618960  0.66715448  1
  I  I93  1  0.49324385  0.49584660  -0.00518414  1
  I  I94  1  0.49994039  0.49882901  0.33351860  1
  I  I95  1  0.49859539  0.49367337  0.66924941  1
  I  I96  1  0.49985026  0.83393116  0.00000590  1
  I  I97  1  0.50534674  0.83776187  0.33792401  1
  I  I98  1  0.49508200  0.83907502  0.66320946  1
  I  I99  1  0.82788131  0.16285087  0.00254198  1
  I  I100  1  0.82799070  0.16451234  0.33055952  1
  I  I101  1  0.83225401  0.16697903  0.66643096  1
  I  I102  1  0.83338142  0.50208158  -0.00003971  1
  I  I103  1  0.83818865  0.50833085  0.33834998  1
  I  I104  1  0.83454853  0.50140581  0.66359753  1
  I  I105  1  0.83594322  0.83541634  -0.00168749  1
  I  I106  1  0.83182447  0.83090180  0.33704759  1
  I  I107  1  0.83615916  0.83188605  0.66458048  1
  I  I108  1  -0.00176169  0.16402435  0.16589715  1
  I  I109  1  0.00016515  0.16433163  0.49939688  1
  I  I110  1  0.00241248  0.16941830  0.83527153  1
  I  I111  1  0.00011676  0.49658030  0.16099466  1
  I  I112  1  0.00105990  0.50839465  0.50604948  1
  I  I113  1  0.00292704  0.49641874  0.83100458  1
  I  I114  1  0.00265362  0.83714516  0.17151534  1
  I  I115  1  0.00017935  0.82872784  0.50016451  1
  I  I116  1  -0.00249686  0.83470544  0.82779337  1
  I  I117  1  0.33626168  0.16480970  0.16824707  1
  I  I118  1  0.33699372  0.16254602  0.49596684  1
  I  I119  1  0.33436409  0.16914692  0.83528569  1
  I  I120  1  0.33331363  0.49816178  0.17299650  1
  I  I121  1  0.33059960  0.50379704  0.50263181  1
  I  I122  1  0.33252758  0.49586168  0.82676108  1
  I  I123  1  0.32990236  0.83558654  0.17020170  1
  I  I124  1  0.33278598  0.83373824  0.49572472  1
  I  I125  1  0.33347287  0.83412172  0.83306723  1
  I  I126  1  0.66529338  0.16466823  0.16483951  1
  I  I127  1  0.66300730  0.16345234  0.50469714  1
  I  I128  1  0.66341617  0.17006187  0.83147386  1
  I  I129  1  0.66666407  0.50349755  0.16723682  1
  I  I130  1  0.66858021  0.50301476  0.50180148  1
  I  I131  1  0.66423539  0.49446745  0.83020221  1
  I  I132  1  0.66644932  0.83343838  0.16639944  1
  I  I133  1  0.66705449  0.83390911  0.50614857  1
  I  I134  1  0.66994280  0.83450145  0.82677797  1
