# generated using pymatgen
data_Cs27Sn13Pb14I81
_symmetry_space_group_name_H-M   'P 1'
_cell_length_a   18.97477381
_cell_length_b   18.97406035
_cell_length_c   18.98088727
_cell_angle_alpha   90.00004125
_cell_angle_beta   90.00236000
_cell_angle_gamma   90.00121787
_symmetry_Int_Tables_number   1
_chemical_formula_structural   Cs27Sn13Pb14I81
_chemical_formula_sum   'Cs27 Sn13 Pb14 I81'
_cell_volume   6833.66043306
_cell_formula_units_Z   1
loop_
 _symmetry_equiv_pos_site_id
 _symmetry_equiv_pos_as_xyz
  1  'x, y, z'
loop_
 _atom_site_type_symbol
 _atom_site_label
 _atom_site_symmetry_multiplicity
 _atom_site_fract_x
 _atom_site_fract_y
 _atom_site_fract_z
 _atom_site_occupancy
  Cs  Cs0  1  0.00060180  0.00070819  0.00202266  1
  Cs  Cs1  1  0.00053436  0.00002187  0.33278910  1
  Cs  Cs2  1  -0.00022066  -0.00103579  0.66589674  1
  Cs  Cs3  1  0.00012411  0.33393477  0.00142120  1
  Cs  Cs4  1  0.00030085  0.33090316  0.33116552  1
  Cs  Cs5  1  0.00232280  0.33191218  0.66827525  1
  Cs  Cs6  1  0.00060619  0.66689753  -0.00328963  1
  Cs  Cs7  1  0.00029667  0.67083860  0.33596322  1
  Cs  Cs8  1  -0.00809867  0.66954160  0.66834913  1
  Cs  Cs9  1  0.33433780  -0.00039791  0.00046405  1
  Cs  Cs10  1  0.33246787  0.00012727  0.33432485  1
  Cs  Cs11  1  0.33331164  0.00183113  0.66440503  1
  Cs  Cs12  1  0.33075591  0.33258123  -0.00478943  1
  Cs  Cs13  1  0.33149706  0.33141862  0.33465396  1
  Cs  Cs14  1  0.33363540  0.33283023  0.66784547  1
  Cs  Cs15  1  0.33694713  0.66714359  0.00083443  1
  Cs  Cs16  1  0.33481812  0.66754706  0.33200553  1
  Cs  Cs17  1  0.33240748  0.66059338  0.66627375  1
  Cs  Cs18  1  0.66387907  -0.00313381  -0.00243028  1
  Cs  Cs19  1  0.66391906  0.00208145  0.33258624  1
  Cs  Cs20  1  0.66638947  -0.00055592  0.66958324  1
  Cs  Cs21  1  0.66878533  0.33896670  0.00230146  1
  Cs  Cs22  1  0.66925653  0.33821717  0.33240686  1
  Cs  Cs23  1  0.66246890  0.33604101  0.66511347  1
  Cs  Cs24  1  0.66064680  0.66566279  -0.00435294  1
  Cs  Cs25  1  0.66352321  0.65614986  0.33320260  1
  Cs  Cs26  1  0.67677894  0.66127409  0.67019390  1
  Sn  Sn27  1  0.50045848  0.83353752  0.50040407  1
  Sn  Sn28  1  0.83318158  0.83328592  0.16705352  1
  Sn  Sn29  1  0.16581118  0.83331487  0.16586342  1
  Sn  Sn30  1  0.16654028  0.16722856  0.50002249  1
  Sn  Sn31  1  0.16632455  0.49949645  0.49919176  1
  Sn  Sn32  1  0.16572036  0.16539182  0.83333168  1
  Sn  Sn33  1  0.16716179  0.83429089  0.83365922  1
  Sn  Sn34  1  0.16656012  0.50017112  0.16762600  1
  Sn  Sn35  1  0.49933745  0.16655411  0.16721758  1
  Sn  Sn36  1  0.16754536  0.16649015  0.16655141  1
  Sn  Sn37  1  0.83322665  0.16622874  0.50071100  1
  Sn  Sn38  1  0.83399204  0.16649727  0.83285357  1
  Sn  Sn39  1  0.50018091  0.16552856  0.49888308  1
  Pb  Pb40  1  0.83612355  0.50354209  0.16663125  1
  Pb  Pb41  1  0.83378592  0.49680734  0.83356407  1
  Pb  Pb42  1  0.16780216  0.83321489  0.50015379  1
  Pb  Pb43  1  0.83307220  0.16540626  0.16644986  1
  Pb  Pb44  1  0.83537768  0.83572914  0.83555345  1
  Pb  Pb45  1  0.83658532  0.49707214  0.49980253  1
  Pb  Pb46  1  0.49991531  0.50004397  0.83324850  1
  Pb  Pb47  1  0.50012572  0.16678813  0.83334413  1
  Pb  Pb48  1  0.16657479  0.50011818  0.83330621  1
  Pb  Pb49  1  0.49974563  0.83505522  0.16838786  1
  Pb  Pb50  1  0.49733864  0.83350341  0.83001793  1
  Pb  Pb51  1  0.83026126  0.83553345  0.49771852  1
  Pb  Pb52  1  0.49773395  0.49947691  0.50007529  1
  Pb  Pb53  1  0.49712866  0.49673271  0.16665154  1
  I  I54  1  0.16660393  0.00099966  0.16668143  1
  I  I55  1  0.16572115  0.00338700  0.49790974  1
  I  I56  1  0.16358259  0.00171174  0.83622267  1
  I  I57  1  0.17117397  0.33170890  0.16745838  1
  I  I58  1  0.16827061  0.33084260  0.49730186  1
  I  I59  1  0.16384069  0.32971463  0.83537920  1
  I  I60  1  0.16148723  0.66732423  0.16725145  1
  I  I61  1  0.17097792  0.66451683  0.49632502  1
  I  I62  1  0.16847411  0.66971218  0.83657552  1
  I  I63  1  0.49320032  0.00330738  0.16947953  1
  I  I64  1  0.49569048  0.00266501  0.49608323  1
  I  I65  1  0.50054733  0.00034957  0.83492504  1
  I  I66  1  0.49646021  0.32834793  0.17326527  1
  I  I67  1  0.50109172  0.32928113  0.49683914  1
  I  I68  1  0.49663555  0.33247208  0.83138178  1
  I  I69  1  0.49899359  0.66670167  0.16892392  1
  I  I70  1  0.49486093  0.66908077  0.49875292  1
  I  I71  1  0.49613690  0.66721889  0.83271035  1
  I  I72  1  0.84130571  -0.00197460  0.16730699  1
  I  I73  1  0.84022976  0.00402994  0.50229336  1
  I  I74  1  0.83663695  0.00370118  0.82935872  1
  I  I75  1  0.83331492  0.33316113  0.16643689  1
  I  I76  1  0.82868445  0.32837534  0.50192560  1
  I  I77  1  0.84142838  0.32824882  0.83118557  1
  I  I78  1  0.83967732  0.67132347  0.16802557  1
  I  I79  1  0.83341731  0.66675276  0.49901070  1
  I  I80  1  0.83531912  0.66712587  0.83355069  1
  I  I81  1  0.16675667  0.16649136  0.00073855  1
  I  I82  1  0.16710329  0.16696451  0.33330180  1
  I  I83  1  0.16665275  0.16699456  0.66598920  1
  I  I84  1  0.16667958  0.49649471  0.00307865  1
  I  I85  1  0.16703555  0.49539480  0.33298274  1
  I  I86  1  0.16876972  0.49496414  0.66380304  1
  I  I87  1  0.16329346  0.83749314  0.00118640  1
  I  I88  1  0.16487612  0.83621790  0.33047203  1
  I  I89  1  0.16965572  0.83801437  0.66890813  1
  I  I90  1  0.49506998  0.16618525  0.00291637  1
  I  I91  1  0.49533636  0.16244690  0.33419326  1
  I  I92  1  0.49665752  0.16389867  0.66324871  1
  I  I93  1  0.49683813  0.49810652  0.00045670  1
  I  I94  1  0.50033805  0.50142233  0.33333489  1
  I  I95  1  0.49484753  0.49664666  0.66604592  1
  I  I96  1  0.50109046  0.83538446  0.00011496  1
  I  I97  1  0.49577513  0.83843439  0.33608065  1
  I  I98  1  0.49685090  0.84333124  0.66241096  1
  I  I99  1  0.83828930  0.16468643  -0.00223140  1
  I  I100  1  0.83645492  0.16477300  0.33581867  1
  I  I101  1  0.83820344  0.16557777  0.66594363  1
  I  I102  1  0.83674201  0.49556972  0.00026258  1
  I  I103  1  0.83253964  0.49675181  0.33327661  1
  I  I104  1  0.83629121  0.50342255  0.66646803  1
  I  I105  1  0.83653276  0.83790759  0.00330372  1
  I  I106  1  0.84350919  0.83801124  0.33032591  1
  I  I107  1  0.83453876  0.83296421  0.66663274  1
  I  I108  1  0.00343706  0.16770804  0.16894753  1
  I  I109  1  0.00137733  0.17096589  0.49990715  1
  I  I110  1  0.00203658  0.16339519  0.83016886  1
  I  I111  1  0.00469457  0.49212549  0.16988987  1
  I  I112  1  0.00466799  0.49508919  0.49584232  1
  I  I113  1  0.00070062  0.50112881  0.83279228  1
  I  I114  1  0.00273551  0.83685609  0.16452881  1
  I  I115  1  0.00007651  0.83377478  0.50114327  1
  I  I116  1  0.00380231  0.83590448  0.83356094  1
  I  I117  1  0.33108700  0.16471503  0.16992012  1
  I  I118  1  0.33214630  0.16671116  0.49920187  1
  I  I119  1  0.32973574  0.16420130  0.83176232  1
  I  I120  1  0.32866210  0.50479953  0.17090233  1
  I  I121  1  0.32952697  0.49394893  0.49673613  1
  I  I122  1  0.33230587  0.49671528  0.83243571  1
  I  I123  1  0.32969226  0.83260979  0.16425133  1
  I  I124  1  0.33529406  0.84062940  0.49799924  1
  I  I125  1  0.32889088  0.84113256  0.84094798  1
  I  I126  1  0.66423595  0.16267119  0.17017746  1
  I  I127  1  0.66621696  0.16044802  0.49972982  1
  I  I128  1  0.66954938  0.16672767  0.83015366  1
  I  I129  1  0.66657601  0.49920655  0.16626946  1
  I  I130  1  0.66678803  0.49934788  0.50047798  1
  I  I131  1  0.66704945  0.49833096  0.83316644  1
  I  I132  1  0.66867345  0.83962277  0.16919531  1
  I  I133  1  0.66280588  0.84206518  0.49734626  1
  I  I134  1  0.66683923  0.83539264  0.83543250  1
