# generated using pymatgen
data_Cs27Sn14Pb13I81
_symmetry_space_group_name_H-M   'P 1'
_cell_length_a   18.96089984
_cell_length_b   18.96060236
_cell_length_c   18.96065106
_cell_angle_alpha   89.99925286
_cell_angle_beta   90.00146970
_cell_angle_gamma   89.99958860
_symmetry_Int_Tables_number   1
_chemical_formula_structural   Cs27Sn14Pb13I81
_chemical_formula_sum   'Cs27 Sn14 Pb13 I81'
_cell_volume   6816.54521935
_cell_formula_units_Z   1
loop_
 _symmetry_equiv_pos_site_id
 _symmetry_equiv_pos_as_xyz
  1  'x, y, z'
loop_
 _atom_site_type_symbol
 _atom_site_label
 _atom_site_symmetry_multiplicity
 _atom_site_fract_x
 _atom_site_fract_y
 _atom_site_fract_z
 _atom_site_occupancy
  Cs  Cs0  1  -0.00315459  0.00256657  -0.00305129  1
  Cs  Cs1  1  0.00182741  0.00035750  0.33290777  1
  Cs  Cs2  1  0.00305406  -0.00419695  0.67001567  1
  Cs  Cs3  1  0.00096044  0.33324219  -0.00041426  1
  Cs  Cs4  1  -0.00217551  0.33150397  0.33429083  1
  Cs  Cs5  1  0.00127346  0.33494188  0.66587752  1
  Cs  Cs6  1  -0.00202597  0.66591823  -0.00078041  1
  Cs  Cs7  1  0.00208898  0.66775700  0.33372426  1
  Cs  Cs8  1  -0.00067519  0.66632519  0.66687212  1
  Cs  Cs9  1  0.33607810  0.00246418  -0.00099024  1
  Cs  Cs10  1  0.33161724  -0.00497739  0.33286289  1
  Cs  Cs11  1  0.33342221  0.00210062  0.66675597  1
  Cs  Cs12  1  0.33349994  0.33425452  -0.00132434  1
  Cs  Cs13  1  0.33283053  0.33537210  0.33225942  1
  Cs  Cs14  1  0.33249357  0.33282097  0.66825380  1
  Cs  Cs15  1  0.33452926  0.66485105  0.00517914  1
  Cs  Cs16  1  0.33223570  0.66876548  0.32835649  1
  Cs  Cs17  1  0.33486487  0.66595282  0.66567251  1
  Cs  Cs18  1  0.66822044  0.00055821  0.00347253  1
  Cs  Cs19  1  0.66651342  0.00710587  0.33168382  1
  Cs  Cs20  1  0.66351669  -0.00352077  0.66591296  1
  Cs  Cs21  1  0.66723340  0.33250912  0.00253710  1
  Cs  Cs22  1  0.67004958  0.32377112  0.33462627  1
  Cs  Cs23  1  0.66533437  0.33486900  0.66243675  1
  Cs  Cs24  1  0.66742339  0.66742440  -0.00188439  1
  Cs  Cs25  1  0.66609793  0.66635891  0.33478759  1
  Cs  Cs26  1  0.66601997  0.66660992  0.66756238  1
  Sn  Sn27  1  0.83323215  0.50070889  0.16644966  1
  Sn  Sn28  1  0.16750324  0.49947032  0.50054333  1
  Sn  Sn29  1  0.49872750  0.83230193  0.83275202  1
  Sn  Sn30  1  0.49914428  0.50081664  0.50037600  1
  Sn  Sn31  1  0.83335255  0.83244605  0.16816099  1
  Sn  Sn32  1  0.50090553  0.83224400  0.50059409  1
  Sn  Sn33  1  0.83282030  0.16801193  0.83240437  1
  Sn  Sn34  1  0.16676886  0.16754501  0.49914131  1
  Sn  Sn35  1  0.83312031  0.49875039  0.83395888  1
  Sn  Sn36  1  0.16815535  0.83210493  0.83352470  1
  Sn  Sn37  1  0.16685806  0.16682519  0.16742125  1
  Sn  Sn38  1  0.83250126  0.83315009  0.49876088  1
  Sn  Sn39  1  0.16691862  0.50110132  0.83276241  1
  Sn  Sn40  1  0.49990385  0.50090157  0.83271731  1
  Pb  Pb41  1  0.16544235  0.16716050  0.83304393  1
  Pb  Pb42  1  0.50279323  0.16696439  0.83316172  1
  Pb  Pb43  1  0.83271829  0.83261228  0.83318913  1
  Pb  Pb44  1  0.49733699  0.16674035  0.50006990  1
  Pb  Pb45  1  0.16725846  0.83261709  0.50152172  1
  Pb  Pb46  1  0.16460130  0.49867452  0.16676217  1
  Pb  Pb47  1  0.83490011  0.16683637  0.16501873  1
  Pb  Pb48  1  0.50239966  0.83318142  0.16670154  1
  Pb  Pb49  1  0.16431371  0.83528271  0.16322798  1
  Pb  Pb50  1  0.49670202  0.16680570  0.16669960  1
  Pb  Pb51  1  0.50282446  0.49987938  0.16729540  1
  Pb  Pb52  1  0.83321178  0.50144473  0.50015121  1
  Pb  Pb53  1  0.83575141  0.16352285  0.50269098  1
  I  I54  1  0.16373824  0.00295466  0.17184318  1
  I  I55  1  0.16497870  0.00160857  0.49885096  1
  I  I56  1  0.16706852  -0.00221080  0.83268966  1
  I  I57  1  0.16271964  0.33089486  0.16557531  1
  I  I58  1  0.17060967  0.33494285  0.50304284  1
  I  I59  1  0.16793779  0.33662664  0.83249934  1
  I  I60  1  0.16603683  0.66668266  0.16837637  1
  I  I61  1  0.16636617  0.66375138  0.50368046  1
  I  I62  1  0.16327972  0.66522452  0.82765330  1
  I  I63  1  0.50336396  -0.00033887  0.16541814  1
  I  I64  1  0.50277172  -0.00339290  0.50456828  1
  I  I65  1  0.49687201  -0.00341387  0.82919182  1
  I  I66  1  0.50381572  0.33375022  0.16579308  1
  I  I67  1  0.49815272  0.33687261  0.50537502  1
  I  I68  1  0.49697514  0.33731859  0.82937683  1
  I  I69  1  0.49753190  0.66653106  0.16640467  1
  I  I70  1  0.49892528  0.66642826  0.50535478  1
  I  I71  1  0.50198352  0.66598849  0.82888153  1
  I  I72  1  0.83460548  -0.00244735  0.16730853  1
  I  I73  1  0.82912214  -0.00436092  0.49674320  1
  I  I74  1  0.83588089  0.00112964  0.83338052  1
  I  I75  1  0.83458492  0.33595917  0.16302986  1
  I  I76  1  0.83138031  0.33339805  0.49787290  1
  I  I77  1  0.83527107  0.33573799  0.83917719  1
  I  I78  1  0.83452499  0.66644364  0.16285857  1
  I  I79  1  0.83479796  0.66944122  0.50184049  1
  I  I80  1  0.83412685  0.66379213  0.83435351  1
  I  I81  1  0.16294285  0.16573741  0.00147029  1
  I  I82  1  0.16471630  0.17176025  0.33435465  1
  I  I83  1  0.16484973  0.16780099  0.66443845  1
  I  I84  1  0.16804253  0.50150963  -0.00327670  1
  I  I85  1  0.16916089  0.49781308  0.33634796  1
  I  I86  1  0.16451804  0.49782794  0.66742409  1
  I  I87  1  0.16954911  0.82889793  -0.00480508  1
  I  I88  1  0.16773788  0.83233297  0.33328704  1
  I  I89  1  0.16361058  0.83456872  0.66960407  1
  I  I90  1  0.49807695  0.16587536  -0.00047830  1
  I  I91  1  0.50401886  0.16732508  0.33372960  1
  I  I92  1  0.49809195  0.16551383  0.66668610  1
  I  I93  1  0.49763555  0.50395194  -0.00357318  1
  I  I94  1  0.49514855  0.50519479  0.33712030  1
  I  I95  1  0.50151375  0.50406056  0.66749484  1
  I  I96  1  0.49788818  0.82908194  -0.00347078  1
  I  I97  1  0.50133416  0.82889191  0.33678459  1
  I  I98  1  0.50326735  0.82955756  0.66685967  1
  I  I99  1  0.83716889  0.16532096  -0.00288416  1
  I  I100  1  0.83346447  0.16844765  0.33360655  1
  I  I101  1  0.83637578  0.17243176  0.67024043  1
  I  I102  1  0.83430977  0.50232536  -0.00167269  1
  I  I103  1  0.83449544  0.50341286  0.33126291  1
  I  I104  1  0.83419614  0.49855556  0.66964620  1
  I  I105  1  0.83474549  0.83295348  0.00150711  1
  I  I106  1  0.82970882  0.82771684  0.33362512  1
  I  I107  1  0.83303671  0.83348106  0.66478033  1
  I  I108  1  0.00253864  0.16658300  0.16928170  1
  I  I109  1  0.00352761  0.17213214  0.49769211  1
  I  I110  1  -0.00241878  0.16883476  0.83369280  1
  I  I111  1  -0.00337088  0.50304539  0.16176104  1
  I  I112  1  0.00246177  0.49826318  0.50358018  1
  I  I113  1  0.00031329  0.50038924  0.83302945  1
  I  I114  1  -0.00363650  0.82973186  0.17074103  1
  I  I115  1  -0.00179449  0.83333428  0.49934026  1
  I  I116  1  0.00158629  0.83143808  0.83262337  1
  I  I117  1  0.32872929  0.16711683  0.16849478  1
  I  I118  1  0.32930832  0.16596173  0.49856125  1
  I  I119  1  0.33329790  0.16739660  0.83409053  1
  I  I120  1  0.33317924  0.49735234  0.16410344  1
  I  I121  1  0.33317576  0.50076991  0.50796763  1
  I  I122  1  0.33307268  0.50397392  0.82852883  1
  I  I123  1  0.33313399  0.83565509  0.16839605  1
  I  I124  1  0.33605782  0.83322969  0.50371008  1
  I  I125  1  0.33384925  0.82811563  0.82763976  1
  I  I126  1  0.66711485  0.16634563  0.16489963  1
  I  I127  1  0.66683123  0.16878083  0.50082845  1
  I  I128  1  0.67071467  0.16908892  0.83499191  1
  I  I129  1  0.67086468  0.50406171  0.16119205  1
  I  I130  1  0.66410900  0.50396887  0.50405721  1
  I  I131  1  0.66647054  0.50118116  0.83305482  1
  I  I132  1  0.67054051  0.83004429  0.16397394  1
  I  I133  1  0.66585750  0.82730703  0.50388926  1
  I  I134  1  0.66413989  0.83043171  0.83192463  1
