# generated using pymatgen
data_Cs27Sn14Pb13I81
_symmetry_space_group_name_H-M   'P 1'
_cell_length_a   18.96614632
_cell_length_b   18.98218812
_cell_length_c   18.98181882
_cell_angle_alpha   89.99922271
_cell_angle_beta   89.99942481
_cell_angle_gamma   89.99764977
_symmetry_Int_Tables_number   1
_chemical_formula_structural   Cs27Sn14Pb13I81
_chemical_formula_sum   'Cs27 Sn14 Pb13 I81'
_cell_volume   6833.81461460
_cell_formula_units_Z   1
loop_
 _symmetry_equiv_pos_site_id
 _symmetry_equiv_pos_as_xyz
  1  'x, y, z'
loop_
 _atom_site_type_symbol
 _atom_site_label
 _atom_site_symmetry_multiplicity
 _atom_site_fract_x
 _atom_site_fract_y
 _atom_site_fract_z
 _atom_site_occupancy
  Cs  Cs0  1  -0.00139688  -0.00109783  -0.00299594  1
  Cs  Cs1  1  0.00098815  0.00011521  0.33517924  1
  Cs  Cs2  1  0.00018445  -0.00062547  0.66719601  1
  Cs  Cs3  1  -0.00016253  0.33179167  0.00181848  1
  Cs  Cs4  1  -0.00075097  0.33400158  0.33230654  1
  Cs  Cs5  1  0.00136241  0.33209741  0.66591234  1
  Cs  Cs6  1  0.00151210  0.66855093  0.00019027  1
  Cs  Cs7  1  0.00128893  0.66504433  0.33278060  1
  Cs  Cs8  1  -0.00102686  0.66805128  0.66606566  1
  Cs  Cs9  1  0.34038677  0.00276749  0.00252988  1
  Cs  Cs10  1  0.33913790  -0.00108726  0.33299523  1
  Cs  Cs11  1  0.33585264  0.00428343  0.66506381  1
  Cs  Cs12  1  0.33414451  0.33258627  -0.00620804  1
  Cs  Cs13  1  0.33226665  0.33521954  0.33471444  1
  Cs  Cs14  1  0.33242047  0.33306237  0.66812478  1
  Cs  Cs15  1  0.33451824  0.66715660  0.00454140  1
  Cs  Cs16  1  0.33199052  0.66622995  0.33012254  1
  Cs  Cs17  1  0.33295302  0.66439196  0.66545788  1
  Cs  Cs18  1  0.66544149  0.00041268  0.00551493  1
  Cs  Cs19  1  0.66025683  0.00269836  0.33235747  1
  Cs  Cs20  1  0.66684889  -0.00287663  0.66367729  1
  Cs  Cs21  1  0.66434402  0.33154354  0.00389227  1
  Cs  Cs22  1  0.66798181  0.33356041  0.32877431  1
  Cs  Cs23  1  0.66610966  0.33588583  0.66664353  1
  Cs  Cs24  1  0.66509005  0.66852263  -0.00689177  1
  Cs  Cs25  1  0.66745502  0.66352042  0.33534881  1
  Cs  Cs26  1  0.66766957  0.66680838  0.66918732  1
  Sn  Sn27  1  0.83417989  0.83421696  0.49958658  1
  Sn  Sn28  1  0.16531441  0.50112987  0.83253102  1
  Sn  Sn29  1  0.83429847  0.83371519  0.83326184  1
  Sn  Sn30  1  0.16718122  0.50025148  0.50056927  1
  Sn  Sn31  1  0.16583632  0.16630907  0.49881330  1
  Sn  Sn32  1  0.83412379  0.16595221  0.50070723  1
  Sn  Sn33  1  0.16604763  0.83347561  0.50076733  1
  Sn  Sn34  1  0.49915455  0.50014657  0.49919848  1
  Sn  Sn35  1  0.16666371  0.83283177  0.83253007  1
  Sn  Sn36  1  0.49982608  0.50021174  0.16747617  1
  Sn  Sn37  1  0.16632282  0.16644159  0.16756285  1
  Sn  Sn38  1  0.83468452  0.49974264  0.83330179  1
  Sn  Sn39  1  0.83362258  0.16643632  0.83245724  1
  Sn  Sn40  1  0.83374631  0.83304674  0.16727436  1
  Pb  Pb41  1  0.49931166  0.50018394  0.83294113  1
  Pb  Pb42  1  0.50292983  0.83092036  0.16693266  1
  Pb  Pb43  1  0.49905274  0.83344110  0.83293728  1
  Pb  Pb44  1  0.50403972  0.16647684  0.83288534  1
  Pb  Pb45  1  0.16519684  0.83540613  0.16659304  1
  Pb  Pb46  1  0.83499946  0.16464670  0.16729541  1
  Pb  Pb47  1  0.50033299  0.16928218  0.50020974  1
  Pb  Pb48  1  0.16522924  0.16606861  0.83274197  1
  Pb  Pb49  1  0.83395491  0.49990145  0.50149538  1
  Pb  Pb50  1  0.49968280  0.83081032  0.50019709  1
  Pb  Pb51  1  0.49687828  0.16909223  0.16698180  1
  Pb  Pb52  1  0.83163965  0.50232507  0.16342268  1
  Pb  Pb53  1  0.16782671  0.49829272  0.16618939  1
  I  I54  1  0.16412890  0.00305832  0.17034286  1
  I  I55  1  0.16042724  -0.00033324  0.50074016  1
  I  I56  1  0.16085912  -0.00290496  0.83054974  1
  I  I57  1  0.16602947  0.33051618  0.17084564  1
  I  I58  1  0.16678283  0.33346864  0.50031509  1
  I  I59  1  0.16331730  0.33573607  0.83085323  1
  I  I60  1  0.16737352  0.66676576  0.16842355  1
  I  I61  1  0.16630566  0.66680379  0.50468007  1
  I  I62  1  0.15838108  0.66652269  0.82583635  1
  I  I63  1  0.50022602  0.00008588  0.16525373  1
  I  I64  1  0.49831972  0.00001352  0.50000639  1
  I  I65  1  0.49730790  -0.00004518  0.83470382  1
  I  I66  1  0.50256460  0.33670188  0.17086424  1
  I  I67  1  0.49630423  0.33717766  0.49733521  1
  I  I68  1  0.49926972  0.33370032  0.83374556  1
  I  I69  1  0.49743897  0.66330295  0.17049775  1
  I  I70  1  0.49666891  0.66293397  0.49702257  1
  I  I71  1  0.50654128  0.66649820  0.83328271  1
  I  I72  1  0.83506804  -0.00310304  0.16106556  1
  I  I73  1  0.84115698  -0.00057288  0.50525271  1
  I  I74  1  0.83826330  -0.00102757  0.83261271  1
  I  I75  1  0.83208692  0.33331963  0.16600780  1
  I  I76  1  0.83610063  0.33086907  0.50508356  1
  I  I77  1  0.83734367  0.33340859  0.82779597  1
  I  I78  1  0.83430386  0.67019797  0.16859317  1
  I  I79  1  0.83528511  0.66952885  0.50103507  1
  I  I80  1  0.83566969  0.66736139  0.83310687  1
  I  I81  1  0.16467070  0.16803119  0.00128621  1
  I  I82  1  0.16026404  0.16795023  0.33593971  1
  I  I83  1  0.16439480  0.16771674  0.66348445  1
  I  I84  1  0.16429768  0.50290708  -0.00333952  1
  I  I85  1  0.16910953  0.50225196  0.33645134  1
  I  I86  1  0.16893588  0.49839213  0.66593232  1
  I  I87  1  0.16105065  0.82890820  -0.00314173  1
  I  I88  1  0.16166106  0.83025893  0.33671807  1
  I  I89  1  0.15840441  0.83315018  0.66595007  1
  I  I90  1  0.49824868  0.17048982  0.00016023  1
  I  I91  1  0.50522893  0.16641114  0.33358899  1
  I  I92  1  0.49435648  0.17044385  0.66632201  1
  I  I93  1  0.50142635  0.49981175  0.00193757  1
  I  I94  1  0.49419061  0.50047488  0.33462424  1
  I  I95  1  0.49850491  0.49974473  0.66403940  1
  I  I96  1  0.49979631  0.82963673  0.00001361  1
  I  I97  1  0.50052570  0.83338694  0.33360059  1
  I  I98  1  0.50599209  0.82983027  0.66643159  1
  I  I99  1  0.83548142  0.16626363  -0.00262970  1
  I  I100  1  0.83553526  0.16258764  0.33673099  1
  I  I101  1  0.83951447  0.16277949  0.66608352  1
  I  I102  1  0.83775673  0.49920322  -0.00478271  1
  I  I103  1  0.83449282  0.50048449  0.33336270  1
  I  I104  1  0.83202069  0.50391323  0.66956231  1
  I  I105  1  0.83694373  0.83242784  -0.00180601  1
  I  I106  1  0.83753404  0.83748053  0.33502649  1
  I  I107  1  0.83692304  0.83386241  0.66672350  1
  I  I108  1  0.00266224  0.16896092  0.16896160  1
  I  I109  1  0.00043998  0.16835223  0.50028144  1
  I  I110  1  -0.00307773  0.16671006  0.83197408  1
  I  I111  1  -0.00002063  0.49941963  0.16875850  1
  I  I112  1  0.00318776  0.49980420  0.50270944  1
  I  I113  1  0.00048375  0.50143039  0.82738119  1
  I  I114  1  -0.00289459  0.83241646  0.16557475  1
  I  I115  1  -0.00005791  0.83168175  0.50141324  1
  I  I116  1  -0.00098786  0.83173093  0.83226309  1
  I  I117  1  0.32898636  0.16468291  0.17260823  1
  I  I118  1  0.32970671  0.16372720  0.49624679  1
  I  I119  1  0.33293075  0.16792381  0.83405916  1
  I  I120  1  0.33573636  0.49929471  0.16651842  1
  I  I121  1  0.33117546  0.49986260  0.50239708  1
  I  I122  1  0.32964246  0.50426903  0.83241872  1
  I  I123  1  0.33317437  0.83433055  0.16594720  1
  I  I124  1  0.32933260  0.83622068  0.50505410  1
  I  I125  1  0.32892019  0.82675186  0.82823865  1
  I  I126  1  0.66679605  0.16630361  0.16545181  1
  I  I127  1  0.67035301  0.16256192  0.50503709  1
  I  I128  1  0.67272873  0.16751975  0.82776530  1
  I  I129  1  0.66386795  0.49997945  0.17347095  1
  I  I130  1  0.66510274  0.50012724  0.49844618  1
  I  I131  1  0.66962209  0.50095276  0.83288208  1
  I  I132  1  0.67126049  0.83480761  0.16498051  1
  I  I133  1  0.67043104  0.83642860  0.50136290  1
  I  I134  1  0.67076797  0.83159493  0.83251550  1
