# generated using pymatgen
data_Cs27Sn14Pb13I81
_symmetry_space_group_name_H-M   'P 1'
_cell_length_a   18.97740710
_cell_length_b   18.98258738
_cell_length_c   18.97038520
_cell_angle_alpha   89.99716598
_cell_angle_beta   90.00014274
_cell_angle_gamma   89.99881858
_symmetry_Int_Tables_number   1
_chemical_formula_structural   Cs27Sn14Pb13I81
_chemical_formula_sum   'Cs27 Sn14 Pb13 I81'
_cell_volume   6833.89702997
_cell_formula_units_Z   1
loop_
 _symmetry_equiv_pos_site_id
 _symmetry_equiv_pos_as_xyz
  1  'x, y, z'
loop_
 _atom_site_type_symbol
 _atom_site_label
 _atom_site_symmetry_multiplicity
 _atom_site_fract_x
 _atom_site_fract_y
 _atom_site_fract_z
 _atom_site_occupancy
  Cs  Cs0  1  0.00207759  -0.00032852  0.00152030  1
  Cs  Cs1  1  -0.00045968  -0.00056013  0.33322684  1
  Cs  Cs2  1  -0.00296039  0.00309025  0.66864384  1
  Cs  Cs3  1  -0.00162485  0.34130471  -0.00559826  1
  Cs  Cs4  1  0.00309785  0.33119105  0.33205929  1
  Cs  Cs5  1  -0.00401964  0.33111620  0.67252085  1
  Cs  Cs6  1  -0.00339461  0.65789242  -0.00024345  1
  Cs  Cs7  1  -0.00067817  0.66920579  0.32994514  1
  Cs  Cs8  1  0.00031555  0.66715339  0.66858794  1
  Cs  Cs9  1  0.33510536  0.00039402  -0.00435398  1
  Cs  Cs10  1  0.33133331  0.00016161  0.33255249  1
  Cs  Cs11  1  0.33210241  -0.00347474  0.67076038  1
  Cs  Cs12  1  0.33278750  0.33021464  0.00005742  1
  Cs  Cs13  1  0.33343012  0.33285022  0.33355675  1
  Cs  Cs14  1  0.33253330  0.33460574  0.66088143  1
  Cs  Cs15  1  0.33157526  0.66834209  -0.00106451  1
  Cs  Cs16  1  0.33356751  0.66670819  0.33464569  1
  Cs  Cs17  1  0.33541675  0.66879579  0.66502465  1
  Cs  Cs18  1  0.66239186  0.00182282  -0.00077148  1
  Cs  Cs19  1  0.67039861  -0.00100115  0.33228007  1
  Cs  Cs20  1  0.67200103  0.00077834  0.66969796  1
  Cs  Cs21  1  0.66642004  0.32965967  -0.00286793  1
  Cs  Cs22  1  0.66264392  0.33250173  0.33471875  1
  Cs  Cs23  1  0.67041700  0.33475740  0.66613580  1
  Cs  Cs24  1  0.66965865  0.66710849  0.00083976  1
  Cs  Cs25  1  0.66650880  0.66833169  0.33299265  1
  Cs  Cs26  1  0.66406827  0.66647625  0.66549574  1
  Sn  Sn27  1  0.83461137  0.16692603  0.16700264  1
  Sn  Sn28  1  0.16755030  0.83385098  0.16731143  1
  Sn  Sn29  1  0.49980215  0.50079230  0.16656895  1
  Sn  Sn30  1  0.16611177  0.50014735  0.49967458  1
  Sn  Sn31  1  0.49901229  0.83258616  0.16767087  1
  Sn  Sn32  1  0.49991179  0.50010778  0.49963502  1
  Sn  Sn33  1  0.83372272  0.50023948  0.49907629  1
  Sn  Sn34  1  0.49949807  0.16583306  0.49982415  1
  Sn  Sn35  1  0.49949777  0.49999460  0.83355518  1
  Sn  Sn36  1  0.16730089  0.83358986  0.49921080  1
  Sn  Sn37  1  0.83336014  0.83315315  0.83350796  1
  Sn  Sn38  1  0.16566720  0.16605897  0.16730321  1
  Sn  Sn39  1  0.16751877  0.16625248  0.49945936  1
  Sn  Sn40  1  0.49959407  0.83405790  0.49915707  1
  Pb  Pb41  1  0.16940528  0.50012653  0.83031801  1
  Pb  Pb42  1  0.83351374  0.83476974  0.16493149  1
  Pb  Pb43  1  0.49907949  0.16611572  0.16853189  1
  Pb  Pb44  1  0.16686985  0.16667336  0.83337348  1
  Pb  Pb45  1  0.83093801  0.50174939  0.83099392  1
  Pb  Pb46  1  0.16461954  0.83318764  0.83374092  1
  Pb  Pb47  1  0.50132467  0.83156873  0.83336136  1
  Pb  Pb48  1  0.83362966  0.83153369  0.50112808  1
  Pb  Pb49  1  0.83059079  0.49762669  0.16887149  1
  Pb  Pb50  1  0.49977478  0.16936159  0.82949148  1
  Pb  Pb51  1  0.83340214  0.16464817  0.83662024  1
  Pb  Pb52  1  0.83386374  0.16872711  0.49846938  1
  Pb  Pb53  1  0.16876104  0.50006744  0.16850279  1
  I  I54  1  0.16778272  -0.00048801  0.17532082  1
  I  I55  1  0.17408635  -0.00021397  0.49579173  1
  I  I56  1  0.16660194  -0.00020505  0.82814489  1
  I  I57  1  0.16538553  0.33074903  0.17204351  1
  I  I58  1  0.17146931  0.33317292  0.49608492  1
  I  I59  1  0.16599977  0.33349251  0.83395101  1
  I  I60  1  0.16942308  0.66954941  0.17135981  1
  I  I61  1  0.17024683  0.66702354  0.49713547  1
  I  I62  1  0.16545527  0.66667013  0.83318915  1
  I  I63  1  0.50045373  -0.00292169  0.17156800  1
  I  I64  1  0.49385939  -0.00097706  0.49424783  1
  I  I65  1  0.50206946  -0.00012454  0.83360810  1
  I  I66  1  0.50073425  0.33559582  0.16888316  1
  I  I67  1  0.49756957  0.33449227  0.49969526  1
  I  I68  1  0.50139460  0.33747024  0.83473915  1
  I  I69  1  0.49581836  0.66728219  0.17216718  1
  I  I70  1  0.49777277  0.66617935  0.50018614  1
  I  I71  1  0.50108952  0.66385931  0.82672321  1
  I  I72  1  0.83199265  0.00255033  0.16800006  1
  I  I73  1  0.83169666  0.00001550  0.50142109  1
  I  I74  1  0.83117782  -0.00282257  0.82934193  1
  I  I75  1  0.83870620  0.33004835  0.16839233  1
  I  I76  1  0.83034421  0.33665207  0.49954875  1
  I  I77  1  0.83234050  0.33354953  0.83291134  1
  I  I78  1  0.83508325  0.66652226  0.16559187  1
  I  I79  1  0.83110704  0.66361451  0.50069278  1
  I  I80  1  0.83327383  0.66908117  0.83444725  1
  I  I81  1  0.16400455  0.16096372  0.00386962  1
  I  I82  1  0.16691451  0.16634849  0.33445965  1
  I  I83  1  0.17150554  0.16656436  0.66242651  1
  I  I84  1  0.16815757  0.50009423  0.00023265  1
  I  I85  1  0.17024638  0.49951469  0.33723652  1
  I  I86  1  0.16941356  0.50025476  0.66125356  1
  I  I87  1  0.17163231  0.83969142  0.00381238  1
  I  I88  1  0.17031349  0.83377923  0.33432280  1
  I  I89  1  0.17105719  0.83290453  0.66290058  1
  I  I90  1  0.50061466  0.16739053  0.00011999  1
  I  I91  1  0.49892029  0.17275249  0.33667214  1
  I  I92  1  0.49432677  0.16595711  0.66101609  1
  I  I93  1  0.50072609  0.50576676  0.00096320  1
  I  I94  1  0.50000652  0.50041735  0.33505960  1
  I  I95  1  0.49998670  0.49998151  0.66420965  1
  I  I96  1  0.49740939  0.82923866  0.00330903  1
  I  I97  1  0.49747397  0.82776436  0.33428057  1
  I  I98  1  0.49662497  0.83160878  0.66311196  1
  I  I99  1  0.83803953  0.16711729  0.00445175  1
  I  I100  1  0.83419917  0.16527072  0.33084355  1
  I  I101  1  0.83277749  0.16760274  0.66655749  1
  I  I102  1  0.83165910  0.49968650  0.00013474  1
  I  I103  1  0.82989130  0.50172982  0.33688076  1
  I  I104  1  0.83088944  0.49908032  0.66289679  1
  I  I105  1  0.83161398  0.83402920  -0.00246055  1
  I  I106  1  0.83241963  0.83297741  0.33322616  1
  I  I107  1  0.83182657  0.83156754  0.66868809  1
  I  I108  1  0.00187246  0.15979371  0.17436779  1
  I  I109  1  0.00348591  0.16636110  0.49777796  1
  I  I110  1  -0.00003903  0.16648131  0.82717393  1
  I  I111  1  0.00013515  0.50267161  0.16877389  1
  I  I112  1  0.00100981  0.50036992  0.49944022  1
  I  I113  1  -0.00013535  0.50075847  0.83168774  1
  I  I114  1  0.00321072  0.83656173  0.17145302  1
  I  I115  1  0.00351268  0.83290290  0.49685955  1
  I  I116  1  -0.00284013  0.83313068  0.83148658  1
  I  I117  1  0.33048866  0.16643590  0.17027598  1
  I  I118  1  0.33298422  0.17217004  0.49406515  1
  I  I119  1  0.33359315  0.16568330  0.83878426  1
  I  I120  1  0.33703681  0.49885390  0.17019650  1
  I  I121  1  0.33431668  0.49941942  0.50036981  1
  I  I122  1  0.33738065  0.50188625  0.83051450  1
  I  I123  1  0.33358985  0.83489892  0.17098461  1
  I  I124  1  0.33379382  0.82899773  0.49733243  1
  I  I125  1  0.33336962  0.83199474  0.83277573  1
  I  I126  1  0.66776126  0.16725691  0.16851446  1
  I  I127  1  0.66396405  0.16824055  0.49786232  1
  I  I128  1  0.66652030  0.16632022  0.83423165  1
  I  I129  1  0.66240305  0.50472753  0.17081028  1
  I  I130  1  0.66446659  0.49975174  0.50051910  1
  I  I131  1  0.66317681  0.50118079  0.82950808  1
  I  I132  1  0.66353420  0.83089785  0.17042204  1
  I  I133  1  0.66337747  0.83186640  0.49711690  1
  I  I134  1  0.66879992  0.83167044  0.83249738  1
