# generated using pymatgen
data_Cs27Sn14Pb13I81
_symmetry_space_group_name_H-M   'P 1'
_cell_length_a   18.97910042
_cell_length_b   18.97337716
_cell_length_c   18.97510548
_cell_angle_alpha   89.99932037
_cell_angle_beta   90.00004606
_cell_angle_gamma   89.99781987
_symmetry_Int_Tables_number   1
_chemical_formula_structural   Cs27Sn14Pb13I81
_chemical_formula_sum   'Cs27 Sn14 Pb13 I81'
_cell_volume   6832.89051612
_cell_formula_units_Z   1
loop_
 _symmetry_equiv_pos_site_id
 _symmetry_equiv_pos_as_xyz
  1  'x, y, z'
loop_
 _atom_site_type_symbol
 _atom_site_label
 _atom_site_symmetry_multiplicity
 _atom_site_fract_x
 _atom_site_fract_y
 _atom_site_fract_z
 _atom_site_occupancy
  Cs  Cs0  1  0.00352037  -0.00093227  -0.00246042  1
  Cs  Cs1  1  -0.00177413  0.00310498  0.33298662  1
  Cs  Cs2  1  0.00337471  -0.00236367  0.66950585  1
  Cs  Cs3  1  0.00002234  0.33404951  0.00267017  1
  Cs  Cs4  1  0.00527694  0.32535360  0.33378471  1
  Cs  Cs5  1  -0.00186773  0.33307162  0.66447146  1
  Cs  Cs6  1  -0.00125651  0.66734168  -0.00221376  1
  Cs  Cs7  1  0.00036353  0.66681197  0.33348308  1
  Cs  Cs8  1  -0.00255426  0.66821448  0.66926497  1
  Cs  Cs9  1  0.33456485  0.00152491  -0.00250014  1
  Cs  Cs10  1  0.33472109  -0.00585811  0.33421562  1
  Cs  Cs11  1  0.33525094  0.00963712  0.66860521  1
  Cs  Cs12  1  0.33367704  0.33240082  -0.00045470  1
  Cs  Cs13  1  0.32161906  0.33607621  0.33933152  1
  Cs  Cs14  1  0.33219850  0.32639189  0.66152501  1
  Cs  Cs15  1  0.33577489  0.66627108  0.00215088  1
  Cs  Cs16  1  0.33199361  0.66782421  0.33545400  1
  Cs  Cs17  1  0.33533978  0.66510870  0.66294692  1
  Cs  Cs18  1  0.66512082  -0.00112514  0.00206453  1
  Cs  Cs19  1  0.66819902  0.00025303  0.33315736  1
  Cs  Cs20  1  0.66386385  0.00421910  0.66469357  1
  Cs  Cs21  1  0.66656853  0.33543791  -0.00107759  1
  Cs  Cs22  1  0.66949663  0.33122379  0.33299946  1
  Cs  Cs23  1  0.66680556  0.33247875  0.66821280  1
  Cs  Cs24  1  0.66689383  0.66552480  0.00081067  1
  Cs  Cs25  1  0.66603476  0.66763775  0.33201099  1
  Cs  Cs26  1  0.66838221  0.66585095  0.66666672  1
  Sn  Sn27  1  0.83316122  0.50069578  0.49922288  1
  Sn  Sn28  1  0.83411580  0.83238866  0.49918384  1
  Sn  Sn29  1  0.16572388  0.83289511  0.49984413  1
  Sn  Sn30  1  0.50030678  0.49954561  0.16647646  1
  Sn  Sn31  1  0.16722834  0.50027804  0.83335530  1
  Sn  Sn32  1  0.83328716  0.49911487  0.83354164  1
  Sn  Sn33  1  0.50024999  0.83243050  0.83367871  1
  Sn  Sn34  1  0.83305491  0.50049781  0.16727855  1
  Sn  Sn35  1  0.49951618  0.50080993  0.83366522  1
  Sn  Sn36  1  0.50007132  0.83307379  0.16576217  1
  Sn  Sn37  1  0.83369850  0.83261208  0.16721053  1
  Sn  Sn38  1  0.49979469  0.16759331  0.16711041  1
  Sn  Sn39  1  0.16632261  0.83285453  0.16695477  1
  Sn  Sn40  1  0.83336789  0.16732005  0.83395350  1
  Pb  Pb41  1  0.16649762  0.50202429  0.16515220  1
  Pb  Pb42  1  0.83193545  0.16659949  0.16478677  1
  Pb  Pb43  1  0.50226929  0.49988118  0.49957061  1
  Pb  Pb44  1  0.16973548  0.83139980  0.83299975  1
  Pb  Pb45  1  0.50025358  0.16708244  0.49616107  1
  Pb  Pb46  1  0.50175306  0.16747025  0.83510796  1
  Pb  Pb47  1  0.16630740  0.16301703  0.49992633  1
  Pb  Pb48  1  0.16974193  0.16346594  0.16645797  1
  Pb  Pb49  1  0.83330957  0.16610618  0.50226874  1
  Pb  Pb50  1  0.16371007  0.50230974  0.50252145  1
  Pb  Pb51  1  0.50047179  0.83324807  0.50006355  1
  Pb  Pb52  1  0.83129576  0.83300019  0.83332672  1
  Pb  Pb53  1  0.16391994  0.16991390  0.83367419  1
  I  I54  1  0.16459423  -0.00511598  0.16942468  1
  I  I55  1  0.15951846  -0.00511253  0.49637696  1
  I  I56  1  0.16638980  -0.00028615  0.83259669  1
  I  I57  1  0.16658478  0.33357707  0.16497218  1
  I  I58  1  0.16618644  0.33365813  0.50111650  1
  I  I59  1  0.17212969  0.33799890  0.83462507  1
  I  I60  1  0.17087121  0.67019438  0.16943659  1
  I  I61  1  0.16542533  0.67003476  0.49515771  1
  I  I62  1  0.15975980  0.66383974  0.83407678  1
  I  I63  1  0.50019681  -0.00198723  0.16266119  1
  I  I64  1  0.50194414  -0.00036466  0.50196597  1
  I  I65  1  0.50211926  -0.00237233  0.83750144  1
  I  I66  1  0.50789075  0.33513101  0.16048204  1
  I  I67  1  0.50302563  0.33368946  0.50215253  1
  I  I68  1  0.50012496  0.33710525  0.83833980  1
  I  I69  1  0.50172419  0.66687194  0.16178003  1
  I  I70  1  0.49824535  0.66672866  0.49759703  1
  I  I71  1  0.50291432  0.66554488  0.84136189  1
  I  I72  1  0.83161069  -0.00345830  0.16966002  1
  I  I73  1  0.83625252  -0.00374474  0.49597874  1
  I  I74  1  0.82995161  0.00139278  0.83381638  1
  I  I75  1  0.82795701  0.33685568  0.16746632  1
  I  I76  1  0.83111507  0.33664901  0.49845071  1
  I  I77  1  0.83070634  0.33630132  0.83326197  1
  I  I78  1  0.82882333  0.66666459  0.16482234  1
  I  I79  1  0.83625377  0.66690692  0.50183017  1
  I  I80  1  0.83443333  0.66353983  0.83325548  1
  I  I81  1  0.16574642  0.16254305  -0.00001961  1
  I  I82  1  0.16640837  0.17146938  0.33305876  1
  I  I83  1  0.16750807  0.16393522  0.66697427  1
  I  I84  1  0.16163115  0.50369298  -0.00270411  1
  I  I85  1  0.16804041  0.49934777  0.33344257  1
  I  I86  1  0.16724031  0.50353097  0.67037584  1
  I  I87  1  0.16393192  0.83197450  0.00271495  1
  I  I88  1  0.16907452  0.83205080  0.33223197  1
  I  I89  1  0.16059067  0.83044078  0.66426143  1
  I  I90  1  0.50198432  0.16471044  0.00287245  1
  I  I91  1  0.50368644  0.16332318  0.32812885  1
  I  I92  1  0.50080507  0.16473730  0.66697326  1
  I  I93  1  0.50526753  0.50184160  0.00021490  1
  I  I94  1  0.50499347  0.50264375  0.32928239  1
  I  I95  1  0.50189462  0.50627083  0.67016227  1
  I  I96  1  0.50072120  0.83254285  0.00168983  1
  I  I97  1  0.49984432  0.83262449  0.32966655  1
  I  I98  1  0.50133506  0.82761348  0.66959298  1
  I  I99  1  0.83157354  0.17173155  -0.00287947  1
  I  I100  1  0.83139773  0.16883688  0.33309117  1
  I  I101  1  0.83139389  0.17141239  0.67017424  1
  I  I102  1  0.83204236  0.50062019  0.00012074  1
  I  I103  1  0.82658231  0.50642686  0.33209919  1
  I  I104  1  0.83350902  0.50087912  0.66742724  1
  I  I105  1  0.83475921  0.83053976  0.00303696  1
  I  I106  1  0.83132103  0.82638800  0.33201858  1
  I  I107  1  0.83666927  0.83002653  0.66436888  1
  I  I108  1  0.00004014  0.16678995  0.16583800  1
  I  I109  1  -0.00040559  0.16939585  0.49939632  1
  I  I110  1  -0.00405803  0.17012031  0.83425643  1
  I  I111  1  -0.00338270  0.50535418  0.16426239  1
  I  I112  1  -0.00446327  0.50263132  0.49991768  1
  I  I113  1  -0.00168494  0.49615645  0.83350201  1
  I  I114  1  -0.00121666  0.82797124  0.17062068  1
  I  I115  1  -0.00125085  0.82900840  0.49269317  1
  I  I116  1  -0.00013415  0.83317596  0.83589737  1
  I  I117  1  0.33785018  0.16786762  0.16353867  1
  I  I118  1  0.33323324  0.16554235  0.50212002  1
  I  I119  1  0.33353828  0.16598826  0.83377944  1
  I  I120  1  0.33651845  0.50149079  0.16041074  1
  I  I121  1  0.33299556  0.50111201  0.50039760  1
  I  I122  1  0.33481996  0.50700831  0.84012936  1
  I  I123  1  0.33434557  0.83344948  0.16697227  1
  I  I124  1  0.33104592  0.83329376  0.49573211  1
  I  I125  1  0.33746152  0.82805675  0.83840129  1
  I  I126  1  0.66408265  0.16161393  0.16449482  1
  I  I127  1  0.66706919  0.16286370  0.50149731  1
  I  I128  1  0.66933209  0.17236168  0.83376556  1
  I  I129  1  0.66700201  0.50501633  0.16187900  1
  I  I130  1  0.67064454  0.50757559  0.50441496  1
  I  I131  1  0.66701238  0.50019046  0.83437060  1
  I  I132  1  0.66665527  0.83263795  0.16657561  1
  I  I133  1  0.66994024  0.82950526  0.49701467  1
  I  I134  1  0.66359754  0.82826677  0.83801671  1
