# generated using pymatgen
data_Cs27Sn14Pb13I81
_symmetry_space_group_name_H-M   'P 1'
_cell_length_a   18.98375968
_cell_length_b   18.97036934
_cell_length_c   18.97529306
_cell_angle_alpha   89.99953110
_cell_angle_beta   90.00037345
_cell_angle_gamma   89.99860898
_symmetry_Int_Tables_number   1
_chemical_formula_structural   Cs27Sn14Pb13I81
_chemical_formula_sum   'Cs27 Sn14 Pb13 I81'
_cell_volume   6833.55203194
_cell_formula_units_Z   1
loop_
 _symmetry_equiv_pos_site_id
 _symmetry_equiv_pos_as_xyz
  1  'x, y, z'
loop_
 _atom_site_type_symbol
 _atom_site_label
 _atom_site_symmetry_multiplicity
 _atom_site_fract_x
 _atom_site_fract_y
 _atom_site_fract_z
 _atom_site_occupancy
  Cs  Cs0  1  0.00058982  0.00186820  -0.00830168  1
  Cs  Cs1  1  0.00005142  -0.00114349  0.33447012  1
  Cs  Cs2  1  0.00141225  0.00015476  0.67102906  1
  Cs  Cs3  1  -0.00467909  0.33175836  -0.00105730  1
  Cs  Cs4  1  -0.00191498  0.33214028  0.33054336  1
  Cs  Cs5  1  -0.00036412  0.33359536  0.66887135  1
  Cs  Cs6  1  0.00420087  0.66654620  0.00314006  1
  Cs  Cs7  1  0.00660285  0.66873504  0.33174589  1
  Cs  Cs8  1  -0.00161269  0.66571236  0.66549601  1
  Cs  Cs9  1  0.33403949  -0.00056766  0.00107249  1
  Cs  Cs10  1  0.33490665  0.00169618  0.33244324  1
  Cs  Cs11  1  0.33410224  0.00069548  0.66780376  1
  Cs  Cs12  1  0.33508778  0.33262660  -0.00162153  1
  Cs  Cs13  1  0.33473368  0.33377031  0.33397318  1
  Cs  Cs14  1  0.33388466  0.33404497  0.66671311  1
  Cs  Cs15  1  0.33040169  0.66886584  0.00120007  1
  Cs  Cs16  1  0.32496586  0.66116205  0.33250345  1
  Cs  Cs17  1  0.32990789  0.66521125  0.66608577  1
  Cs  Cs18  1  0.66685651  -0.00223806  0.00114973  1
  Cs  Cs19  1  0.66580060  -0.00048129  0.33417780  1
  Cs  Cs20  1  0.66620728  -0.00280997  0.66374354  1
  Cs  Cs21  1  0.66790893  0.33362631  0.00268616  1
  Cs  Cs22  1  0.66604342  0.33390702  0.33156983  1
  Cs  Cs23  1  0.66521585  0.33467266  0.66551276  1
  Cs  Cs24  1  0.66598384  0.66824675  -0.00023070  1
  Cs  Cs25  1  0.66640740  0.66969660  0.33372967  1
  Cs  Cs26  1  0.66791090  0.66739642  0.66716268  1
  Sn  Sn27  1  0.50009298  0.16626858  0.49987440  1
  Sn  Sn28  1  0.50063037  0.83383696  0.16827622  1
  Sn  Sn29  1  0.16666233  0.49977349  0.83332631  1
  Sn  Sn30  1  0.83328206  0.16659643  0.50007571  1
  Sn  Sn31  1  0.16710224  0.16651942  0.16712671  1
  Sn  Sn32  1  0.83290795  0.50002306  0.50000454  1
  Sn  Sn33  1  0.50012731  0.83354270  0.49880289  1
  Sn  Sn34  1  0.83274623  0.83335174  0.49912648  1
  Sn  Sn35  1  0.83277742  0.83377330  0.16740010  1
  Sn  Sn36  1  0.49954524  0.16609357  0.16691490  1
  Sn  Sn37  1  0.16682046  0.16669079  0.49934813  1
  Sn  Sn38  1  0.50057350  0.16725995  0.83328866  1
  Sn  Sn39  1  0.50015090  0.49954889  0.83328549  1
  Sn  Sn40  1  0.83300496  0.50009738  0.83293107  1
  Pb  Pb41  1  0.83329561  0.83092847  0.83303328  1
  Pb  Pb42  1  0.16386627  0.49709481  0.50153690  1
  Pb  Pb43  1  0.50005504  0.50042411  0.16449767  1
  Pb  Pb44  1  0.16666953  0.49647798  0.16438071  1
  Pb  Pb45  1  0.50163062  0.50054611  0.50153010  1
  Pb  Pb46  1  0.16679008  0.83060179  0.83317229  1
  Pb  Pb47  1  0.16891968  0.16823506  0.83332629  1
  Pb  Pb48  1  0.83302778  0.16435774  0.16865935  1
  Pb  Pb49  1  0.83314800  0.50291126  0.16727357  1
  Pb  Pb50  1  0.16696446  0.83579767  0.50005877  1
  Pb  Pb51  1  0.49998374  0.83338831  0.83308956  1
  Pb  Pb52  1  0.16699352  0.83620686  0.16681546  1
  Pb  Pb53  1  0.83045289  0.16859917  0.83077295  1
  I  I54  1  0.16933119  0.00394538  0.17070048  1
  I  I55  1  0.16290673  0.00412365  0.49720626  1
  I  I56  1  0.16777989  0.00071346  0.83367851  1
  I  I57  1  0.17334319  0.32871212  0.17176307  1
  I  I58  1  0.16921300  0.32899540  0.49722471  1
  I  I59  1  0.16447054  0.33611338  0.83268597  1
  I  I60  1  0.16709089  0.66674050  0.16396670  1
  I  I61  1  0.16718576  0.66640078  0.50262292  1
  I  I62  1  0.16993537  0.66207008  0.83263330  1
  I  I63  1  0.50002223  0.00103237  0.16498890  1
  I  I64  1  0.50443236  0.00138266  0.50192436  1
  I  I65  1  0.49907961  0.00313943  0.83269681  1
  I  I66  1  0.49599749  0.32985258  0.16924984  1
  I  I67  1  0.50073241  0.33003115  0.49839926  1
  I  I68  1  0.49991608  0.33266611  0.83237403  1
  I  I69  1  0.50540148  0.67024771  0.16930703  1
  I  I70  1  0.50612937  0.66976736  0.49802911  1
  I  I71  1  0.50065396  0.66366605  0.83291949  1
  I  I72  1  0.83103276  -0.00340006  0.17286318  1
  I  I73  1  0.83170696  0.00001562  0.49471651  1
  I  I74  1  0.83233689  0.00010287  0.83276639  1
  I  I75  1  0.83364746  0.33304272  0.16707252  1
  I  I76  1  0.83334296  0.33275562  0.50589505  1
  I  I77  1  0.83535608  0.33674130  0.82816614  1
  I  I78  1  0.82606391  0.67076360  0.17098076  1
  I  I79  1  0.82708868  0.66729978  0.50202670  1
  I  I80  1  0.82995051  0.66272044  0.82713029  1
  I  I81  1  0.17205463  0.16776352  0.00250461  1
  I  I82  1  0.17171321  0.16670362  0.33411773  1
  I  I83  1  0.16688636  0.16793262  0.66383391  1
  I  I84  1  0.16425997  0.49848639  -0.00383706  1
  I  I85  1  0.16499166  0.50163561  0.33347987  1
  I  I86  1  0.16958177  0.49678937  0.66953291  1
  I  I87  1  0.16633685  0.83570456  0.00032054  1
  I  I88  1  0.16568027  0.82915407  0.33344245  1
  I  I89  1  0.16707367  0.83705129  0.66628344  1
  I  I90  1  0.49427825  0.16690311  0.00067264  1
  I  I91  1  0.49938724  0.16200202  0.33396778  1
  I  I92  1  0.50014957  0.16693378  0.66541499  1
  I  I93  1  0.50310040  0.49522629  -0.00404820  1
  I  I94  1  0.50272914  0.49686529  0.33347284  1
  I  I95  1  0.49881893  0.49528315  0.66979712  1
  I  I96  1  0.50397335  0.83634498  0.00302917  1
  I  I97  1  0.50627712  0.84337314  0.33379284  1
  I  I98  1  0.50536679  0.83718943  0.66333275  1
  I  I99  1  0.83422396  0.16703600  -0.00004837  1
  I  I100  1  0.82947586  0.17230105  0.33717614  1
  I  I101  1  0.83450360  0.16168478  0.66226472  1
  I  I102  1  0.83338117  0.50084113  -0.00297926  1
  I  I103  1  0.83203074  0.49674569  0.33686490  1
  I  I104  1  0.83290159  0.50127711  0.66619288  1
  I  I105  1  0.82826476  0.83205248  0.00287215  1
  I  I106  1  0.82817535  0.83184781  0.33488178  1
  I  I107  1  0.82834464  0.83496498  0.66292266  1
  I  I108  1  0.00210720  0.16670925  0.17152766  1
  I  I109  1  -0.00044499  0.16775698  0.49515208  1
  I  I110  1  -0.00015746  0.16838667  0.83394406  1
  I  I111  1  -0.00017070  0.49997086  0.16369672  1
  I  I112  1  -0.00427925  0.50125354  0.50644421  1
  I  I113  1  -0.00065549  0.50097009  0.82794635  1
  I  I114  1  -0.00278217  0.83205807  0.17172223  1
  I  I115  1  -0.00347473  0.83299450  0.49642378  1
  I  I116  1  -0.00033557  0.83314279  0.83362600  1
  I  I117  1  0.33516222  0.16186989  0.17046837  1
  I  I118  1  0.33480729  0.16222819  0.50030333  1
  I  I119  1  0.33692706  0.17249370  0.82887033  1
  I  I120  1  0.33341380  0.50494882  0.16466224  1
  I  I121  1  0.33325525  0.50050128  0.50275295  1
  I  I122  1  0.33407602  0.49468826  0.83427262  1
  I  I123  1  0.33689827  0.83562758  0.16971972  1
  I  I124  1  0.33700427  0.83813206  0.49703747  1
  I  I125  1  0.33388085  0.83057416  0.83319301  1
  I  I126  1  0.66340239  0.16544184  0.16653228  1
  I  I127  1  0.66605633  0.16635062  0.50105067  1
  I  I128  1  0.66241823  0.17248746  0.83454913  1
  I  I129  1  0.66666873  0.49446000  0.16284266  1
  I  I130  1  0.66977130  0.49562676  0.50677621  1
  I  I131  1  0.66664304  0.49615444  0.82881232  1
  I  I132  1  0.66556125  0.83890944  0.17003719  1
  I  I133  1  0.66673297  0.83818995  0.49710269  1
  I  I134  1  0.66653314  0.83050339  0.83374714  1
