# generated using pymatgen
data_Cs27Sn14Pb13I81
_symmetry_space_group_name_H-M   'P 1'
_cell_length_a   18.98194940
_cell_length_b   18.96844758
_cell_length_c   18.97547516
_cell_angle_alpha   90.00084105
_cell_angle_beta   89.99981235
_cell_angle_gamma   89.99968428
_symmetry_Int_Tables_number   1
_chemical_formula_structural   Cs27Sn14Pb13I81
_chemical_formula_sum   'Cs27 Sn14 Pb13 I81'
_cell_volume   6832.27376089
_cell_formula_units_Z   1
loop_
 _symmetry_equiv_pos_site_id
 _symmetry_equiv_pos_as_xyz
  1  'x, y, z'
loop_
 _atom_site_type_symbol
 _atom_site_label
 _atom_site_symmetry_multiplicity
 _atom_site_fract_x
 _atom_site_fract_y
 _atom_site_fract_z
 _atom_site_occupancy
  Cs  Cs0  1  0.00088645  0.00258792  -0.00140924  1
  Cs  Cs1  1  0.00784725  -0.00376735  0.33394817  1
  Cs  Cs2  1  -0.00181532  0.01023535  0.66871599  1
  Cs  Cs3  1  0.00185737  0.33494042  0.00039875  1
  Cs  Cs4  1  -0.00359097  0.33297212  0.33533183  1
  Cs  Cs5  1  -0.00284909  0.32903560  0.66379696  1
  Cs  Cs6  1  0.00025639  0.66602094  -0.00122416  1
  Cs  Cs7  1  -0.00176164  0.66815048  0.33435352  1
  Cs  Cs8  1  0.00051792  0.66475289  0.66936300  1
  Cs  Cs9  1  0.33016765  0.00539255  0.00014878  1
  Cs  Cs10  1  0.32523826  -0.00275048  0.34035459  1
  Cs  Cs11  1  0.34134718  0.00561051  0.65803939  1
  Cs  Cs12  1  0.33295385  0.33592578  -0.00016970  1
  Cs  Cs13  1  0.33498465  0.33500555  0.33216848  1
  Cs  Cs14  1  0.33361540  0.33214078  0.66803721  1
  Cs  Cs15  1  0.33195336  0.66399952  -0.00027284  1
  Cs  Cs16  1  0.33296015  0.66744502  0.33456877  1
  Cs  Cs17  1  0.33261983  0.66675691  0.66645878  1
  Cs  Cs18  1  0.66786416  -0.00217748  -0.00259906  1
  Cs  Cs19  1  0.66572678  -0.00167060  0.33201635  1
  Cs  Cs20  1  0.65998120  0.00396773  0.67328852  1
  Cs  Cs21  1  0.66523232  0.33503521  0.00412392  1
  Cs  Cs22  1  0.66787125  0.33369517  0.33166405  1
  Cs  Cs23  1  0.66909644  0.32844843  0.66171667  1
  Cs  Cs24  1  0.66737536  0.66716978  0.00099455  1
  Cs  Cs25  1  0.66865774  0.66642091  0.33203141  1
  Cs  Cs26  1  0.66705316  0.66934331  0.66760501  1
  Sn  Sn27  1  0.16644687  0.50039148  0.16723160  1
  Sn  Sn28  1  0.49952906  0.50047073  0.49993427  1
  Sn  Sn29  1  0.83269838  0.16627750  0.16684696  1
  Sn  Sn30  1  0.49995913  0.83349601  0.16644428  1
  Sn  Sn31  1  0.83354819  0.50023176  0.16594749  1
  Sn  Sn32  1  0.83320551  0.83355173  0.50034213  1
  Sn  Sn33  1  0.83309747  0.50018278  0.83390366  1
  Sn  Sn34  1  0.50052914  0.16603935  0.16690272  1
  Sn  Sn35  1  0.16724196  0.50045321  0.50010516  1
  Sn  Sn36  1  0.16706395  0.83322877  0.83272135  1
  Sn  Sn37  1  0.49996587  0.50043361  0.16663334  1
  Sn  Sn38  1  0.16650422  0.50065469  0.83288259  1
  Sn  Sn39  1  0.83287239  0.83346832  0.16746282  1
  Sn  Sn40  1  0.50044582  0.50029900  0.83299358  1
  Pb  Pb41  1  0.16698939  0.16696863  0.83328596  1
  Pb  Pb42  1  0.83298801  0.16270899  0.49689473  1
  Pb  Pb43  1  0.50022301  0.16918868  0.49675784  1
  Pb  Pb44  1  0.50197802  0.83105699  0.49786887  1
  Pb  Pb45  1  0.83491139  0.83174119  0.83366757  1
  Pb  Pb46  1  0.49751922  0.83146926  0.83578238  1
  Pb  Pb47  1  0.16666874  0.16969612  0.49982651  1
  Pb  Pb48  1  0.16672786  0.16934199  0.16684513  1
  Pb  Pb49  1  0.83309916  0.50124034  0.50003546  1
  Pb  Pb50  1  0.16658695  0.83114527  0.16503157  1
  Pb  Pb51  1  0.83309038  0.16973748  0.83620480  1
  Pb  Pb52  1  0.50004544  0.16942268  0.83609120  1
  Pb  Pb53  1  0.16438897  0.83118107  0.50327720  1
  I  I54  1  0.16680064  -0.00021131  0.16368699  1
  I  I55  1  0.16523393  -0.00050989  0.50074737  1
  I  I56  1  0.16352968  -0.00290887  0.83745187  1
  I  I57  1  0.16708946  0.33848691  0.16333198  1
  I  I58  1  0.16874189  0.33875941  0.50174880  1
  I  I59  1  0.16717821  0.33810089  0.83471353  1
  I  I60  1  0.16693225  0.66225586  0.16747188  1
  I  I61  1  0.17026032  0.66261486  0.49702197  1
  I  I62  1  0.16616989  0.66325873  0.83486370  1
  I  I63  1  0.50934615  -0.00036495  0.16512679  1
  I  I64  1  0.50079695  -0.00019259  0.49888520  1
  I  I65  1  0.49779567  -0.00008213  0.83499710  1
  I  I66  1  0.50236857  0.33557925  0.16644164  1
  I  I67  1  0.49708251  0.33804452  0.49829404  1
  I  I68  1  0.49638746  0.33860730  0.83635079  1
  I  I69  1  0.50295178  0.66478754  0.16653719  1
  I  I70  1  0.49638709  0.66253551  0.49661248  1
  I  I71  1  0.50159496  0.66231274  0.83725697  1
  I  I72  1  0.82539193  -0.00069641  0.17136948  1
  I  I73  1  0.83493845  -0.00483046  0.49387336  1
  I  I74  1  0.83746071  0.00000204  0.83408830  1
  I  I75  1  0.83113851  0.33504948  0.16188722  1
  I  I76  1  0.83429773  0.33336932  0.50013386  1
  I  I77  1  0.83655823  0.33858090  0.83756454  1
  I  I78  1  0.83067256  0.66558039  0.16663208  1
  I  I79  1  0.83306240  0.66845062  0.49198188  1
  I  I80  1  0.83215403  0.66286198  0.84010983  1
  I  I81  1  0.16644012  0.17002955  0.00028692  1
  I  I82  1  0.16646072  0.16796610  0.33294978  1
  I  I83  1  0.16519920  0.16939699  0.66668919  1
  I  I84  1  0.16822506  0.50260513  0.00017754  1
  I  I85  1  0.16956652  0.49897288  0.33254446  1
  I  I86  1  0.16932133  0.50446122  0.66741663  1
  I  I87  1  0.16488412  0.82401751  -0.00243200  1
  I  I88  1  0.16785343  0.83153389  0.33340859  1
  I  I89  1  0.16416904  0.82232395  0.67039374  1
  I  I90  1  0.50396399  0.17033426  0.00440689  1
  I  I91  1  0.50501460  0.17173983  0.32863172  1
  I  I92  1  0.49907342  0.16813943  0.66651419  1
  I  I93  1  0.49810512  0.49955827  0.00143838  1
  I  I94  1  0.49750828  0.49943158  0.33159196  1
  I  I95  1  0.49658133  0.50134671  0.66706324  1
  I  I96  1  0.50764454  0.82941091  0.00423413  1
  I  I97  1  0.50122755  0.82915204  0.32920297  1
  I  I98  1  0.50149330  0.83020842  0.66674472  1
  I  I99  1  0.82939910  0.16262078  0.00447233  1
  I  I100  1  0.82882875  0.17638914  0.32869914  1
  I  I101  1  0.83516383  0.16775638  0.66660474  1
  I  I102  1  0.83366297  0.50168488  0.00172634  1
  I  I103  1  0.83322704  0.49843612  0.32989369  1
  I  I104  1  0.83396486  0.50384733  0.66920084  1
  I  I105  1  0.83027662  0.83340974  0.00364771  1
  I  I106  1  0.83018093  0.82892761  0.33066177  1
  I  I107  1  0.83672656  0.82612436  0.66474349  1
  I  I108  1  -0.00319282  0.16786938  0.16607905  1
  I  I109  1  -0.00035776  0.17023292  0.49772436  1
  I  I110  1  -0.00008667  0.16967971  0.83639399  1
  I  I111  1  -0.00072823  0.50003595  0.16383382  1
  I  I112  1  0.00230948  0.50218010  0.49929091  1
  I  I113  1  0.00027753  0.50392243  0.83746920  1
  I  I114  1  -0.00307543  0.83200591  0.16905671  1
  I  I115  1  -0.00304319  0.82818028  0.48959054  1
  I  I116  1  0.00255845  0.82305792  0.83668568  1
  I  I117  1  0.33651753  0.16930190  0.16534812  1
  I  I118  1  0.33356421  0.16415721  0.49699895  1
  I  I119  1  0.33353057  0.17035783  0.83802676  1
  I  I120  1  0.33424879  0.49961941  0.16452357  1
  I  I121  1  0.33345082  0.50052377  0.49804058  1
  I  I122  1  0.33317889  0.50295513  0.83717945  1
  I  I123  1  0.33600685  0.83089789  0.16401459  1
  I  I124  1  0.33327468  0.83343280  0.49841377  1
  I  I125  1  0.33002723  0.82329065  0.83635295  1
  I  I126  1  0.66671101  0.17362209  0.16681980  1
  I  I127  1  0.66670598  0.17212279  0.50091333  1
  I  I128  1  0.66664972  0.16732088  0.83173186  1
  I  I129  1  0.66648766  0.49989004  0.16458070  1
  I  I130  1  0.66407604  0.50143286  0.49842342  1
  I  I131  1  0.66653027  0.49996744  0.83845627  1
  I  I132  1  0.66723325  0.82755492  0.16953640  1
  I  I133  1  0.66970068  0.82772125  0.49677928  1
  I  I134  1  0.66658856  0.83063526  0.83227110  1
