# generated using pymatgen
data_Cs27Sn13Pb14I81
_symmetry_space_group_name_H-M   'P 1'
_cell_length_a   18.97864526
_cell_length_b   18.97333694
_cell_length_c   18.97946989
_cell_angle_alpha   90.00032515
_cell_angle_beta   89.99924233
_cell_angle_gamma   90.00099303
_symmetry_Int_Tables_number   1
_chemical_formula_structural   Cs27Sn13Pb14I81
_chemical_formula_sum   'Cs27 Sn13 Pb14 I81'
_cell_volume   6834.28373841
_cell_formula_units_Z   1
loop_
 _symmetry_equiv_pos_site_id
 _symmetry_equiv_pos_as_xyz
  1  'x, y, z'
loop_
 _atom_site_type_symbol
 _atom_site_label
 _atom_site_symmetry_multiplicity
 _atom_site_fract_x
 _atom_site_fract_y
 _atom_site_fract_z
 _atom_site_occupancy
  Cs  Cs0  1  -0.00166015  -0.00133040  0.00285621  1
  Cs  Cs1  1  -0.00139482  0.00188274  0.33182174  1
  Cs  Cs2  1  0.00010264  -0.00162134  0.66560348  1
  Cs  Cs3  1  0.00068826  0.33802404  0.00104788  1
  Cs  Cs4  1  0.00090565  0.33123339  0.33224072  1
  Cs  Cs5  1  -0.00132138  0.34077534  0.66768696  1
  Cs  Cs6  1  0.00024163  0.66602343  -0.00029874  1
  Cs  Cs7  1  0.00159319  0.66497461  0.33281123  1
  Cs  Cs8  1  0.00413402  0.66103530  0.66667754  1
  Cs  Cs9  1  0.33260856  0.00139517  -0.00269885  1
  Cs  Cs10  1  0.33349279  -0.00094431  0.33433925  1
  Cs  Cs11  1  0.32924684  0.00112114  0.66820559  1
  Cs  Cs12  1  0.33181291  0.33361837  -0.00180015  1
  Cs  Cs13  1  0.33281934  0.33623190  0.33198290  1
  Cs  Cs14  1  0.33303757  0.32816751  0.67061893  1
  Cs  Cs15  1  0.33463268  0.66305585  0.00370368  1
  Cs  Cs16  1  0.34025612  0.66047366  0.33701440  1
  Cs  Cs17  1  0.32744544  0.66960311  0.65874553  1
  Cs  Cs18  1  0.66802175  -0.00146900  -0.00047864  1
  Cs  Cs19  1  0.66777486  0.00093482  0.33251627  1
  Cs  Cs20  1  0.66727360  0.00010113  0.66797392  1
  Cs  Cs21  1  0.66747790  0.33187525  -0.00157138  1
  Cs  Cs22  1  0.66673647  0.33116166  0.33473346  1
  Cs  Cs23  1  0.66697095  0.33544668  0.66729425  1
  Cs  Cs24  1  0.66599286  0.66802173  -0.00076189  1
  Cs  Cs25  1  0.65950472  0.66618518  0.33376985  1
  Cs  Cs26  1  0.66768298  0.66377929  0.66858663  1
  Sn  Sn27  1  0.83299126  0.83398384  0.83281061  1
  Sn  Sn28  1  0.50024405  0.83225993  0.83328070  1
  Sn  Sn29  1  0.83353625  0.16583733  0.50138093  1
  Sn  Sn30  1  0.83357932  0.16602523  0.83230494  1
  Sn  Sn31  1  0.16660972  0.83384601  0.16690318  1
  Sn  Sn32  1  0.16628586  0.16628848  0.49918902  1
  Sn  Sn33  1  0.50011399  0.16614028  0.49920781  1
  Sn  Sn34  1  0.16782172  0.16551029  0.16734346  1
  Sn  Sn35  1  0.49892746  0.16619084  0.16715700  1
  Sn  Sn36  1  0.83318659  0.83366860  0.50010659  1
  Sn  Sn37  1  0.49987698  0.50154647  0.83310089  1
  Sn  Sn38  1  0.83284758  0.50151937  0.16707474  1
  Sn  Sn39  1  0.83377955  0.83202282  0.16708097  1
  Pb  Pb40  1  0.50231790  0.49712315  0.16499578  1
  Pb  Pb41  1  0.16627469  0.83331588  0.83567355  1
  Pb  Pb42  1  0.83360410  0.16606439  0.16678359  1
  Pb  Pb43  1  0.49992082  0.83527304  0.16513395  1
  Pb  Pb44  1  0.17014569  0.50033402  0.83344778  1
  Pb  Pb45  1  0.50189813  0.16598698  0.83321901  1
  Pb  Pb46  1  0.50214105  0.83563395  0.50257242  1
  Pb  Pb47  1  0.83315823  0.50022395  0.49744804  1
  Pb  Pb48  1  0.16430927  0.83525231  0.49716207  1
  Pb  Pb49  1  0.16306717  0.16651482  0.83363802  1
  Pb  Pb50  1  0.50014002  0.49725770  0.50272176  1
  Pb  Pb51  1  0.83225871  0.50070633  0.83515734  1
  Pb  Pb52  1  0.16671736  0.49697262  0.49975322  1
  Pb  Pb53  1  0.16489230  0.50010707  0.16685005  1
  I  I54  1  0.16276474  0.00092275  0.16944852  1
  I  I55  1  0.16803762  0.00377881  0.49813258  1
  I  I56  1  0.17193211  0.00013142  0.83271068  1
  I  I57  1  0.16803339  0.32981125  0.17056502  1
  I  I58  1  0.16310644  0.32792471  0.49301010  1
  I  I59  1  0.16632584  0.33292203  0.83542586  1
  I  I60  1  0.16183008  0.66987336  0.16352688  1
  I  I61  1  0.16468335  0.66715236  0.49951498  1
  I  I62  1  0.16075184  0.66699804  0.83575585  1
  I  I63  1  0.50234431  0.00339479  0.16742703  1
  I  I64  1  0.49949638  0.00404170  0.49823631  1
  I  I65  1  0.50416499  -0.00231691  0.83421797  1
  I  I66  1  0.49720530  0.32902154  0.16760008  1
  I  I67  1  0.50374924  0.32853889  0.49811354  1
  I  I68  1  0.50278865  0.33452230  0.83364174  1
  I  I69  1  0.49816676  0.66679853  0.16623426  1
  I  I70  1  0.50196336  0.66698625  0.49881992  1
  I  I71  1  0.50880644  0.66787754  0.83597123  1
  I  I72  1  0.83400415  -0.00257311  0.16578340  1
  I  I73  1  0.83303832  0.00098931  0.49867782  1
  I  I74  1  0.82718199  -0.00085666  0.83541370  1
  I  I75  1  0.83247448  0.33446963  0.16553608  1
  I  I76  1  0.83334372  0.32955505  0.50279399  1
  I  I77  1  0.83118888  0.33089094  0.83117095  1
  I  I78  1  0.83898437  0.66896744  0.16476397  1
  I  I79  1  0.83320047  0.67021969  0.50287395  1
  I  I80  1  0.83067043  0.67023213  0.83224986  1
  I  I81  1  0.17027840  0.16361182  0.00336061  1
  I  I82  1  0.16422256  0.16273754  0.33297542  1
  I  I83  1  0.17038637  0.16687116  0.66360930  1
  I  I84  1  0.16535227  0.49587538  0.00042766  1
  I  I85  1  0.16597706  0.50102542  0.33301110  1
  I  I86  1  0.16432299  0.49833259  0.66661114  1
  I  I87  1  0.15984932  0.84117817  0.00371457  1
  I  I88  1  0.15995583  0.83751086  0.32926174  1
  I  I89  1  0.16636945  0.83516984  0.66633906  1
  I  I90  1  0.49811517  0.16666028  0.00214766  1
  I  I91  1  0.50312691  0.16618801  0.33348463  1
  I  I92  1  0.49862009  0.16705394  0.66408601  1
  I  I93  1  0.50235585  0.50096376  -0.00272824  1
  I  I94  1  0.50064146  0.50005547  0.33332020  1
  I  I95  1  0.50435553  0.50125665  0.67042836  1
  I  I96  1  0.50696265  0.83400984  -0.00272983  1
  I  I97  1  0.50167089  0.83395847  0.33345274  1
  I  I98  1  0.50665758  0.83262312  0.67053985  1
  I  I99  1  0.83136525  0.16382886  -0.00174532  1
  I  I100  1  0.83269992  0.16418316  0.33586574  1
  I  I101  1  0.83194646  0.15955143  0.66581164  1
  I  I102  1  0.83253931  0.50122767  0.00291068  1
  I  I103  1  0.83351677  0.50169318  0.32960150  1
  I  I104  1  0.83218486  0.50013378  0.66670284  1
  I  I105  1  0.83302069  0.83505681  -0.00003216  1
  I  I106  1  0.83827572  0.83597939  0.33302221  1
  I  I107  1  0.82740924  0.84086152  0.66700089  1
  I  I108  1  0.00209303  0.16580198  0.16923270  1
  I  I109  1  -0.00073578  0.16213481  0.49818266  1
  I  I110  1  -0.00492010  0.16017206  0.83139181  1
  I  I111  1  -0.00326181  0.49804407  0.16473095  1
  I  I112  1  -0.00041530  0.49724499  0.50069356  1
  I  I113  1  -0.00018976  0.49836224  0.83469376  1
  I  I114  1  -0.00163228  0.83684611  0.16462787  1
  I  I115  1  -0.00418809  0.84025471  0.50437932  1
  I  I116  1  -0.00384122  0.83931855  0.83279683  1
  I  I117  1  0.33280369  0.16186340  0.17295176  1
  I  I118  1  0.33339955  0.16819705  0.49520275  1
  I  I119  1  0.33334488  0.16725016  0.83138200  1
  I  I120  1  0.33361411  0.50106726  0.16465706  1
  I  I121  1  0.33355780  0.49990829  0.49984249  1
  I  I122  1  0.33814327  0.50277178  0.83566340  1
  I  I123  1  0.33087212  0.83848793  0.16303421  1
  I  I124  1  0.33330309  0.83532673  0.50115456  1
  I  I125  1  0.33628119  0.83063557  0.83595200  1
  I  I126  1  0.66511511  0.16698894  0.16879881  1
  I  I127  1  0.66743185  0.16342890  0.49906862  1
  I  I128  1  0.66980042  0.16519557  0.83134109  1
  I  I129  1  0.67002128  0.50434622  0.16582565  1
  I  I130  1  0.66680909  0.49560237  0.49893873  1
  I  I131  1  0.66453425  0.49978807  0.83518461  1
  I  I132  1  0.66989930  0.83260663  0.16711149  1
  I  I133  1  0.67060404  0.84042227  0.49463533  1
  I  I134  1  0.66841688  0.83469941  0.83634153  1
