# generated using pymatgen
data_Cs27Sn13Pb14I81
_symmetry_space_group_name_H-M   'P 1'
_cell_length_a   18.97590033
_cell_length_b   18.97691223
_cell_length_c   18.97768604
_cell_angle_alpha   89.99943676
_cell_angle_beta   89.99957510
_cell_angle_gamma   90.00000535
_symmetry_Int_Tables_number   1
_chemical_formula_structural   Cs27Sn13Pb14I81
_chemical_formula_sum   'Cs27 Sn13 Pb14 I81'
_cell_volume   6833.94056236
_cell_formula_units_Z   1
loop_
 _symmetry_equiv_pos_site_id
 _symmetry_equiv_pos_as_xyz
  1  'x, y, z'
loop_
 _atom_site_type_symbol
 _atom_site_label
 _atom_site_symmetry_multiplicity
 _atom_site_fract_x
 _atom_site_fract_y
 _atom_site_fract_z
 _atom_site_occupancy
  Cs  Cs0  1  -0.00047467  -0.00103659  -0.00431148  1
  Cs  Cs1  1  -0.00372686  0.00344635  0.33696278  1
  Cs  Cs2  1  -0.00155348  -0.00060317  0.66825664  1
  Cs  Cs3  1  0.00028936  0.33481804  0.00321496  1
  Cs  Cs4  1  -0.00549605  0.33958387  0.33711616  1
  Cs  Cs5  1  0.00244042  0.33449813  0.65903817  1
  Cs  Cs6  1  0.00353216  0.66675060  -0.00191712  1
  Cs  Cs7  1  -0.00081005  0.65907502  0.33154844  1
  Cs  Cs8  1  -0.00077939  0.66786816  0.66974841  1
  Cs  Cs9  1  0.33002235  0.00105793  0.00465003  1
  Cs  Cs10  1  0.33487339  0.00028843  0.33232866  1
  Cs  Cs11  1  0.33291643  -0.00014613  0.66429807  1
  Cs  Cs12  1  0.33418742  0.33189548  -0.00255121  1
  Cs  Cs13  1  0.33194623  0.33162792  0.33340873  1
  Cs  Cs14  1  0.33364342  0.33301166  0.66925381  1
  Cs  Cs15  1  0.33041165  0.66841366  0.00360623  1
  Cs  Cs16  1  0.33381592  0.66714440  0.33055301  1
  Cs  Cs17  1  0.33549838  0.66697343  0.66630946  1
  Cs  Cs18  1  0.67042115  0.00189918  -0.00077061  1
  Cs  Cs19  1  0.66473307  -0.00224520  0.33249600  1
  Cs  Cs20  1  0.66766827  -0.00077028  0.66851685  1
  Cs  Cs21  1  0.66693861  0.33084893  -0.00191957  1
  Cs  Cs22  1  0.67074309  0.33399717  0.33149266  1
  Cs  Cs23  1  0.66509765  0.33260855  0.67107086  1
  Cs  Cs24  1  0.66570813  0.66636144  -0.00032098  1
  Cs  Cs25  1  0.66574756  0.66871601  0.33391427  1
  Cs  Cs26  1  0.66494360  0.66698467  0.66606577  1
  Sn  Sn27  1  0.16673953  0.16734597  0.83375021  1
  Sn  Sn28  1  0.49986866  0.49971837  0.49902477  1
  Sn  Sn29  1  0.49979336  0.83343093  0.50079123  1
  Sn  Sn30  1  0.16660893  0.16688865  0.16664539  1
  Sn  Sn31  1  0.49949443  0.16767407  0.16751945  1
  Sn  Sn32  1  0.49987354  0.49895729  0.16744804  1
  Sn  Sn33  1  0.16661348  0.83305405  0.49964742  1
  Sn  Sn34  1  0.83341635  0.83308387  0.49903357  1
  Sn  Sn35  1  0.16590787  0.49929817  0.83321459  1
  Sn  Sn36  1  0.49962250  0.83361459  0.83329619  1
  Sn  Sn37  1  0.83423957  0.49980423  0.83327183  1
  Sn  Sn38  1  0.50001746  0.16683650  0.49934067  1
  Sn  Sn39  1  0.83375680  0.83328645  0.16719729  1
  Pb  Pb40  1  0.49828777  0.16426939  0.83376281  1
  Pb  Pb41  1  0.16370343  0.83573244  0.16945587  1
  Pb  Pb42  1  0.83138298  0.83181804  0.83313359  1
  Pb  Pb43  1  0.16907114  0.50217924  0.50189923  1
  Pb  Pb44  1  0.16870941  0.83351130  0.83170865  1
  Pb  Pb45  1  0.83090853  0.50211463  0.16469762  1
  Pb  Pb46  1  0.83071056  0.50225692  0.50194360  1
  Pb  Pb47  1  0.83018408  0.16458485  0.50012441  1
  Pb  Pb48  1  0.50107853  0.83385229  0.16695693  1
  Pb  Pb49  1  0.83666096  0.16952250  0.83325733  1
  Pb  Pb50  1  0.83341165  0.16489994  0.16671142  1
  Pb  Pb51  1  0.16885280  0.49768450  0.16488634  1
  Pb  Pb52  1  0.49943833  0.50154864  0.83365939  1
  Pb  Pb53  1  0.16840593  0.16517398  0.49967293  1
  I  I54  1  0.17578500  0.00332668  0.15948471  1
  I  I55  1  0.16993279  -0.00298804  0.50235274  1
  I  I56  1  0.17054077  0.00239158  0.83592228  1
  I  I57  1  0.16951390  0.32966437  0.16526437  1
  I  I58  1  0.16926004  0.33340103  0.50013276  1
  I  I59  1  0.16525490  0.33323522  0.83664794  1
  I  I60  1  0.16827366  0.66669247  0.16513598  1
  I  I61  1  0.16991907  0.67025762  0.50255629  1
  I  I62  1  0.16498215  0.66442096  0.83072233  1
  I  I63  1  0.49754854  0.00273128  0.16951350  1
  I  I64  1  0.49977566  -0.00084024  0.49990953  1
  I  I65  1  0.49937990  -0.00338591  0.82811246  1
  I  I66  1  0.49675404  0.33278372  0.17352624  1
  I  I67  1  0.49847521  0.33327600  0.49621277  1
  I  I68  1  0.50142292  0.33323159  0.83037041  1
  I  I69  1  0.50264930  0.66484671  0.16868974  1
  I  I70  1  0.50050442  0.66760945  0.50098891  1
  I  I71  1  0.49901833  0.66927785  0.82847387  1
  I  I72  1  0.82926922  -0.00309612  0.17028334  1
  I  I73  1  0.83094939  -0.00412164  0.49778640  1
  I  I74  1  0.83307984  -0.00016964  0.83326581  1
  I  I75  1  0.83357848  0.33353457  0.16460784  1
  I  I76  1  0.83245248  0.33374231  0.50126053  1
  I  I77  1  0.82990226  0.33727351  0.83447198  1
  I  I78  1  0.82986047  0.66983689  0.17134053  1
  I  I79  1  0.82968818  0.67047933  0.49717523  1
  I  I80  1  0.83841127  0.66421053  0.83306308  1
  I  I81  1  0.17408327  0.16920139  0.00011581  1
  I  I82  1  0.17142012  0.16194757  0.33078192  1
  I  I83  1  0.16883150  0.16880756  0.66896374  1
  I  I84  1  0.16630266  0.50065581  -0.00326688  1
  I  I85  1  0.16640504  0.49992922  0.33341262  1
  I  I86  1  0.16596503  0.49409284  0.66994625  1
  I  I87  1  0.16749586  0.83201407  0.00010452  1
  I  I88  1  0.17486723  0.83527159  0.33713281  1
  I  I89  1  0.16448126  0.83536678  0.66369481  1
  I  I90  1  0.49801841  0.16970598  0.00290867  1
  I  I91  1  0.49411149  0.16401345  0.33334129  1
  I  I92  1  0.49853720  0.16765837  0.66400941  1
  I  I93  1  0.50035480  0.49767092  0.00236684  1
  I  I94  1  0.50005568  0.50294673  0.33400573  1
  I  I95  1  0.50004293  0.49991803  0.66413588  1
  I  I96  1  0.50231487  0.83166552  -0.00179323  1
  I  I97  1  0.49933887  0.83336481  0.33653217  1
  I  I98  1  0.50212044  0.83250089  0.66428981  1
  I  I99  1  0.82729497  0.16223010  -0.00004061  1
  I  I100  1  0.83789141  0.16806842  0.33343118  1
  I  I101  1  0.83234298  0.16318119  0.66673057  1
  I  I102  1  0.83418627  0.50400240  -0.00299125  1
  I  I103  1  0.83363571  0.49998248  0.33346483  1
  I  I104  1  0.83445234  0.50328092  0.66959884  1
  I  I105  1  0.82917757  0.83238743  0.00198807  1
  I  I106  1  0.82874002  0.83409746  0.33468831  1
  I  I107  1  0.83276394  0.83187210  0.66367095  1
  I  I108  1  0.00308495  0.16232970  0.16057701  1
  I  I109  1  0.00013213  0.16333409  0.50048795  1
  I  I110  1  0.00467663  0.16433396  0.83957488  1
  I  I111  1  0.00005196  0.49971465  0.16670120  1
  I  I112  1  0.00000638  0.50191586  0.50005452  1
  I  I113  1  0.00074880  0.49860598  0.83369580  1
  I  I114  1  -0.00368647  0.83453170  0.17039852  1
  I  I115  1  -0.00035476  0.83472835  0.49655427  1
  I  I116  1  0.00014105  0.83441621  0.83163406  1
  I  I117  1  0.33460214  0.16862879  0.16630527  1
  I  I118  1  0.33693286  0.16285625  0.49920509  1
  I  I119  1  0.33063075  0.17276203  0.83388027  1
  I  I120  1  0.33706938  0.50137229  0.16812285  1
  I  I121  1  0.33744472  0.50349237  0.49956288  1
  I  I122  1  0.33106725  0.49746830  0.83252295  1
  I  I123  1  0.33322133  0.83178784  0.16659928  1
  I  I124  1  0.33507829  0.83366151  0.50587430  1
  I  I125  1  0.33651451  0.83064705  0.82710136  1
  I  I126  1  0.66321977  0.16846002  0.17118796  1
  I  I127  1  0.66154068  0.16431517  0.49437253  1
  I  I128  1  0.66643366  0.16688680  0.83348853  1
  I  I129  1  0.66276501  0.49502523  0.16783819  1
  I  I130  1  0.66242272  0.50293705  0.49949489  1
  I  I131  1  0.66785074  0.50483804  0.83282841  1
  I  I132  1  0.66863353  0.83427581  0.17147731  1
  I  I133  1  0.66532178  0.83314761  0.50005917  1
  I  I134  1  0.66353980  0.83086184  0.82779616  1
