# generated using pymatgen
data_Cs27Sn14Pb13I81
_symmetry_space_group_name_H-M   'P 1'
_cell_length_a   18.97223171
_cell_length_b   18.97560755
_cell_length_c   18.98042077
_cell_angle_alpha   89.99916029
_cell_angle_beta   89.99945276
_cell_angle_gamma   90.00002620
_symmetry_Int_Tables_number   1
_chemical_formula_structural   Cs27Sn14Pb13I81
_chemical_formula_sum   'Cs27 Sn14 Pb13 I81'
_cell_volume   6833.13412902
_cell_formula_units_Z   1
loop_
 _symmetry_equiv_pos_site_id
 _symmetry_equiv_pos_as_xyz
  1  'x, y, z'
loop_
 _atom_site_type_symbol
 _atom_site_label
 _atom_site_symmetry_multiplicity
 _atom_site_fract_x
 _atom_site_fract_y
 _atom_site_fract_z
 _atom_site_occupancy
  Cs  Cs0  1  0.00013046  0.00310910  0.00243064  1
  Cs  Cs1  1  0.00112722  -0.00087825  0.33164525  1
  Cs  Cs2  1  -0.00177682  0.00056357  0.66375953  1
  Cs  Cs3  1  0.00134891  0.33093785  0.00296601  1
  Cs  Cs4  1  0.00169495  0.33069923  0.32905433  1
  Cs  Cs5  1  0.00156623  0.33018137  0.66606094  1
  Cs  Cs6  1  -0.00178114  0.66667300  0.00029058  1
  Cs  Cs7  1  -0.00333362  0.66900160  0.33220167  1
  Cs  Cs8  1  0.00328932  0.66746435  0.66707050  1
  Cs  Cs9  1  0.33932350  -0.00056071  -0.00019675  1
  Cs  Cs10  1  0.33453280  0.00383822  0.33207252  1
  Cs  Cs11  1  0.33221115  -0.00210027  0.66787622  1
  Cs  Cs12  1  0.33016118  0.33356863  0.00184419  1
  Cs  Cs13  1  0.33378512  0.33232603  0.33400015  1
  Cs  Cs14  1  0.33134227  0.33632734  0.66188439  1
  Cs  Cs15  1  0.33423674  0.66839524  -0.00332315  1
  Cs  Cs16  1  0.33596057  0.66570291  0.33456054  1
  Cs  Cs17  1  0.32761102  0.66644622  0.66812843  1
  Cs  Cs18  1  0.65972844  0.00037446  -0.00283272  1
  Cs  Cs19  1  0.66434892  -0.00181324  0.33394158  1
  Cs  Cs20  1  0.66877011  0.00676359  0.66857070  1
  Cs  Cs21  1  0.66717313  0.33576357  -0.00343828  1
  Cs  Cs22  1  0.66452025  0.33741019  0.33573403  1
  Cs  Cs23  1  0.66708728  0.33032511  0.66762503  1
  Cs  Cs24  1  0.66772550  0.66563447  -0.00101773  1
  Cs  Cs25  1  0.66809235  0.66539629  0.33558424  1
  Cs  Cs26  1  0.66786123  0.66496758  0.66305827  1
  Sn  Sn27  1  0.50081678  0.83253026  0.50018729  1
  Sn  Sn28  1  0.83321334  0.50048265  0.50116793  1
  Sn  Sn29  1  0.83245174  0.83251341  0.50025943  1
  Sn  Sn30  1  0.83313948  0.50062348  0.83214940  1
  Sn  Sn31  1  0.16606906  0.16610993  0.16554317  1
  Sn  Sn32  1  0.16673458  0.16654353  0.83399352  1
  Sn  Sn33  1  0.16763835  0.50066647  0.16669519  1
  Sn  Sn34  1  0.50043956  0.50023613  0.83288278  1
  Sn  Sn35  1  0.83349829  0.83464154  0.16624218  1
  Sn  Sn36  1  0.50085336  0.50116614  0.50056244  1
  Sn  Sn37  1  0.83333927  0.83282936  0.83340301  1
  Sn  Sn38  1  0.83291831  0.16540438  0.16672890  1
  Sn  Sn39  1  0.49903647  0.50033164  0.16647611  1
  Sn  Sn40  1  0.16656886  0.83330479  0.16655061  1
  Pb  Pb41  1  0.16597409  0.49872091  0.83553416  1
  Pb  Pb42  1  0.50248459  0.83099827  0.83040760  1
  Pb  Pb43  1  0.83324167  0.50029547  0.16668300  1
  Pb  Pb44  1  0.49701237  0.16956140  0.83324092  1
  Pb  Pb45  1  0.83325013  0.16674963  0.49715123  1
  Pb  Pb46  1  0.50021273  0.16667103  0.50019052  1
  Pb  Pb47  1  0.50018909  0.16925550  0.16661968  1
  Pb  Pb48  1  0.16658319  0.16647215  0.49956905  1
  Pb  Pb49  1  0.16602323  0.50018798  0.49742711  1
  Pb  Pb50  1  0.83472393  0.16689818  0.83563635  1
  Pb  Pb51  1  0.16643554  0.83324703  0.49765688  1
  Pb  Pb52  1  0.50053729  0.83098861  0.16824399  1
  Pb  Pb53  1  0.16412101  0.83555313  0.83599446  1
  I  I54  1  0.15955862  0.00006133  0.16425815  1
  I  I55  1  0.16682687  -0.00029391  0.49761513  1
  I  I56  1  0.16457332  0.00322294  0.83963209  1
  I  I57  1  0.16553584  0.33307725  0.16340571  1
  I  I58  1  0.16702307  0.33361398  0.49652422  1
  I  I59  1  0.16470008  0.33102996  0.84153192  1
  I  I60  1  0.16487776  0.66680557  0.16846555  1
  I  I61  1  0.16662189  0.66664710  0.49783470  1
  I  I62  1  0.16812349  0.66676002  0.83550878  1
  I  I63  1  0.49755573  -0.00033627  0.16952776  1
  I  I64  1  0.50459055  -0.00354676  0.49762627  1
  I  I65  1  0.50071600  -0.00031842  0.83219492  1
  I  I66  1  0.49699450  0.33773232  0.16981661  1
  I  I67  1  0.50389771  0.33751735  0.49911745  1
  I  I68  1  0.50807999  0.33805500  0.83184921  1
  I  I69  1  0.49638249  0.66278728  0.16540802  1
  I  I70  1  0.50546136  0.66526109  0.49780938  1
  I  I71  1  0.50005078  0.66273675  0.83723583  1
  I  I72  1  0.84249305  -0.00134129  0.16772802  1
  I  I73  1  0.82966708  -0.00363294  0.50239811  1
  I  I74  1  0.83636939  -0.00283059  0.83044454  1
  I  I75  1  0.83720754  0.33186196  0.16636776  1
  I  I76  1  0.82853689  0.33682349  0.50292459  1
  I  I77  1  0.83021102  0.33654843  0.83084107  1
  I  I78  1  0.83670206  0.66922115  0.16712598  1
  I  I79  1  0.82919595  0.66682006  0.49701065  1
  I  I80  1  0.83037670  0.66622863  0.83614771  1
  I  I81  1  0.16131730  0.16841328  0.00231350  1
  I  I82  1  0.16279667  0.16710068  0.32914279  1
  I  I83  1  0.16661341  0.16902014  0.66963282  1
  I  I84  1  0.16946847  0.50110507  0.00384275  1
  I  I85  1  0.16949412  0.49671433  0.32898204  1
  I  I86  1  0.16907145  0.49656746  0.66683668  1
  I  I87  1  0.16112126  0.83010379  0.00425800  1
  I  I88  1  0.16035534  0.83534392  0.32924891  1
  I  I89  1  0.16633214  0.83569803  0.66690165  1
  I  I90  1  0.50234845  0.16824427  0.00008012  1
  I  I91  1  0.49727679  0.17023590  0.33313040  1
  I  I92  1  0.49806774  0.16860408  0.66683717  1
  I  I93  1  0.50105608  0.49827717  -0.00005417  1
  I  I94  1  0.50063167  0.50277254  0.33384974  1
  I  I95  1  0.50542702  0.50279722  0.66614301  1
  I  I96  1  0.50045029  0.83146495  -0.00016735  1
  I  I97  1  0.50543005  0.82640850  0.33604251  1
  I  I98  1  0.50409981  0.82772663  0.66248011  1
  I  I99  1  0.83689381  0.16472922  0.00358667  1
  I  I100  1  0.84126739  0.16449091  0.32918020  1
  I  I101  1  0.83598288  0.16475531  0.66682892  1
  I  I102  1  0.83044652  0.50256240  -0.00196734  1
  I  I103  1  0.83049773  0.50264164  0.33538630  1
  I  I104  1  0.82551538  0.50716489  0.66662805  1
  I  I105  1  0.83936657  0.83150004  0.00056545  1
  I  I106  1  0.83427591  0.83223116  0.33318004  1
  I  I107  1  0.82882559  0.82804523  0.66623498  1
  I  I108  1  0.00072730  0.16936084  0.16384405  1
  I  I109  1  -0.00032833  0.16794774  0.50083456  1
  I  I110  1  0.00246834  0.16978192  0.83787872  1
  I  I111  1  0.00198363  0.49901604  0.16643112  1
  I  I112  1  -0.00366162  0.50472202  0.50318956  1
  I  I113  1  -0.00336441  0.50283260  0.83064174  1
  I  I114  1  -0.00099798  0.83150591  0.16904761  1
  I  I115  1  -0.00381008  0.82888794  0.50083161  1
  I  I116  1  -0.00413777  0.82580334  0.82864709  1
  I  I117  1  0.32998233  0.16446975  0.16338831  1
  I  I118  1  0.33339152  0.16770200  0.49690579  1
  I  I119  1  0.32935266  0.16735026  0.84276697  1
  I  I120  1  0.33325873  0.49900238  0.16712098  1
  I  I121  1  0.33660168  0.50365222  0.50223546  1
  I  I122  1  0.33588293  0.49710459  0.83119306  1
  I  I123  1  0.33085032  0.83575064  0.16917392  1
  I  I124  1  0.33634569  0.82798375  0.49755872  1
  I  I125  1  0.33337743  0.83301146  0.83317192  1
  I  I126  1  0.66960462  0.16273195  0.16770017  1
  I  I127  1  0.66698381  0.16745724  0.49743848  1
  I  I128  1  0.66679577  0.16565572  0.83493524  1
  I  I129  1  0.66452354  0.49997574  0.16725910  1
  I  I130  1  0.66672850  0.50386817  0.49665548  1
  I  I131  1  0.66724646  0.50305581  0.83643913  1
  I  I132  1  0.67018162  0.83616362  0.16568271  1
  I  I133  1  0.66823444  0.82776125  0.49584037  1
  I  I134  1  0.67077592  0.83271441  0.84096600  1
