# generated using pymatgen
data_Cs27Sn13Pb14I81
_symmetry_space_group_name_H-M   'P 1'
_cell_length_a   18.97829648
_cell_length_b   18.98323552
_cell_length_c   18.96698552
_cell_angle_alpha   90.00074758
_cell_angle_beta   90.00088678
_cell_angle_gamma   89.99917463
_symmetry_Int_Tables_number   1
_chemical_formula_structural   Cs27Sn13Pb14I81
_chemical_formula_sum   'Cs27 Sn13 Pb14 I81'
_cell_volume   6833.22585072
_cell_formula_units_Z   1
loop_
 _symmetry_equiv_pos_site_id
 _symmetry_equiv_pos_as_xyz
  1  'x, y, z'
loop_
 _atom_site_type_symbol
 _atom_site_label
 _atom_site_symmetry_multiplicity
 _atom_site_fract_x
 _atom_site_fract_y
 _atom_site_fract_z
 _atom_site_occupancy
  Cs  Cs0  1  0.00470635  0.00038300  0.00041279  1
  Cs  Cs1  1  -0.00168162  -0.00171760  0.33411381  1
  Cs  Cs2  1  -0.00242794  0.00258006  0.66600963  1
  Cs  Cs3  1  0.01070090  0.33035275  -0.00575975  1
  Cs  Cs4  1  -0.00290474  0.33586970  0.33643461  1
  Cs  Cs5  1  -0.00092975  0.33229320  0.66636213  1
  Cs  Cs6  1  0.00567109  0.66816428  0.00738688  1
  Cs  Cs7  1  -0.00496530  0.66752089  0.32923741  1
  Cs  Cs8  1  -0.00117581  0.66479079  0.66554299  1
  Cs  Cs9  1  0.32645306  -0.00238341  0.00282757  1
  Cs  Cs10  1  0.33474814  0.00257200  0.33485967  1
  Cs  Cs11  1  0.33650922  -0.00481653  0.66499807  1
  Cs  Cs12  1  0.33066440  0.33418436  0.00847356  1
  Cs  Cs13  1  0.33566780  0.33151697  0.33067611  1
  Cs  Cs14  1  0.33522869  0.33530752  0.66492960  1
  Cs  Cs15  1  0.32418543  0.66720352  -0.00108489  1
  Cs  Cs16  1  0.33494083  0.66575430  0.33465039  1
  Cs  Cs17  1  0.33565911  0.66815170  0.66795775  1
  Cs  Cs18  1  0.66811058  0.00032089  0.00024279  1
  Cs  Cs19  1  0.66675981  -0.00028040  0.33277445  1
  Cs  Cs20  1  0.66629456  -0.00058080  0.66745917  1
  Cs  Cs21  1  0.66355003  0.33263792  -0.00298926  1
  Cs  Cs22  1  0.66572129  0.33476565  0.33196062  1
  Cs  Cs23  1  0.66701480  0.33417072  0.66765160  1
  Cs  Cs24  1  0.66745622  0.66689703  0.00120993  1
  Cs  Cs25  1  0.67032123  0.66562458  0.32934375  1
  Cs  Cs26  1  0.66512546  0.66605840  0.66743592  1
  Sn  Sn27  1  0.50004541  0.83327754  0.16647050  1
  Sn  Sn28  1  0.49960973  0.49927621  0.50062369  1
  Sn  Sn29  1  0.49976591  0.16710188  0.83292443  1
  Sn  Sn30  1  0.83322039  0.16731696  0.16693469  1
  Sn  Sn31  1  0.83289442  0.16595982  0.49906830  1
  Sn  Sn32  1  0.83373560  0.83385088  0.50091404  1
  Sn  Sn33  1  0.83328146  0.83220405  0.83288323  1
  Sn  Sn34  1  0.50061702  0.49922389  0.83280368  1
  Sn  Sn35  1  0.16752704  0.50014694  0.50033653  1
  Sn  Sn36  1  0.50032341  0.16748459  0.50085076  1
  Sn  Sn37  1  0.16565719  0.83307742  0.50028390  1
  Sn  Sn38  1  0.16679965  0.16670689  0.50033858  1
  Sn  Sn39  1  0.83306053  0.50102081  0.83349470  1
  Pb  Pb40  1  0.50160857  0.83301263  0.83565497  1
  Pb  Pb41  1  0.16719292  0.49997980  0.83107941  1
  Pb  Pb42  1  0.83326037  0.49659749  0.16248424  1
  Pb  Pb43  1  0.83198320  0.16677245  0.83303552  1
  Pb  Pb44  1  0.16339649  0.83341038  0.83063393  1
  Pb  Pb45  1  0.16922233  0.83347915  0.16999994  1
  Pb  Pb46  1  0.50144952  0.16515529  0.16666820  1
  Pb  Pb47  1  0.83222968  0.83501680  0.16654172  1
  Pb  Pb48  1  0.50014916  0.50221183  0.16616541  1
  Pb  Pb49  1  0.16654495  0.49984115  0.17021970  1
  Pb  Pb50  1  0.16364945  0.16662646  0.16971975  1
  Pb  Pb51  1  0.83286564  0.49995373  0.50123991  1
  Pb  Pb52  1  0.17055875  0.16664226  0.83050082  1
  Pb  Pb53  1  0.50073156  0.83300128  0.49882609  1
  I  I54  1  0.16750341  0.00005644  0.16859602  1
  I  I55  1  0.16624135  0.00043518  0.49995716  1
  I  I56  1  0.16665675  0.00007077  0.83067610  1
  I  I57  1  0.16740190  0.33300632  0.16781061  1
  I  I58  1  0.16667985  0.33289195  0.50048497  1
  I  I59  1  0.15972728  0.33329876  0.82989946  1
  I  I60  1  0.16670504  0.66687984  0.16881253  1
  I  I61  1  0.16745949  0.66662787  0.50096388  1
  I  I62  1  0.17146215  0.66668813  0.82918678  1
  I  I63  1  0.50240018  -0.00223862  0.16877035  1
  I  I64  1  0.49837406  0.00277404  0.50243380  1
  I  I65  1  0.50281718  0.00258221  0.82795972  1
  I  I66  1  0.50109596  0.33326533  0.16721860  1
  I  I67  1  0.49782448  0.33269654  0.50294408  1
  I  I68  1  0.50786630  0.33369881  0.82753993  1
  I  I69  1  0.50277430  0.66962927  0.16967953  1
  I  I70  1  0.49662217  0.66395234  0.50305224  1
  I  I71  1  0.50304527  0.66357367  0.82806177  1
  I  I72  1  0.83068839  0.00271319  0.16826604  1
  I  I73  1  0.83558735  0.00040938  0.50192335  1
  I  I74  1  0.83077445  -0.00194974  0.83079471  1
  I  I75  1  0.83066023  0.32916682  0.17638282  1
  I  I76  1  0.83535682  0.33053689  0.49838393  1
  I  I77  1  0.82996299  0.33557446  0.83213952  1
  I  I78  1  0.83184783  0.66664499  0.16965648  1
  I  I79  1  0.83585497  0.66912889  0.50244714  1
  I  I80  1  0.82640574  0.66685699  0.82530215  1
  I  I81  1  0.16574452  0.16650214  -0.00003157  1
  I  I82  1  0.17297018  0.16627908  0.33844595  1
  I  I83  1  0.15953642  0.16701337  0.66183265  1
  I  I84  1  0.16694357  0.50035039  -0.00025989  1
  I  I85  1  0.17254165  0.49925098  0.33898761  1
  I  I86  1  0.16793780  0.49934428  0.66248351  1
  I  I87  1  0.16653526  0.83302029  0.00009675  1
  I  I88  1  0.15960356  0.83360934  0.33833075  1
  I  I89  1  0.16792701  0.83407915  0.66209898  1
  I  I90  1  0.50546933  0.16987849  -0.00282100  1
  I  I91  1  0.49826639  0.16906198  0.33704009  1
  I  I92  1  0.50264923  0.16946430  0.66482620  1
  I  I93  1  0.50619524  0.49568480  -0.00370534  1
  I  I94  1  0.49564532  0.49626401  0.33671937  1
  I  I95  1  0.50018022  0.49655726  0.66580003  1
  I  I96  1  0.50501233  0.83490826  0.00274975  1
  I  I97  1  0.50172413  0.83466023  0.33159987  1
  I  I98  1  0.49873557  0.83379200  0.66656901  1
  I  I99  1  0.82801624  0.16618091  0.00167913  1
  I  I100  1  0.83157742  0.16056317  0.33631946  1
  I  I101  1  0.83492107  0.16521890  0.66333014  1
  I  I102  1  0.82447659  0.50569242  -0.00529415  1
  I  I103  1  0.83326579  0.50247982  0.33343635  1
  I  I104  1  0.83145471  0.49924109  0.66909101  1
  I  I105  1  0.82811561  0.83155293  -0.00273311  1
  I  I106  1  0.83587912  0.83583267  0.33659521  1
  I  I107  1  0.83546666  0.83634777  0.66533646  1
  I  I108  1  -0.00424043  0.16451850  0.17069301  1
  I  I109  1  -0.00052175  0.16596576  0.49517868  1
  I  I110  1  0.00003351  0.16698468  0.83343912  1
  I  I111  1  -0.00032525  0.50154965  0.16795232  1
  I  I112  1  0.00197265  0.49732478  0.50192849  1
  I  I113  1  -0.00274902  0.50324555  0.83106001  1
  I  I114  1  0.00008118  0.83435945  0.16527340  1
  I  I115  1  -0.00071362  0.83679325  0.50362023  1
  I  I116  1  -0.00487777  0.82887543  0.83216509  1
  I  I117  1  0.33327459  0.16529136  0.16703261  1
  I  I118  1  0.33395029  0.16646722  0.50487987  1
  I  I119  1  0.33860641  0.17222267  0.82851688  1
  I  I120  1  0.33356149  0.50026852  0.16330864  1
  I  I121  1  0.33421144  0.49801427  0.50490808  1
  I  I122  1  0.33693837  0.49619475  0.83003452  1
  I  I123  1  0.33669304  0.83460040  0.16729146  1
  I  I124  1  0.33135559  0.83582632  0.49678567  1
  I  I125  1  0.33334281  0.83329007  0.83340059  1
  I  I126  1  0.66911714  0.16441522  0.17394117  1
  I  I127  1  0.66662028  0.16590900  0.50016256  1
  I  I128  1  0.66408561  0.16766178  0.82672640  1
  I  I129  1  0.66673241  0.50098843  0.17313745  1
  I  I130  1  0.66386280  0.49695644  0.50253576  1
  I  I131  1  0.66576586  0.49966044  0.82597152  1
  I  I132  1  0.66472219  0.83479141  0.17072343  1
  I  I133  1  0.66956421  0.83728708  0.50199460  1
  I  I134  1  0.66956495  0.83304672  0.82565763  1
