# generated using pymatgen
data_Cs27Sn13Pb14I81
_symmetry_space_group_name_H-M   'P 1'
_cell_length_a   18.97778382
_cell_length_b   18.98167854
_cell_length_c   18.97074920
_cell_angle_alpha   89.99945415
_cell_angle_beta   89.99980256
_cell_angle_gamma   90.00222817
_symmetry_Int_Tables_number   1
_chemical_formula_structural   Cs27Sn13Pb14I81
_chemical_formula_sum   'Cs27 Sn13 Pb14 I81'
_cell_volume   6833.83661705
_cell_formula_units_Z   1
loop_
 _symmetry_equiv_pos_site_id
 _symmetry_equiv_pos_as_xyz
  1  'x, y, z'
loop_
 _atom_site_type_symbol
 _atom_site_label
 _atom_site_symmetry_multiplicity
 _atom_site_fract_x
 _atom_site_fract_y
 _atom_site_fract_z
 _atom_site_occupancy
  Cs  Cs0  1  -0.00013996  0.00235526  -0.00226346  1
  Cs  Cs1  1  0.00033725  -0.00318700  0.33403014  1
  Cs  Cs2  1  0.00244207  -0.00271553  0.66857931  1
  Cs  Cs3  1  0.00292913  0.33020027  0.00082377  1
  Cs  Cs4  1  -0.00120653  0.33745020  0.33446207  1
  Cs  Cs5  1  -0.00095287  0.33451825  0.66566555  1
  Cs  Cs6  1  -0.00138985  0.66673113  0.00274692  1
  Cs  Cs7  1  -0.00173829  0.66505028  0.33021853  1
  Cs  Cs8  1  0.00160496  0.66764384  0.66609932  1
  Cs  Cs9  1  0.32982920  0.00362323  0.00142601  1
  Cs  Cs10  1  0.33608862  0.00203315  0.33222628  1
  Cs  Cs11  1  0.33086247  -0.00275223  0.66682375  1
  Cs  Cs12  1  0.33212424  0.33452381  0.00798398  1
  Cs  Cs13  1  0.33249858  0.32950396  0.32899008  1
  Cs  Cs14  1  0.33341341  0.33684800  0.66612563  1
  Cs  Cs15  1  0.33809306  0.66171020  0.00252524  1
  Cs  Cs16  1  0.33166594  0.66793563  0.33562308  1
  Cs  Cs17  1  0.33327076  0.66691174  0.66574985  1
  Cs  Cs18  1  0.66948812  -0.00174672  -0.00079144  1
  Cs  Cs19  1  0.66304361  0.00132642  0.33213924  1
  Cs  Cs20  1  0.66691057  0.00026727  0.66697991  1
  Cs  Cs21  1  0.66400838  0.33448036  -0.00407192  1
  Cs  Cs22  1  0.66967649  0.32883910  0.33804715  1
  Cs  Cs23  1  0.66745599  0.33196597  0.66601255  1
  Cs  Cs24  1  0.66471489  0.66753447  0.00302921  1
  Cs  Cs25  1  0.67010500  0.66840196  0.32741903  1
  Cs  Cs26  1  0.66452963  0.66718233  0.66796560  1
  Sn  Sn27  1  0.50001547  0.16582214  0.83295829  1
  Sn  Sn28  1  0.83233701  0.83326530  0.50066655  1
  Sn  Sn29  1  0.16746841  0.49903341  0.50084314  1
  Sn  Sn30  1  0.83319139  0.16676558  0.16616587  1
  Sn  Sn31  1  0.83274168  0.83298170  0.83250265  1
  Sn  Sn32  1  0.83278130  0.16660619  0.83392675  1
  Sn  Sn33  1  0.50052742  0.83439174  0.83262774  1
  Sn  Sn34  1  0.83431185  0.50025911  0.83299678  1
  Sn  Sn35  1  0.16602708  0.50008087  0.83288941  1
  Sn  Sn36  1  0.50114337  0.83233167  0.50080760  1
  Sn  Sn37  1  0.16660258  0.16747683  0.50056516  1
  Sn  Sn38  1  0.16684945  0.83332983  0.16623417  1
  Sn  Sn39  1  0.49972380  0.50056818  0.50005676  1
  Pb  Pb40  1  0.16697275  0.83262315  0.49873296  1
  Pb  Pb41  1  0.16437607  0.16485576  0.16929760  1
  Pb  Pb42  1  0.16715630  0.83092119  0.83536380  1
  Pb  Pb43  1  0.50034242  0.49982498  0.17103753  1
  Pb  Pb44  1  0.49809736  0.16634136  0.50220871  1
  Pb  Pb45  1  0.83465812  0.83504655  0.16609555  1
  Pb  Pb46  1  0.50008873  0.50009238  0.83196696  1
  Pb  Pb47  1  0.83319444  0.50244102  0.50193171  1
  Pb  Pb48  1  0.50262749  0.16650234  0.16352586  1
  Pb  Pb49  1  0.49792976  0.83339475  0.16635068  1
  Pb  Pb50  1  0.16682179  0.16894132  0.83185475  1
  Pb  Pb51  1  0.83323283  0.49705159  0.16353593  1
  Pb  Pb52  1  0.16665318  0.50175970  0.16711952  1
  Pb  Pb53  1  0.83513231  0.16423454  0.50096336  1
  I  I54  1  0.16605113  -0.00262085  0.16818927  1
  I  I55  1  0.16558286  0.00134739  0.49813035  1
  I  I56  1  0.16448410  -0.00009518  0.83227103  1
  I  I57  1  0.16585587  0.33326707  0.16548975  1
  I  I58  1  0.17077281  0.33464616  0.50416944  1
  I  I59  1  0.16277232  0.33678866  0.83079054  1
  I  I60  1  0.16469564  0.66931349  0.16884075  1
  I  I61  1  0.16794486  0.66396472  0.50279921  1
  I  I62  1  0.16292144  0.66328102  0.82646880  1
  I  I63  1  0.49821600  -0.00007099  0.17222830  1
  I  I64  1  0.50182617  -0.00308446  0.50199079  1
  I  I65  1  0.50783993  -0.00097853  0.82768183  1
  I  I66  1  0.49859528  0.33303901  0.16466984  1
  I  I67  1  0.49712649  0.33564281  0.50258519  1
  I  I68  1  0.50434956  0.33130619  0.83106734  1
  I  I69  1  0.50001175  0.66685988  0.16089224  1
  I  I70  1  0.49679172  0.66763738  0.50720987  1
  I  I71  1  0.50259905  0.66940877  0.83083696  1
  I  I72  1  0.83558919  0.00255346  0.16036572  1
  I  I73  1  0.83048282  -0.00361495  0.50493917  1
  I  I74  1  0.82893518  -0.00032362  0.83360010  1
  I  I75  1  0.83485853  0.32920475  0.16294919  1
  I  I76  1  0.83189732  0.33339529  0.50024691  1
  I  I77  1  0.83301076  0.33287823  0.83769043  1
  I  I78  1  0.83527686  0.66680613  0.16675433  1
  I  I79  1  0.83502962  0.67031919  0.50524518  1
  I  I80  1  0.83373116  0.66750629  0.82751140  1
  I  I81  1  0.16837094  0.16728888  -0.00021688  1
  I  I82  1  0.16568318  0.17215493  0.33711471  1
  I  I83  1  0.16426767  0.16666456  0.66402827  1
  I  I84  1  0.16236230  0.50193775  -0.00289528  1
  I  I85  1  0.17116182  0.49765945  0.33695265  1
  I  I86  1  0.16616666  0.49765849  0.66605805  1
  I  I87  1  0.16494419  0.83280465  0.00246154  1
  I  I88  1  0.16512775  0.83269230  0.33143425  1
  I  I89  1  0.16597324  0.83447398  0.66679689  1
  I  I90  1  0.50023262  0.16090490  -0.00487078  1
  I  I91  1  0.50029590  0.16678068  0.33363490  1
  I  I92  1  0.50754483  0.16544177  0.67005179  1
  I  I93  1  0.49892162  0.50044698  -0.00042817  1
  I  I94  1  0.49294031  0.50656457  0.33918321  1
  I  I95  1  0.49773027  0.50214652  0.66409881  1
  I  I96  1  0.50417340  0.83649502  -0.00371531  1
  I  I97  1  0.50297211  0.82874810  0.33682714  1
  I  I98  1  0.50336873  0.83327451  0.66685237  1
  I  I99  1  0.83097134  0.16401091  -0.00243622  1
  I  I100  1  0.83674426  0.16377158  0.33185880  1
  I  I101  1  0.83061029  0.16815132  0.67023276  1
  I  I102  1  0.83863621  0.50584706  -0.00522012  1
  I  I103  1  0.83396911  0.50040806  0.33364977  1
  I  I104  1  0.83493039  0.49516111  0.67021996  1
  I  I105  1  0.83053928  0.83174924  -0.00376963  1
  I  I106  1  0.83140059  0.83507929  0.33592503  1
  I  I107  1  0.83105799  0.83565803  0.66795087  1
  I  I108  1  -0.00304797  0.16490637  0.15808144  1
  I  I109  1  0.00281804  0.17081540  0.50174223  1
  I  I110  1  -0.00306624  0.16401864  0.83546805  1
  I  I111  1  -0.00008412  0.50134653  0.17115303  1
  I  I112  1  0.00257959  0.49790122  0.50239654  1
  I  I113  1  -0.00052436  0.50022276  0.82723512  1
  I  I114  1  0.00220301  0.83385156  0.16847388  1
  I  I115  1  -0.00222782  0.83464807  0.50349077  1
  I  I116  1  -0.00305582  0.83586877  0.82997062  1
  I  I117  1  0.33320526  0.16573423  0.16597617  1
  I  I118  1  0.33037060  0.16562682  0.50207966  1
  I  I119  1  0.33586417  0.16195326  0.82918819  1
  I  I120  1  0.33321043  0.50027020  0.15992021  1
  I  I121  1  0.33263659  0.50289616  0.50738354  1
  I  I122  1  0.33121670  0.50104761  0.83001389  1
  I  I123  1  0.33039350  0.83333761  0.16787392  1
  I  I124  1  0.33610534  0.83233327  0.50355240  1
  I  I125  1  0.33647590  0.83654209  0.82914493  1
  I  I126  1  0.67050545  0.16417083  0.16680790  1
  I  I127  1  0.66672131  0.16921391  0.49791731  1
  I  I128  1  0.66785847  0.16791258  0.83604884  1
  I  I129  1  0.66698217  0.50219399  0.16515970  1
  I  I130  1  0.66417382  0.50213595  0.50268246  1
  I  I131  1  0.66932942  0.49926272  0.83170356  1
  I  I132  1  0.66669276  0.83448371  0.16750389  1
  I  I133  1  0.66618336  0.82891144  0.50429053  1
  I  I134  1  0.66746582  0.83246381  0.82955672  1
