# generated using pymatgen
data_Cs27Sn14Pb13I81
_symmetry_space_group_name_H-M   'P 1'
_cell_length_a   18.98268840
_cell_length_b   18.96762511
_cell_length_c   18.98268840
_cell_angle_alpha   90.00036862
_cell_angle_beta   89.99714380
_cell_angle_gamma   90.00036858
_symmetry_Int_Tables_number   1
_chemical_formula_structural   Cs27Sn14Pb13I81
_chemical_formula_sum   'Cs27 Sn14 Pb13 I81'
_cell_volume   6834.84066170
_cell_formula_units_Z   1
loop_
 _symmetry_equiv_pos_site_id
 _symmetry_equiv_pos_as_xyz
  1  'x, y, z'
loop_
 _atom_site_type_symbol
 _atom_site_label
 _atom_site_symmetry_multiplicity
 _atom_site_fract_x
 _atom_site_fract_y
 _atom_site_fract_z
 _atom_site_occupancy
  Cs  Cs0  1  -0.00012885  0.00021436  -0.00124819  1
  Cs  Cs1  1  -0.00016094  0.00130160  0.33544890  1
  Cs  Cs2  1  0.00054500  -0.00075181  0.66721149  1
  Cs  Cs3  1  0.00044815  0.33821341  0.00438265  1
  Cs  Cs4  1  0.00019594  0.33963617  0.32879379  1
  Cs  Cs5  1  -0.00113901  0.33732963  0.66552750  1
  Cs  Cs6  1  -0.00232080  0.66396556  -0.00094327  1
  Cs  Cs7  1  -0.00259017  0.66093135  0.33362305  1
  Cs  Cs8  1  0.00100374  0.66457986  0.66767040  1
  Cs  Cs9  1  0.33253446  -0.00081337  -0.00079890  1
  Cs  Cs10  1  0.33339967  0.00026667  0.33361688  1
  Cs  Cs11  1  0.33208517  0.00021439  0.66653787  1
  Cs  Cs12  1  0.33286012  0.33332453  -0.00047317  1
  Cs  Cs13  1  0.33147134  0.33279273  0.33270624  1
  Cs  Cs14  1  0.33771605  0.33821332  0.66711483  1
  Cs  Cs15  1  0.33248765  0.67266215  -0.00084563  1
  Cs  Cs16  1  0.33661684  0.66843208  0.33676322  1
  Cs  Cs17  1  0.33239013  0.66396551  0.66434588  1
  Cs  Cs18  1  0.66695028  0.00026667  0.00006632  1
  Cs  Cs19  1  0.66714413  0.00083167  0.33381071  1
  Cs  Cs20  1  0.66878225  0.00130162  0.66650577  1
  Cs  Cs21  1  0.66603960  0.33279261  -0.00186202  1
  Cs  Cs22  1  0.66738640  0.33251546  0.33405314  1
  Cs  Cs23  1  0.66212700  0.33963608  0.66686260  1
  Cs  Cs24  1  0.67009666  0.66843200  0.00328348  1
  Cs  Cs25  1  0.66603338  0.66434691  0.33270008  1
  Cs  Cs26  1  0.66695629  0.66093126  0.66407662  1
  Sn  Sn27  1  0.16639654  0.83422130  0.83306324  1
  Sn  Sn28  1  0.83335471  0.83440444  0.83388049  1
  Sn  Sn29  1  0.16575781  0.16611140  0.83242450  1
  Sn  Sn30  1  0.49958043  0.49860606  0.16624707  1
  Sn  Sn31  1  0.83454292  0.83481675  0.16629099  1
  Sn  Sn32  1  0.16721388  0.83440447  0.50002136  1
  Sn  Sn33  1  0.16523109  0.83384592  0.16701746  1
  Sn  Sn34  1  0.83276260  0.16537198  0.16585490  1
  Sn  Sn35  1  0.50052132  0.16731666  0.16718802  1
  Sn  Sn36  1  0.16732822  0.16594227  0.50105239  1
  Sn  Sn37  1  0.49962429  0.83481673  0.50120961  1
  Sn  Sn38  1  0.83438574  0.16594230  0.83399489  1
  Sn  Sn39  1  0.49918828  0.16537198  0.49942925  1
  Sn  Sn40  1  0.50035075  0.83384587  0.83189777  1
  Pb  Pb41  1  0.50032835  0.83432003  0.16699503  1
  Pb  Pb42  1  0.83370462  0.16668979  0.50037132  1
  Pb  Pb43  1  0.49977153  0.49977936  0.49792514  1
  Pb  Pb44  1  0.16644228  0.16500759  0.16660004  1
  Pb  Pb45  1  0.16687054  0.49954394  0.49999800  1
  Pb  Pb46  1  0.16955186  0.50375168  0.16657308  1
  Pb  Pb47  1  0.49990642  0.50375169  0.83621856  1
  Pb  Pb48  1  0.83332656  0.49975870  0.49999322  1
  Pb  Pb49  1  0.49993335  0.16500761  0.83310897  1
  Pb  Pb50  1  0.16678654  0.49946486  0.83345321  1
  Pb  Pb51  1  0.83125843  0.49977932  0.16643822  1
  Pb  Pb52  1  0.83356471  0.83333976  0.50023139  1
  Pb  Pb53  1  0.83333138  0.49954393  0.83353723  1
  I  I54  1  0.16899907  -0.00337587  0.16627690  1
  I  I55  1  0.17193148  -0.00090821  0.50100188  1
  I  I56  1  0.16586865  -0.00127125  0.83253524  1
  I  I57  1  0.16392889  0.33317539  0.16710291  1
  I  I58  1  0.17119481  0.32922009  0.50494595  1
  I  I59  1  0.16218651  0.32919889  0.82885323  1
  I  I60  1  0.16246606  0.67236177  0.16573440  1
  I  I61  1  0.17110621  0.67068149  0.50066523  1
  I  I62  1  0.16639382  0.67096050  0.83306044  1
  I  I63  1  0.50153501  0.00264060  0.16820159  1
  I  I64  1  0.49542167  -0.00016060  0.49652122  1
  I  I65  1  0.49961015  -0.00337588  0.83566551  1
  I  I66  1  0.50596666  0.33089762  0.17263325  1
  I  I67  1  0.49635448  0.32968924  0.49812058  1
  I  I68  1  0.50043635  0.33317535  0.83059547  1
  I  I69  1  0.49913093  0.66578584  0.16579782  1
  I  I70  1  0.49592601  0.67011747  0.50211485  1
  I  I71  1  0.49906767  0.67236170  0.82913284  1
  I  I72  1  0.82985428  -0.00016067  0.16208841  1
  I  I73  1  0.83145037  -0.00007258  0.49811705  1
  I  I74  1  0.83433513  -0.00090816  0.83859818  1
  I  I75  1  0.83145390  0.32968927  0.16302110  1
  I  I76  1  0.83307569  0.33244541  0.49974184  1
  I  I77  1  0.83827921  0.32922010  0.83786199  1
  I  I78  1  0.83544853  0.67011747  0.16259270  1
  I  I79  1  0.83236085  0.66746965  0.49902790  1
  I  I80  1  0.83399852  0.67068149  0.83777260  1
  I  I81  1  0.16708795  0.16115148  -0.00249210  1
  I  I82  1  0.16852451  0.16104387  0.33569509  1
  I  I83  1  0.16656217  0.15750964  0.66691898  1
  I  I84  1  0.16796615  0.49972919  0.00016752  1
  I  I85  1  0.16595444  0.49963173  0.33315313  1
  I  I86  1  0.16734261  0.50484212  0.66671318  1
  I  I87  1  0.16858480  0.83685362  -0.00087175  1
  I  I88  1  0.16893913  0.83776669  0.33391198  1
  I  I89  1  0.16748698  0.83721863  0.66700517  1
  I  I90  1  0.50085294  0.16806996  0.00241235  1
  I  I91  1  0.49985520  0.16385280  0.33341722  1
  I  I92  1  0.49944016  0.16292640  0.66412296  1
  I  I93  1  0.50066527  0.49362280  0.00369466  1
  I  I94  1  0.50098833  0.50283085  0.33030796  1
  I  I95  1  0.50074350  0.49788891  0.66669794  1
  I  I96  1  0.49706306  0.83305309  -0.00200153  1
  I  I97  1  0.49624662  0.83348738  0.33566675  1
  I  I98  1  0.49715367  0.83939441  0.66623474  1
  I  I99  1  0.83214305  0.16157630  0.00023453  1
  I  I100  1  0.83127202  0.16192742  0.33028395  1
  I  I101  1  0.83445604  0.16001183  0.67003667  1
  I  I102  1  0.83176639  0.50161521  0.00009429  1
  I  I103  1  0.83297905  0.50113524  0.33262982  1
  I  I104  1  0.83189239  0.50061460  0.66712605  1
  I  I105  1  0.83492139  0.83644749  -0.00020270  1
  I  I106  1  0.83519079  0.83729586  0.33016156  1
  I  I107  1  0.83492471  0.83853020  0.67015165  1
  I  I108  1  -0.00254372  0.16292626  0.16610669  1
  I  I109  1  0.00336996  0.16001157  0.50112293  1
  I  I110  1  0.00025231  0.15750960  0.83322873  1
  I  I111  1  0.00003135  0.49788868  0.16741010  1
  I  I112  1  0.00045933  0.50061510  0.49855884  1
  I  I113  1  0.00004652  0.50484210  0.83400965  1
  I  I114  1  -0.00043190  0.83939474  0.16382019  1
  I  I115  1  0.00348501  0.83853004  0.50159116  1
  I  I116  1  0.00033848  0.83721863  0.83415394  1
  I  I117  1  0.33574567  0.16806994  0.16751967  1
  I  I118  1  0.33356781  0.16157644  0.49880980  1
  I  I119  1  0.33084129  0.16115157  0.83375452  1
  I  I120  1  0.33702797  0.49362269  0.16733175  1
  I  I121  1  0.33342764  0.50161482  0.49843337  1
  I  I122  1  0.33350086  0.49972906  0.83463269  1
  I  I123  1  0.33133185  0.83305299  0.16372976  1
  I  I124  1  0.33313060  0.83644754  0.50158827  1
  I  I125  1  0.33246161  0.83685361  0.83525131  1
  I  I126  1  0.66675058  0.16385291  0.16652189  1
  I  I127  1  0.66361727  0.16192753  0.49793857  1
  I  I128  1  0.66902837  0.16104380  0.83519121  1
  I  I129  1  0.66364133  0.50283107  0.16765527  1
  I  I130  1  0.66596320  0.50113495  0.49964569  1
  I  I131  1  0.66648643  0.49963189  0.83262090  1
  I  I132  1  0.66900014  0.83348707  0.16291346  1
  I  I133  1  0.66349488  0.83729593  0.50185726  1
  I  I134  1  0.66724532  0.83776675  0.83560567  1
