# generated using pymatgen
data_Cs27Sn14Pb13I81
_symmetry_space_group_name_H-M   'P 1'
_cell_length_a   18.95811856
_cell_length_b   18.96204192
_cell_length_c   18.96106894
_cell_angle_alpha   89.99994792
_cell_angle_beta   89.99957713
_cell_angle_gamma   89.99755561
_symmetry_Int_Tables_number   1
_chemical_formula_structural   Cs27Sn14Pb13I81
_chemical_formula_sum   'Cs27 Sn14 Pb13 I81'
_cell_volume   6816.21301610
_cell_formula_units_Z   1
loop_
 _symmetry_equiv_pos_site_id
 _symmetry_equiv_pos_as_xyz
  1  'x, y, z'
loop_
 _atom_site_type_symbol
 _atom_site_label
 _atom_site_symmetry_multiplicity
 _atom_site_fract_x
 _atom_site_fract_y
 _atom_site_fract_z
 _atom_site_occupancy
  Cs  Cs0  1  0.00192961  -0.00341025  0.00149662  1
  Cs  Cs1  1  0.00016135  0.00338041  0.33375629  1
  Cs  Cs2  1  -0.00208172  0.00119387  0.66280574  1
  Cs  Cs3  1  -0.00007133  0.33510489  -0.00095242  1
  Cs  Cs4  1  -0.00180348  0.33123278  0.33541362  1
  Cs  Cs5  1  0.00757544  0.33301925  0.66518726  1
  Cs  Cs6  1  -0.00091103  0.66676501  0.00250733  1
  Cs  Cs7  1  0.00107558  0.66638176  0.32679656  1
  Cs  Cs8  1  -0.00233602  0.66582054  0.66701042  1
  Cs  Cs9  1  0.33299442  -0.00265959  0.00006483  1
  Cs  Cs10  1  0.33191395  -0.00380061  0.33161151  1
  Cs  Cs11  1  0.33464464  0.00159764  0.66745000  1
  Cs  Cs12  1  0.33480223  0.33232726  -0.00127252  1
  Cs  Cs13  1  0.33667364  0.33624115  0.33437391  1
  Cs  Cs14  1  0.32606246  0.33194289  0.66625468  1
  Cs  Cs15  1  0.33240335  0.67031572  0.00028333  1
  Cs  Cs16  1  0.33524890  0.66690887  0.33583183  1
  Cs  Cs17  1  0.33357088  0.66528109  0.66371380  1
  Cs  Cs18  1  0.66553521  0.00244263  -0.00173389  1
  Cs  Cs19  1  0.66858422  0.00435712  0.33710751  1
  Cs  Cs20  1  0.66627549  -0.00217057  0.66647827  1
  Cs  Cs21  1  0.66558490  0.33291661  0.00087931  1
  Cs  Cs22  1  0.66642151  0.33215281  0.32910907  1
  Cs  Cs23  1  0.66607233  0.33255426  0.67069990  1
  Cs  Cs24  1  0.66833386  0.66523108  -0.00199680  1
  Cs  Cs25  1  0.66454120  0.66492595  0.33676303  1
  Cs  Cs26  1  0.66774749  0.66953683  0.66624836  1
  Sn  Sn27  1  0.16708224  0.83316890  0.83175307  1
  Sn  Sn28  1  0.83319977  0.49992570  0.50018305  1
  Sn  Sn29  1  0.49925599  0.83305169  0.83390769  1
  Sn  Sn30  1  0.16639825  0.83314419  0.50143470  1
  Sn  Sn31  1  0.83376344  0.50063405  0.16690845  1
  Sn  Sn32  1  0.50051438  0.16682663  0.83236550  1
  Sn  Sn33  1  0.50003607  0.16690954  0.50070474  1
  Sn  Sn34  1  0.83146930  0.83308127  0.16662578  1
  Sn  Sn35  1  0.83274831  0.49893331  0.83298641  1
  Sn  Sn36  1  0.16651864  0.49852007  0.16629014  1
  Sn  Sn37  1  0.50191765  0.83327777  0.16621351  1
  Sn  Sn38  1  0.83321059  0.16740989  0.83352559  1
  Sn  Sn39  1  0.16680500  0.16822014  0.16638143  1
  Sn  Sn40  1  0.50023309  0.50005691  0.83333174  1
  Pb  Pb41  1  0.16884998  0.16489971  0.49753944  1
  Pb  Pb42  1  0.83147874  0.16910578  0.50286636  1
  Pb  Pb43  1  0.83303622  0.83325747  0.83467704  1
  Pb  Pb44  1  0.83495768  0.16701500  0.16451747  1
  Pb  Pb45  1  0.16459177  0.50191840  0.49734109  1
  Pb  Pb46  1  0.50035029  0.50212776  0.16468537  1
  Pb  Pb47  1  0.16669193  0.83284376  0.16650707  1
  Pb  Pb48  1  0.16646712  0.50222755  0.83504579  1
  Pb  Pb49  1  0.83544526  0.83149859  0.49692385  1
  Pb  Pb50  1  0.50201039  0.49761045  0.50303099  1
  Pb  Pb51  1  0.49818427  0.16441120  0.16604942  1
  Pb  Pb52  1  0.49878599  0.83482465  0.50045314  1
  Pb  Pb53  1  0.16669674  0.16446582  0.83479488  1
  I  I54  1  0.16727560  0.00118334  0.16596088  1
  I  I55  1  0.16667691  -0.00303525  0.50045568  1
  I  I56  1  0.17038128  -0.00349623  0.83486391  1
  I  I57  1  0.16126759  0.33421096  0.16523596  1
  I  I58  1  0.16670559  0.33344800  0.49996802  1
  I  I59  1  0.16881681  0.33346388  0.83432848  1
  I  I60  1  0.16398790  0.66463425  0.16579700  1
  I  I61  1  0.16841770  0.66978403  0.50116493  1
  I  I62  1  0.17032115  0.67019067  0.83411206  1
  I  I63  1  0.50184187  -0.00363825  0.16085138  1
  I  I64  1  0.49962532  0.00261956  0.50520583  1
  I  I65  1  0.50001461  -0.00013908  0.83399121  1
  I  I66  1  0.50078563  0.33340199  0.16587004  1
  I  I67  1  0.49974459  0.32988923  0.50393882  1
  I  I68  1  0.50546737  0.33311521  0.83048926  1
  I  I69  1  0.49812412  0.67014307  0.16119701  1
  I  I70  1  0.49933170  0.66647651  0.50019288  1
  I  I71  1  0.50045399  0.66712403  0.83899127  1
  I  I72  1  0.83291068  -0.00232740  0.16347546  1
  I  I73  1  0.83394999  0.00017699  0.49968964  1
  I  I74  1  0.83048344  0.00203554  0.83626581  1
  I  I75  1  0.83608261  0.33656931  0.16725286  1
  I  I76  1  0.83319027  0.33700838  0.49405481  1
  I  I77  1  0.82533940  0.33454644  0.83655509  1
  I  I78  1  0.83696642  0.66552270  0.16339152  1
  I  I79  1  0.83269835  0.66347273  0.50543757  1
  I  I80  1  0.83083457  0.66372163  0.83327548  1
  I  I81  1  0.16818650  0.16656960  0.00259158  1
  I  I82  1  0.16704761  0.16636930  0.32976788  1
  I  I83  1  0.16534336  0.16610999  0.66679059  1
  I  I84  1  0.16087344  0.50039713  0.00299585  1
  I  I85  1  0.16185831  0.50002485  0.32922054  1
  I  I86  1  0.16567094  0.50047699  0.66677597  1
  I  I87  1  0.16853063  0.83364064  -0.00185665  1
  I  I88  1  0.16657020  0.83345796  0.33466161  1
  I  I89  1  0.17252645  0.83353004  0.66791902  1
  I  I90  1  0.50249630  0.16746160  -0.00340535  1
  I  I91  1  0.49738948  0.16393256  0.33505186  1
  I  I92  1  0.50366165  0.16379562  0.66906623  1
  I  I93  1  0.50510995  0.49599805  -0.00361629  1
  I  I94  1  0.50030365  0.50023796  0.33330733  1
  I  I95  1  0.50531284  0.50590934  0.67134133  1
  I  I96  1  0.49685391  0.83525045  -0.00134580  1
  I  I97  1  0.50015323  0.83483727  0.33087203  1
  I  I98  1  0.49756676  0.83228176  0.67014736  1
  I  I99  1  0.82686224  0.17114831  -0.00340755  1
  I  I100  1  0.83263836  0.16666168  0.33329878  1
  I  I101  1  0.83240453  0.16993707  0.67101602  1
  I  I102  1  0.83357621  0.50074476  -0.00011750  1
  I  I103  1  0.83864353  0.50558368  0.33193879  1
  I  I104  1  0.82828741  0.49666310  0.66820624  1
  I  I105  1  0.83539535  0.82804630  0.00264692  1
  I  I106  1  0.83045285  0.82839426  0.32874890  1
  I  I107  1  0.83241168  0.83224691  0.66668839  1
  I  I108  1  0.00274108  0.16403183  0.16454812  1
  I  I109  1  -0.00005043  0.16593551  0.50039846  1
  I  I110  1  -0.00244689  0.17027228  0.83658550  1
  I  I111  1  -0.00144932  0.50369993  0.16390264  1
  I  I112  1  -0.00347593  0.50021473  0.50531692  1
  I  I113  1  -0.00323324  0.49736684  0.83310371  1
  I  I114  1  -0.00195131  0.83140635  0.16555757  1
  I  I115  1  0.00327790  0.83368075  0.50466295  1
  I  I116  1  0.00199866  0.83325173  0.83365657  1
  I  I117  1  0.33038931  0.16910838  0.16453026  1
  I  I118  1  0.33657515  0.16663738  0.50759471  1
  I  I119  1  0.33649788  0.16827758  0.83158146  1
  I  I120  1  0.33118926  0.49923590  0.16418317  1
  I  I121  1  0.33340377  0.50029143  0.49915433  1
  I  I122  1  0.33602091  0.49827051  0.83611595  1
  I  I123  1  0.33530574  0.83412565  0.16463161  1
  I  I124  1  0.33080107  0.83358115  0.49764514  1
  I  I125  1  0.33481141  0.83387553  0.83729673  1
  I  I126  1  0.66654489  0.16756469  0.16767847  1
  I  I127  1  0.66355317  0.16454438  0.50063627  1
  I  I128  1  0.66562454  0.16527626  0.83157765  1
  I  I129  1  0.66982108  0.50283088  0.16705255  1
  I  I130  1  0.67004348  0.50112570  0.49449871  1
  I  I131  1  0.66729877  0.50119089  0.83599986  1
  I  I132  1  0.66662343  0.82844300  0.16010407  1
  I  I133  1  0.66682774  0.83345250  0.50116463  1
  I  I134  1  0.66378695  0.83354318  0.83657376  1
