# generated using pymatgen
data_Cs27Sn13Pb14I81
_symmetry_space_group_name_H-M   'P 1'
_cell_length_a   18.97511126
_cell_length_b   18.97551965
_cell_length_c   18.97993759
_cell_angle_alpha   90.00051677
_cell_angle_beta   90.00191951
_cell_angle_gamma   89.99908700
_symmetry_Int_Tables_number   1
_chemical_formula_structural   Cs27Sn13Pb14I81
_chemical_formula_sum   'Cs27 Sn13 Pb14 I81'
_cell_volume   6833.96560404
_cell_formula_units_Z   1
loop_
 _symmetry_equiv_pos_site_id
 _symmetry_equiv_pos_as_xyz
  1  'x, y, z'
loop_
 _atom_site_type_symbol
 _atom_site_label
 _atom_site_symmetry_multiplicity
 _atom_site_fract_x
 _atom_site_fract_y
 _atom_site_fract_z
 _atom_site_occupancy
  Cs  Cs0  1  -0.00117867  -0.00069138  -0.00030205  1
  Cs  Cs1  1  -0.00387241  0.00322444  0.33162415  1
  Cs  Cs2  1  0.00136103  -0.00095693  0.66678031  1
  Cs  Cs3  1  0.00247577  0.33474184  -0.00020158  1
  Cs  Cs4  1  -0.00283204  0.33355645  0.33448501  1
  Cs  Cs5  1  -0.00059291  0.32832844  0.66633910  1
  Cs  Cs6  1  0.00047171  0.66582581  0.00096908  1
  Cs  Cs7  1  0.00202621  0.66514530  0.33709939  1
  Cs  Cs8  1  -0.00344483  0.67100792  0.66134726  1
  Cs  Cs9  1  0.33382437  -0.00133786  0.00095660  1
  Cs  Cs10  1  0.33545656  0.00011432  0.33312251  1
  Cs  Cs11  1  0.33222101  -0.00059076  0.66641712  1
  Cs  Cs12  1  0.32896224  0.33900379  -0.00377167  1
  Cs  Cs13  1  0.33460653  0.33296528  0.33495045  1
  Cs  Cs14  1  0.33273628  0.33042020  0.66919046  1
  Cs  Cs15  1  0.33334721  0.66446383  0.00037299  1
  Cs  Cs16  1  0.33240045  0.66738759  0.33434246  1
  Cs  Cs17  1  0.33543204  0.66775440  0.66531218  1
  Cs  Cs18  1  0.66783802  0.00028914  0.00443813  1
  Cs  Cs19  1  0.67003248  0.00962191  0.32238189  1
  Cs  Cs20  1  0.66629404  -0.00056957  0.66879487  1
  Cs  Cs21  1  0.66725981  0.33415885  -0.00170794  1
  Cs  Cs22  1  0.66768988  0.32903009  0.33353593  1
  Cs  Cs23  1  0.66690241  0.33435857  0.66811549  1
  Cs  Cs24  1  0.66698034  0.66654138  0.00011770  1
  Cs  Cs25  1  0.66616735  0.66599165  0.33370808  1
  Cs  Cs26  1  0.66594667  0.66616450  0.66583603  1
  Sn  Sn27  1  0.83347315  0.49962678  0.83379261  1
  Sn  Sn28  1  0.50065528  0.50019366  0.16758518  1
  Sn  Sn29  1  0.16680506  0.83413256  0.16696906  1
  Sn  Sn30  1  0.16755747  0.83291141  0.83327791  1
  Sn  Sn31  1  0.49992125  0.83325573  0.50002625  1
  Sn  Sn32  1  0.16770731  0.50021942  0.50046679  1
  Sn  Sn33  1  0.49926000  0.83410825  0.83295018  1
  Sn  Sn34  1  0.83264260  0.16733771  0.83344776  1
  Sn  Sn35  1  0.16770152  0.83271851  0.49976279  1
  Sn  Sn36  1  0.50037517  0.16568998  0.83343294  1
  Sn  Sn37  1  0.83239166  0.50037326  0.16597149  1
  Sn  Sn38  1  0.16717988  0.16605321  0.16668521  1
  Sn  Sn39  1  0.49904694  0.50053370  0.49916738  1
  Pb  Pb40  1  0.50002301  0.16611632  0.50207396  1
  Pb  Pb41  1  0.83307350  0.16643106  0.50281830  1
  Pb  Pb42  1  0.16390823  0.50277566  0.83016593  1
  Pb  Pb43  1  0.83265163  0.83334912  0.83334522  1
  Pb  Pb44  1  0.83604610  0.83071252  0.16683276  1
  Pb  Pb45  1  0.50130975  0.50058602  0.83278454  1
  Pb  Pb46  1  0.16673901  0.16436673  0.83500985  1
  Pb  Pb47  1  0.83548521  0.16931768  0.16410871  1
  Pb  Pb48  1  0.16686302  0.16592266  0.49772549  1
  Pb  Pb49  1  0.49831398  0.83158791  0.16691533  1
  Pb  Pb50  1  0.49781298  0.16962792  0.16371126  1
  Pb  Pb51  1  0.16671509  0.50037342  0.16856584  1
  Pb  Pb52  1  0.83271764  0.49998163  0.50005658  1
  Pb  Pb53  1  0.83203937  0.83377166  0.49956374  1
  I  I54  1  0.16737887  -0.00141995  0.16753079  1
  I  I55  1  0.17108980  -0.00402179  0.50267237  1
  I  I56  1  0.16560979  -0.00378356  0.82850258  1
  I  I57  1  0.16620257  0.33185212  0.16700663  1
  I  I58  1  0.16992971  0.33615116  0.49736260  1
  I  I59  1  0.16861940  0.33349979  0.83445595  1
  I  I60  1  0.16634144  0.66936677  0.16524389  1
  I  I61  1  0.16968820  0.66761478  0.49774008  1
  I  I62  1  0.17199905  0.67067005  0.83905335  1
  I  I63  1  0.50019464  0.00005783  0.16878730  1
  I  I64  1  0.49315119  -0.00373945  0.50428394  1
  I  I65  1  0.50135911  -0.00114672  0.82767897  1
  I  I66  1  0.50126176  0.33746056  0.17150535  1
  I  I67  1  0.49614334  0.33660297  0.49764516  1
  I  I68  1  0.50305205  0.33161725  0.83400903  1
  I  I69  1  0.50078316  0.66349885  0.16506926  1
  I  I70  1  0.49552147  0.66667979  0.50276801  1
  I  I71  1  0.49719291  0.66942264  0.83236689  1
  I  I72  1  0.83290541  0.00036344  0.16565438  1
  I  I73  1  0.83576495  -0.00006042  0.50265441  1
  I  I74  1  0.83289270  0.00252802  0.83230632  1
  I  I75  1  0.83264358  0.33706746  0.16506736  1
  I  I76  1  0.83505734  0.33376337  0.49862456  1
  I  I77  1  0.82751835  0.33349459  0.83665242  1
  I  I78  1  0.83150343  0.66263633  0.15929361  1
  I  I79  1  0.83499308  0.66652887  0.50320342  1
  I  I80  1  0.83378521  0.66404550  0.83673617  1
  I  I81  1  0.16666564  0.16239181  0.00272353  1
  I  I82  1  0.16633725  0.16235034  0.32994991  1
  I  I83  1  0.16554184  0.16687258  0.66691967  1
  I  I84  1  0.16827470  0.50113976  -0.00011115  1
  I  I85  1  0.16598626  0.50565469  0.33619446  1
  I  I86  1  0.17236628  0.50440905  0.66256589  1
  I  I87  1  0.16969268  0.83780027  -0.00025429  1
  I  I88  1  0.17034991  0.83171407  0.33416547  1
  I  I89  1  0.16990653  0.82852403  0.66636776  1
  I  I90  1  0.50385778  0.16096868  -0.00398731  1
  I  I91  1  0.49902168  0.16485281  0.33289588  1
  I  I92  1  0.50245044  0.16792851  0.67034261  1
  I  I93  1  0.50223451  0.49984356  0.00173651  1
  I  I94  1  0.50115037  0.50606958  0.33406336  1
  I  I95  1  0.49775584  0.50136714  0.66402741  1
  I  I96  1  0.49570545  0.83484316  -0.00269414  1
  I  I97  1  0.49406798  0.82825584  0.33625312  1
  I  I98  1  0.49228984  0.83083043  0.66685575  1
  I  I99  1  0.82970992  0.16848358  -0.00355106  1
  I  I100  1  0.83478456  0.16763744  0.33257330  1
  I  I101  1  0.83135744  0.17422972  0.67131349  1
  I  I102  1  0.82825490  0.49702260  -0.00002303  1
  I  I103  1  0.83363703  0.50152636  0.33079108  1
  I  I104  1  0.83345152  0.49630897  0.66934902  1
  I  I105  1  0.83445530  0.83333673  -0.00013926  1
  I  I106  1  0.83438435  0.83034519  0.33315611  1
  I  I107  1  0.83868315  0.83111574  0.66683737  1
  I  I108  1  0.00315227  0.16381285  0.16467656  1
  I  I109  1  0.00031921  0.16793027  0.50196035  1
  I  I110  1  -0.00229274  0.17012687  0.83520562  1
  I  I111  1  -0.00191979  0.50009138  0.16363270  1
  I  I112  1  0.00267195  0.50526680  0.49965493  1
  I  I113  1  -0.00361965  0.49502922  0.83926538  1
  I  I114  1  0.00474201  0.83496038  0.16554839  1
  I  I115  1  0.00366974  0.82792964  0.50173836  1
  I  I116  1  0.00290438  0.83265793  0.83249657  1
  I  I117  1  0.33028163  0.16424708  0.16480617  1
  I  I118  1  0.33337667  0.16900819  0.50291232  1
  I  I119  1  0.33586118  0.16476337  0.83425351  1
  I  I120  1  0.33554640  0.50026724  0.16841529  1
  I  I121  1  0.33407311  0.50474554  0.49404036  1
  I  I122  1  0.33323000  0.49696619  0.83668040  1
  I  I123  1  0.32994056  0.83344904  0.16604985  1
  I  I124  1  0.33280116  0.82800623  0.50163126  1
  I  I125  1  0.33368088  0.83852042  0.83218655  1
  I  I126  1  0.66658510  0.16606580  0.16751738  1
  I  I127  1  0.66628010  0.16741560  0.49771389  1
  I  I128  1  0.66634540  0.16512156  0.83274983  1
  I  I129  1  0.66624754  0.50054925  0.16804137  1
  I  I130  1  0.66325604  0.50529295  0.49984370  1
  I  I131  1  0.66922108  0.50065099  0.83307026  1
  I  I132  1  0.66637225  0.83318802  0.16606610  1
  I  I133  1  0.66217121  0.82601331  0.50857976  1
  I  I134  1  0.66321931  0.83332727  0.82759990  1
