# generated using pymatgen
data_Cs27Sn14Pb13I81
_symmetry_space_group_name_H-M   'P 1'
_cell_length_a   18.97006768
_cell_length_b   18.97469958
_cell_length_c   18.98410141
_cell_angle_alpha   89.99946802
_cell_angle_beta   89.99990112
_cell_angle_gamma   89.99915858
_symmetry_Int_Tables_number   1
_chemical_formula_structural   Cs27Sn14Pb13I81
_chemical_formula_sum   'Cs27 Sn14 Pb13 I81'
_cell_volume   6833.35264909
_cell_formula_units_Z   1
loop_
 _symmetry_equiv_pos_site_id
 _symmetry_equiv_pos_as_xyz
  1  'x, y, z'
loop_
 _atom_site_type_symbol
 _atom_site_label
 _atom_site_symmetry_multiplicity
 _atom_site_fract_x
 _atom_site_fract_y
 _atom_site_fract_z
 _atom_site_occupancy
  Cs  Cs0  1  -0.00193757  -0.00277082  0.00041797  1
  Cs  Cs1  1  0.00117424  -0.00164641  0.33260588  1
  Cs  Cs2  1  -0.00114044  -0.00018269  0.66768243  1
  Cs  Cs3  1  -0.00216156  0.33198962  -0.00333569  1
  Cs  Cs4  1  -0.00003658  0.33582126  0.33453355  1
  Cs  Cs5  1  0.00035807  0.33101626  0.66937629  1
  Cs  Cs6  1  0.00129094  0.66941261  0.00157968  1
  Cs  Cs7  1  0.00186906  0.66561312  0.33363262  1
  Cs  Cs8  1  0.00127222  0.66769083  0.66458457  1
  Cs  Cs9  1  0.33580320  0.00404164  0.00275252  1
  Cs  Cs10  1  0.33345033  0.00754465  0.33328714  1
  Cs  Cs11  1  0.34294121  0.00524707  0.66311652  1
  Cs  Cs12  1  0.33385122  0.32862351  -0.00632018  1
  Cs  Cs13  1  0.33390963  0.33188334  0.33350243  1
  Cs  Cs14  1  0.33267743  0.33112845  0.67209143  1
  Cs  Cs15  1  0.33254270  0.66634235  0.00116401  1
  Cs  Cs16  1  0.33102003  0.66514184  0.33138455  1
  Cs  Cs17  1  0.33443266  0.66466474  0.66738829  1
  Cs  Cs18  1  0.66981709  0.00015019  0.00035214  1
  Cs  Cs19  1  0.66478076  -0.00047370  0.33508447  1
  Cs  Cs20  1  0.66260218  -0.00277979  0.66386456  1
  Cs  Cs21  1  0.66917486  0.33228283  -0.00031616  1
  Cs  Cs22  1  0.66637055  0.33778729  0.33248810  1
  Cs  Cs23  1  0.66861949  0.33341306  0.66916801  1
  Cs  Cs24  1  0.66485694  0.66677827  0.00149356  1
  Cs  Cs25  1  0.66572587  0.66357172  0.33462590  1
  Cs  Cs26  1  0.66304392  0.66939695  0.66327980  1
  Sn  Sn27  1  0.83304335  0.83375194  0.16657461  1
  Sn  Sn28  1  0.83361746  0.16579492  0.83298967  1
  Sn  Sn29  1  0.16662442  0.83351821  0.83314333  1
  Sn  Sn30  1  0.49860920  0.50064273  0.16703213  1
  Sn  Sn31  1  0.83392996  0.83279265  0.83368340  1
  Sn  Sn32  1  0.49880846  0.50008669  0.49943510  1
  Sn  Sn33  1  0.49981115  0.83261392  0.16685601  1
  Sn  Sn34  1  0.83361004  0.16648891  0.49960400  1
  Sn  Sn35  1  0.16765751  0.50050918  0.49953724  1
  Sn  Sn36  1  0.83371206  0.16584728  0.16743606  1
  Sn  Sn37  1  0.16688807  0.83312704  0.50012907  1
  Sn  Sn38  1  0.16761152  0.50017299  0.16681603  1
  Sn  Sn39  1  0.83345074  0.50138601  0.83329726  1
  Sn  Sn40  1  0.16714999  0.83278515  0.16669916  1
  Pb  Pb41  1  0.83389017  0.49838193  0.50243292  1
  Pb  Pb42  1  0.16429057  0.16711592  0.16665051  1
  Pb  Pb43  1  0.83504397  0.83480530  0.49977334  1
  Pb  Pb44  1  0.83371704  0.50065616  0.16517890  1
  Pb  Pb45  1  0.16474723  0.16296634  0.83336242  1
  Pb  Pb46  1  0.16495350  0.16708888  0.49993299  1
  Pb  Pb47  1  0.50257000  0.17005038  0.49971313  1
  Pb  Pb48  1  0.50278718  0.16640797  0.83346432  1
  Pb  Pb49  1  0.49976872  0.83323687  0.83577394  1
  Pb  Pb50  1  0.50219267  0.50030216  0.83391424  1
  Pb  Pb51  1  0.16477926  0.50196976  0.83358959  1
  Pb  Pb52  1  0.49672143  0.83127588  0.49704357  1
  Pb  Pb53  1  0.50259237  0.16727798  0.16671841  1
  I  I54  1  0.16827148  -0.00377951  0.16694300  1
  I  I55  1  0.16248290  -0.00317213  0.49846900  1
  I  I56  1  0.15917452  -0.00528175  0.83544123  1
  I  I57  1  0.16892983  0.33691933  0.17294154  1
  I  I58  1  0.16815541  0.33701332  0.49391201  1
  I  I59  1  0.16373229  0.33340474  0.83298043  1
  I  I60  1  0.16393081  0.66781621  0.16724508  1
  I  I61  1  0.16750619  0.66661902  0.49862060  1
  I  I62  1  0.15841361  0.66998543  0.83439653  1
  I  I63  1  0.49750567  -0.00314116  0.16480150  1
  I  I64  1  0.49952778  -0.00010718  0.49974282  1
  I  I65  1  0.50112866  -0.00041953  0.83457712  1
  I  I66  1  0.49793420  0.33696451  0.17094658  1
  I  I67  1  0.49445376  0.33784876  0.49229995  1
  I  I68  1  0.50282800  0.33360129  0.83563939  1
  I  I69  1  0.50281399  0.66675758  0.16959419  1
  I  I70  1  0.50211626  0.66343278  0.49861048  1
  I  I71  1  0.50624607  0.66674954  0.83147609  1
  I  I72  1  0.83383638  -0.00145448  0.16174283  1
  I  I73  1  0.83608037  0.00284091  0.50355546  1
  I  I74  1  0.83827340  -0.00071423  0.83562796  1
  I  I75  1  0.83307603  0.33134177  0.16443831  1
  I  I76  1  0.83435410  0.33035871  0.49936727  1
  I  I77  1  0.83177244  0.33275358  0.83394904  1
  I  I78  1  0.83392741  0.66984037  0.16138345  1
  I  I79  1  0.83193532  0.66657718  0.50059432  1
  I  I80  1  0.83713791  0.66826585  0.83950460  1
  I  I81  1  0.16396631  0.16895003  0.00007537  1
  I  I82  1  0.16069780  0.16171543  0.33320731  1
  I  I83  1  0.16152840  0.16778996  0.66667128  1
  I  I84  1  0.16881800  0.50467317  0.00311158  1
  I  I85  1  0.16812395  0.50811201  0.33284848  1
  I  I86  1  0.16850644  0.50444704  0.66393692  1
  I  I87  1  0.16380160  0.82902164  0.00115681  1
  I  I88  1  0.16450516  0.82890004  0.33220076  1
  I  I89  1  0.15764226  0.82846358  0.66670311  1
  I  I90  1  0.50193366  0.16914753  0.00040607  1
  I  I91  1  0.50500812  0.16393726  0.33318494  1
  I  I92  1  0.50290087  0.16764077  0.66636192  1
  I  I93  1  0.49724855  0.50453241  0.00363532  1
  I  I94  1  0.49853836  0.50405600  0.33230331  1
  I  I95  1  0.49727131  0.49887075  0.66388094  1
  I  I96  1  0.49752459  0.82641390  0.00408081  1
  I  I97  1  0.50410813  0.83159788  0.32905607  1
  I  I98  1  0.50146390  0.83232072  0.66625961  1
  I  I99  1  0.83320991  0.16567198  -0.00015322  1
  I  I100  1  0.83388233  0.16218865  0.33242561  1
  I  I101  1  0.83451888  0.16811574  0.66765742  1
  I  I102  1  0.83347018  0.49573447  -0.00262433  1
  I  I103  1  0.83300966  0.49830884  0.33333665  1
  I  I104  1  0.83357680  0.50014272  0.67020802  1
  I  I105  1  0.83757008  0.83754456  0.00052734  1
  I  I106  1  0.83448431  0.83799529  0.33004634  1
  I  I107  1  0.83849157  0.83425036  0.66953774  1
  I  I108  1  -0.00413643  0.16270028  0.16506596  1
  I  I109  1  -0.00343393  0.16897294  0.50064222  1
  I  I110  1  -0.00419716  0.16960727  0.83404542  1
  I  I111  1  0.00268198  0.50335806  0.17040491  1
  I  I112  1  0.00307424  0.50287170  0.49543882  1
  I  I113  1  -0.00338231  0.49732284  0.83391200  1
  I  I114  1  0.00023993  0.83348675  0.16546059  1
  I  I115  1  0.00308383  0.82713909  0.49535882  1
  I  I116  1  -0.00113112  0.83353315  0.83870246  1
  I  I117  1  0.33334861  0.16338950  0.16770420  1
  I  I118  1  0.33342377  0.16392309  0.49953790  1
  I  I119  1  0.33313378  0.16671802  0.83278336  1
  I  I120  1  0.33278164  0.51004669  0.17097804  1
  I  I121  1  0.33237963  0.50515367  0.49553156  1
  I  I122  1  0.33310565  0.50208389  0.83311190  1
  I  I123  1  0.33225755  0.82707361  0.16587252  1
  I  I124  1  0.32859995  0.83225528  0.50233091  1
  I  I125  1  0.32998689  0.82999476  0.83445874  1
  I  I126  1  0.67104711  0.16307737  0.16471439  1
  I  I127  1  0.67086101  0.16658541  0.50100469  1
  I  I128  1  0.67194067  0.16432669  0.83449943  1
  I  I129  1  0.66459657  0.50266883  0.16962997  1
  I  I130  1  0.66461544  0.49724574  0.49599213  1
  I  I131  1  0.67063978  0.50065633  0.83404604  1
  I  I132  1  0.66756719  0.83350275  0.16096672  1
  I  I133  1  0.66636517  0.83312287  0.50053527  1
  I  I134  1  0.67031811  0.83487841  0.83816232  1
