# generated using pymatgen
data_Cs27Sn14Pb13I81
_symmetry_space_group_name_H-M   'P 1'
_cell_length_a   18.97714398
_cell_length_b   18.97227632
_cell_length_c   18.97725279
_cell_angle_alpha   89.99877285
_cell_angle_beta   90.00117237
_cell_angle_gamma   89.99887682
_symmetry_Int_Tables_number   1
_chemical_formula_structural   Cs27Sn14Pb13I81
_chemical_formula_sum   'Cs27 Sn14 Pb13 I81'
_cell_volume   6832.56287006
_cell_formula_units_Z   1
loop_
 _symmetry_equiv_pos_site_id
 _symmetry_equiv_pos_as_xyz
  1  'x, y, z'
loop_
 _atom_site_type_symbol
 _atom_site_label
 _atom_site_symmetry_multiplicity
 _atom_site_fract_x
 _atom_site_fract_y
 _atom_site_fract_z
 _atom_site_occupancy
  Cs  Cs0  1  0.00378809  0.00594478  -0.00016473  1
  Cs  Cs1  1  -0.00435323  0.00219163  0.33535855  1
  Cs  Cs2  1  -0.00140273  -0.00428341  0.66646545  1
  Cs  Cs3  1  -0.00616184  0.32673206  0.00249391  1
  Cs  Cs4  1  0.00022881  0.33293641  0.33044668  1
  Cs  Cs5  1  -0.00193190  0.33314961  0.66561700  1
  Cs  Cs6  1  -0.00179172  0.66579156  0.00083180  1
  Cs  Cs7  1  0.00058814  0.66588222  0.33381000  1
  Cs  Cs8  1  0.00430624  0.67026777  0.66451171  1
  Cs  Cs9  1  0.33028879  0.00237003  -0.00041448  1
  Cs  Cs10  1  0.33724706  0.00298669  0.33191189  1
  Cs  Cs11  1  0.33079696  -0.00009551  0.66905648  1
  Cs  Cs12  1  0.33295808  0.33063798  -0.00199113  1
  Cs  Cs13  1  0.33293678  0.33473135  0.33488188  1
  Cs  Cs14  1  0.33599143  0.33541188  0.66345767  1
  Cs  Cs15  1  0.33352290  0.66705473  0.00394629  1
  Cs  Cs16  1  0.33386518  0.66527154  0.33203170  1
  Cs  Cs17  1  0.33086119  0.66541238  0.66619392  1
  Cs  Cs18  1  0.66545468  -0.00675084  -0.00191525  1
  Cs  Cs19  1  0.66423067  0.00037669  0.33509984  1
  Cs  Cs20  1  0.66923264  0.00074101  0.66590954  1
  Cs  Cs21  1  0.67395170  0.33426562  -0.00958617  1
  Cs  Cs22  1  0.66629924  0.33371989  0.33413808  1
  Cs  Cs23  1  0.66595439  0.33229591  0.67297969  1
  Cs  Cs24  1  0.66960769  0.66928563  -0.00105271  1
  Cs  Cs25  1  0.66407731  0.66685816  0.33176786  1
  Cs  Cs26  1  0.66624911  0.66648437  0.66855287  1
  Sn  Sn27  1  0.49986834  0.83288614  0.83220051  1
  Sn  Sn28  1  0.16724127  0.50034213  0.16617962  1
  Sn  Sn29  1  0.50044562  0.16871644  0.16675679  1
  Sn  Sn30  1  0.16654658  0.49920451  0.49978971  1
  Sn  Sn31  1  0.49965733  0.83316690  0.50120802  1
  Sn  Sn32  1  0.83328992  0.83289511  0.83401727  1
  Sn  Sn33  1  0.49912204  0.16708325  0.49936902  1
  Sn  Sn34  1  0.16543923  0.83305040  0.16719584  1
  Sn  Sn35  1  0.16734187  0.16717633  0.49987346  1
  Sn  Sn36  1  0.16668587  0.49977514  0.83400538  1
  Sn  Sn37  1  0.50040230  0.49987473  0.49943170  1
  Sn  Sn38  1  0.83301064  0.50018240  0.49980201  1
  Sn  Sn39  1  0.49983339  0.49843001  0.16666436  1
  Sn  Sn40  1  0.83485104  0.83320973  0.16640124  1
  Pb  Pb41  1  0.83096908  0.83132376  0.49976522  1
  Pb  Pb42  1  0.83620677  0.50232169  0.83078986  1
  Pb  Pb43  1  0.83350270  0.16345918  0.83317345  1
  Pb  Pb44  1  0.82965777  0.16374309  0.16681919  1
  Pb  Pb45  1  0.16674162  0.83159098  0.83577695  1
  Pb  Pb46  1  0.49992254  0.16410488  0.83308231  1
  Pb  Pb47  1  0.16901256  0.83348089  0.49758529  1
  Pb  Pb48  1  0.16844924  0.16733847  0.16880933  1
  Pb  Pb49  1  0.49969614  0.83302309  0.16676636  1
  Pb  Pb50  1  0.16687720  0.16976210  0.83005983  1
  Pb  Pb51  1  0.83300061  0.50145094  0.16823056  1
  Pb  Pb52  1  0.83287689  0.16941087  0.49989739  1
  Pb  Pb53  1  0.49842760  0.50196638  0.83384210  1
  I  I54  1  0.16571838  -0.00221860  0.16766783  1
  I  I55  1  0.17242508  0.00234788  0.49749681  1
  I  I56  1  0.16632404  -0.00015308  0.83356645  1
  I  I57  1  0.16972504  0.33693899  0.16643822  1
  I  I58  1  0.17162287  0.33534475  0.49876143  1
  I  I59  1  0.16857317  0.33789686  0.83804304  1
  I  I60  1  0.16990095  0.66508349  0.16934990  1
  I  I61  1  0.16783301  0.66333472  0.50141651  1
  I  I62  1  0.16752734  0.66378844  0.82665482  1
  I  I63  1  0.50049450  0.00161630  0.17094772  1
  I  I64  1  0.49583114  0.00038586  0.49812041  1
  I  I65  1  0.50363557  -0.00411498  0.83046400  1
  I  I66  1  0.49279055  0.33477365  0.17681737  1
  I  I67  1  0.49822443  0.33440167  0.49455845  1
  I  I68  1  0.49841558  0.33356868  0.83131835  1
  I  I69  1  0.49824505  0.66415097  0.17092979  1
  I  I70  1  0.49972158  0.66543332  0.49894761  1
  I  I71  1  0.50284656  0.66988814  0.82943815  1
  I  I72  1  0.83829590  -0.00454135  0.16366248  1
  I  I73  1  0.83337512  -0.00026339  0.50079081  1
  I  I74  1  0.82889409  -0.00486668  0.83559089  1
  I  I75  1  0.83597669  0.33341289  0.16855400  1
  I  I76  1  0.83036043  0.33749243  0.49897490  1
  I  I77  1  0.83373463  0.33389638  0.83214657  1
  I  I78  1  0.83141913  0.66954539  0.16421245  1
  I  I79  1  0.83467149  0.66351116  0.49967174  1
  I  I80  1  0.82807749  0.66992024  0.83732083  1
  I  I81  1  0.16868513  0.16627041  0.00026825  1
  I  I82  1  0.16986673  0.17226175  0.33670396  1
  I  I83  1  0.17433643  0.17093143  0.66188669  1
  I  I84  1  0.17322409  0.50767186  0.00148601  1
  I  I85  1  0.16817659  0.50088767  0.33379799  1
  I  I86  1  0.16751938  0.49671033  0.66486989  1
  I  I87  1  0.16924204  0.82733298  0.00367388  1
  I  I88  1  0.16334126  0.82655170  0.32989105  1
  I  I89  1  0.16481207  0.83254944  0.66637706  1
  I  I90  1  0.49933122  0.16877128  0.00299244  1
  I  I91  1  0.49627515  0.16431500  0.33467794  1
  I  I92  1  0.49657579  0.16982318  0.66289309  1
  I  I93  1  0.49411670  0.49876430  0.00323464  1
  I  I94  1  0.49574086  0.50272243  0.33448248  1
  I  I95  1  0.49877096  0.49835654  0.66331184  1
  I  I96  1  0.50137581  0.83267491  -0.00166481  1
  I  I97  1  0.49985080  0.83274677  0.33570276  1
  I  I98  1  0.50524037  0.83250151  0.66570810  1
  I  I99  1  0.83231613  0.17059083  0.00024348  1
  I  I100  1  0.83475697  0.16232880  0.33344101  1
  I  I101  1  0.83165294  0.16493619  0.66621002  1
  I  I102  1  0.83288757  0.50038043  -0.00011572  1
  I  I103  1  0.83646508  0.50359928  0.33622632  1
  I  I104  1  0.83130915  0.50210468  0.66285093  1
  I  I105  1  0.82839268  0.83110724  0.00012706  1
  I  I106  1  0.83537496  0.83151334  0.33091163  1
  I  I107  1  0.83017005  0.83128912  0.66877617  1
  I  I108  1  0.00002420  0.16800467  0.16812710  1
  I  I109  1  0.00295975  0.17166938  0.50002593  1
  I  I110  1  0.00040143  0.16462623  0.83178821  1
  I  I111  1  0.00310539  0.50392888  0.16904870  1
  I  I112  1  0.00165384  0.49660668  0.49996789  1
  I  I113  1  0.00397263  0.50358031  0.83287548  1
  I  I114  1  0.00049730  0.82623709  0.16223956  1
  I  I115  1  0.00017167  0.83304506  0.50221843  1
  I  I116  1  -0.00232327  0.83055215  0.83514325  1
  I  I117  1  0.33647622  0.16400282  0.16969322  1
  I  I118  1  0.33458421  0.17147630  0.49642114  1
  I  I119  1  0.33339880  0.16166072  0.83551383  1
  I  I120  1  0.33307531  0.50403967  0.17207692  1
  I  I121  1  0.33356526  0.49977695  0.49951260  1
  I  I122  1  0.33061759  0.50380761  0.82845506  1
  I  I123  1  0.33144558  0.83093581  0.16739202  1
  I  I124  1  0.33720278  0.82869087  0.50357951  1
  I  I125  1  0.33574783  0.83216286  0.83020375  1
  I  I126  1  0.66169078  0.17045558  0.17556519  1
  I  I127  1  0.66280440  0.16600642  0.49589211  1
  I  I128  1  0.66639454  0.16993448  0.83103358  1
  I  I129  1  0.66344103  0.49947173  0.17340140  1
  I  I130  1  0.66483622  0.50172352  0.49435955  1
  I  I131  1  0.66680942  0.49999789  0.83271629  1
  I  I132  1  0.66814875  0.83334356  0.16569179  1
  I  I133  1  0.66271589  0.83318186  0.49808598  1
  I  I134  1  0.66624391  0.83217375  0.83631473  1
