# generated using pymatgen
data_Cs27Sn14Pb13I81
_symmetry_space_group_name_H-M   'P 1'
_cell_length_a   18.97385448
_cell_length_b   18.98325783
_cell_length_c   18.97050079
_cell_angle_alpha   90.00053955
_cell_angle_beta   89.99808445
_cell_angle_gamma   89.99883825
_symmetry_Int_Tables_number   1
_chemical_formula_structural   Cs27Sn14Pb13I81
_chemical_formula_sum   'Cs27 Sn14 Pb13 I81'
_cell_volume   6832.90066418
_cell_formula_units_Z   1
loop_
 _symmetry_equiv_pos_site_id
 _symmetry_equiv_pos_as_xyz
  1  'x, y, z'
loop_
 _atom_site_type_symbol
 _atom_site_label
 _atom_site_symmetry_multiplicity
 _atom_site_fract_x
 _atom_site_fract_y
 _atom_site_fract_z
 _atom_site_occupancy
  Cs  Cs0  1  0.00279730  0.00450946  0.00097046  1
  Cs  Cs1  1  -0.00067963  -0.00054822  0.33440030  1
  Cs  Cs2  1  -0.00025008  -0.00532078  0.66346197  1
  Cs  Cs3  1  -0.00206944  0.33428131  -0.00035847  1
  Cs  Cs4  1  0.00283210  0.33146565  0.33282399  1
  Cs  Cs5  1  0.00052489  0.33345490  0.66758817  1
  Cs  Cs6  1  0.00193720  0.66221835  -0.00153557  1
  Cs  Cs7  1  -0.00070762  0.66836527  0.33452249  1
  Cs  Cs8  1  -0.00195500  0.66987325  0.66540768  1
  Cs  Cs9  1  0.33345472  -0.00044607  -0.00162465  1
  Cs  Cs10  1  0.33169316  0.00322057  0.33180998  1
  Cs  Cs11  1  0.33692431  0.00184166  0.67163729  1
  Cs  Cs12  1  0.33171462  0.33511686  0.00257998  1
  Cs  Cs13  1  0.33300960  0.33395845  0.33388638  1
  Cs  Cs14  1  0.33564953  0.33343186  0.66115717  1
  Cs  Cs15  1  0.33286967  0.66560285  -0.00077455  1
  Cs  Cs16  1  0.33359484  0.66363351  0.33234795  1
  Cs  Cs17  1  0.33344216  0.66515553  0.67000720  1
  Cs  Cs18  1  0.66303495  0.00264517  0.00060557  1
  Cs  Cs19  1  0.67022384  -0.00540641  0.33198522  1
  Cs  Cs20  1  0.66626733  0.00184912  0.66756840  1
  Cs  Cs21  1  0.67205229  0.33351779  -0.00323393  1
  Cs  Cs22  1  0.66352948  0.33377192  0.33281345  1
  Cs  Cs23  1  0.66426476  0.32978696  0.67017994  1
  Cs  Cs24  1  0.66460877  0.66444694  0.00454058  1
  Cs  Cs25  1  0.66798201  0.67028095  0.33407710  1
  Cs  Cs26  1  0.67122813  0.66649486  0.66271546  1
  Sn  Sn27  1  0.16739909  0.49886008  0.83360091  1
  Sn  Sn28  1  0.83318112  0.83345257  0.50094153  1
  Sn  Sn29  1  0.49939049  0.49906425  0.16585554  1
  Sn  Sn30  1  0.49936466  0.83338227  0.50023208  1
  Sn  Sn31  1  0.49952818  0.16738079  0.16673805  1
  Sn  Sn32  1  0.83316035  0.83334141  0.83384092  1
  Sn  Sn33  1  0.83336705  0.16683539  0.49992846  1
  Sn  Sn34  1  0.49948139  0.50017423  0.83382275  1
  Sn  Sn35  1  0.16660087  0.83315587  0.16728971  1
  Sn  Sn36  1  0.83349513  0.49940291  0.49979924  1
  Sn  Sn37  1  0.16661501  0.16777595  0.83353493  1
  Sn  Sn38  1  0.16777235  0.83324852  0.49954921  1
  Sn  Sn39  1  0.16739679  0.16696930  0.16595993  1
  Sn  Sn40  1  0.16720817  0.49994299  0.16619695  1
  Pb  Pb41  1  0.83585582  0.83331757  0.16617008  1
  Pb  Pb42  1  0.83331432  0.49992476  0.16892541  1
  Pb  Pb43  1  0.16548511  0.16442149  0.50008522  1
  Pb  Pb44  1  0.49767293  0.16911812  0.83574726  1
  Pb  Pb45  1  0.16510641  0.50198338  0.50012683  1
  Pb  Pb46  1  0.50254520  0.83084686  0.83139680  1
  Pb  Pb47  1  0.83586009  0.16432838  0.83128522  1
  Pb  Pb48  1  0.49752178  0.83307190  0.16825805  1
  Pb  Pb49  1  0.50217051  0.16427469  0.49738926  1
  Pb  Pb50  1  0.83352367  0.50158185  0.83141836  1
  Pb  Pb51  1  0.50196163  0.50154630  0.49969099  1
  Pb  Pb52  1  0.83337761  0.16675875  0.16846893  1
  Pb  Pb53  1  0.16544803  0.83306092  0.83357600  1
  I  I54  1  0.16920104  0.00047951  0.16720313  1
  I  I55  1  0.16250344  -0.00373241  0.49595315  1
  I  I56  1  0.16329303  0.00187314  0.83628060  1
  I  I57  1  0.17001290  0.33357321  0.16259887  1
  I  I58  1  0.16272857  0.33335322  0.49803863  1
  I  I59  1  0.16801455  0.33422573  0.84116556  1
  I  I60  1  0.16949113  0.66591624  0.16707678  1
  I  I61  1  0.16274233  0.67014535  0.49631534  1
  I  I62  1  0.16842134  0.66400593  0.83630192  1
  I  I63  1  0.49602067  0.00226745  0.17008135  1
  I  I64  1  0.50201167  -0.00369221  0.49826274  1
  I  I65  1  0.49959215  0.00010259  0.83348789  1
  I  I66  1  0.49159569  0.33419104  0.16569431  1
  I  I67  1  0.50334361  0.33331655  0.50137499  1
  I  I68  1  0.50040984  0.33708581  0.83253729  1
  I  I69  1  0.49606304  0.66371611  0.16446006  1
  I  I70  1  0.50318884  0.66951347  0.49759079  1
  I  I71  1  0.49239538  0.66313757  0.84000884  1
  I  I72  1  0.83355574  -0.00005813  0.17011340  1
  I  I73  1  0.83444254  -0.00156194  0.50297841  1
  I  I74  1  0.83592778  -0.00333227  0.82576106  1
  I  I75  1  0.83784265  0.33341075  0.17048505  1
  I  I76  1  0.83471475  0.33337635  0.49795689  1
  I  I77  1  0.83218673  0.33333233  0.82987722  1
  I  I78  1  0.83327564  0.66664220  0.17053926  1
  I  I79  1  0.83375988  0.66824985  0.50350938  1
  I  I80  1  0.83668314  0.66921056  0.82460940  1
  I  I81  1  0.16912160  0.16364890  0.00131783  1
  I  I82  1  0.16843607  0.16894016  0.33023844  1
  I  I83  1  0.16325203  0.16985859  0.66914876  1
  I  I84  1  0.16925942  0.50283091  0.00074563  1
  I  I85  1  0.16969579  0.49785122  0.33028310  1
  I  I86  1  0.16939528  0.49722581  0.66956670  1
  I  I87  1  0.16433263  0.83337620  0.00278730  1
  I  I88  1  0.16359292  0.83314065  0.33341589  1
  I  I89  1  0.16528993  0.83304689  0.66413076  1
  I  I90  1  0.49903136  0.16527931  0.00383426  1
  I  I91  1  0.49207177  0.17402041  0.32973788  1
  I  I92  1  0.49936954  0.16728884  0.66670305  1
  I  I93  1  0.49602510  0.49823833  0.00089568  1
  I  I94  1  0.49580496  0.49747224  0.33025862  1
  I  I95  1  0.49621308  0.50324855  0.66907333  1
  I  I96  1  0.50116673  0.83490802  0.00011596  1
  I  I97  1  0.50635420  0.83112454  0.33631498  1
  I  I98  1  0.49550095  0.83148047  0.66309990  1
  I  I99  1  0.83225639  0.16417656  -0.00016286  1
  I  I100  1  0.83616643  0.16189150  0.33663477  1
  I  I101  1  0.83511094  0.16729139  0.66313419  1
  I  I102  1  0.83349188  0.50306962  -0.00012228  1
  I  I103  1  0.83379628  0.50515124  0.33698612  1
  I  I104  1  0.83400093  0.50100298  0.66338319  1
  I  I105  1  0.83655253  0.83166375  -0.00276221  1
  I  I106  1  0.83207056  0.83333748  0.33678208  1
  I  I107  1  0.83698321  0.83255324  0.66413058  1
  I  I108  1  0.00370269  0.16689286  0.16462465  1
  I  I109  1  -0.00256768  0.16314154  0.49793223  1
  I  I110  1  0.00374760  0.17295750  0.84075064  1
  I  I111  1  0.00366190  0.49978016  0.16343668  1
  I  I112  1  -0.00282527  0.50409796  0.50001055  1
  I  I113  1  0.00309785  0.49817929  0.83736600  1
  I  I114  1  0.00430049  0.83343397  0.17317772  1
  I  I115  1  -0.00056370  0.83326892  0.49985133  1
  I  I116  1  -0.00214651  0.83130173  0.82545869  1
  I  I117  1  0.33177658  0.16676025  0.16466043  1
  I  I118  1  0.33337928  0.16402691  0.50151608  1
  I  I119  1  0.32952956  0.16474500  0.83327731  1
  I  I120  1  0.33228085  0.50026659  0.16404627  1
  I  I121  1  0.33331794  0.50326246  0.50041602  1
  I  I122  1  0.33219046  0.49860312  0.83674329  1
  I  I123  1  0.32932846  0.83318762  0.17229150  1
  I  I124  1  0.33247547  0.83211129  0.49401210  1
  I  I125  1  0.33331322  0.83472592  0.83067273  1
  I  I126  1  0.66364792  0.17135996  0.16975114  1
  I  I127  1  0.67017322  0.16406269  0.49859746  1
  I  I128  1  0.66659783  0.16719166  0.83398330  1
  I  I129  1  0.66326901  0.49552064  0.16336133  1
  I  I130  1  0.66988231  0.50438798  0.49966379  1
  I  I131  1  0.66417717  0.50314953  0.83692222  1
  I  I132  1  0.66641947  0.83306492  0.16876586  1
  I  I133  1  0.66800391  0.83250867  0.50393778  1
  I  I134  1  0.67029175  0.83172185  0.82545073  1
