# generated using pymatgen
data_Cs27Sn14Pb13I81
_symmetry_space_group_name_H-M   'P 1'
_cell_length_a   18.96216430
_cell_length_b   18.95860599
_cell_length_c   18.96223484
_cell_angle_alpha   89.99955425
_cell_angle_beta   90.00107846
_cell_angle_gamma   90.00049662
_symmetry_Int_Tables_number   1
_chemical_formula_structural   Cs27Sn14Pb13I81
_chemical_formula_sum   'Cs27 Sn14 Pb13 I81'
_cell_volume   6816.85139903
_cell_formula_units_Z   1
loop_
 _symmetry_equiv_pos_site_id
 _symmetry_equiv_pos_as_xyz
  1  'x, y, z'
loop_
 _atom_site_type_symbol
 _atom_site_label
 _atom_site_symmetry_multiplicity
 _atom_site_fract_x
 _atom_site_fract_y
 _atom_site_fract_z
 _atom_site_occupancy
  Cs  Cs0  1  0.00251496  0.00037253  0.00288165  1
  Cs  Cs1  1  0.00580078  0.00400885  0.33896475  1
  Cs  Cs2  1  -0.00279364  -0.00188194  0.65916684  1
  Cs  Cs3  1  -0.00203276  0.33413947  -0.00090903  1
  Cs  Cs4  1  -0.00275334  0.32750405  0.33210115  1
  Cs  Cs5  1  0.00000164  0.33564098  0.66813129  1
  Cs  Cs6  1  0.00221501  0.66491172  -0.00019813  1
  Cs  Cs7  1  0.00232552  0.66891025  0.33419941  1
  Cs  Cs8  1  -0.00144110  0.66491450  0.66574863  1
  Cs  Cs9  1  0.33483871  -0.00061205  0.00097537  1
  Cs  Cs10  1  0.32940293  -0.00126596  0.33225677  1
  Cs  Cs11  1  0.33563801  0.00123424  0.66674233  1
  Cs  Cs12  1  0.33295688  0.33248727  -0.00412104  1
  Cs  Cs13  1  0.33626471  0.33503026  0.33530142  1
  Cs  Cs14  1  0.33352231  0.33408206  0.66865850  1
  Cs  Cs15  1  0.32978715  0.66759918  -0.00106570  1
  Cs  Cs16  1  0.33421590  0.66645248  0.33343782  1
  Cs  Cs17  1  0.33296166  0.66366082  0.66782063  1
  Cs  Cs18  1  0.66429873  -0.00274688  -0.00151426  1
  Cs  Cs19  1  0.66691877  0.00027639  0.33377420  1
  Cs  Cs20  1  0.66712125  -0.00260166  0.66754268  1
  Cs  Cs21  1  0.66804739  0.33312580  0.00149709  1
  Cs  Cs22  1  0.66716716  0.33656117  0.33006133  1
  Cs  Cs23  1  0.66606372  0.33277531  0.66638492  1
  Cs  Cs24  1  0.66751477  0.67030894  0.00216552  1
  Cs  Cs25  1  0.66431894  0.66310955  0.32975141  1
  Cs  Cs26  1  0.66868627  0.66977764  0.66686556  1
  Sn  Sn27  1  0.16626797  0.16503992  0.83309267  1
  Sn  Sn28  1  0.16565972  0.49962704  0.49848212  1
  Sn  Sn29  1  0.49998221  0.16601310  0.16668233  1
  Sn  Sn30  1  0.83354292  0.83391432  0.16711826  1
  Sn  Sn31  1  0.50046482  0.16741941  0.83335962  1
  Sn  Sn32  1  0.83403096  0.49986199  0.50032641  1
  Sn  Sn33  1  0.83180561  0.49956195  0.83279460  1
  Sn  Sn34  1  0.16668936  0.49937568  0.16810292  1
  Sn  Sn35  1  0.50062298  0.83420008  0.16768331  1
  Sn  Sn36  1  0.83316938  0.16693038  0.83328228  1
  Sn  Sn37  1  0.16633394  0.83476826  0.83281982  1
  Sn  Sn38  1  0.50149063  0.49965804  0.83360599  1
  Sn  Sn39  1  0.50010856  0.16581148  0.49995549  1
  Sn  Sn40  1  0.50000270  0.83401531  0.49916487  1
  Pb  Pb41  1  0.49831264  0.50021139  0.16386652  1
  Pb  Pb42  1  0.50040427  0.50002643  0.50201283  1
  Pb  Pb43  1  0.83083633  0.16878286  0.50203198  1
  Pb  Pb44  1  0.16901292  0.83137611  0.50232531  1
  Pb  Pb45  1  0.16880209  0.16896783  0.50232986  1
  Pb  Pb46  1  0.16619065  0.49940640  0.83302487  1
  Pb  Pb47  1  0.49869103  0.83357668  0.83352290  1
  Pb  Pb48  1  0.83539708  0.50151516  0.16645519  1
  Pb  Pb49  1  0.83106622  0.83115540  0.49736303  1
  Pb  Pb50  1  0.16896780  0.16897633  0.16471555  1
  Pb  Pb51  1  0.83126454  0.16420663  0.16456893  1
  Pb  Pb52  1  0.83588834  0.83351425  0.83476647  1
  Pb  Pb53  1  0.16702804  0.83215738  0.16544368  1
  I  I54  1  0.16596361  0.00030553  0.16490828  1
  I  I55  1  0.16636798  0.00021808  0.50017916  1
  I  I56  1  0.16957802  0.00112695  0.83552305  1
  I  I57  1  0.16789724  0.33681840  0.16674427  1
  I  I58  1  0.16646349  0.33704365  0.49997493  1
  I  I59  1  0.16883941  0.33091826  0.83334577  1
  I  I60  1  0.16918769  0.66407209  0.16507332  1
  I  I61  1  0.16646146  0.66325690  0.50076437  1
  I  I62  1  0.16853930  0.66786131  0.83419250  1
  I  I63  1  0.50301452  0.00008115  0.16345379  1
  I  I64  1  0.49986788  0.00063751  0.50297703  1
  I  I65  1  0.50146594  0.00313993  0.83338132  1
  I  I66  1  0.49761054  0.33070894  0.16766807  1
  I  I67  1  0.49932594  0.33085305  0.49959650  1
  I  I68  1  0.49717477  0.33194796  0.83289810  1
  I  I69  1  0.50177283  0.66935003  0.16953308  1
  I  I70  1  0.49938808  0.66875789  0.49719400  1
  I  I71  1  0.50081297  0.66443407  0.83255964  1
  I  I72  1  0.83085444  -0.00348173  0.16293308  1
  I  I73  1  0.83324078  0.00008757  0.50155020  1
  I  I74  1  0.82906877  0.00291004  0.83599855  1
  I  I75  1  0.83258757  0.33320165  0.16720109  1
  I  I76  1  0.83464606  0.33695321  0.50182942  1
  I  I77  1  0.83415893  0.33368871  0.83077857  1
  I  I78  1  0.82620652  0.66922568  0.16391117  1
  I  I79  1  0.83467074  0.66310535  0.50788472  1
  I  I80  1  0.83070556  0.66370918  0.83125081  1
  I  I81  1  0.16994351  0.16680801  -0.00382049  1
  I  I82  1  0.16860839  0.16697953  0.33350241  1
  I  I83  1  0.17030004  0.16655666  0.67075711  1
  I  I84  1  0.16815913  0.50089183  0.00114658  1
  I  I85  1  0.16380303  0.50224566  0.33396983  1
  I  I86  1  0.16680018  0.50009416  0.66493010  1
  I  I87  1  0.16989121  0.83278828  -0.00267887  1
  I  I88  1  0.16624616  0.83148748  0.33357620  1
  I  I89  1  0.16871710  0.83421661  0.67020270  1
  I  I90  1  0.49942535  0.16668858  -0.00113657  1
  I  I91  1  0.49951342  0.16265244  0.33327354  1
  I  I92  1  0.49916116  0.16734408  0.66790174  1
  I  I93  1  0.50242616  0.49619903  -0.00417672  1
  I  I94  1  0.50101081  0.49759826  0.33329315  1
  I  I95  1  0.49761983  0.49630482  0.66997677  1
  I  I96  1  0.50154337  0.83548736  0.00239194  1
  I  I97  1  0.50280951  0.83934528  0.33268497  1
  I  I98  1  0.49726969  0.83519291  0.66479965  1
  I  I99  1  0.83150882  0.17365651  -0.00401323  1
  I  I100  1  0.83092836  0.16848034  0.33338788  1
  I  I101  1  0.83108336  0.16798270  0.67065558  1
  I  I102  1  0.83169564  0.49728287  -0.00306618  1
  I  I103  1  0.83471814  0.50272696  0.33575456  1
  I  I104  1  0.83559198  0.49721905  0.66792166  1
  I  I105  1  0.82587846  0.83110289  0.00238151  1
  I  I106  1  0.83089388  0.83019806  0.32971597  1
  I  I107  1  0.83255417  0.83367135  0.66655451  1
  I  I108  1  0.00004031  0.16614285  0.16365706  1
  I  I109  1  -0.00010580  0.16649735  0.50198041  1
  I  I110  1  -0.00017435  0.16921953  0.83449402  1
  I  I111  1  0.00303866  0.50321330  0.16352986  1
  I  I112  1  -0.00018955  0.50109270  0.50449818  1
  I  I113  1  -0.00245329  0.49746172  0.83283596  1
  I  I114  1  -0.00191321  0.82853261  0.16128821  1
  I  I115  1  0.00000223  0.83289507  0.49952441  1
  I  I116  1  0.00339807  0.83449835  0.83666020  1
  I  I117  1  0.33744481  0.16100306  0.16333904  1
  I  I118  1  0.33719319  0.16622032  0.50319446  1
  I  I119  1  0.33467972  0.16818554  0.83353654  1
  I  I120  1  0.33069577  0.50193847  0.16930150  1
  I  I121  1  0.33165869  0.50013630  0.49962191  1
  I  I122  1  0.33512507  0.49724227  0.83311527  1
  I  I123  1  0.33648692  0.83584565  0.16803103  1
  I  I124  1  0.33708070  0.83459188  0.49480260  1
  I  I125  1  0.33100690  0.83446172  0.83524124  1
  I  I126  1  0.66263821  0.16703755  0.16382764  1
  I  I127  1  0.66247392  0.16563682  0.50322197  1
  I  I128  1  0.66548681  0.17254743  0.83348081  1
  I  I129  1  0.66651249  0.49928369  0.16804700  1
  I  I130  1  0.66881869  0.50000073  0.50397448  1
  I  I131  1  0.66699360  0.49305069  0.82861653  1
  I  I132  1  0.66489958  0.83472626  0.16756244  1
  I  I133  1  0.66290846  0.83478035  0.50135204  1
  I  I134  1  0.66668549  0.83377994  0.83255514  1
