# generated using pymatgen
data_Cs27Sn14Pb13I81
_symmetry_space_group_name_H-M   'P 1'
_cell_length_a   18.96120638
_cell_length_b   18.96326407
_cell_length_c   18.96251048
_cell_angle_alpha   90.00047391
_cell_angle_beta   89.99960648
_cell_angle_gamma   89.99963276
_symmetry_Int_Tables_number   1
_chemical_formula_structural   Cs27Sn14Pb13I81
_chemical_formula_sum   'Cs27 Sn14 Pb13 I81'
_cell_volume   6818.28093818
_cell_formula_units_Z   1
loop_
 _symmetry_equiv_pos_site_id
 _symmetry_equiv_pos_as_xyz
  1  'x, y, z'
loop_
 _atom_site_type_symbol
 _atom_site_label
 _atom_site_symmetry_multiplicity
 _atom_site_fract_x
 _atom_site_fract_y
 _atom_site_fract_z
 _atom_site_occupancy
  Cs  Cs0  1  0.00482857  -0.00367408  -0.00018933  1
  Cs  Cs1  1  -0.00140338  -0.00062847  0.33531083  1
  Cs  Cs2  1  -0.00111083  -0.00000975  0.66536248  1
  Cs  Cs3  1  -0.00044666  0.33525207  -0.00004193  1
  Cs  Cs4  1  -0.00017974  0.33392843  0.33462707  1
  Cs  Cs5  1  -0.00095512  0.33323270  0.66504705  1
  Cs  Cs6  1  0.00018115  0.66642121  0.00084100  1
  Cs  Cs7  1  -0.00030346  0.66545565  0.33311365  1
  Cs  Cs8  1  -0.00033361  0.66644629  0.66621288  1
  Cs  Cs9  1  0.33425517  0.00028693  -0.00336582  1
  Cs  Cs10  1  0.33629576  0.00070451  0.32810084  1
  Cs  Cs11  1  0.33386760  -0.00216912  0.67318477  1
  Cs  Cs12  1  0.33384178  0.32563914  0.00178484  1
  Cs  Cs13  1  0.33270962  0.33478072  0.33249281  1
  Cs  Cs14  1  0.33475684  0.33324652  0.66703755  1
  Cs  Cs15  1  0.33109605  0.67330958  -0.00219696  1
  Cs  Cs16  1  0.33587956  0.66414405  0.33520004  1
  Cs  Cs17  1  0.33981083  0.66827121  0.66682163  1
  Cs  Cs18  1  0.66279635  -0.00081888  0.00319906  1
  Cs  Cs19  1  0.66746004  -0.00122478  0.33244988  1
  Cs  Cs20  1  0.66940401  0.00042470  0.66527868  1
  Cs  Cs21  1  0.66648700  0.33432096  -0.00208442  1
  Cs  Cs22  1  0.66795130  0.33310024  0.33403923  1
  Cs  Cs23  1  0.66733935  0.33427534  0.66867069  1
  Cs  Cs24  1  0.66629136  0.66627301  -0.00098841  1
  Cs  Cs25  1  0.66462646  0.66828461  0.33265649  1
  Cs  Cs26  1  0.66114885  0.66570982  0.66877743  1
  Sn  Sn27  1  0.16683220  0.49979562  0.16650492  1
  Sn  Sn28  1  0.16704578  0.16633956  0.49990300  1
  Sn  Sn29  1  0.16665311  0.49967768  0.83290405  1
  Sn  Sn30  1  0.49991319  0.16665010  0.50012442  1
  Sn  Sn31  1  0.50005485  0.49997553  0.16653398  1
  Sn  Sn32  1  0.83384642  0.16731659  0.16646144  1
  Sn  Sn33  1  0.83357405  0.50042885  0.49944021  1
  Sn  Sn34  1  0.83394302  0.83288043  0.50093656  1
  Sn  Sn35  1  0.83313217  0.49918460  0.16757090  1
  Sn  Sn36  1  0.83362195  0.83407747  0.83252819  1
  Sn  Sn37  1  0.16609072  0.83317225  0.49973847  1
  Sn  Sn38  1  0.16605896  0.50028510  0.50030132  1
  Sn  Sn39  1  0.83347170  0.16677845  0.49991653  1
  Sn  Sn40  1  0.83375478  0.16560592  0.83374499  1
  Pb  Pb41  1  0.16438914  0.16840290  0.83119514  1
  Pb  Pb42  1  0.83341649  0.83321762  0.16682717  1
  Pb  Pb43  1  0.16444503  0.83132399  0.83088254  1
  Pb  Pb44  1  0.50261590  0.16676535  0.83109443  1
  Pb  Pb45  1  0.50011142  0.49817111  0.49876985  1
  Pb  Pb46  1  0.50305400  0.83346763  0.83319562  1
  Pb  Pb47  1  0.49640504  0.49969561  0.83657200  1
  Pb  Pb48  1  0.16447705  0.16829742  0.16861900  1
  Pb  Pb49  1  0.50000539  0.83619279  0.49989966  1
  Pb  Pb50  1  0.49983937  0.83104805  0.16683458  1
  Pb  Pb51  1  0.83450520  0.50010314  0.83319386  1
  Pb  Pb52  1  0.16658120  0.83119787  0.16927820  1
  Pb  Pb53  1  0.50232193  0.16850177  0.16860106  1
  I  I54  1  0.16429950  0.00022291  0.16888507  1
  I  I55  1  0.16116397  0.00054134  0.50032854  1
  I  I56  1  0.16671434  -0.00003323  0.83153132  1
  I  I57  1  0.16718353  0.33735567  0.16991435  1
  I  I58  1  0.16291677  0.33413573  0.49944403  1
  I  I59  1  0.16269192  0.33657927  0.83085424  1
  I  I60  1  0.16216863  0.66184076  0.16913456  1
  I  I61  1  0.15874288  0.66534410  0.49897781  1
  I  I62  1  0.16252276  0.66318832  0.83228867  1
  I  I63  1  0.50311412  0.00056613  0.16884795  1
  I  I64  1  0.50272110  0.00412274  0.49915280  1
  I  I65  1  0.49710890  0.00022803  0.83310479  1
  I  I66  1  0.49815282  0.33665908  0.16878829  1
  I  I67  1  0.50191176  0.33034590  0.49862438  1
  I  I68  1  0.50382158  0.33335593  0.83183393  1
  I  I69  1  0.50385122  0.66212861  0.16986942  1
  I  I70  1  0.50052695  0.66657317  0.49831053  1
  I  I71  1  0.50308985  0.66633947  0.83245504  1
  I  I72  1  0.83250892  0.00301154  0.17075462  1
  I  I73  1  0.83570141  0.00100557  0.50027948  1
  I  I74  1  0.83364852  0.00067803  0.82772629  1
  I  I75  1  0.83393144  0.33442205  0.17059886  1
  I  I76  1  0.83566918  0.33302988  0.49943156  1
  I  I77  1  0.83481318  0.33097452  0.83011339  1
  I  I78  1  0.83406033  0.66290999  0.16992362  1
  I  I79  1  0.84025845  0.66587961  0.49948581  1
  I  I80  1  0.83581084  0.66879276  0.82975118  1
  I  I81  1  0.16401621  0.17042486  0.00002452  1
  I  I82  1  0.16321191  0.16943846  0.33767500  1
  I  I83  1  0.16311812  0.17003003  0.66220113  1
  I  I84  1  0.16391117  0.49985346  0.00090722  1
  I  I85  1  0.16523467  0.49975269  0.33441690  1
  I  I86  1  0.15973818  0.49913518  0.66456196  1
  I  I87  1  0.16434403  0.82962783  -0.00029863  1
  I  I88  1  0.15838481  0.83187965  0.33798472  1
  I  I89  1  0.16323918  0.83143500  0.66243679  1
  I  I90  1  0.50223978  0.16858967  0.00024597  1
  I  I91  1  0.50254398  0.16804877  0.33682347  1
  I  I92  1  0.50220441  0.16872411  0.66259840  1
  I  I93  1  0.50530045  0.49892076  0.00449302  1
  I  I94  1  0.49724972  0.49827251  0.33086368  1
  I  I95  1  0.50059852  0.49936949  0.66670773  1
  I  I96  1  0.50231936  0.83242587  -0.00004147  1
  I  I97  1  0.50317706  0.83332540  0.33381647  1
  I  I98  1  0.49865941  0.83129430  0.66617729  1
  I  I99  1  0.83310316  0.16908284  0.00027374  1
  I  I100  1  0.83345925  0.16807950  0.33494757  1
  I  I101  1  0.83356018  0.16680039  0.66482439  1
  I  I102  1  0.83485404  0.49711338  0.00278973  1
  I  I103  1  0.83732221  0.49707081  0.33416351  1
  I  I104  1  0.83836292  0.49721166  0.66344902  1
  I  I105  1  0.83245606  0.83527363  -0.00273638  1
  I  I106  1  0.83666475  0.83513935  0.33692385  1
  I  I107  1  0.83742790  0.83661557  0.66477275  1
  I  I108  1  -0.00409884  0.17287966  0.16994642  1
  I  I109  1  -0.00122885  0.16771340  0.50001611  1
  I  I110  1  -0.00411739  0.16473230  0.83001697  1
  I  I111  1  -0.00055009  0.49650372  0.16886120  1
  I  I112  1  -0.00027554  0.49668583  0.49617691  1
  I  I113  1  0.00225738  0.49949625  0.83554787  1
  I  I114  1  -0.00032949  0.83048808  0.16555351  1
  I  I115  1  -0.00128699  0.83591344  0.50283177  1
  I  I116  1  -0.00365443  0.83687555  0.83044282  1
  I  I117  1  0.33319173  0.17015294  0.17039861  1
  I  I118  1  0.33224528  0.16938665  0.49919452  1
  I  I119  1  0.33298328  0.16908513  0.83120508  1
  I  I120  1  0.33217679  0.50134690  0.16952739  1
  I  I121  1  0.32992183  0.49979734  0.49862376  1
  I  I122  1  0.32844415  0.50024143  0.82849813  1
  I  I123  1  0.33301481  0.83100498  0.16972759  1
  I  I124  1  0.32997831  0.83050644  0.49863004  1
  I  I125  1  0.33283368  0.83077456  0.83165928  1
  I  I126  1  0.67093201  0.17256240  0.16970205  1
  I  I127  1  0.66908566  0.16722496  0.49979651  1
  I  I128  1  0.67145573  0.16549409  0.83032395  1
  I  I129  1  0.66846172  0.49625411  0.17218304  1
  I  I130  1  0.67012325  0.49945070  0.49602236  1
  I  I131  1  0.66681795  0.50035825  0.83319016  1
  I  I132  1  0.66727091  0.83050999  0.16904502  1
  I  I133  1  0.67048436  0.83307652  0.50291296  1
  I  I134  1  0.67160156  0.83481529  0.82563898  1
