# generated using pymatgen
data_Cs27Sn14Pb13I81
_symmetry_space_group_name_H-M   'P 1'
_cell_length_a   18.97377043
_cell_length_b   18.97487359
_cell_length_c   18.97839336
_cell_angle_alpha   89.99825677
_cell_angle_beta   90.00224954
_cell_angle_gamma   89.99733520
_symmetry_Int_Tables_number   1
_chemical_formula_structural   Cs27Sn14Pb13I81
_chemical_formula_sum   'Cs27 Sn14 Pb13 I81'
_cell_volume   6832.69407195
_cell_formula_units_Z   1
loop_
 _symmetry_equiv_pos_site_id
 _symmetry_equiv_pos_as_xyz
  1  'x, y, z'
loop_
 _atom_site_type_symbol
 _atom_site_label
 _atom_site_symmetry_multiplicity
 _atom_site_fract_x
 _atom_site_fract_y
 _atom_site_fract_z
 _atom_site_occupancy
  Cs  Cs0  1  0.00398500  -0.00200280  0.00217322  1
  Cs  Cs1  1  -0.00296111  -0.00263605  0.33466545  1
  Cs  Cs2  1  -0.00335144  0.00387883  0.66253151  1
  Cs  Cs3  1  -0.00001936  0.33460236  0.00001162  1
  Cs  Cs4  1  0.00264331  0.33307467  0.33272021  1
  Cs  Cs5  1  0.00102704  0.33251491  0.66609475  1
  Cs  Cs6  1  0.00014469  0.66667677  -0.00101876  1
  Cs  Cs7  1  -0.00317551  0.66882615  0.33159195  1
  Cs  Cs8  1  -0.00178337  0.66462195  0.66966734  1
  Cs  Cs9  1  0.33142559  -0.00184231  -0.00136893  1
  Cs  Cs10  1  0.33591567  0.00034108  0.33336520  1
  Cs  Cs11  1  0.33518903  -0.00433858  0.66579359  1
  Cs  Cs12  1  0.33057264  0.33245117  0.00242951  1
  Cs  Cs13  1  0.33244604  0.33319130  0.33427021  1
  Cs  Cs14  1  0.33028152  0.33636079  0.66306167  1
  Cs  Cs15  1  0.33177130  0.66920506  -0.00412971  1
  Cs  Cs16  1  0.33689462  0.66725793  0.33732491  1
  Cs  Cs17  1  0.33587608  0.66947748  0.66491732  1
  Cs  Cs18  1  0.66444130  0.00465669  -0.00045854  1
  Cs  Cs19  1  0.66379900  -0.00267290  0.33423275  1
  Cs  Cs20  1  0.66722668  0.00414470  0.66683197  1
  Cs  Cs21  1  0.66651951  0.33309201  0.00039295  1
  Cs  Cs22  1  0.66415093  0.33461585  0.32855343  1
  Cs  Cs23  1  0.66827074  0.33178333  0.67325063  1
  Cs  Cs24  1  0.66799552  0.66285886  -0.00215196  1
  Cs  Cs25  1  0.66633424  0.66853939  0.33387258  1
  Cs  Cs26  1  0.66814903  0.66477695  0.66861183  1
  Sn  Sn27  1  0.83322297  0.49948327  0.49968272  1
  Sn  Sn28  1  0.83375418  0.16700918  0.16685541  1
  Sn  Sn29  1  0.16643975  0.16701985  0.16626493  1
  Sn  Sn30  1  0.49951746  0.83425766  0.49922706  1
  Sn  Sn31  1  0.49967162  0.16575658  0.16733589  1
  Sn  Sn32  1  0.16648887  0.83328071  0.49970762  1
  Sn  Sn33  1  0.83437665  0.50053402  0.83347780  1
  Sn  Sn34  1  0.50001447  0.16654478  0.49951826  1
  Sn  Sn35  1  0.16679554  0.16718211  0.83365086  1
  Sn  Sn36  1  0.83427598  0.49926908  0.16693292  1
  Sn  Sn37  1  0.49997222  0.83370279  0.16661060  1
  Sn  Sn38  1  0.16610409  0.49987049  0.16623807  1
  Sn  Sn39  1  0.83336052  0.83357718  0.83370345  1
  Sn  Sn40  1  0.16611955  0.49924500  0.83406088  1
  Pb  Pb41  1  0.50261213  0.83350246  0.83321446  1
  Pb  Pb42  1  0.49932357  0.49992708  0.16645696  1
  Pb  Pb43  1  0.16477533  0.50203857  0.49966948  1
  Pb  Pb44  1  0.50260932  0.49976463  0.50004829  1
  Pb  Pb45  1  0.16844941  0.16482731  0.49946812  1
  Pb  Pb46  1  0.83571034  0.16720877  0.83575478  1
  Pb  Pb47  1  0.83074169  0.16916304  0.49717877  1
  Pb  Pb48  1  0.16469051  0.83329748  0.83113587  1
  Pb  Pb49  1  0.49683183  0.16688696  0.83361375  1
  Pb  Pb50  1  0.16869210  0.83291927  0.16845603  1
  Pb  Pb51  1  0.83101754  0.83312424  0.16476146  1
  Pb  Pb52  1  0.49913057  0.49975105  0.83344140  1
  Pb  Pb53  1  0.83246733  0.83171194  0.50194012  1
  I  I54  1  0.16465650  0.00308368  0.16314120  1
  I  I55  1  0.16775055  -0.00293921  0.50052579  1
  I  I56  1  0.16573404  0.00248781  0.83820978  1
  I  I57  1  0.16791374  0.33295893  0.16347838  1
  I  I58  1  0.16812772  0.33333289  0.50068248  1
  I  I59  1  0.16118155  0.33417475  0.83670613  1
  I  I60  1  0.16213899  0.66359044  0.16297406  1
  I  I61  1  0.17378376  0.66963237  0.50009358  1
  I  I62  1  0.16371318  0.66359219  0.83768328  1
  I  I63  1  0.50059530  0.00130016  0.17105587  1
  I  I64  1  0.49668260  -0.00048108  0.49486544  1
  I  I65  1  0.50107960  0.00016112  0.83375408  1
  I  I66  1  0.50030307  0.33005099  0.17102570  1
  I  I67  1  0.50063670  0.33032304  0.49386695  1
  I  I68  1  0.50628255  0.33307090  0.83270832  1
  I  I69  1  0.50080286  0.66926699  0.17207642  1
  I  I70  1  0.49725858  0.66979967  0.49549189  1
  I  I71  1  0.49638303  0.66687656  0.83344286  1
  I  I72  1  0.83577506  0.00276046  0.16441018  1
  I  I73  1  0.83507475  0.00019641  0.50119795  1
  I  I74  1  0.83405410  -0.00168715  0.83403627  1
  I  I75  1  0.83082210  0.33399509  0.16484869  1
  I  I76  1  0.83332794  0.33700328  0.50580050  1
  I  I77  1  0.83480204  0.33656724  0.83151746  1
  I  I78  1  0.83660868  0.66339032  0.16762216  1
  I  I79  1  0.83212648  0.66368071  0.49535092  1
  I  I80  1  0.83820036  0.66444430  0.83516338  1
  I  I81  1  0.16852190  0.17007126  0.00154818  1
  I  I82  1  0.16582962  0.17103778  0.32981029  1
  I  I83  1  0.16762650  0.17051427  0.66896558  1
  I  I84  1  0.15882223  0.49637871  0.00043552  1
  I  I85  1  0.16254080  0.49577032  0.33019901  1
  I  I86  1  0.16197616  0.49628518  0.66944307  1
  I  I87  1  0.16806586  0.83344759  0.00009908  1
  I  I88  1  0.16767493  0.83306881  0.33613387  1
  I  I89  1  0.17366682  0.83287595  0.66359389  1
  I  I90  1  0.50211691  0.16289214  0.00373641  1
  I  I91  1  0.49859142  0.16243671  0.33177681  1
  I  I92  1  0.49937960  0.16143138  0.66389634  1
  I  I93  1  0.50563584  0.50083305  0.00031478  1
  I  I94  1  0.50070983  0.50061404  0.33316539  1
  I  I95  1  0.50044321  0.50038422  0.66647997  1
  I  I96  1  0.50119849  0.83807214  0.00285198  1
  I  I97  1  0.49737425  0.83749775  0.33363469  1
  I  I98  1  0.49682511  0.83716810  0.66338411  1
  I  I99  1  0.82738568  0.17149964  0.00378426  1
  I  I100  1  0.83880034  0.17125687  0.32900725  1
  I  I101  1  0.83274423  0.16723700  0.66671462  1
  I  I102  1  0.83677310  0.50056912  0.00030922  1
  I  I103  1  0.83672311  0.49593630  0.33172581  1
  I  I104  1  0.83580801  0.50601411  0.66789592  1
  I  I105  1  0.83305797  0.82668861  -0.00270158  1
  I  I106  1  0.83439314  0.83165257  0.33322718  1
  I  I107  1  0.83276120  0.82663727  0.66967771  1
  I  I108  1  0.00054631  0.17208644  0.16158517  1
  I  I109  1  -0.00006447  0.16447110  0.49952578  1
  I  I110  1  0.00347442  0.16777624  0.83806427  1
  I  I111  1  -0.00051692  0.49267639  0.16614313  1
  I  I112  1  -0.00314583  0.50249670  0.49993231  1
  I  I113  1  -0.00052013  0.50060731  0.83441983  1
  I  I114  1  -0.00001504  0.83612844  0.16845398  1
  I  I115  1  0.00168678  0.83154976  0.50165760  1
  I  I116  1  -0.00287302  0.83014395  0.83241172  1
  I  I117  1  0.33297520  0.16743281  0.16657954  1
  I  I118  1  0.33637980  0.16563551  0.49428507  1
  I  I119  1  0.32903531  0.17223338  0.83933080  1
  I  I120  1  0.32986003  0.49680388  0.16175322  1
  I  I121  1  0.33325438  0.49966156  0.50026921  1
  I  I122  1  0.32907810  0.49591835  0.83915127  1
  I  I123  1  0.33660312  0.83720551  0.16808617  1
  I  I124  1  0.33455927  0.83554108  0.49722451  1
  I  I125  1  0.33320159  0.83242474  0.83392266  1
  I  I126  1  0.66651202  0.16729048  0.17092081  1
  I  I127  1  0.66294012  0.15959708  0.49519660  1
  I  I128  1  0.66689115  0.16678442  0.83390491  1
  I  I129  1  0.66977065  0.49718211  0.16581636  1
  I  I130  1  0.67069702  0.50236106  0.49928175  1
  I  I131  1  0.67031815  0.50452032  0.83371235  1
  I  I132  1  0.66324839  0.83705038  0.17321124  1
  I  I133  1  0.66355699  0.83573952  0.49653389  1
  I  I134  1  0.67035033  0.82546668  0.83214413  1
