# generated using pymatgen
data_Cs27Sn14Pb13I81
_symmetry_space_group_name_H-M   'P 1'
_cell_length_a   18.97112761
_cell_length_b   18.97207187
_cell_length_c   18.98531218
_cell_angle_alpha   90.00073414
_cell_angle_beta   90.00106332
_cell_angle_gamma   90.00345644
_symmetry_Int_Tables_number   1
_chemical_formula_structural   Cs27Sn14Pb13I81
_chemical_formula_sum   'Cs27 Sn14 Pb13 I81'
_cell_volume   6833.22385820
_cell_formula_units_Z   1
loop_
 _symmetry_equiv_pos_site_id
 _symmetry_equiv_pos_as_xyz
  1  'x, y, z'
loop_
 _atom_site_type_symbol
 _atom_site_label
 _atom_site_symmetry_multiplicity
 _atom_site_fract_x
 _atom_site_fract_y
 _atom_site_fract_z
 _atom_site_occupancy
  Cs  Cs0  1  0.00171853  0.00029054  -0.00285598  1
  Cs  Cs1  1  0.00516203  -0.00280881  0.33493167  1
  Cs  Cs2  1  0.00052479  0.00357538  0.66668268  1
  Cs  Cs3  1  0.00006615  0.33394720  -0.00251465  1
  Cs  Cs4  1  -0.00555376  0.34226667  0.33544341  1
  Cs  Cs5  1  -0.00072269  0.33072227  0.66583158  1
  Cs  Cs6  1  -0.00017453  0.66644589  0.00190996  1
  Cs  Cs7  1  0.00028696  0.66486878  0.33274535  1
  Cs  Cs8  1  0.00031337  0.66488888  0.66593137  1
  Cs  Cs9  1  0.33058782  -0.00044816  0.00177168  1
  Cs  Cs10  1  0.33092976  0.00189534  0.33376618  1
  Cs  Cs11  1  0.33338380  -0.00139288  0.66521050  1
  Cs  Cs12  1  0.33523919  0.33441375  -0.00126800  1
  Cs  Cs13  1  0.33387568  0.33021455  0.33462553  1
  Cs  Cs14  1  0.33396901  0.33389389  0.66551845  1
  Cs  Cs15  1  0.33266623  0.66640190  -0.00124892  1
  Cs  Cs16  1  0.33326072  0.66692848  0.33299040  1
  Cs  Cs17  1  0.33584332  0.66722036  0.66962888  1
  Cs  Cs18  1  0.66772384  0.00248523  0.00304514  1
  Cs  Cs19  1  0.66722433  -0.00007826  0.33135196  1
  Cs  Cs20  1  0.66654891  -0.00109094  0.66563217  1
  Cs  Cs21  1  0.66468636  0.33188093  0.00042897  1
  Cs  Cs22  1  0.67018569  0.33136417  0.33215680  1
  Cs  Cs23  1  0.66606505  0.33390142  0.66712399  1
  Cs  Cs24  1  0.66639550  0.66659006  -0.00230119  1
  Cs  Cs25  1  0.66683555  0.66837391  0.33329602  1
  Cs  Cs26  1  0.66364976  0.66813461  0.67008250  1
  Sn  Sn27  1  0.16605320  0.83369915  0.49954496  1
  Sn  Sn28  1  0.50066808  0.49919997  0.83325724  1
  Sn  Sn29  1  0.83419574  0.83341557  0.50011066  1
  Sn  Sn30  1  0.49985292  0.16684326  0.83240440  1
  Sn  Sn31  1  0.49977998  0.83274210  0.16670368  1
  Sn  Sn32  1  0.16721799  0.16630709  0.49876858  1
  Sn  Sn33  1  0.83335075  0.83270944  0.83326757  1
  Sn  Sn34  1  0.16633621  0.16670567  0.16764466  1
  Sn  Sn35  1  0.83363850  0.83341883  0.16661144  1
  Sn  Sn36  1  0.49969874  0.16731333  0.50073193  1
  Sn  Sn37  1  0.16662026  0.83387203  0.16740054  1
  Sn  Sn38  1  0.50005100  0.49928331  0.49982362  1
  Sn  Sn39  1  0.49995097  0.50069188  0.16687586  1
  Sn  Sn40  1  0.83270899  0.50064934  0.83326234  1
  Pb  Pb41  1  0.49961606  0.83370465  0.49809162  1
  Pb  Pb42  1  0.83051662  0.50271373  0.50223044  1
  Pb  Pb43  1  0.83080393  0.50212539  0.16454273  1
  Pb  Pb44  1  0.16880443  0.50005251  0.16674884  1
  Pb  Pb45  1  0.16386768  0.83324203  0.83308113  1
  Pb  Pb46  1  0.83350485  0.16460546  0.49975003  1
  Pb  Pb47  1  0.16665675  0.49995377  0.83322008  1
  Pb  Pb48  1  0.16928808  0.16661241  0.83289144  1
  Pb  Pb49  1  0.83077802  0.16685063  0.83334717  1
  Pb  Pb50  1  0.49858440  0.16672698  0.16712077  1
  Pb  Pb51  1  0.50175697  0.83371963  0.83594538  1
  Pb  Pb52  1  0.83712222  0.16444131  0.16693913  1
  Pb  Pb53  1  0.16883110  0.50009066  0.50000270  1
  I  I54  1  0.16967350  -0.00161462  0.17047122  1
  I  I55  1  0.16931059  -0.00038094  0.49586392  1
  I  I56  1  0.16742168  -0.00013874  0.83426641  1
  I  I57  1  0.17124111  0.33028482  0.17048539  1
  I  I58  1  0.17063572  0.32999629  0.49609208  1
  I  I59  1  0.16182342  0.33306653  0.83448428  1
  I  I60  1  0.16488548  0.67034986  0.17086502  1
  I  I61  1  0.16350850  0.67009386  0.49494038  1
  I  I62  1  0.17265532  0.66693518  0.83320542  1
  I  I63  1  0.50215689  -0.00274617  0.16651391  1
  I  I64  1  0.49916432  0.00252202  0.50361524  1
  I  I65  1  0.50084625  0.00244146  0.82926954  1
  I  I66  1  0.49721798  0.33584589  0.16531642  1
  I  I67  1  0.49378262  0.33296911  0.49963255  1
  I  I68  1  0.50540746  0.33450146  0.83540456  1
  I  I69  1  0.49849921  0.66709310  0.16670490  1
  I  I70  1  0.50080270  0.66453674  0.50267938  1
  I  I71  1  0.50214449  0.66398204  0.83068441  1
  I  I72  1  0.82546088  -0.00471781  0.16385117  1
  I  I73  1  0.83109608  -0.00404931  0.50212590  1
  I  I74  1  0.83236367  -0.00328018  0.83422257  1
  I  I75  1  0.83296362  0.33361072  0.16419845  1
  I  I76  1  0.83631697  0.33365048  0.50277474  1
  I  I77  1  0.83024578  0.33641281  0.83339422  1
  I  I78  1  0.83818300  0.67080068  0.16896537  1
  I  I79  1  0.83801256  0.67090644  0.49678100  1
  I  I80  1  0.82597347  0.66735170  0.83331357  1
  I  I81  1  0.16805248  0.16078224  0.00286182  1
  I  I82  1  0.17578138  0.15932134  0.33418377  1
  I  I83  1  0.16887318  0.16148367  0.66311926  1
  I  I84  1  0.17004379  0.50047609  0.00020655  1
  I  I85  1  0.16897381  0.50066774  0.33337364  1
  I  I86  1  0.16962364  0.50118223  0.66640258  1
  I  I87  1  0.16717299  0.83740054  0.00336645  1
  I  I88  1  0.16281059  0.83747745  0.33292621  1
  I  I89  1  0.16334236  0.83782001  0.66321956  1
  I  I90  1  0.49949884  0.16954966  -0.00177665  1
  I  I91  1  0.49736484  0.16906351  0.33603623  1
  I  I92  1  0.49508510  0.17374034  0.66583192  1
  I  I93  1  0.50354885  0.50015324  -0.00045682  1
  I  I94  1  0.49738896  0.50110305  0.33331791  1
  I  I95  1  0.50335282  0.49549691  0.66697741  1
  I  I96  1  0.49904708  0.83010309  0.00399182  1
  I  I97  1  0.50428087  0.82957826  0.33015136  1
  I  I98  1  0.50023231  0.83113361  0.66663826  1
  I  I99  1  0.83249070  0.16327643  0.00005113  1
  I  I100  1  0.82525518  0.16580410  0.33337539  1
  I  I101  1  0.83748485  0.16256312  0.66661991  1
  I  I102  1  0.82676320  0.50648789  -0.00333243  1
  I  I103  1  0.83179275  0.50100925  0.33340610  1
  I  I104  1  0.82688910  0.50665866  0.66998570  1
  I  I105  1  0.83205344  0.82911743  0.00042224  1
  I  I106  1  0.83324089  0.83498729  0.33298026  1
  I  I107  1  0.83676970  0.82974485  0.66652831  1
  I  I108  1  0.00518752  0.16053931  0.17232750  1
  I  I109  1  0.00341630  0.16275663  0.49614493  1
  I  I110  1  -0.00000545  0.16708710  0.83344342  1
  I  I111  1  -0.00022723  0.50010937  0.16418835  1
  I  I112  1  -0.00031144  0.49763562  0.50221825  1
  I  I113  1  -0.00349368  0.50610270  0.83419249  1
  I  I114  1  0.00027241  0.83884331  0.16669834  1
  I  I115  1  0.00055599  0.83874362  0.49594328  1
  I  I116  1  -0.00431243  0.82722754  0.83810450  1
  I  I117  1  0.33086725  0.15963685  0.16749840  1
  I  I118  1  0.33363409  0.16389563  0.50020350  1
  I  I119  1  0.33733446  0.17338291  0.83253463  1
  I  I120  1  0.33734177  0.50666204  0.16324695  1
  I  I121  1  0.33738975  0.50190106  0.50302689  1
  I  I122  1  0.33746183  0.49599705  0.83361869  1
  I  I123  1  0.33291073  0.83318318  0.17160288  1
  I  I124  1  0.33086061  0.83430742  0.49436348  1
  I  I125  1  0.33353965  0.83245468  0.83362091  1
  I  I126  1  0.66651883  0.16506524  0.16606715  1
  I  I127  1  0.66338766  0.16912970  0.50478748  1
  I  I128  1  0.66264479  0.16781480  0.82802555  1
  I  I129  1  0.66241631  0.50504953  0.16860279  1
  I  I130  1  0.66227921  0.49553331  0.49761371  1
  I  I131  1  0.66513635  0.50146528  0.83323486  1
  I  I132  1  0.66669667  0.82801765  0.16689165  1
  I  I133  1  0.66876546  0.83243849  0.49903665  1
  I  I134  1  0.66977981  0.83183928  0.83199757  1
