# generated using pymatgen
data_Cs27Sn14Pb13I81
_symmetry_space_group_name_H-M   'P 1'
_cell_length_a   18.98025309
_cell_length_b   18.97975701
_cell_length_c   18.96898579
_cell_angle_alpha   90.00122377
_cell_angle_beta   89.99980623
_cell_angle_gamma   89.99996794
_symmetry_Int_Tables_number   1
_chemical_formula_structural   Cs27Sn14Pb13I81
_chemical_formula_sum   'Cs27 Sn14 Pb13 I81'
_cell_volume   6833.39866060
_cell_formula_units_Z   1
loop_
 _symmetry_equiv_pos_site_id
 _symmetry_equiv_pos_as_xyz
  1  'x, y, z'
loop_
 _atom_site_type_symbol
 _atom_site_label
 _atom_site_symmetry_multiplicity
 _atom_site_fract_x
 _atom_site_fract_y
 _atom_site_fract_z
 _atom_site_occupancy
  Cs  Cs0  1  0.00121953  -0.00313156  0.00048787  1
  Cs  Cs1  1  -0.00290846  -0.00385019  0.33199799  1
  Cs  Cs2  1  -0.00234273  0.00259767  0.66723931  1
  Cs  Cs3  1  -0.00249277  0.33734203  0.00182755  1
  Cs  Cs4  1  0.00289977  0.33420109  0.33149623  1
  Cs  Cs5  1  0.00265660  0.33141353  0.66741823  1
  Cs  Cs6  1  0.00100404  0.66391888  -0.00140531  1
  Cs  Cs7  1  0.00023167  0.66851817  0.33426298  1
  Cs  Cs8  1  -0.00111191  0.66553769  0.66535172  1
  Cs  Cs9  1  0.33214987  -0.00802083  0.00040380  1
  Cs  Cs10  1  0.33374299  0.00102461  0.33294771  1
  Cs  Cs11  1  0.33043294  0.00307672  0.66672548  1
  Cs  Cs12  1  0.33392302  0.33300803  0.00508501  1
  Cs  Cs13  1  0.33360143  0.33440154  0.33363368  1
  Cs  Cs14  1  0.33147759  0.33166532  0.66615971  1
  Cs  Cs15  1  0.33327792  0.67658374  -0.00546779  1
  Cs  Cs16  1  0.33241931  0.66327361  0.33420765  1
  Cs  Cs17  1  0.33443464  0.66608084  0.66883037  1
  Cs  Cs18  1  0.66555666  0.00186065  -0.00101419  1
  Cs  Cs19  1  0.66818405  -0.00072728  0.33339508  1
  Cs  Cs20  1  0.66895741  0.00134447  0.66632267  1
  Cs  Cs21  1  0.66941343  0.33241151  0.00036797  1
  Cs  Cs22  1  0.66351247  0.33262096  0.33322940  1
  Cs  Cs23  1  0.66596695  0.33193077  0.66566685  1
  Cs  Cs24  1  0.66588030  0.66587042  -0.00507182  1
  Cs  Cs25  1  0.66781680  0.66869993  0.33547607  1
  Cs  Cs26  1  0.66640209  0.66663846  0.66620713  1
  Sn  Sn27  1  0.16697208  0.50070851  0.49962575  1
  Sn  Sn28  1  0.49982332  0.49996956  0.49945785  1
  Sn  Sn29  1  0.83324372  0.83401983  0.83326466  1
  Sn  Sn30  1  0.50058685  0.16653714  0.50000316  1
  Sn  Sn31  1  0.49918851  0.49971131  0.16720118  1
  Sn  Sn32  1  0.16758227  0.83274162  0.49997131  1
  Sn  Sn33  1  0.49895324  0.83352989  0.49987922  1
  Sn  Sn34  1  0.50012094  0.16706017  0.83333614  1
  Sn  Sn35  1  0.83275407  0.16774813  0.50032645  1
  Sn  Sn36  1  0.49905003  0.16721549  0.16669192  1
  Sn  Sn37  1  0.83325554  0.49865291  0.49983758  1
  Sn  Sn38  1  0.83274934  0.16597735  0.83261322  1
  Sn  Sn39  1  0.16741159  0.16715873  0.16690720  1
  Sn  Sn40  1  0.16811448  0.49935312  0.16744801  1
  Pb  Pb41  1  0.49974975  0.49751912  0.83366746  1
  Pb  Pb42  1  0.83300631  0.16661270  0.16675842  1
  Pb  Pb43  1  0.83318764  0.49899122  0.83067785  1
  Pb  Pb44  1  0.83322698  0.83360974  0.50107431  1
  Pb  Pb45  1  0.50169991  0.83614199  0.83032203  1
  Pb  Pb46  1  0.16714932  0.49975982  0.83384037  1
  Pb  Pb47  1  0.16653072  0.16695296  0.83674772  1
  Pb  Pb48  1  0.50023629  0.83288587  0.16890255  1
  Pb  Pb49  1  0.16419436  0.83346245  0.83000633  1
  Pb  Pb50  1  0.83304673  0.83308159  0.16310843  1
  Pb  Pb51  1  0.16643545  0.16686271  0.49820853  1
  Pb  Pb52  1  0.83273934  0.50003884  0.16935021  1
  Pb  Pb53  1  0.16681041  0.83255719  0.16899988  1
  I  I54  1  0.17064776  0.00263527  0.16759832  1
  I  I55  1  0.16953865  -0.00180765  0.49865599  1
  I  I56  1  0.16851966  0.00029632  0.83304057  1
  I  I57  1  0.17029596  0.33402198  0.17326118  1
  I  I58  1  0.16792897  0.33615397  0.49811496  1
  I  I59  1  0.16349564  0.33301875  0.82672591  1
  I  I60  1  0.17062694  0.66286761  0.16992678  1
  I  I61  1  0.16806424  0.66517490  0.49462707  1
  I  I62  1  0.16371291  0.66681158  0.83745708  1
  I  I63  1  0.49663060  0.00352038  0.16758815  1
  I  I64  1  0.50070940  0.00139260  0.50005771  1
  I  I65  1  0.50210422  0.00428384  0.83422118  1
  I  I66  1  0.49625936  0.33261337  0.17198527  1
  I  I67  1  0.50116251  0.33302147  0.49972493  1
  I  I68  1  0.50727594  0.32928229  0.82829890  1
  I  I69  1  0.49588804  0.66290647  0.17260629  1
  I  I70  1  0.50073007  0.66542139  0.49499894  1
  I  I71  1  0.50216797  0.66691368  0.83371079  1
  I  I72  1  0.83417191  0.00045740  0.17377277  1
  I  I73  1  0.83037253  0.00292550  0.50175269  1
  I  I74  1  0.82929642  0.00189349  0.82536954  1
  I  I75  1  0.83464226  0.33323141  0.16157686  1
  I  I76  1  0.83020158  0.33260803  0.50547329  1
  I  I77  1  0.82895114  0.32971931  0.83144691  1
  I  I78  1  0.83382492  0.66626468  0.16804707  1
  I  I79  1  0.83115754  0.66419083  0.50107481  1
  I  I80  1  0.83479142  0.66883313  0.83114815  1
  I  I81  1  0.16987507  0.17345308  0.00472070  1
  I  I82  1  0.17078826  0.16828693  0.33053177  1
  I  I83  1  0.16848307  0.16640231  0.66641221  1
  I  I84  1  0.17016788  0.49446871  0.00410065  1
  I  I85  1  0.16726610  0.49940102  0.33462969  1
  I  I86  1  0.16697805  0.50401325  0.66265038  1
  I  I87  1  0.16438579  0.83292420  -0.00002057  1
  I  I88  1  0.16893843  0.83212052  0.33709378  1
  I  I89  1  0.17144471  0.82751460  0.66198007  1
  I  I90  1  0.50146850  0.17248067  0.00065696  1
  I  I91  1  0.50041498  0.16743488  0.33431674  1
  I  I92  1  0.50543072  0.16635240  0.66521231  1
  I  I93  1  0.49547314  0.49471196  0.00367913  1
  I  I94  1  0.49946173  0.49478903  0.33491670  1
  I  I95  1  0.50017248  0.49977518  0.66279306  1
  I  I96  1  0.50215148  0.83267694  -0.00034836  1
  I  I97  1  0.49795299  0.83809160  0.33749566  1
  I  I98  1  0.49690909  0.83108806  0.66206669  1
  I  I99  1  0.82989704  0.16148380  -0.00285959  1
  I  I100  1  0.82984000  0.17074609  0.33657823  1
  I  I101  1  0.82586296  0.16671242  0.66558509  1
  I  I102  1  0.83444526  0.50083376  0.00000936  1
  I  I103  1  0.83305507  0.49389195  0.33787932  1
  I  I104  1  0.83256695  0.49906537  0.66208187  1
  I  I105  1  0.83274672  0.84188928  -0.00489033  1
  I  I106  1  0.83407141  0.83408004  0.33398297  1
  I  I107  1  0.83317197  0.83617642  0.66859434  1
  I  I108  1  0.00264102  0.17108135  0.16786029  1
  I  I109  1  -0.00263010  0.16889141  0.50358557  1
  I  I110  1  -0.00328503  0.16300333  0.82769598  1
  I  I111  1  0.00321569  0.49523149  0.17086151  1
  I  I112  1  0.00044939  0.50097544  0.49717609  1
  I  I113  1  -0.00012458  0.49801564  0.83292417  1
  I  I114  1  0.00029594  0.83503182  0.17096833  1
  I  I115  1  0.00213120  0.82983546  0.50104301  1
  I  I116  1  -0.00352495  0.84176388  0.83054957  1
  I  I117  1  0.33486595  0.17126678  0.16839182  1
  I  I118  1  0.33648378  0.16793027  0.50270138  1
  I  I119  1  0.33656936  0.16848361  0.82787577  1
  I  I120  1  0.33375792  0.49286822  0.17756109  1
  I  I121  1  0.33396864  0.50032585  0.49612655  1
  I  I122  1  0.33363247  0.49786400  0.82666516  1
  I  I123  1  0.33350639  0.83545238  0.16344878  1
  I  I124  1  0.33410230  0.83110352  0.49943618  1
  I  I125  1  0.33353592  0.83412554  0.83477025  1
  I  I126  1  0.66311833  0.17120488  0.16722992  1
  I  I127  1  0.66541195  0.16886395  0.49888505  1
  I  I128  1  0.66642269  0.16309700  0.83339304  1
  I  I129  1  0.66287695  0.49426462  0.17105689  1
  I  I130  1  0.66555249  0.49970479  0.49694270  1
  I  I131  1  0.66657389  0.50260863  0.83404180  1
  I  I132  1  0.66629027  0.83389635  0.17202066  1
  I  I133  1  0.66403575  0.83124048  0.50114305  1
  I  I134  1  0.66941313  0.83520208  0.82952534  1
