# generated using pymatgen
data_Cs27Sn14Pb13I81
_symmetry_space_group_name_H-M   'P 1'
_cell_length_a   18.97854684
_cell_length_b   18.96878333
_cell_length_c   18.97865733
_cell_angle_alpha   89.99868865
_cell_angle_beta   89.99994274
_cell_angle_gamma   90.00246208
_symmetry_Int_Tables_number   1
_chemical_formula_structural   Cs27Sn14Pb13I81
_chemical_formula_sum   'Cs27 Sn14 Pb13 I81'
_cell_volume   6832.31554727
_cell_formula_units_Z   1
loop_
 _symmetry_equiv_pos_site_id
 _symmetry_equiv_pos_as_xyz
  1  'x, y, z'
loop_
 _atom_site_type_symbol
 _atom_site_label
 _atom_site_symmetry_multiplicity
 _atom_site_fract_x
 _atom_site_fract_y
 _atom_site_fract_z
 _atom_site_occupancy
  Cs  Cs0  1  0.00105034  -0.00030808  -0.00063492  1
  Cs  Cs1  1  0.00156053  -0.00158515  0.33562881  1
  Cs  Cs2  1  -0.00344306  0.00182002  0.66554953  1
  Cs  Cs3  1  -0.00429622  0.33254681  0.00162373  1
  Cs  Cs4  1  0.00026218  0.33631865  0.33155091  1
  Cs  Cs5  1  0.00278995  0.33439887  0.66653802  1
  Cs  Cs6  1  0.00259376  0.66838091  -0.00078149  1
  Cs  Cs7  1  -0.00250820  0.66639321  0.33759985  1
  Cs  Cs8  1  -0.00094441  0.65524379  0.66136405  1
  Cs  Cs9  1  0.32995886  -0.00368131  -0.00120211  1
  Cs  Cs10  1  0.33399902  -0.00021038  0.33406439  1
  Cs  Cs11  1  0.33413902  0.00146596  0.66600348  1
  Cs  Cs12  1  0.33356474  0.33328632  0.00197795  1
  Cs  Cs13  1  0.33536132  0.33443907  0.33346938  1
  Cs  Cs14  1  0.33107190  0.33331621  0.66545143  1
  Cs  Cs15  1  0.33390288  0.66998975  -0.00256725  1
  Cs  Cs16  1  0.33470504  0.66601389  0.33170205  1
  Cs  Cs17  1  0.33446885  0.66379927  0.67228746  1
  Cs  Cs18  1  0.66848746  0.00068067  -0.00022122  1
  Cs  Cs19  1  0.66442513  -0.00106051  0.33314554  1
  Cs  Cs20  1  0.66959529  0.00010854  0.66660556  1
  Cs  Cs21  1  0.67087996  0.33430818  0.00292288  1
  Cs  Cs22  1  0.66179186  0.33254059  0.32591650  1
  Cs  Cs23  1  0.66572405  0.33081009  0.67103067  1
  Cs  Cs24  1  0.66445069  0.66519798  -0.00085288  1
  Cs  Cs25  1  0.66588752  0.66915315  0.33402068  1
  Cs  Cs26  1  0.66670245  0.66623808  0.66673737  1
  Sn  Sn27  1  0.16763712  0.83358711  0.50055389  1
  Sn  Sn28  1  0.83380662  0.83354892  0.83383221  1
  Sn  Sn29  1  0.16684103  0.16730138  0.16696292  1
  Sn  Sn30  1  0.16662625  0.16634300  0.83329309  1
  Sn  Sn31  1  0.49999832  0.16636148  0.83371611  1
  Sn  Sn32  1  0.83376151  0.16695181  0.49989324  1
  Sn  Sn33  1  0.49892500  0.50109820  0.16740152  1
  Sn  Sn34  1  0.50006236  0.50078077  0.49957880  1
  Sn  Sn35  1  0.16582989  0.16601124  0.49975510  1
  Sn  Sn36  1  0.83269591  0.83354160  0.16579768  1
  Sn  Sn37  1  0.50066427  0.83281131  0.16706737  1
  Sn  Sn38  1  0.16735490  0.49958221  0.16671291  1
  Sn  Sn39  1  0.83349535  0.16585028  0.83256175  1
  Sn  Sn40  1  0.49882927  0.83258525  0.49977265  1
  Pb  Pb41  1  0.49996520  0.49755823  0.83393302  1
  Pb  Pb42  1  0.83342312  0.49993810  0.83328504  1
  Pb  Pb43  1  0.16375700  0.83510445  0.82976350  1
  Pb  Pb44  1  0.82980674  0.49608275  0.49968784  1
  Pb  Pb45  1  0.83577026  0.16451486  0.16689252  1
  Pb  Pb46  1  0.16668421  0.49742093  0.83641118  1
  Pb  Pb47  1  0.49993938  0.16648618  0.50146088  1
  Pb  Pb48  1  0.16869897  0.49970111  0.49800977  1
  Pb  Pb49  1  0.50166681  0.83532015  0.83313520  1
  Pb  Pb50  1  0.83305909  0.83468628  0.50028090  1
  Pb  Pb51  1  0.49777006  0.16606101  0.16428407  1
  Pb  Pb52  1  0.83322006  0.50319253  0.16671169  1
  Pb  Pb53  1  0.16684603  0.83318458  0.16837430  1
  I  I54  1  0.16649196  0.00259625  0.16500740  1
  I  I55  1  0.16907798  0.00133386  0.49708749  1
  I  I56  1  0.16874400  0.00384436  0.83936183  1
  I  I57  1  0.17225080  0.33241900  0.16807311  1
  I  I58  1  0.16447765  0.32998145  0.50250191  1
  I  I59  1  0.16441073  0.32843532  0.82687692  1
  I  I60  1  0.16762573  0.66448710  0.16969915  1
  I  I61  1  0.16747203  0.66918325  0.49668184  1
  I  I62  1  0.16514220  0.66694369  0.83349175  1
  I  I63  1  0.50261330  -0.00296462  0.17090105  1
  I  I64  1  0.49906090  -0.00255986  0.49615031  1
  I  I65  1  0.49802596  0.00340572  0.83285425  1
  I  I66  1  0.49722478  0.33559015  0.17043486  1
  I  I67  1  0.50040289  0.33534826  0.49630281  1
  I  I68  1  0.50200402  0.32924684  0.83209384  1
  I  I69  1  0.49813050  0.66699746  0.17048095  1
  I  I70  1  0.49492001  0.66792480  0.49579349  1
  I  I71  1  0.50259130  0.66686992  0.83291119  1
  I  I72  1  0.82809673  -0.00319961  0.16562960  1
  I  I73  1  0.83310874  0.00279274  0.50189864  1
  I  I74  1  0.83297449  0.00147328  0.83352277  1
  I  I75  1  0.83091890  0.33315005  0.16614621  1
  I  I76  1  0.83992233  0.32819291  0.50711061  1
  I  I77  1  0.83351235  0.32922022  0.82926307  1
  I  I78  1  0.83434651  0.67116873  0.16154154  1
  I  I79  1  0.83698076  0.66666669  0.50074399  1
  I  I80  1  0.83143093  0.67004252  0.83793431  1
  I  I81  1  0.16713351  0.17157572  -0.00013076  1
  I  I82  1  0.16223873  0.16610505  0.33406079  1
  I  I83  1  0.16604369  0.16113395  0.66632426  1
  I  I84  1  0.17336827  0.49627866  0.00447835  1
  I  I85  1  0.16905786  0.49334639  0.33026991  1
  I  I86  1  0.16791212  0.49967295  0.66639326  1
  I  I87  1  0.16836732  0.83422309  -0.00013850  1
  I  I88  1  0.16584702  0.84023912  0.33606621  1
  I  I89  1  0.17263642  0.83986520  0.66203360  1
  I  I90  1  0.50116783  0.16686114  -0.00340759  1
  I  I91  1  0.50040088  0.16695876  0.33310107  1
  I  I92  1  0.49680210  0.16633192  0.66934328  1
  I  I93  1  0.49595438  0.50369661  0.00362350  1
  I  I94  1  0.49614336  0.50244071  0.33252901  1
  I  I95  1  0.50047250  0.50351753  0.66391639  1
  I  I96  1  0.50195766  0.83035641  0.00278227  1
  I  I97  1  0.50258009  0.83093897  0.33317241  1
  I  I98  1  0.49754928  0.83104098  0.66366118  1
  I  I99  1  0.83402083  0.16466130  -0.00269737  1
  I  I100  1  0.83801697  0.16445666  0.33580363  1
  I  I101  1  0.83689913  0.16023419  0.66760819  1
  I  I102  1  0.83096985  0.49446769  0.00027155  1
  I  I103  1  0.83620022  0.49982407  0.33323731  1
  I  I104  1  0.83161848  0.50502880  0.66629001  1
  I  I105  1  0.82809625  0.83986957  0.00014384  1
  I  I106  1  0.83223541  0.83502652  0.33143012  1
  I  I107  1  0.83283013  0.83875715  0.66888947  1
  I  I108  1  0.00386834  0.17050263  0.16299771  1
  I  I109  1  0.00132964  0.16010867  0.50436165  1
  I  I110  1  -0.00005353  0.16240988  0.83260201  1
  I  I111  1  0.00279651  0.49527669  0.16565914  1
  I  I112  1  0.00010552  0.50299147  0.49885514  1
  I  I113  1  0.00018362  0.49877240  0.83444700  1
  I  I114  1  -0.00193168  0.83534023  0.16421148  1
  I  I115  1  0.00211579  0.83791813  0.49879398  1
  I  I116  1  -0.00383467  0.84111770  0.84075698  1
  I  I117  1  0.32973898  0.16583733  0.16795880  1
  I  I118  1  0.33061069  0.16578500  0.50123091  1
  I  I119  1  0.33234037  0.16779900  0.83260156  1
  I  I120  1  0.33423491  0.50043203  0.17098217  1
  I  I121  1  0.33649785  0.49814987  0.49721410  1
  I  I122  1  0.33338338  0.49741491  0.83136217  1
  I  I123  1  0.33595251  0.83298645  0.16959612  1
  I  I124  1  0.33402661  0.83726969  0.49330409  1
  I  I125  1  0.33305905  0.83615121  0.83584218  1
  I  I126  1  0.66657573  0.16917286  0.16630814  1
  I  I127  1  0.66875421  0.16599044  0.50640471  1
  I  I128  1  0.66783223  0.16333724  0.82723263  1
  I  I129  1  0.66325291  0.50098249  0.17039500  1
  I  I130  1  0.66208159  0.50616393  0.49357230  1
  I  I131  1  0.66646440  0.49504505  0.83521059  1
  I  I132  1  0.66541438  0.82917312  0.16920114  1
  I  I133  1  0.66392159  0.83169584  0.49858371  1
  I  I134  1  0.66948468  0.84146586  0.83270476  1
