# generated using pymatgen
data_Cs27Sn14Pb13I81
_symmetry_space_group_name_H-M   'P 1'
_cell_length_a   18.97563269
_cell_length_b   18.98161978
_cell_length_c   18.96955908
_cell_angle_alpha   89.99903567
_cell_angle_beta   90.00119634
_cell_angle_gamma   90.00127386
_symmetry_Int_Tables_number   1
_chemical_formula_structural   Cs27Sn14Pb13I81
_chemical_formula_sum   'Cs27 Sn14 Pb13 I81'
_cell_volume   6832.61218318
_cell_formula_units_Z   1
loop_
 _symmetry_equiv_pos_site_id
 _symmetry_equiv_pos_as_xyz
  1  'x, y, z'
loop_
 _atom_site_type_symbol
 _atom_site_label
 _atom_site_symmetry_multiplicity
 _atom_site_fract_x
 _atom_site_fract_y
 _atom_site_fract_z
 _atom_site_occupancy
  Cs  Cs0  1  0.00336679  0.00504936  0.00311135  1
  Cs  Cs1  1  -0.00064274  -0.00001836  0.33237506  1
  Cs  Cs2  1  -0.00111586  0.00003386  0.66600528  1
  Cs  Cs3  1  0.00028505  0.33250595  -0.00037245  1
  Cs  Cs4  1  -0.00113663  0.33321458  0.33367145  1
  Cs  Cs5  1  0.00153671  0.33371617  0.66721118  1
  Cs  Cs6  1  0.00343875  0.66447533  0.00166061  1
  Cs  Cs7  1  -0.00021804  0.66610753  0.33383966  1
  Cs  Cs8  1  -0.00044458  0.66668841  0.66492001  1
  Cs  Cs9  1  0.33115203  -0.00118838  -0.00048061  1
  Cs  Cs10  1  0.33373517  -0.00112729  0.33256268  1
  Cs  Cs11  1  0.33465490  0.00188538  0.66737111  1
  Cs  Cs12  1  0.33208103  0.33383200  -0.00027809  1
  Cs  Cs13  1  0.33554312  0.33518066  0.33644024  1
  Cs  Cs14  1  0.33890307  0.33079794  0.66071809  1
  Cs  Cs15  1  0.33238603  0.66767628  0.00057096  1
  Cs  Cs16  1  0.33302325  0.66612169  0.33449140  1
  Cs  Cs17  1  0.33143940  0.66547595  0.66411249  1
  Cs  Cs18  1  0.66523763  -0.00102155  -0.00134247  1
  Cs  Cs19  1  0.66743254  0.00095308  0.33385890  1
  Cs  Cs20  1  0.66345484  -0.00449827  0.67329022  1
  Cs  Cs21  1  0.66853057  0.33914011  -0.00147908  1
  Cs  Cs22  1  0.66744288  0.33100944  0.33147567  1
  Cs  Cs23  1  0.65916063  0.33296147  0.67277594  1
  Cs  Cs24  1  0.66342629  0.66406263  -0.00579949  1
  Cs  Cs25  1  0.66858701  0.66765834  0.33226571  1
  Cs  Cs26  1  0.66962114  0.67229002  0.68003394  1
  Sn  Sn27  1  0.49971231  0.83289081  0.49901069  1
  Sn  Sn28  1  0.83365946  0.16765220  0.49973893  1
  Sn  Sn29  1  0.16608795  0.49883569  0.16636422  1
  Sn  Sn30  1  0.16581250  0.16578681  0.49882816  1
  Sn  Sn31  1  0.50002815  0.16597662  0.16698537  1
  Sn  Sn32  1  0.50100639  0.83395177  0.16777811  1
  Sn  Sn33  1  0.16710206  0.16805157  0.16798016  1
  Sn  Sn34  1  0.16659794  0.50042369  0.83369232  1
  Sn  Sn35  1  0.83297368  0.16669626  0.16723443  1
  Sn  Sn36  1  0.16623424  0.83279910  0.83197915  1
  Sn  Sn37  1  0.83425873  0.50005837  0.16768932  1
  Sn  Sn38  1  0.16725760  0.83422257  0.50070077  1
  Sn  Sn39  1  0.83279666  0.49892234  0.49955716  1
  Sn  Sn40  1  0.83233422  0.83320672  0.16680096  1
  Pb  Pb41  1  0.16661938  0.16704677  0.83269439  1
  Pb  Pb42  1  0.50436020  0.50339554  0.49974901  1
  Pb  Pb43  1  0.50013345  0.50016169  0.16696198  1
  Pb  Pb44  1  0.83344034  0.16671130  0.83284952  1
  Pb  Pb45  1  0.16673496  0.83330158  0.16730104  1
  Pb  Pb46  1  0.83567803  0.49977098  0.83329637  1
  Pb  Pb47  1  0.83676684  0.83359286  0.83721031  1
  Pb  Pb48  1  0.49989778  0.16657038  0.83698177  1
  Pb  Pb49  1  0.49712754  0.83339877  0.83381662  1
  Pb  Pb50  1  0.50074100  0.16473062  0.49805985  1
  Pb  Pb51  1  0.83323020  0.83373724  0.49855185  1
  Pb  Pb52  1  0.49619098  0.49999351  0.83320235  1
  Pb  Pb53  1  0.16532600  0.49962040  0.49961996  1
  I  I54  1  0.16395486  0.00244496  0.16694448  1
  I  I55  1  0.16426065  0.00037520  0.49886758  1
  I  I56  1  0.16758520  -0.00246557  0.83382940  1
  I  I57  1  0.16377280  0.33268612  0.16543821  1
  I  I58  1  0.16410605  0.33055754  0.49884884  1
  I  I59  1  0.16469925  0.33602470  0.83706067  1
  I  I60  1  0.16332520  0.66463737  0.16589563  1
  I  I61  1  0.16840966  0.66896457  0.50001403  1
  I  I62  1  0.16617015  0.66670455  0.83528398  1
  I  I63  1  0.50237538  -0.00024301  0.17059037  1
  I  I64  1  0.49936717  -0.00314975  0.49644920  1
  I  I65  1  0.49726858  -0.00034462  0.83188373  1
  I  I66  1  0.50130185  0.33031263  0.16646586  1
  I  I67  1  0.49618100  0.33325822  0.49920726  1
  I  I68  1  0.49827057  0.33329073  0.83392455  1
  I  I69  1  0.50217115  0.66990155  0.16955193  1
  I  I70  1  0.49187749  0.67126579  0.49151844  1
  I  I71  1  0.50214176  0.66702341  0.83626439  1
  I  I72  1  0.83441886  0.00087737  0.17061565  1
  I  I73  1  0.83601979  0.00275173  0.49370087  1
  I  I74  1  0.83595799  -0.00012961  0.83307948  1
  I  I75  1  0.83457786  0.33297106  0.17027806  1
  I  I76  1  0.84178387  0.33242220  0.48992281  1
  I  I77  1  0.83685792  0.33338504  0.83811112  1
  I  I78  1  0.83538414  0.66608828  0.17153312  1
  I  I79  1  0.83484460  0.66476659  0.49363931  1
  I  I80  1  0.83260455  0.66677128  0.83230056  1
  I  I81  1  0.16552926  0.16621049  0.00349012  1
  I  I82  1  0.16525733  0.16561956  0.33240887  1
  I  I83  1  0.16142141  0.16536118  0.66301221  1
  I  I84  1  0.16120309  0.50083493  0.00182172  1
  I  I85  1  0.16415751  0.49980361  0.33046542  1
  I  I86  1  0.16407385  0.50248418  0.66847032  1
  I  I87  1  0.16582256  0.83223025  -0.00117093  1
  I  I88  1  0.16729801  0.83427715  0.33572733  1
  I  I89  1  0.17189350  0.83288261  0.66523083  1
  I  I90  1  0.49887054  0.15917226  0.00579140  1
  I  I91  1  0.49959456  0.16385023  0.32970863  1
  I  I92  1  0.49912144  0.16537703  0.66620973  1
  I  I93  1  0.50444852  0.50151044  0.00047684  1
  I  I94  1  0.49281706  0.49995532  0.33326015  1
  I  I95  1  0.49983918  0.50085085  0.66626428  1
  I  I96  1  0.50293587  0.83738611  0.00349119  1
  I  I97  1  0.49665246  0.83716415  0.33227638  1
  I  I98  1  0.49838451  0.83307930  0.66383461  1
  I  I99  1  0.83508704  0.16703788  0.00444360  1
  I  I100  1  0.83516477  0.16720301  0.33190225  1
  I  I101  1  0.84078428  0.17095638  0.66253375  1
  I  I102  1  0.83503196  0.49898420  0.00370293  1
  I  I103  1  0.84054171  0.49969737  0.33155169  1
  I  I104  1  0.83566251  0.49610593  0.66349718  1
  I  I105  1  0.82810956  0.83336328  0.00559316  1
  I  I106  1  0.83537211  0.83347527  0.33006367  1
  I  I107  1  0.83041289  0.83282532  0.66667490  1
  I  I108  1  0.00004314  0.16597595  0.16940231  1
  I  I109  1  0.00064682  0.16401063  0.49176816  1
  I  I110  1  0.00033587  0.16531954  0.83914037  1
  I  I111  1  -0.00005981  0.49837618  0.16603142  1
  I  I112  1  -0.00260331  0.50171338  0.49732452  1
  I  I113  1  0.00343843  0.50451671  0.83665121  1
  I  I114  1  -0.00213220  0.83520576  0.16665604  1
  I  I115  1  0.00261240  0.83410999  0.50180052  1
  I  I116  1  0.00438297  0.82945617  0.82743759  1
  I  I117  1  0.33217688  0.16554296  0.16964417  1
  I  I118  1  0.33056284  0.16459322  0.49625817  1
  I  I119  1  0.33286567  0.16691443  0.83398867  1
  I  I120  1  0.33010288  0.49778101  0.16181195  1
  I  I121  1  0.33343229  0.49809217  0.50073717  1
  I  I122  1  0.32811146  0.50482443  0.84136209  1
  I  I123  1  0.33531564  0.83668474  0.16669451  1
  I  I124  1  0.33202453  0.83840616  0.49737039  1
  I  I125  1  0.32939489  0.82932523  0.83574175  1
  I  I126  1  0.66781436  0.16549106  0.17113081  1
  I  I127  1  0.66987808  0.16947775  0.49371376  1
  I  I128  1  0.66667186  0.16599211  0.83178133  1
  I  I129  1  0.67010191  0.49766262  0.17139632  1
  I  I130  1  0.67201018  0.49352415  0.48957798  1
  I  I131  1  0.66687530  0.50029340  0.83406695  1
  I  I132  1  0.66664704  0.83676375  0.17353007  1
  I  I133  1  0.66450195  0.83312462  0.49497216  1
  I  I134  1  0.66668254  0.83348676  0.83041333  1
