# generated using pymatgen
data_Cs27Sn14Pb13I81
_symmetry_space_group_name_H-M   'P 1'
_cell_length_a   18.98604701
_cell_length_b   18.96836163
_cell_length_c   18.97325849
_cell_angle_alpha   89.99997823
_cell_angle_beta   89.99975045
_cell_angle_gamma   90.00097893
_symmetry_Int_Tables_number   1
_chemical_formula_structural   Cs27Sn14Pb13I81
_chemical_formula_sum   'Cs27 Sn14 Pb13 I81'
_cell_volume   6832.91936934
_cell_formula_units_Z   1
loop_
 _symmetry_equiv_pos_site_id
 _symmetry_equiv_pos_as_xyz
  1  'x, y, z'
loop_
 _atom_site_type_symbol
 _atom_site_label
 _atom_site_symmetry_multiplicity
 _atom_site_fract_x
 _atom_site_fract_y
 _atom_site_fract_z
 _atom_site_occupancy
  Cs  Cs0  1  -0.00275337  0.00140093  0.00087760  1
  Cs  Cs1  1  -0.00142038  0.00002487  0.33334136  1
  Cs  Cs2  1  0.00059761  -0.00204226  0.66672162  1
  Cs  Cs3  1  0.00052341  0.33306588  0.00209421  1
  Cs  Cs4  1  -0.00073194  0.33365019  0.33081599  1
  Cs  Cs5  1  -0.00576093  0.33651698  0.66871833  1
  Cs  Cs6  1  0.00308178  0.66566087  -0.00311991  1
  Cs  Cs7  1  0.00041519  0.66734493  0.33392255  1
  Cs  Cs8  1  0.00816911  0.66179570  0.67393523  1
  Cs  Cs9  1  0.33541124  0.00054012  0.00142063  1
  Cs  Cs10  1  0.33464836  0.00066335  0.33412497  1
  Cs  Cs11  1  0.33081964  0.00104529  0.66369529  1
  Cs  Cs12  1  0.33162789  0.33168141  0.00203433  1
  Cs  Cs13  1  0.33378306  0.33216754  0.33217024  1
  Cs  Cs14  1  0.33732742  0.33297320  0.66669220  1
  Cs  Cs15  1  0.33532282  0.66703405  -0.00746625  1
  Cs  Cs16  1  0.32926177  0.66586189  0.33518544  1
  Cs  Cs17  1  0.32636956  0.66005848  0.67364222  1
  Cs  Cs18  1  0.66673250  -0.00202150  -0.00000326  1
  Cs  Cs19  1  0.66707646  -0.00093220  0.33364771  1
  Cs  Cs20  1  0.66875566  0.00110819  0.66262309  1
  Cs  Cs21  1  0.66814550  0.33140780  0.00252061  1
  Cs  Cs22  1  0.66713781  0.33269918  0.33278363  1
  Cs  Cs23  1  0.66684359  0.33951791  0.66730974  1
  Cs  Cs24  1  0.66268728  0.67179252  -0.00295685  1
  Cs  Cs25  1  0.66856060  0.66927154  0.33258359  1
  Cs  Cs26  1  0.66565213  0.65577344  0.67148674  1
  Sn  Sn27  1  0.83326245  0.16596182  0.49908741  1
  Sn  Sn28  1  0.83258710  0.83349861  0.50000104  1
  Sn  Sn29  1  0.50064441  0.49972408  0.16741801  1
  Sn  Sn30  1  0.50060970  0.83333227  0.50017796  1
  Sn  Sn31  1  0.83219253  0.50056578  0.16704322  1
  Sn  Sn32  1  0.16619826  0.83439610  0.16679534  1
  Sn  Sn33  1  0.83421869  0.83330025  0.16727741  1
  Sn  Sn34  1  0.50028448  0.16717995  0.16671794  1
  Sn  Sn35  1  0.83311218  0.16628802  0.16759095  1
  Sn  Sn36  1  0.16623922  0.16660257  0.50006977  1
  Sn  Sn37  1  0.50042095  0.16595036  0.50011970  1
  Sn  Sn38  1  0.16661952  0.16551036  0.16694957  1
  Sn  Sn39  1  0.49969143  0.16596706  0.83324502  1
  Sn  Sn40  1  0.16730271  0.16624044  0.83329453  1
  Pb  Pb41  1  0.16660643  0.49678477  0.49966830  1
  Pb  Pb42  1  0.16676878  0.49630349  0.83370198  1
  Pb  Pb43  1  0.50022673  0.83612165  0.82904092  1
  Pb  Pb44  1  0.49983898  0.83334429  0.16819962  1
  Pb  Pb45  1  0.83310859  0.83357126  0.83223237  1
  Pb  Pb46  1  0.16673119  0.83638630  0.83636002  1
  Pb  Pb47  1  0.16692733  0.50017914  0.16676911  1
  Pb  Pb48  1  0.83306257  0.16642573  0.83287594  1
  Pb  Pb49  1  0.83342094  0.50070791  0.49791717  1
  Pb  Pb50  1  0.83321579  0.50000232  0.83699452  1
  Pb  Pb51  1  0.49997191  0.50026603  0.49754308  1
  Pb  Pb52  1  0.16631639  0.83499591  0.49832671  1
  Pb  Pb53  1  0.50005778  0.49697789  0.83662950  1
  I  I54  1  0.16395046  0.00239846  0.16659076  1
  I  I55  1  0.16752434  0.00416151  0.50090023  1
  I  I56  1  0.17062604  0.00452054  0.83142554  1
  I  I57  1  0.16453280  0.32942498  0.16633148  1
  I  I58  1  0.16762352  0.32723640  0.49515372  1
  I  I59  1  0.17073697  0.32802710  0.83782056  1
  I  I60  1  0.16315541  0.66975593  0.16885611  1
  I  I61  1  0.16714039  0.66713962  0.49665406  1
  I  I62  1  0.16630001  0.66679654  0.83471130  1
  I  I63  1  0.50106842  0.00356744  0.16495074  1
  I  I64  1  0.50056208  0.00256151  0.49679930  1
  I  I65  1  0.49633509  0.00449203  0.84132155  1
  I  I66  1  0.50245453  0.33043839  0.16803698  1
  I  I67  1  0.49999615  0.32921234  0.50176358  1
  I  I68  1  0.49583692  0.32859672  0.82792641  1
  I  I69  1  0.50359907  0.66457208  0.17003135  1
  I  I70  1  0.50650617  0.66989517  0.49459565  1
  I  I71  1  0.50053962  0.66658025  0.83449074  1
  I  I72  1  0.83431591  0.00111885  0.16980771  1
  I  I73  1  0.83208449  0.00155311  0.49159982  1
  I  I74  1  0.83346725  0.00039843  0.83993783  1
  I  I75  1  0.83322872  0.33145062  0.16970857  1
  I  I76  1  0.83316763  0.32978980  0.49632093  1
  I  I77  1  0.83420529  0.33279488  0.83285016  1
  I  I78  1  0.83344614  0.66753863  0.17153349  1
  I  I79  1  0.82684807  0.67043022  0.49284203  1
  I  I80  1  0.83301099  0.66669360  0.83295119  1
  I  I81  1  0.16943564  0.16379681  0.00149217  1
  I  I82  1  0.16887424  0.16348148  0.33246426  1
  I  I83  1  0.17045551  0.16740617  0.66590327  1
  I  I84  1  0.16572977  0.49761959  0.00060122  1
  I  I85  1  0.16741094  0.49669201  0.33267413  1
  I  I86  1  0.16647687  0.50067383  0.66682372  1
  I  I87  1  0.16076425  0.83898778  0.00476953  1
  I  I88  1  0.16541138  0.84027157  0.33010227  1
  I  I89  1  0.16605949  0.83505646  0.66652972  1
  I  I90  1  0.49702274  0.17187836  0.00141485  1
  I  I91  1  0.49794021  0.16729510  0.33297110  1
  I  I92  1  0.49618119  0.16112910  0.66556148  1
  I  I93  1  0.50410814  0.49510294  0.00468289  1
  I  I94  1  0.50345983  0.49133935  0.32964660  1
  I  I95  1  0.49976599  0.49920102  0.66674782  1
  I  I96  1  0.49997765  0.83337150  0.00008685  1
  I  I97  1  0.50133211  0.84107946  0.33587639  1
  I  I98  1  0.50646637  0.84129891  0.66113387  1
  I  I99  1  0.83357806  0.16686989  0.00364681  1
  I  I100  1  0.83334463  0.16663281  0.33216972  1
  I  I101  1  0.83416798  0.16143269  0.66288614  1
  I  I102  1  0.83017095  0.49667589  0.00560511  1
  I  I103  1  0.82968397  0.49741863  0.32947233  1
  I  I104  1  0.83357283  0.49843465  0.66652280  1
  I  I105  1  0.83699527  0.83502384  0.00395353  1
  I  I106  1  0.83310452  0.83570887  0.33220075  1
  I  I107  1  0.82872647  0.84338737  0.66227945  1
  I  I108  1  -0.00040646  0.16687234  0.16827495  1
  I  I109  1  -0.00053388  0.16331048  0.49628664  1
  I  I110  1  0.00281983  0.16652653  0.83489422  1
  I  I111  1  -0.00295342  0.49600220  0.16744585  1
  I  I112  1  -0.00017608  0.49872941  0.49624149  1
  I  I113  1  0.00007238  0.49751678  0.83484476  1
  I  I114  1  -0.00121115  0.83737833  0.17188992  1
  I  I115  1  -0.00314154  0.83972482  0.49534891  1
  I  I116  1  0.00008678  0.83636389  0.83021569  1
  I  I117  1  0.33344504  0.16723058  0.16839387  1
  I  I118  1  0.33391973  0.16345431  0.49709518  1
  I  I119  1  0.33351217  0.16657737  0.83467872  1
  I  I120  1  0.33612992  0.49401499  0.16734813  1
  I  I121  1  0.33350976  0.50015598  0.49565374  1
  I  I122  1  0.33355572  0.50167173  0.83632561  1
  I  I123  1  0.33120218  0.83846340  0.16872452  1
  I  I124  1  0.33562622  0.84033194  0.49608536  1
  I  I125  1  0.33347442  0.83268200  0.83538534  1
  I  I126  1  0.66691783  0.16773994  0.16821973  1
  I  I127  1  0.66661197  0.16283120  0.49643730  1
  I  I128  1  0.66365160  0.16701968  0.83501573  1
  I  I129  1  0.66704581  0.49389199  0.16772163  1
  I  I130  1  0.66669580  0.49441333  0.50054722  1
  I  I131  1  0.66640300  0.49632897  0.83127221  1
  I  I132  1  0.66945512  0.83596622  0.16855658  1
  I  I133  1  0.66738200  0.84478777  0.49154129  1
  I  I134  1  0.66650494  0.83695790  0.84057670  1
