# generated using pymatgen
data_Cs27Sn13Pb14I81
_symmetry_space_group_name_H-M   'P 1'
_cell_length_a   18.98318663
_cell_length_b   18.97353825
_cell_length_c   18.97405327
_cell_angle_alpha   90.00161852
_cell_angle_beta   90.00181846
_cell_angle_gamma   90.00032605
_symmetry_Int_Tables_number   1
_chemical_formula_structural   Cs27Sn13Pb14I81
_chemical_formula_sum   'Cs27 Sn13 Pb14 I81'
_cell_volume   6834.04068288
_cell_formula_units_Z   1
loop_
 _symmetry_equiv_pos_site_id
 _symmetry_equiv_pos_as_xyz
  1  'x, y, z'
loop_
 _atom_site_type_symbol
 _atom_site_label
 _atom_site_symmetry_multiplicity
 _atom_site_fract_x
 _atom_site_fract_y
 _atom_site_fract_z
 _atom_site_occupancy
  Cs  Cs0  1  0.00100216  0.00063861  -0.00095881  1
  Cs  Cs1  1  -0.00344899  -0.00042691  0.33690868  1
  Cs  Cs2  1  -0.00353139  0.00222532  0.66477273  1
  Cs  Cs3  1  -0.00071063  0.33330413  0.00005960  1
  Cs  Cs4  1  0.00314018  0.33226809  0.33541046  1
  Cs  Cs5  1  0.00038185  0.33204294  0.66486542  1
  Cs  Cs6  1  0.00232640  0.66544447  0.00100843  1
  Cs  Cs7  1  -0.00179512  0.66722721  0.33317833  1
  Cs  Cs8  1  0.00194805  0.66482633  0.66744443  1
  Cs  Cs9  1  0.33396281  -0.00080790  0.00077049  1
  Cs  Cs10  1  0.33504996  -0.00049437  0.33278810  1
  Cs  Cs11  1  0.33525625  -0.00019198  0.66655431  1
  Cs  Cs12  1  0.33311848  0.33185507  0.00099405  1
  Cs  Cs13  1  0.33148951  0.33414151  0.33319691  1
  Cs  Cs14  1  0.33504655  0.33401576  0.66584260  1
  Cs  Cs15  1  0.32735547  0.67071188  -0.00149524  1
  Cs  Cs16  1  0.33333950  0.66690462  0.33520840  1
  Cs  Cs17  1  0.33357175  0.66657442  0.66652578  1
  Cs  Cs18  1  0.66505814  0.00266666  -0.00405506  1
  Cs  Cs19  1  0.66749826  -0.00321093  0.33289065  1
  Cs  Cs20  1  0.66642829  -0.00092508  0.66825858  1
  Cs  Cs21  1  0.66893063  0.33566404  0.00189306  1
  Cs  Cs22  1  0.66271456  0.33684186  0.33001588  1
  Cs  Cs23  1  0.66368039  0.33472832  0.66758789  1
  Cs  Cs24  1  0.67056298  0.65895530  0.00680096  1
  Cs  Cs25  1  0.67012342  0.66524794  0.32672006  1
  Cs  Cs26  1  0.66365147  0.66751148  0.66606179  1
  Sn  Sn27  1  0.16667845  0.16666071  0.83376470  1
  Sn  Sn28  1  0.50111215  0.83382658  0.83290183  1
  Sn  Sn29  1  0.49942054  0.83424134  0.50048739  1
  Sn  Sn30  1  0.16580475  0.50088641  0.49939998  1
  Sn  Sn31  1  0.50011692  0.16587299  0.50041713  1
  Sn  Sn32  1  0.83327687  0.16615832  0.83389912  1
  Sn  Sn33  1  0.16696730  0.83291467  0.50026979  1
  Sn  Sn34  1  0.83416618  0.16629743  0.16639574  1
  Sn  Sn35  1  0.50006328  0.16621644  0.83241568  1
  Sn  Sn36  1  0.16679057  0.49939648  0.16736434  1
  Sn  Sn37  1  0.16564978  0.16705501  0.16608273  1
  Sn  Sn38  1  0.83251804  0.83346733  0.83334683  1
  Sn  Sn39  1  0.83379180  0.49992230  0.50048756  1
  Pb  Pb40  1  0.49643263  0.50017037  0.16643061  1
  Pb  Pb41  1  0.16657673  0.83584334  0.83104466  1
  Pb  Pb42  1  0.16668809  0.49739001  0.83308482  1
  Pb  Pb43  1  0.49962058  0.50072981  0.49998934  1
  Pb  Pb44  1  0.50012487  0.83334537  0.16597885  1
  Pb  Pb45  1  0.83592060  0.49738855  0.16894623  1
  Pb  Pb46  1  0.83335025  0.49987345  0.83145898  1
  Pb  Pb47  1  0.16649600  0.83412450  0.16938018  1
  Pb  Pb48  1  0.16843817  0.16658681  0.49979800  1
  Pb  Pb49  1  0.83345014  0.83601704  0.16331026  1
  Pb  Pb50  1  0.83270129  0.83135536  0.50198519  1
  Pb  Pb51  1  0.83034537  0.16842190  0.49999775  1
  Pb  Pb52  1  0.49995747  0.50059916  0.83364419  1
  Pb  Pb53  1  0.49991319  0.16655365  0.16620896  1
  I  I54  1  0.16428692  0.00364720  0.16313329  1
  I  I55  1  0.16969498  -0.00207718  0.50081813  1
  I  I56  1  0.16704510  0.00405409  0.83765357  1
  I  I57  1  0.16332001  0.33230867  0.16928693  1
  I  I58  1  0.16486973  0.33543333  0.49912671  1
  I  I59  1  0.16638697  0.32881952  0.83197746  1
  I  I60  1  0.16805090  0.66394809  0.16936607  1
  I  I61  1  0.16884634  0.66622627  0.49555987  1
  I  I62  1  0.16720597  0.66697592  0.83559561  1
  I  I63  1  0.49644456  0.00032873  0.16885300  1
  I  I64  1  0.49405093  -0.00035024  0.50409461  1
  I  I65  1  0.50070758  0.00119501  0.82841910  1
  I  I66  1  0.50187658  0.33286306  0.16785754  1
  I  I67  1  0.49983678  0.33073690  0.50460487  1
  I  I68  1  0.50030066  0.32936855  0.82846982  1
  I  I69  1  0.49950808  0.66672913  0.16743460  1
  I  I70  1  0.49763483  0.67005959  0.50597869  1
  I  I71  1  0.50377227  0.67085905  0.82681143  1
  I  I72  1  0.84043708  0.00424875  0.16772985  1
  I  I73  1  0.83641264  0.00011116  0.49802683  1
  I  I74  1  0.83250278  0.00151220  0.83558056  1
  I  I75  1  0.83420275  0.32956606  0.15936483  1
  I  I76  1  0.83962104  0.33589647  0.50156064  1
  I  I77  1  0.83270514  0.32956837  0.83613614  1
  I  I78  1  0.83368707  0.66635810  0.16592175  1
  I  I79  1  0.83415525  0.66365664  0.50217662  1
  I  I80  1  0.82791411  0.66970714  0.82936079  1
  I  I81  1  0.16803672  0.17182605  -0.00019620  1
  I  I82  1  0.16377416  0.16812462  0.33092038  1
  I  I83  1  0.16457784  0.16629690  0.66910329  1
  I  I84  1  0.16744018  0.49702642  0.00284144  1
  I  I85  1  0.16328352  0.49651344  0.33413591  1
  I  I86  1  0.16406563  0.50222130  0.66337903  1
  I  I87  1  0.16766046  0.83022598  -0.00030242  1
  I  I88  1  0.17267513  0.83412333  0.33752393  1
  I  I89  1  0.16871591  0.82862881  0.66319978  1
  I  I90  1  0.49912396  0.16190510  -0.00360153  1
  I  I91  1  0.49908629  0.16346096  0.33608885  1
  I  I92  1  0.49917367  0.16350912  0.66768348  1
  I  I93  1  0.50004334  0.49863667  0.00001217  1
  I  I94  1  0.50261218  0.49820383  0.33372635  1
  I  I95  1  0.49714179  0.49763851  0.66646865  1
  I  I96  1  0.50252208  0.84024161  -0.00424442  1
  I  I97  1  0.49493465  0.83794828  0.33699029  1
  I  I98  1  0.49948242  0.83844486  0.66652767  1
  I  I99  1  0.83247087  0.16348020  -0.00132531  1
  I  I100  1  0.83814860  0.16983317  0.33105404  1
  I  I101  1  0.83620100  0.16444468  0.66982035  1
  I  I102  1  0.83423696  0.50184637  0.00024290  1
  I  I103  1  0.83448317  0.49931525  0.33670935  1
  I  I104  1  0.84052656  0.49706527  0.66363693  1
  I  I105  1  0.82749313  0.83457830  -0.00489080  1
  I  I106  1  0.83307070  0.83370143  0.33347080  1
  I  I107  1  0.83266732  0.84114834  0.66978167  1
  I  I108  1  0.00076971  0.17037223  0.15875286  1
  I  I109  1  -0.00001560  0.16526710  0.50256422  1
  I  I110  1  -0.00034845  0.16350397  0.83757874  1
  I  I111  1  0.00362665  0.49712323  0.16911593  1
  I  I112  1  0.00163763  0.50412203  0.49714926  1
  I  I113  1  0.00013303  0.50060633  0.83300746  1
  I  I114  1  0.00008905  0.83221019  0.16692808  1
  I  I115  1  0.00222705  0.83104550  0.50110328  1
  I  I116  1  -0.00228768  0.83840795  0.83152485  1
  I  I117  1  0.33020515  0.17102206  0.16407503  1
  I  I118  1  0.33615575  0.16734080  0.50418245  1
  I  I119  1  0.33368210  0.16391699  0.83317052  1
  I  I120  1  0.32832064  0.49156619  0.17430518  1
  I  I121  1  0.33023706  0.50048460  0.49576084  1
  I  I122  1  0.33305970  0.49903549  0.83143541  1
  I  I123  1  0.33304178  0.83486652  0.16271600  1
  I  I124  1  0.33379749  0.83160689  0.50525253  1
  I  I125  1  0.33606580  0.83780471  0.83080455  1
  I  I126  1  0.66936377  0.16602304  0.16373379  1
  I  I127  1  0.66274050  0.16252028  0.50397520  1
  I  I128  1  0.66667620  0.16252145  0.83285735  1
  I  I129  1  0.66718808  0.49884373  0.16866778  1
  I  I130  1  0.66878083  0.49800350  0.50213939  1
  I  I131  1  0.66679606  0.49538392  0.83001192  1
  I  I132  1  0.66688015  0.83476181  0.17290392  1
  I  I133  1  0.66359596  0.83674686  0.50312059  1
  I  I134  1  0.66593338  0.84369907  0.82576764  1
