# generated using pymatgen
data_Cs27Sn14Pb13I81
_symmetry_space_group_name_H-M   'P 1'
_cell_length_a   18.98377538
_cell_length_b   18.97162705
_cell_length_c   18.97370506
_cell_angle_alpha   90.00083335
_cell_angle_beta   90.00040959
_cell_angle_gamma   89.99970343
_symmetry_Int_Tables_number   1
_chemical_formula_structural   Cs27Sn14Pb13I81
_chemical_formula_sum   'Cs27 Sn14 Pb13 I81'
_cell_volume   6833.43881864
_cell_formula_units_Z   1
loop_
 _symmetry_equiv_pos_site_id
 _symmetry_equiv_pos_as_xyz
  1  'x, y, z'
loop_
 _atom_site_type_symbol
 _atom_site_label
 _atom_site_symmetry_multiplicity
 _atom_site_fract_x
 _atom_site_fract_y
 _atom_site_fract_z
 _atom_site_occupancy
  Cs  Cs0  1  0.00010899  -0.00085749  0.00019154  1
  Cs  Cs1  1  0.00124610  0.00179581  0.32974888  1
  Cs  Cs2  1  -0.00200985  -0.00091211  0.66832943  1
  Cs  Cs3  1  0.00198664  0.33364684  0.00012197  1
  Cs  Cs4  1  -0.00194773  0.33918159  0.33418734  1
  Cs  Cs5  1  0.00215276  0.33484493  0.66608571  1
  Cs  Cs6  1  -0.00323632  0.67228482  0.00099283  1
  Cs  Cs7  1  0.00169542  0.65720105  0.33975033  1
  Cs  Cs8  1  0.00113353  0.66784978  0.65902951  1
  Cs  Cs9  1  0.33066838  0.00080434  0.00125972  1
  Cs  Cs10  1  0.33399174  0.00026756  0.33219868  1
  Cs  Cs11  1  0.33317524  0.00081506  0.66680825  1
  Cs  Cs12  1  0.33191946  0.33738361  -0.00280838  1
  Cs  Cs13  1  0.33354858  0.33024682  0.33436395  1
  Cs  Cs14  1  0.33458748  0.33373939  0.66836667  1
  Cs  Cs15  1  0.33585071  0.66068899  0.00136990  1
  Cs  Cs16  1  0.33444343  0.66709586  0.33517405  1
  Cs  Cs17  1  0.33062438  0.66363230  0.66359534  1
  Cs  Cs18  1  0.66856053  0.00005550  -0.00108837  1
  Cs  Cs19  1  0.66495579  0.00053968  0.33381043  1
  Cs  Cs20  1  0.66789196  0.00039348  0.66831885  1
  Cs  Cs21  1  0.66674501  0.33373114  -0.00015518  1
  Cs  Cs22  1  0.66885459  0.33226724  0.33564392  1
  Cs  Cs23  1  0.66495844  0.33143538  0.66591166  1
  Cs  Cs24  1  0.66658286  0.66584339  -0.00061006  1
  Cs  Cs25  1  0.66316244  0.66564341  0.33302480  1
  Cs  Cs26  1  0.66721985  0.66972506  0.66985035  1
  Sn  Sn27  1  0.49917865  0.16707893  0.50016726  1
  Sn  Sn28  1  0.49953021  0.83412368  0.83355687  1
  Sn  Sn29  1  0.16584689  0.83378520  0.16591775  1
  Sn  Sn30  1  0.50003155  0.16646296  0.16609368  1
  Sn  Sn31  1  0.83409960  0.83409264  0.16653405  1
  Sn  Sn32  1  0.16641317  0.16630491  0.16740734  1
  Sn  Sn33  1  0.83358856  0.83344122  0.83401935  1
  Sn  Sn34  1  0.16700984  0.16597612  0.49931175  1
  Sn  Sn35  1  0.50039278  0.49928155  0.50006308  1
  Sn  Sn36  1  0.50045739  0.16587457  0.83374513  1
  Sn  Sn37  1  0.16683281  0.83352850  0.83418603  1
  Sn  Sn38  1  0.83348448  0.16585587  0.16572052  1
  Sn  Sn39  1  0.83366607  0.49981629  0.83343286  1
  Sn  Sn40  1  0.83291174  0.16698517  0.83419207  1
  Pb  Pb41  1  0.49999689  0.83524782  0.16434846  1
  Pb  Pb42  1  0.50019119  0.49693419  0.16907977  1
  Pb  Pb43  1  0.83327528  0.50024286  0.16468899  1
  Pb  Pb44  1  0.49999944  0.83423990  0.50256217  1
  Pb  Pb45  1  0.16916261  0.49673334  0.50005046  1
  Pb  Pb46  1  0.16661118  0.50047322  0.16642822  1
  Pb  Pb47  1  0.16368881  0.50387527  0.83358656  1
  Pb  Pb48  1  0.83338753  0.16637328  0.49974965  1
  Pb  Pb49  1  0.83341048  0.83355909  0.49867103  1
  Pb  Pb50  1  0.16657438  0.83588778  0.49903107  1
  Pb  Pb51  1  0.83058835  0.49989494  0.50274179  1
  Pb  Pb52  1  0.16650278  0.16533225  0.83367847  1
  Pb  Pb53  1  0.50165865  0.49977412  0.83182702  1
  I  I54  1  0.16584660  0.00103903  0.16656760  1
  I  I55  1  0.17490118  0.00369781  0.49877731  1
  I  I56  1  0.16291143  -0.00274985  0.83377814  1
  I  I57  1  0.16606726  0.32927934  0.17113977  1
  I  I58  1  0.16758728  0.32863437  0.49458794  1
  I  I59  1  0.16653082  0.33323629  0.83271093  1
  I  I60  1  0.16114247  0.67074952  0.16101707  1
  I  I61  1  0.16797573  0.66666080  0.50051459  1
  I  I62  1  0.16915964  0.67221807  0.83951052  1
  I  I63  1  0.49994755  0.00393352  0.17181632  1
  I  I64  1  0.49640395  0.00398517  0.49852216  1
  I  I65  1  0.50529612  0.00130195  0.83084146  1
  I  I66  1  0.50005440  0.32779811  0.16048856  1
  I  I67  1  0.49619236  0.33062492  0.50250076  1
  I  I68  1  0.50459455  0.32965891  0.83459663  1
  I  I69  1  0.50024424  0.66695016  0.16735696  1
  I  I70  1  0.50193956  0.66438380  0.50295460  1
  I  I71  1  0.50160293  0.66958937  0.83121442  1
  I  I72  1  0.83406062  0.00111712  0.15848544  1
  I  I73  1  0.82998675  0.00036183  0.50644663  1
  I  I74  1  0.83174448  0.00004910  0.83654003  1
  I  I75  1  0.83325748  0.32957480  0.16288975  1
  I  I76  1  0.83563272  0.33287728  0.50052251  1
  I  I77  1  0.82707685  0.33151584  0.83651920  1
  I  I78  1  0.83819244  0.67042702  0.16121789  1
  I  I79  1  0.83123804  0.66659417  0.50062931  1
  I  I80  1  0.83200927  0.66848947  0.83703149  1
  I  I81  1  0.16865127  0.16425668  0.00295593  1
  I  I82  1  0.17068709  0.16070695  0.33201019  1
  I  I83  1  0.17042527  0.16543383  0.66491764  1
  I  I84  1  0.16929999  0.49280290  -0.00023829  1
  I  I85  1  0.16598798  0.50487483  0.33343372  1
  I  I86  1  0.16569628  0.49967611  0.66682861  1
  I  I87  1  0.16475427  0.84098283  0.00009487  1
  I  I88  1  0.16194370  0.83650261  0.32943402  1
  I  I89  1  0.16559337  0.83464164  0.66964075  1
  I  I90  1  0.50136379  0.16106129  -0.00049528  1
  I  I91  1  0.49963537  0.17139082  0.33303557  1
  I  I92  1  0.50020296  0.16684266  0.66735250  1
  I  I93  1  0.50079230  0.49944445  -0.00021200  1
  I  I94  1  0.49999077  0.49496749  0.33710603  1
  I  I95  1  0.50140472  0.49243557  0.66416239  1
  I  I96  1  0.50134067  0.83883002  -0.00392520  1
  I  I97  1  0.50039652  0.83342276  0.33306186  1
  I  I98  1  0.50185685  0.83937258  0.67110957  1
  I  I99  1  0.83007382  0.16570367  -0.00052345  1
  I  I100  1  0.83053018  0.16121922  0.32975144  1
  I  I101  1  0.83001512  0.16530087  0.67017525  1
  I  I102  1  0.83047737  0.49985685  -0.00337344  1
  I  I103  1  0.83314574  0.50003543  0.33336021  1
  I  I104  1  0.83280707  0.49991193  0.67092578  1
  I  I105  1  0.83418279  0.83469480  -0.00123874  1
  I  I106  1  0.83751559  0.84063386  0.32887422  1
  I  I107  1  0.83334027  0.83457986  0.67067670  1
  I  I108  1  -0.00025273  0.16227179  0.16617584  1
  I  I109  1  0.00270734  0.16433872  0.49771461  1
  I  I110  1  -0.00298510  0.16571128  0.83513091  1
  I  I111  1  -0.00014057  0.49433695  0.16680033  1
  I  I112  1  0.00003253  0.49968858  0.50065109  1
  I  I113  1  -0.00426609  0.49531779  0.83385996  1
  I  I114  1  -0.00033405  0.84372787  0.15616794  1
  I  I115  1  0.00013742  0.83551590  0.50704865  1
  I  I116  1  -0.00090885  0.83440514  0.83736147  1
  I  I117  1  0.33323836  0.16252754  0.16822804  1
  I  I118  1  0.33440273  0.16981649  0.49746855  1
  I  I119  1  0.33605089  0.16207308  0.83441653  1
  I  I120  1  0.33348987  0.50106128  0.16555741  1
  I  I121  1  0.33680835  0.49785105  0.50288884  1
  I  I122  1  0.33337943  0.49984399  0.83156629  1
  I  I123  1  0.33059228  0.83870659  0.16236224  1
  I  I124  1  0.33338868  0.83142693  0.50116440  1
  I  I125  1  0.33351393  0.84055802  0.83594144  1
  I  I126  1  0.66693762  0.16319718  0.16614344  1
  I  I127  1  0.66349935  0.17059557  0.49861220  1
  I  I128  1  0.66671863  0.16261537  0.83482643  1
  I  I129  1  0.66671243  0.50079598  0.16727898  1
  I  I130  1  0.66317745  0.49030404  0.49973543  1
  I  I131  1  0.66947665  0.50400465  0.83234838  1
  I  I132  1  0.66958657  0.83772357  0.16205462  1
  I  I133  1  0.66645806  0.83553994  0.50062008  1
  I  I134  1  0.66750924  0.83394520  0.83553364  1
