# generated using pymatgen
data_Cs27Sn13Pb14I81
_symmetry_space_group_name_H-M   'P 1'
_cell_length_a   18.97551003
_cell_length_b   18.98118711
_cell_length_c   18.97263606
_cell_angle_alpha   89.99808163
_cell_angle_beta   89.99925046
_cell_angle_gamma   90.00065636
_symmetry_Int_Tables_number   1
_chemical_formula_structural   Cs27Sn13Pb14I81
_chemical_formula_sum   'Cs27 Sn13 Pb14 I81'
_cell_volume   6833.52053648
_cell_formula_units_Z   1
loop_
 _symmetry_equiv_pos_site_id
 _symmetry_equiv_pos_as_xyz
  1  'x, y, z'
loop_
 _atom_site_type_symbol
 _atom_site_label
 _atom_site_symmetry_multiplicity
 _atom_site_fract_x
 _atom_site_fract_y
 _atom_site_fract_z
 _atom_site_occupancy
  Cs  Cs0  1  -0.00483970  -0.00653805  0.00104835  1
  Cs  Cs1  1  0.00385559  0.00450976  0.33300005  1
  Cs  Cs2  1  0.00128807  0.00322529  0.66563590  1
  Cs  Cs3  1  0.00233198  0.33673663  0.00219043  1
  Cs  Cs4  1  -0.00366784  0.33177432  0.33352471  1
  Cs  Cs5  1  0.00088947  0.33137654  0.66548738  1
  Cs  Cs6  1  0.00124985  0.66940401  0.00737392  1
  Cs  Cs7  1  0.00372730  0.66550894  0.32749829  1
  Cs  Cs8  1  -0.00592127  0.66585690  0.66741397  1
  Cs  Cs9  1  0.33485767  0.00228077  -0.00026470  1
  Cs  Cs10  1  0.33350969  -0.00167972  0.33349549  1
  Cs  Cs11  1  0.32885182  -0.00044357  0.66602869  1
  Cs  Cs12  1  0.33256645  0.33211542  -0.00585476  1
  Cs  Cs13  1  0.33659890  0.33244952  0.33189538  1
  Cs  Cs14  1  0.33126989  0.33305699  0.67444875  1
  Cs  Cs15  1  0.33114650  0.66517206  -0.00081639  1
  Cs  Cs16  1  0.33343682  0.66933318  0.33462128  1
  Cs  Cs17  1  0.33292542  0.66727472  0.66573302  1
  Cs  Cs18  1  0.66795257  -0.00234889  -0.00122564  1
  Cs  Cs19  1  0.66403555  0.00552945  0.33286725  1
  Cs  Cs20  1  0.66777996  -0.00294701  0.66812435  1
  Cs  Cs21  1  0.66498070  0.33245740  -0.00036973  1
  Cs  Cs22  1  0.66677442  0.33297073  0.33268428  1
  Cs  Cs23  1  0.66691767  0.33489656  0.66721941  1
  Cs  Cs24  1  0.66808997  0.67020743  -0.00134620  1
  Cs  Cs25  1  0.66374343  0.66349377  0.33742006  1
  Cs  Cs26  1  0.66875134  0.66608253  0.66555241  1
  Sn  Sn27  1  0.83320289  0.16789176  0.83342010  1
  Sn  Sn28  1  0.16734565  0.83304586  0.83311693  1
  Sn  Sn29  1  0.50002134  0.49986510  0.16684146  1
  Sn  Sn30  1  0.49940762  0.49877425  0.49974396  1
  Sn  Sn31  1  0.83350314  0.83311544  0.49919135  1
  Sn  Sn32  1  0.16688650  0.49988779  0.50011335  1
  Sn  Sn33  1  0.83323566  0.49904601  0.83324099  1
  Sn  Sn34  1  0.49902343  0.16695051  0.16707569  1
  Sn  Sn35  1  0.49984040  0.16759285  0.50023285  1
  Sn  Sn36  1  0.83375030  0.50086648  0.50049954  1
  Sn  Sn37  1  0.49890738  0.83312061  0.83363001  1
  Sn  Sn38  1  0.16733004  0.16681165  0.16659845  1
  Sn  Sn39  1  0.50010210  0.83319562  0.16588926  1
  Pb  Pb40  1  0.16398002  0.16474295  0.83575032  1
  Pb  Pb41  1  0.16389791  0.83130072  0.50162003  1
  Pb  Pb42  1  0.50158773  0.50218208  0.83305471  1
  Pb  Pb43  1  0.83077605  0.83332669  0.17042467  1
  Pb  Pb44  1  0.16948288  0.16900907  0.49834378  1
  Pb  Pb45  1  0.83102934  0.50009683  0.16709735  1
  Pb  Pb46  1  0.16963275  0.49796441  0.16880817  1
  Pb  Pb47  1  0.83127110  0.16721215  0.50152224  1
  Pb  Pb48  1  0.50130918  0.16457604  0.83329103  1
  Pb  Pb49  1  0.16382227  0.50200162  0.83148069  1
  Pb  Pb50  1  0.83281827  0.16674216  0.16427545  1
  Pb  Pb51  1  0.83338732  0.83276608  0.83199675  1
  Pb  Pb52  1  0.16923310  0.83524781  0.16497078  1
  Pb  Pb53  1  0.50108936  0.83332066  0.49993341  1
  I  I54  1  0.17274731  0.00301762  0.16726598  1
  I  I55  1  0.16614029  0.00019520  0.50022799  1
  I  I56  1  0.16891658  -0.00299170  0.83257102  1
  I  I57  1  0.17284375  0.33029894  0.16615457  1
  I  I58  1  0.16103690  0.33689960  0.50014223  1
  I  I59  1  0.16689784  0.33342105  0.83339161  1
  I  I60  1  0.16737126  0.66658045  0.16633901  1
  I  I61  1  0.17252829  0.66328010  0.49995748  1
  I  I62  1  0.16968889  0.66970187  0.83319227  1
  I  I63  1  0.49699358  0.00054109  0.16742504  1
  I  I64  1  0.50353479  0.00213666  0.49681289  1
  I  I65  1  0.50095674  -0.00325555  0.83643343  1
  I  I66  1  0.49788231  0.33309847  0.17276411  1
  I  I67  1  0.50323693  0.33450716  0.49174798  1
  I  I68  1  0.50090444  0.33348925  0.83531119  1
  I  I69  1  0.50242088  0.66640551  0.16789616  1
  I  I70  1  0.50005281  0.66363528  0.49719008  1
  I  I71  1  0.50014600  0.66998811  0.83651483  1
  I  I72  1  0.83038685  0.00001136  0.16511502  1
  I  I73  1  0.82926760  -0.00178483  0.50326958  1
  I  I74  1  0.83219563  0.00139520  0.83209752  1
  I  I75  1  0.83057850  0.33340990  0.16983842  1
  I  I76  1  0.83364573  0.33667215  0.50237600  1
  I  I77  1  0.83132645  0.33427529  0.82707859  1
  I  I78  1  0.83201172  0.66666503  0.16113762  1
  I  I79  1  0.82908858  0.66471392  0.50736498  1
  I  I80  1  0.83150097  0.66420552  0.82874354  1
  I  I81  1  0.17556387  0.16772015  0.00327670  1
  I  I82  1  0.16820334  0.16570971  0.33039977  1
  I  I83  1  0.16734277  0.16605631  0.66674815  1
  I  I84  1  0.16610160  0.50019805  0.00010905  1
  I  I85  1  0.16122148  0.50091629  0.33688019  1
  I  I86  1  0.17249977  0.49979577  0.66333297  1
  I  I87  1  0.16601397  0.83284773  -0.00304139  1
  I  I88  1  0.16665270  0.83331580  0.33325245  1
  I  I89  1  0.17421695  0.83411029  0.66950683  1
  I  I90  1  0.49801955  0.16886708  0.00307020  1
  I  I91  1  0.49856218  0.16506354  0.33267543  1
  I  I92  1  0.50345522  0.17051764  0.66416584  1
  I  I93  1  0.50243225  0.49769016  0.00260861  1
  I  I94  1  0.50259948  0.50118067  0.33422077  1
  I  I95  1  0.50001624  0.49726384  0.66336123  1
  I  I96  1  0.49802388  0.83385845  0.00049315  1
  I  I97  1  0.50304096  0.83359278  0.33080356  1
  I  I98  1  0.49962465  0.83333755  0.66879135  1
  I  I99  1  0.83054885  0.17084516  -0.00359919  1
  I  I100  1  0.83378016  0.16637633  0.33335500  1
  I  I101  1  0.83079191  0.16704593  0.66928189  1
  I  I102  1  0.83057341  0.49636799  -0.00269766  1
  I  I103  1  0.83367069  0.50410186  0.33700292  1
  I  I104  1  0.82995478  0.50084763  0.66531409  1
  I  I105  1  0.83418379  0.83328976  0.00003858  1
  I  I106  1  0.83118082  0.82593252  0.33796013  1
  I  I107  1  0.82918238  0.83081638  0.66433656  1
  I  I108  1  0.00248861  0.16644039  0.16515332  1
  I  I109  1  0.00003866  0.16656802  0.49876948  1
  I  I110  1  -0.00361655  0.16806257  0.83269860  1
  I  I111  1  0.00026295  0.49802912  0.16728256  1
  I  I112  1  -0.00115750  0.50499843  0.50587197  1
  I  I113  1  -0.00412126  0.49820971  0.82685995  1
  I  I114  1  0.00025316  0.83524098  0.16450917  1
  I  I115  1  -0.00393004  0.82863041  0.50455028  1
  I  I116  1  0.00174546  0.83408396  0.83009839  1
  I  I117  1  0.33569129  0.16617020  0.17050957  1
  I  I118  1  0.33767693  0.17006343  0.49883342  1
  I  I119  1  0.33334581  0.16633203  0.83176925  1
  I  I120  1  0.33785963  0.50277480  0.17217593  1
  I  I121  1  0.33483165  0.49647202  0.49462133  1
  I  I122  1  0.33336708  0.50019633  0.83213015  1
  I  I123  1  0.33762969  0.83125285  0.16697224  1
  I  I124  1  0.33338979  0.83230644  0.49946643  1
  I  I125  1  0.33453571  0.83362840  0.83632960  1
  I  I126  1  0.66281042  0.16672113  0.16997145  1
  I  I127  1  0.66326389  0.17107400  0.49365164  1
  I  I128  1  0.66908643  0.16753509  0.83420868  1
  I  I129  1  0.66256277  0.49709706  0.17243093  1
  I  I130  1  0.66628900  0.50073690  0.49979004  1
  I  I131  1  0.66940721  0.49951260  0.82740198  1
  I  I132  1  0.66226918  0.83614761  0.15911259  1
  I  I133  1  0.66877153  0.82738387  0.50299646  1
  I  I134  1  0.66451332  0.83374471  0.83627904  1
