# generated using pymatgen
data_Cs27Sn13Pb14I81
_symmetry_space_group_name_H-M   'P 1'
_cell_length_a   18.99837391
_cell_length_b   18.97525486
_cell_length_c   19.00833851
_cell_angle_alpha   90.00000002
_cell_angle_beta   89.99999991
_cell_angle_gamma   89.99920184
_symmetry_Int_Tables_number   1
_chemical_formula_structural   Cs27Sn13Pb14I81
_chemical_formula_sum   'Cs27 Sn13 Pb14 I81'
_cell_volume   6852.48677546
_cell_formula_units_Z   1
loop_
 _symmetry_equiv_pos_site_id
 _symmetry_equiv_pos_as_xyz
  1  'x, y, z'
loop_
 _atom_site_type_symbol
 _atom_site_label
 _atom_site_symmetry_multiplicity
 _atom_site_fract_x
 _atom_site_fract_y
 _atom_site_fract_z
 _atom_site_occupancy
  Cs  Cs0  1  -0.00079220  -0.00078104  0.00021386  1
  Cs  Cs1  1  -0.00079219  -0.00078107  0.33311960  1
  Cs  Cs2  1  -0.00122949  -0.00185355  0.66666664  1
  Cs  Cs3  1  0.00162694  0.33364525  0.00232373  1
  Cs  Cs4  1  0.00162693  0.33364524  0.33100968  1
  Cs  Cs5  1  0.00456284  0.33137720  0.66666669  1
  Cs  Cs6  1  -0.00257951  0.66834566  -0.00299003  1
  Cs  Cs7  1  -0.00257941  0.66834556  0.33632344  1
  Cs  Cs8  1  -0.00798421  0.67706269  0.66666678  1
  Cs  Cs9  1  0.33440434  -0.00304159  0.00181187  1
  Cs  Cs10  1  0.33440429  -0.00304169  0.33152143  1
  Cs  Cs11  1  0.33225980  0.00118613  0.66666683  1
  Cs  Cs12  1  0.33112701  0.33294258  0.00103867  1
  Cs  Cs13  1  0.33112699  0.33294259  0.33229469  1
  Cs  Cs14  1  0.33204983  0.33230683  0.66666662  1
  Cs  Cs15  1  0.33496714  0.67259260  0.00206851  1
  Cs  Cs16  1  0.33496715  0.67259246  0.33126485  1
  Cs  Cs17  1  0.34208088  0.67062640  0.66666687  1
  Cs  Cs18  1  0.66579497  0.00024586  0.00236440  1
  Cs  Cs19  1  0.66579480  0.00024597  0.33096884  1
  Cs  Cs20  1  0.66974479  -0.00008645  0.66666652  1
  Cs  Cs21  1  0.66831993  0.33454117  0.00189334  1
  Cs  Cs22  1  0.66831991  0.33454120  0.33144004  1
  Cs  Cs23  1  0.66419223  0.33655674  0.66666666  1
  Cs  Cs24  1  0.66782756  0.66695378  -0.00976200  1
  Cs  Cs25  1  0.66782756  0.66695378  0.34309532  1
  Cs  Cs26  1  0.66787848  0.66522473  0.66666641  1
  Sn  Sn27  1  0.16677177  0.49963066  0.83283141  1
  Sn  Sn28  1  0.16675583  0.16698129  0.83356020  1
  Sn  Sn29  1  0.83310202  0.83304199  0.16666668  1
  Sn  Sn30  1  0.49979774  0.16717706  0.83354514  1
  Sn  Sn31  1  0.49979774  0.16717705  0.49978818  1
  Sn  Sn32  1  0.16675583  0.16698129  0.49977316  1
  Sn  Sn33  1  0.49941637  0.49916405  0.16666667  1
  Sn  Sn34  1  0.83347518  0.16730758  0.83257218  1
  Sn  Sn35  1  0.16756274  0.49941990  0.16666666  1
  Sn  Sn36  1  0.49889661  0.16772705  0.16666667  1
  Sn  Sn37  1  0.83347518  0.16730760  0.50076112  1
  Sn  Sn38  1  0.16677177  0.49963067  0.50050194  1
  Sn  Sn39  1  0.16756710  0.16696827  0.16666666  1
  Pb  Pb40  1  0.83342830  0.16602536  0.16666665  1
  Pb  Pb41  1  0.49999410  0.83583388  0.50007892  1
  Pb  Pb42  1  0.49739652  0.49758199  0.49785143  1
  Pb  Pb43  1  0.83323334  0.50257707  0.16666668  1
  Pb  Pb44  1  0.83323792  0.83607658  0.83515317  1
  Pb  Pb45  1  0.83323794  0.83607659  0.49818016  1
  Pb  Pb46  1  0.49999412  0.83583385  0.83325440  1
  Pb  Pb47  1  0.83595137  0.49720286  0.50016567  1
  Pb  Pb48  1  0.83595134  0.49720288  0.83316770  1
  Pb  Pb49  1  0.16501841  0.83282482  0.16666667  1
  Pb  Pb50  1  0.16689796  0.83298313  0.50006911  1
  Pb  Pb51  1  0.16689794  0.83298318  0.83326425  1
  Pb  Pb52  1  0.49739655  0.49758201  0.83548190  1
  Pb  Pb53  1  0.50234704  0.83268322  0.16666666  1
  I  I54  1  0.16974019  0.00365304  0.16666651  1
  I  I55  1  0.16658395  0.00475216  0.50011137  1
  I  I56  1  0.16658428  0.00475217  0.83322207  1
  I  I57  1  0.16896118  0.33178492  0.16666666  1
  I  I58  1  0.16622779  0.33107933  0.49945589  1
  I  I59  1  0.16622775  0.33107930  0.83387741  1
  I  I60  1  0.17086528  0.66274508  0.16666675  1
  I  I61  1  0.16631126  0.66296262  0.49726384  1
  I  I62  1  0.16631106  0.66296263  0.83606923  1
  I  I63  1  0.49659828  0.00372065  0.16666668  1
  I  I64  1  0.49631401  0.00579614  0.49649043  1
  I  I65  1  0.49631394  0.00579617  0.83684284  1
  I  I66  1  0.49617919  0.33116249  0.16666671  1
  I  I67  1  0.50198477  0.32863289  0.50249990  1
  I  I68  1  0.50198467  0.32863291  0.83083337  1
  I  I69  1  0.49295042  0.66326847  0.16666657  1
  I  I70  1  0.49763257  0.66589322  0.49659061  1
  I  I71  1  0.49763246  0.66589324  0.83674282  1
  I  I72  1  0.83402976  -0.00124920  0.16666666  1
  I  I73  1  0.83694487  0.00484119  0.50421528  1
  I  I74  1  0.83694439  0.00484116  0.82911821  1
  I  I75  1  0.83358251  0.33334579  0.16666684  1
  I  I76  1  0.83140510  0.32860241  0.50112789  1
  I  I77  1  0.83140535  0.32860243  0.83220523  1
  I  I78  1  0.83577030  0.67002704  0.16666657  1
  I  I79  1  0.83587480  0.66661105  0.49771193  1
  I  I80  1  0.83587502  0.66661106  0.83562167  1
  I  I81  1  0.16767097  0.17143156  0.00017938  1
  I  I82  1  0.16767112  0.17143144  0.33315393  1
  I  I83  1  0.16849098  0.17145507  0.66666666  1
  I  I84  1  0.16940631  0.49130155  0.00052359  1
  I  I85  1  0.16940608  0.49130154  0.33280977  1
  I  I86  1  0.16484206  0.48852005  0.66666666  1
  I  I87  1  0.16515022  0.83603501  0.00011865  1
  I  I88  1  0.16515010  0.83603537  0.33321464  1
  I  I89  1  0.16439726  0.83594502  0.66666665  1
  I  I90  1  0.49788075  0.16944686  0.00055664  1
  I  I91  1  0.49788096  0.16944689  0.33277670  1
  I  I92  1  0.49695227  0.16438042  0.66666665  1
  I  I93  1  0.49464842  0.49296218  0.00347083  1
  I  I94  1  0.49464880  0.49296233  0.32986254  1
  I  I95  1  0.49859343  0.49888230  0.66666666  1
  I  I96  1  0.50036415  0.83744807  0.00030872  1
  I  I97  1  0.50036430  0.83744792  0.33302458  1
  I  I98  1  0.50003026  0.83426042  0.66666666  1
  I  I99  1  0.83424457  0.16411416  -0.00233448  1
  I  I100  1  0.83424434  0.16411400  0.33566782  1
  I  I101  1  0.83459059  0.16626800  0.66666669  1
  I  I102  1  0.83635295  0.49736473  0.00006796  1
  I  I103  1  0.83635289  0.49736507  0.33326539  1
  I  I104  1  0.83357955  0.50231866  0.66666667  1
  I  I105  1  0.83458552  0.83687908  0.00260073  1
  I  I106  1  0.83458541  0.83687895  0.33073258  1
  I  I107  1  0.83445702  0.83333574  0.66666666  1
  I  I108  1  0.00311043  0.16931227  0.16666674  1
  I  I109  1  0.00113760  0.16967523  0.50185517  1
  I  I110  1  0.00113764  0.16967497  0.83147802  1
  I  I111  1  0.00391508  0.49446947  0.16666662  1
  I  I112  1  0.00457491  0.49228224  0.49518583  1
  I  I113  1  0.00457493  0.49228224  0.83814754  1
  I  I114  1  -0.00227189  0.83693739  0.16666663  1
  I  I115  1  -0.00003727  0.83626776  0.49857425  1
  I  I116  1  -0.00003726  0.83626807  0.83475906  1
  I  I117  1  0.33274330  0.16907536  0.16666667  1
  I  I118  1  0.33259670  0.17013634  0.50220530  1
  I  I119  1  0.33259671  0.17013632  0.83112806  1
  I  I120  1  0.33191760  0.49361054  0.16666689  1
  I  I121  1  0.32925754  0.49129529  0.50209228  1
  I  I122  1  0.32925754  0.49129545  0.83124082  1
  I  I123  1  0.33352217  0.83469195  0.16666674  1
  I  I124  1  0.33330204  0.83705324  0.49829503  1
  I  I125  1  0.33330206  0.83705306  0.83503807  1
  I  I126  1  0.66375008  0.16836818  0.16666655  1
  I  I127  1  0.66637174  0.16385804  0.50170321  1
  I  I128  1  0.66637171  0.16385830  0.83163027  1
  I  I129  1  0.66344560  0.49313255  0.16666651  1
  I  I130  1  0.66633096  0.49821627  0.49615192  1
  I  I131  1  0.66633095  0.49821619  0.83718158  1
  I  I132  1  0.66934238  0.83918150  0.16666659  1
  I  I133  1  0.66680212  0.83612424  0.49707477  1
  I  I134  1  0.66680212  0.83612392  0.83625870  1
