# generated using pymatgen
data_Cs27Sn14Pb13I81
_symmetry_space_group_name_H-M   'P 1'
_cell_length_a   18.96065802
_cell_length_b   18.96026090
_cell_length_c   18.96028089
_cell_angle_alpha   90.00086362
_cell_angle_beta   89.99911655
_cell_angle_gamma   89.99826214
_symmetry_Int_Tables_number   1
_chemical_formula_structural   Cs27Sn14Pb13I81
_chemical_formula_sum   'Cs27 Sn14 Pb13 I81'
_cell_volume   6816.20244998
_cell_formula_units_Z   1
loop_
 _symmetry_equiv_pos_site_id
 _symmetry_equiv_pos_as_xyz
  1  'x, y, z'
loop_
 _atom_site_type_symbol
 _atom_site_label
 _atom_site_symmetry_multiplicity
 _atom_site_fract_x
 _atom_site_fract_y
 _atom_site_fract_z
 _atom_site_occupancy
  Cs  Cs0  1  -0.00109664  0.00071100  0.00438809  1
  Cs  Cs1  1  -0.00096387  0.00073888  0.33139064  1
  Cs  Cs2  1  0.00213562  -0.00386328  0.66496732  1
  Cs  Cs3  1  -0.00125992  0.33309784  -0.00164080  1
  Cs  Cs4  1  0.00143680  0.33462346  0.33332940  1
  Cs  Cs5  1  -0.00260326  0.33662124  0.66839917  1
  Cs  Cs6  1  -0.00082182  0.66674028  -0.00064395  1
  Cs  Cs7  1  0.00276218  0.66247627  0.33501535  1
  Cs  Cs8  1  -0.00060269  0.66692697  0.66536515  1
  Cs  Cs9  1  0.33287885  -0.00121421  -0.00325296  1
  Cs  Cs10  1  0.33177533  0.00409120  0.33557052  1
  Cs  Cs11  1  0.33344495  -0.00154111  0.66823062  1
  Cs  Cs12  1  0.33209991  0.33455691  0.00100003  1
  Cs  Cs13  1  0.33323222  0.33239891  0.33148454  1
  Cs  Cs14  1  0.33552912  0.33169121  0.66784261  1
  Cs  Cs15  1  0.33624278  0.66621091  0.00106716  1
  Cs  Cs16  1  0.33240372  0.66209648  0.33097250  1
  Cs  Cs17  1  0.33116519  0.66965762  0.66754839  1
  Cs  Cs18  1  0.66858871  -0.00203243  -0.00024306  1
  Cs  Cs19  1  0.66844446  -0.00102534  0.33401135  1
  Cs  Cs20  1  0.66500311  0.00031707  0.66550834  1
  Cs  Cs21  1  0.67131994  0.33168660  -0.00485820  1
  Cs  Cs22  1  0.66392789  0.33283708  0.33564555  1
  Cs  Cs23  1  0.66731168  0.33484554  0.66874898  1
  Cs  Cs24  1  0.66511035  0.66952411  0.00563186  1
  Cs  Cs25  1  0.66548801  0.66858927  0.33082836  1
  Cs  Cs26  1  0.66974160  0.66445705  0.66577850  1
  Sn  Sn27  1  0.50014594  0.16653744  0.49951681  1
  Sn  Sn28  1  0.16667474  0.16725849  0.83318780  1
  Sn  Sn29  1  0.16717876  0.83372047  0.16685703  1
  Sn  Sn30  1  0.16757186  0.16583019  0.16645454  1
  Sn  Sn31  1  0.16745977  0.49956355  0.83304195  1
  Sn  Sn32  1  0.49922090  0.50002280  0.83266927  1
  Sn  Sn33  1  0.49977834  0.16656710  0.16673086  1
  Sn  Sn34  1  0.49970516  0.50009492  0.50078656  1
  Sn  Sn35  1  0.16646376  0.16676687  0.50040556  1
  Sn  Sn36  1  0.83271760  0.83408987  0.50079129  1
  Sn  Sn37  1  0.83329612  0.16622732  0.50017384  1
  Sn  Sn38  1  0.83312709  0.83374967  0.83288655  1
  Sn  Sn39  1  0.83315389  0.49966558  0.16694576  1
  Sn  Sn40  1  0.50031954  0.83337458  0.49991935  1
  Pb  Pb41  1  0.49766320  0.83610666  0.16919677  1
  Pb  Pb42  1  0.83332602  0.16825020  0.16880494  1
  Pb  Pb43  1  0.83117622  0.50021870  0.49831610  1
  Pb  Pb44  1  0.16522462  0.49920023  0.16446263  1
  Pb  Pb45  1  0.49839112  0.16804294  0.83323587  1
  Pb  Pb46  1  0.83592772  0.16436717  0.83059111  1
  Pb  Pb47  1  0.50212405  0.83084889  0.83114460  1
  Pb  Pb48  1  0.16508323  0.83342476  0.83524575  1
  Pb  Pb49  1  0.16921817  0.49739992  0.50233466  1
  Pb  Pb50  1  0.50180322  0.49745346  0.16643818  1
  Pb  Pb51  1  0.83308467  0.50207348  0.83506567  1
  Pb  Pb52  1  0.16667673  0.83512918  0.49806840  1
  Pb  Pb53  1  0.83511511  0.83167044  0.16778427  1
  I  I54  1  0.16830299  0.00218695  0.16529299  1
  I  I55  1  0.17080200  0.00376368  0.50400858  1
  I  I56  1  0.16522915  0.00303104  0.83170134  1
  I  I57  1  0.16918250  0.32985543  0.16895797  1
  I  I58  1  0.16575833  0.32885467  0.49446680  1
  I  I59  1  0.16968490  0.33251692  0.83487601  1
  I  I60  1  0.16340295  0.66843915  0.16558203  1
  I  I61  1  0.16627393  0.66652200  0.49918777  1
  I  I62  1  0.16877535  0.66420740  0.83574259  1
  I  I63  1  0.49939260  0.00420871  0.17207745  1
  I  I64  1  0.50093378  0.00110013  0.49531970  1
  I  I65  1  0.49898701  -0.00006095  0.83267201  1
  I  I66  1  0.49321394  0.32968922  0.17378833  1
  I  I67  1  0.49970270  0.33215990  0.49963599  1
  I  I68  1  0.49936518  0.33614305  0.82802605  1
  I  I69  1  0.49928655  0.66664313  0.16784550  1
  I  I70  1  0.50562227  0.66674124  0.50463196  1
  I  I71  1  0.49367760  0.66275960  0.82900018  1
  I  I72  1  0.83287532  0.00014059  0.16534830  1
  I  I73  1  0.82914813  0.00025726  0.50257843  1
  I  I74  1  0.83475139  -0.00324504  0.83284650  1
  I  I75  1  0.83492884  0.33566544  0.16734356  1
  I  I76  1  0.83314038  0.33056301  0.49723812  1
  I  I77  1  0.83274843  0.33321878  0.83324473  1
  I  I78  1  0.83479535  0.66416371  0.16754469  1
  I  I79  1  0.82923179  0.66953895  0.50178568  1
  I  I80  1  0.83600923  0.66960784  0.82665996  1
  I  I81  1  0.17129663  0.16688098  0.00062279  1
  I  I82  1  0.16744343  0.16195909  0.33353246  1
  I  I83  1  0.16703540  0.17090727  0.66601818  1
  I  I84  1  0.17145715  0.49495491  -0.00334430  1
  I  I85  1  0.16649851  0.49985324  0.33339313  1
  I  I86  1  0.16650284  0.49563112  0.67024780  1
  I  I87  1  0.16358605  0.83912684  0.00294882  1
  I  I88  1  0.16467006  0.83897559  0.33039073  1
  I  I89  1  0.16728053  0.83446257  0.66643407  1
  I  I90  1  0.49472629  0.16967409  0.00241394  1
  I  I91  1  0.49531722  0.16886175  0.33519279  1
  I  I92  1  0.49904415  0.16554964  0.66321015  1
  I  I93  1  0.49740423  0.49791699  -0.00252672  1
  I  I94  1  0.50265057  0.50051551  0.33614186  1
  I  I95  1  0.49748032  0.49700597  0.66574253  1
  I  I96  1  0.50150043  0.83287831  0.00015865  1
  I  I97  1  0.50681423  0.82924351  0.33747189  1
  I  I98  1  0.49985210  0.83932829  0.66268414  1
  I  I99  1  0.83320927  0.16640792  -0.00010283  1
  I  I100  1  0.83636192  0.16129851  0.33712665  1
  I  I101  1  0.83125200  0.16700965  0.66224854  1
  I  I102  1  0.83239909  0.50102256  0.00248838  1
  I  I103  1  0.83314663  0.50106778  0.33094488  1
  I  I104  1  0.83446608  0.49895375  0.66651303  1
  I  I105  1  0.83653840  0.83009294  -0.00161356  1
  I  I106  1  0.83019140  0.83670586  0.33676890  1
  I  I107  1  0.83134509  0.83598169  0.66502394  1
  I  I108  1  0.00310691  0.16459992  0.16777263  1
  I  I109  1  0.00031861  0.16149244  0.49951426  1
  I  I110  1  0.00427489  0.17298517  0.83479478  1
  I  I111  1  -0.00230067  0.49893751  0.16581480  1
  I  I112  1  0.00010647  0.49979676  0.50017070  1
  I  I113  1  0.00240975  0.49657975  0.83624470  1
  I  I114  1  0.00288070  0.83992129  0.16783762  1
  I  I115  1  -0.00266677  0.83809422  0.50184229  1
  I  I116  1  -0.00267471  0.83133879  0.82641779  1
  I  I117  1  0.33237701  0.16474483  0.17239554  1
  I  I118  1  0.33372713  0.16700117  0.49872191  1
  I  I119  1  0.32991564  0.16750803  0.82954725  1
  I  I120  1  0.33344869  0.50129603  0.16778484  1
  I  I121  1  0.33749429  0.50069676  0.49966999  1
  I  I122  1  0.33325678  0.49601720  0.83033015  1
  I  I123  1  0.32989283  0.83418897  0.16676256  1
  I  I124  1  0.33608053  0.83447333  0.49820080  1
  I  I125  1  0.33338302  0.83407810  0.83266747  1
  I  I126  1  0.66414185  0.16968367  0.17250527  1
  I  I127  1  0.66560385  0.16605737  0.49480943  1
  I  I128  1  0.66680602  0.16834511  0.83402093  1
  I  I129  1  0.66909356  0.49963133  0.16562845  1
  I  I130  1  0.66307912  0.49470750  0.50528140  1
  I  I131  1  0.66404296  0.50053675  0.82986630  1
  I  I132  1  0.66650507  0.83330967  0.16489047  1
  I  I133  1  0.66671450  0.83821594  0.50314132  1
  I  I134  1  0.66996760  0.83194981  0.83269065  1
