# generated using pymatgen
data_Cs27Sn13Pb14I81
_symmetry_space_group_name_H-M   'P 1'
_cell_length_a   18.98108070
_cell_length_b   18.97420993
_cell_length_c   18.97572905
_cell_angle_alpha   89.99750973
_cell_angle_beta   90.00023724
_cell_angle_gamma   89.99983169
_symmetry_Int_Tables_number   1
_chemical_formula_structural   Cs27Sn13Pb14I81
_chemical_formula_sum   'Cs27 Sn13 Pb14 I81'
_cell_volume   6834.12797744
_cell_formula_units_Z   1
loop_
 _symmetry_equiv_pos_site_id
 _symmetry_equiv_pos_as_xyz
  1  'x, y, z'
loop_
 _atom_site_type_symbol
 _atom_site_label
 _atom_site_symmetry_multiplicity
 _atom_site_fract_x
 _atom_site_fract_y
 _atom_site_fract_z
 _atom_site_occupancy
  Cs  Cs0  1  -0.00071864  -0.00288832  -0.00183742  1
  Cs  Cs1  1  0.00800312  -0.00575965  0.33396701  1
  Cs  Cs2  1  -0.00242795  -0.00258312  0.66881133  1
  Cs  Cs3  1  -0.00094877  0.33486609  0.00029031  1
  Cs  Cs4  1  -0.00000171  0.33315143  0.33205404  1
  Cs  Cs5  1  0.00072068  0.33356012  0.66852443  1
  Cs  Cs6  1  0.00096387  0.66106880  0.00109760  1
  Cs  Cs7  1  -0.00199910  0.67287527  0.34162437  1
  Cs  Cs8  1  -0.00025749  0.66716803  0.65963985  1
  Cs  Cs9  1  0.33246463  -0.00151830  0.00148365  1
  Cs  Cs10  1  0.32988333  0.00004935  0.33344373  1
  Cs  Cs11  1  0.33383176  0.00233896  0.66552243  1
  Cs  Cs12  1  0.33265749  0.33370997  0.00006518  1
  Cs  Cs13  1  0.33311036  0.33149781  0.33325998  1
  Cs  Cs14  1  0.33421911  0.33402516  0.66604474  1
  Cs  Cs15  1  0.33457023  0.66695261  -0.00216202  1
  Cs  Cs16  1  0.33176353  0.66899032  0.33471610  1
  Cs  Cs17  1  0.33583943  0.66256791  0.66870398  1
  Cs  Cs18  1  0.66815298  -0.00401796  -0.00159214  1
  Cs  Cs19  1  0.66417194  0.00203199  0.33420485  1
  Cs  Cs20  1  0.66794043  0.00197744  0.66725419  1
  Cs  Cs21  1  0.66916697  0.33308708  0.00267266  1
  Cs  Cs22  1  0.66681627  0.33227306  0.33127623  1
  Cs  Cs23  1  0.66476532  0.33188917  0.66457456  1
  Cs  Cs24  1  0.66446008  0.67166828  -0.00003093  1
  Cs  Cs25  1  0.67065020  0.66843083  0.33430900  1
  Cs  Cs26  1  0.66386183  0.66743781  0.66397213  1
  Sn  Sn27  1  0.49945256  0.16700802  0.83398556  1
  Sn  Sn28  1  0.16582229  0.50002208  0.83404273  1
  Sn  Sn29  1  0.50058880  0.16723804  0.16634121  1
  Sn  Sn30  1  0.16724572  0.16668624  0.83363477  1
  Sn  Sn31  1  0.83336896  0.49984946  0.83366485  1
  Sn  Sn32  1  0.83322310  0.16699744  0.49860895  1
  Sn  Sn33  1  0.83299192  0.16669442  0.16767638  1
  Sn  Sn34  1  0.16670909  0.83289686  0.83352026  1
  Sn  Sn35  1  0.50018677  0.49947974  0.16658155  1
  Sn  Sn36  1  0.83337539  0.49946942  0.16587045  1
  Sn  Sn37  1  0.16644553  0.49984484  0.16646090  1
  Sn  Sn38  1  0.50063408  0.16595360  0.49958477  1
  Sn  Sn39  1  0.50003491  0.83412438  0.50000595  1
  Pb  Pb40  1  0.49818635  0.83609087  0.83142730  1
  Pb  Pb41  1  0.49996873  0.83389500  0.16860154  1
  Pb  Pb42  1  0.83096689  0.83679767  0.50003402  1
  Pb  Pb43  1  0.83322608  0.49758022  0.49965393  1
  Pb  Pb44  1  0.50008683  0.49925861  0.49691592  1
  Pb  Pb45  1  0.83319123  0.16820708  0.83385021  1
  Pb  Pb46  1  0.83333709  0.83362182  0.16657058  1
  Pb  Pb47  1  0.16671186  0.82998978  0.16437370  1
  Pb  Pb48  1  0.83551617  0.82954747  0.83334466  1
  Pb  Pb49  1  0.16663498  0.49978078  0.50004537  1
  Pb  Pb50  1  0.16649232  0.16682565  0.50243262  1
  Pb  Pb51  1  0.16626746  0.16814291  0.16449900  1
  Pb  Pb52  1  0.50031941  0.49803019  0.83541031  1
  Pb  Pb53  1  0.16937246  0.83344508  0.50276354  1
  I  I54  1  0.16709561  0.00007867  0.16476858  1
  I  I55  1  0.16462134  0.00029911  0.50153689  1
  I  I56  1  0.17244765  0.00092208  0.83170812  1
  I  I57  1  0.16703912  0.33642538  0.15986385  1
  I  I58  1  0.17010281  0.33307529  0.50395579  1
  I  I59  1  0.16680346  0.33391302  0.83671944  1
  I  I60  1  0.16779996  0.66143427  0.16067494  1
  I  I61  1  0.16891029  0.66669653  0.50134756  1
  I  I62  1  0.16239542  0.66523629  0.83784375  1
  I  I63  1  0.50480724  0.00403973  0.16459822  1
  I  I64  1  0.50376699  0.00244335  0.49918742  1
  I  I65  1  0.49575916  0.00462649  0.83789469  1
  I  I66  1  0.50040249  0.33232848  0.16820111  1
  I  I67  1  0.50332230  0.32949707  0.50202833  1
  I  I68  1  0.49447228  0.32971771  0.82850166  1
  I  I69  1  0.50017579  0.66342378  0.16736787  1
  I  I70  1  0.49771438  0.66890389  0.49943954  1
  I  I71  1  0.49905782  0.66645614  0.83242713  1
  I  I72  1  0.82684865  0.00406303  0.16967104  1
  I  I73  1  0.83123367  0.00490558  0.49573046  1
  I  I74  1  0.83472320  0.00023656  0.83316533  1
  I  I75  1  0.83194821  0.33350588  0.16639719  1
  I  I76  1  0.82534948  0.32970220  0.49922427  1
  I  I77  1  0.83937328  0.33599005  0.83517207  1
  I  I78  1  0.83226514  0.66263062  0.16136431  1
  I  I79  1  0.83243757  0.66675879  0.50006149  1
  I  I80  1  0.83726302  0.66134061  0.84029477  1
  I  I81  1  0.17095740  0.16605021  -0.00376004  1
  I  I82  1  0.16904846  0.16903693  0.33300315  1
  I  I83  1  0.17060562  0.17015321  0.67097058  1
  I  I84  1  0.16579151  0.49939182  -0.00065747  1
  I  I85  1  0.16680066  0.49780519  0.32965104  1
  I  I86  1  0.16230200  0.49986737  0.67076693  1
  I  I87  1  0.16858401  0.83646041  -0.00368402  1
  I  I88  1  0.16691071  0.83187456  0.33347829  1
  I  I89  1  0.16677067  0.83106281  0.67070990  1
  I  I90  1  0.49963256  0.17238722  0.00065500  1
  I  I91  1  0.50509421  0.16729332  0.33287046  1
  I  I92  1  0.49994649  0.16250887  0.66655685  1
  I  I93  1  0.49941885  0.49413804  0.00352121  1
  I  I94  1  0.50019429  0.49423026  0.32864018  1
  I  I95  1  0.49898404  0.49888734  0.66677565  1
  I  I96  1  0.49868902  0.83398810  -0.00013769  1
  I  I97  1  0.49971972  0.83926660  0.33637785  1
  I  I98  1  0.49903661  0.83887481  0.66354656  1
  I  I99  1  0.82995591  0.17024761  0.00286804  1
  I  I100  1  0.82356305  0.17377548  0.33232539  1
  I  I101  1  0.82980804  0.16818493  0.66494320  1
  I  I102  1  0.83535328  0.49310566  0.00107759  1
  I  I103  1  0.83314636  0.49751439  0.32955570  1
  I  I104  1  0.83992807  0.49817176  0.66948567  1
  I  I105  1  0.83202999  0.83914464  -0.00021634  1
  I  I106  1  0.83401421  0.82754562  0.33344353  1
  I  I107  1  0.83384349  0.83371829  0.66669746  1
  I  I108  1  -0.00297531  0.17174355  0.16940599  1
  I  I109  1  -0.00307076  0.16967887  0.49658164  1
  I  I110  1  0.00251485  0.16617008  0.83294660  1
  I  I111  1  -0.00048889  0.49452518  0.16000923  1
  I  I112  1  -0.00017337  0.49801772  0.49707202  1
  I  I113  1  0.00105900  0.49688251  0.84160337  1
  I  I114  1  0.00011936  0.83544654  0.16689484  1
  I  I115  1  0.00006774  0.83359410  0.50047009  1
  I  I116  1  0.00376185  0.84071710  0.83348042  1
  I  I117  1  0.33626467  0.17090249  0.16877335  1
  I  I118  1  0.33677893  0.16321030  0.49771369  1
  I  I119  1  0.33364039  0.16892705  0.83277210  1
  I  I120  1  0.33341981  0.49575784  0.16271622  1
  I  I121  1  0.33359462  0.49790463  0.50045580  1
  I  I122  1  0.33049493  0.50122236  0.83730367  1
  I  I123  1  0.33338842  0.83324013  0.16737256  1
  I  I124  1  0.33688166  0.84177980  0.49882669  1
  I  I125  1  0.33021837  0.82751616  0.83268607  1
  I  I126  1  0.66579882  0.17478479  0.16607780  1
  I  I127  1  0.66545398  0.16366222  0.50187273  1
  I  I128  1  0.66402505  0.16933310  0.83236405  1
  I  I129  1  0.66710110  0.49446073  0.16305874  1
  I  I130  1  0.66655366  0.50232555  0.50283544  1
  I  I131  1  0.66914956  0.49617108  0.83733768  1
  I  I132  1  0.66649110  0.82821337  0.16588750  1
  I  I133  1  0.66318897  0.83481417  0.50074684  1
  I  I134  1  0.66645908  0.83333468  0.83233345  1
