# generated using pymatgen
data_Cs27Sn14Pb13I81
_symmetry_space_group_name_H-M   'P 1'
_cell_length_a   18.98266111
_cell_length_b   18.97219970
_cell_length_c   18.97152403
_cell_angle_alpha   90.00034357
_cell_angle_beta   89.99981097
_cell_angle_gamma   89.99968999
_symmetry_Int_Tables_number   1
_chemical_formula_structural   Cs27Sn14Pb13I81
_chemical_formula_sum   'Cs27 Sn14 Pb13 I81'
_cell_volume   6832.45849323
_cell_formula_units_Z   1
loop_
 _symmetry_equiv_pos_site_id
 _symmetry_equiv_pos_as_xyz
  1  'x, y, z'
loop_
 _atom_site_type_symbol
 _atom_site_label
 _atom_site_symmetry_multiplicity
 _atom_site_fract_x
 _atom_site_fract_y
 _atom_site_fract_z
 _atom_site_occupancy
  Cs  Cs0  1  0.00062323  0.00002221  -0.00227981  1
  Cs  Cs1  1  0.00927090  0.00524232  0.33454501  1
  Cs  Cs2  1  -0.00074595  -0.00092341  0.66624233  1
  Cs  Cs3  1  -0.00071968  0.33574069  -0.00071722  1
  Cs  Cs4  1  -0.00250676  0.32875197  0.32933007  1
  Cs  Cs5  1  0.00077842  0.33403977  0.66970804  1
  Cs  Cs6  1  -0.00200591  0.66407775  -0.00067483  1
  Cs  Cs7  1  -0.00030100  0.66742034  0.33411748  1
  Cs  Cs8  1  -0.00027149  0.66676489  0.66653436  1
  Cs  Cs9  1  0.33726324  -0.00248014  0.00582138  1
  Cs  Cs10  1  0.32385009  0.00509011  0.32444975  1
  Cs  Cs11  1  0.33003710  -0.00123657  0.66680197  1
  Cs  Cs12  1  0.33218979  0.33628389  -0.00222132  1
  Cs  Cs13  1  0.33760149  0.33015576  0.33559252  1
  Cs  Cs14  1  0.33635683  0.33584496  0.66695946  1
  Cs  Cs15  1  0.33485082  0.66581997  0.00131901  1
  Cs  Cs16  1  0.33136048  0.66678687  0.33366903  1
  Cs  Cs17  1  0.33395751  0.66432070  0.66536144  1
  Cs  Cs18  1  0.66193717  -0.00298613  -0.00176751  1
  Cs  Cs19  1  0.66540065  0.00726753  0.33287419  1
  Cs  Cs20  1  0.66941548  -0.00336035  0.66927344  1
  Cs  Cs21  1  0.66804941  0.33469951  0.00075622  1
  Cs  Cs22  1  0.66485252  0.32643227  0.33290939  1
  Cs  Cs23  1  0.66468101  0.33387941  0.66575928  1
  Cs  Cs24  1  0.66690868  0.66749780  0.00095644  1
  Cs  Cs25  1  0.66868752  0.66446743  0.33814779  1
  Cs  Cs26  1  0.66729291  0.66792235  0.66488490  1
  Sn  Sn27  1  0.16704777  0.16537289  0.83324794  1
  Sn  Sn28  1  0.83311213  0.16672906  0.83312337  1
  Sn  Sn29  1  0.50138343  0.49970519  0.83405174  1
  Sn  Sn30  1  0.83414757  0.83318972  0.83344337  1
  Sn  Sn31  1  0.16734503  0.50021942  0.16829380  1
  Sn  Sn32  1  0.83210833  0.50009631  0.83242126  1
  Sn  Sn33  1  0.83428020  0.50014182  0.50059067  1
  Sn  Sn34  1  0.50009021  0.83405189  0.49924578  1
  Sn  Sn35  1  0.16625664  0.83376810  0.83343585  1
  Sn  Sn36  1  0.83254050  0.83308587  0.49926828  1
  Sn  Sn37  1  0.16536187  0.49992099  0.49858002  1
  Sn  Sn38  1  0.49970270  0.50048763  0.16637929  1
  Sn  Sn39  1  0.49994788  0.16726356  0.83300667  1
  Sn  Sn40  1  0.83330961  0.83358731  0.16745364  1
  Pb  Pb41  1  0.50064571  0.50104806  0.49994573  1
  Pb  Pb42  1  0.16660821  0.16971487  0.16364435  1
  Pb  Pb43  1  0.16665413  0.16995735  0.50260213  1
  Pb  Pb44  1  0.16661450  0.50020769  0.83318891  1
  Pb  Pb45  1  0.83335694  0.16654602  0.50211235  1
  Pb  Pb46  1  0.83338401  0.16315423  0.16372504  1
  Pb  Pb47  1  0.50227412  0.83107907  0.17008355  1
  Pb  Pb48  1  0.83302662  0.50124495  0.16722900  1
  Pb  Pb49  1  0.49983931  0.16283523  0.50258129  1
  Pb  Pb50  1  0.16440563  0.83107893  0.16406693  1
  Pb  Pb51  1  0.16616721  0.83180090  0.50176248  1
  Pb  Pb52  1  0.50010257  0.16926516  0.16399504  1
  Pb  Pb53  1  0.50000401  0.83296014  0.83215135  1
  I  I54  1  0.16554116  -0.00008712  0.16740361  1
  I  I55  1  0.16641053  -0.00002362  0.50063577  1
  I  I56  1  0.16229818  -0.00019243  0.83185264  1
  I  I57  1  0.16858388  0.33777891  0.16756151  1
  I  I58  1  0.16118415  0.33826060  0.49921939  1
  I  I59  1  0.16400227  0.33146102  0.83356882  1
  I  I60  1  0.16985092  0.66318697  0.16613175  1
  I  I61  1  0.16506336  0.66364813  0.50129409  1
  I  I62  1  0.16244385  0.66866300  0.83296861  1
  I  I63  1  0.50168522  -0.00019333  0.16538730  1
  I  I64  1  0.50955096  -0.00474956  0.50423642  1
  I  I65  1  0.50276980  0.00217369  0.82976018  1
  I  I66  1  0.49792503  0.33761173  0.16611481  1
  I  I67  1  0.49990189  0.33332631  0.49884931  1
  I  I68  1  0.50234846  0.33438874  0.83633491  1
  I  I69  1  0.49653825  0.66324387  0.15714678  1
  I  I70  1  0.50267465  0.66871012  0.50454726  1
  I  I71  1  0.50250528  0.66374000  0.83522052  1
  I  I72  1  0.83272435  -0.00488865  0.16670779  1
  I  I73  1  0.82828221  -0.00360549  0.50275202  1
  I  I74  1  0.83401137  -0.00085433  0.83334357  1
  I  I75  1  0.83361386  0.33335566  0.16591023  1
  I  I76  1  0.83718955  0.33675794  0.50546732  1
  I  I77  1  0.83362747  0.33435304  0.82894355  1
  I  I78  1  0.83360930  0.66898901  0.16011227  1
  I  I79  1  0.83320537  0.66670227  0.50631724  1
  I  I80  1  0.83412256  0.66679141  0.83272714  1
  I  I81  1  0.16546531  0.16541585  -0.00474061  1
  I  I82  1  0.16679894  0.16495723  0.33315633  1
  I  I83  1  0.16523294  0.16523456  0.67114414  1
  I  I84  1  0.16729060  0.49974406  0.00140789  1
  I  I85  1  0.16652341  0.50345867  0.33367616  1
  I  I86  1  0.16554484  0.50035038  0.66501956  1
  I  I87  1  0.16146389  0.83433316  -0.00416396  1
  I  I88  1  0.16579372  0.83257597  0.33326698  1
  I  I89  1  0.16088028  0.83383536  0.66996764  1
  I  I90  1  0.50090529  0.16623940  -0.00468013  1
  I  I91  1  0.50082999  0.16836632  0.33326281  1
  I  I92  1  0.50063023  0.17565281  0.67119309  1
  I  I93  1  0.49943338  0.49700458  -0.00159141  1
  I  I94  1  0.49874774  0.50473285  0.33118940  1
  I  I95  1  0.50020219  0.49732418  0.66947947  1
  I  I96  1  0.50066461  0.83471430  0.00001689  1
  I  I97  1  0.50674034  0.82766883  0.33758130  1
  I  I98  1  0.50613683  0.83025413  0.66468929  1
  I  I99  1  0.83401765  0.16977150  -0.00523437  1
  I  I100  1  0.83277634  0.16805844  0.33328894  1
  I  I101  1  0.83346430  0.16294149  0.67107602  1
  I  I102  1  0.83343137  0.50085184  -0.00314952  1
  I  I103  1  0.83466692  0.50698281  0.33620599  1
  I  I104  1  0.83383324  0.50454867  0.66799990  1
  I  I105  1  0.83820384  0.83222448  -0.00199011  1
  I  I106  1  0.82740931  0.82338188  0.33460429  1
  I  I107  1  0.83308140  0.83233882  0.66763427  1
  I  I108  1  -0.00000701  0.17010495  0.16341559  1
  I  I109  1  -0.00005244  0.16272256  0.50356817  1
  I  I110  1  -0.00066900  0.16664151  0.83307397  1
  I  I111  1  0.00184681  0.50208020  0.16554298  1
  I  I112  1  -0.00137299  0.50672946  0.50272112  1
  I  I113  1  -0.00266710  0.49880120  0.83302647  1
  I  I114  1  -0.00343524  0.82914994  0.16934675  1
  I  I115  1  -0.00347858  0.82977241  0.50088348  1
  I  I116  1  -0.00192088  0.83487531  0.83120341  1
  I  I117  1  0.33331802  0.16363548  0.16335055  1
  I  I118  1  0.33329157  0.16766795  0.50542420  1
  I  I119  1  0.33343791  0.16867859  0.83240639  1
  I  I120  1  0.33354307  0.50103766  0.16373509  1
  I  I121  1  0.33158152  0.50247230  0.50138473  1
  I  I122  1  0.33536842  0.49749111  0.83343414  1
  I  I123  1  0.33327195  0.83315674  0.16569337  1
  I  I124  1  0.33507291  0.82913143  0.50607544  1
  I  I125  1  0.33112735  0.83494232  0.83004670  1
  I  I126  1  0.66678650  0.17001874  0.16448943  1
  I  I127  1  0.66666694  0.17207492  0.50249847  1
  I  I128  1  0.66725954  0.16725786  0.83310900  1
  I  I129  1  0.66449755  0.50238969  0.16328233  1
  I  I130  1  0.66966074  0.50371389  0.50276784  1
  I  I131  1  0.66759288  0.49797149  0.83343755  1
  I  I132  1  0.67005746  0.82965511  0.15823784  1
  I  I133  1  0.66899066  0.82541589  0.50477259  1
  I  I134  1  0.66986740  0.83484658  0.83426475  1
