# generated using pymatgen
data_Cs27Sn13Pb14I81
_symmetry_space_group_name_H-M   'P 1'
_cell_length_a   18.97505658
_cell_length_b   18.97908304
_cell_length_c   18.97460103
_cell_angle_alpha   90.00121272
_cell_angle_beta   89.99913430
_cell_angle_gamma   90.00046248
_symmetry_Int_Tables_number   1
_chemical_formula_structural   Cs27Sn13Pb14I81
_chemical_formula_sum   'Cs27 Sn13 Pb14 I81'
_cell_volume   6833.30740222
_cell_formula_units_Z   1
loop_
 _symmetry_equiv_pos_site_id
 _symmetry_equiv_pos_as_xyz
  1  'x, y, z'
loop_
 _atom_site_type_symbol
 _atom_site_label
 _atom_site_symmetry_multiplicity
 _atom_site_fract_x
 _atom_site_fract_y
 _atom_site_fract_z
 _atom_site_occupancy
  Cs  Cs0  1  -0.00191025  -0.00074788  -0.00087659  1
  Cs  Cs1  1  0.00231419  -0.00059634  0.33573432  1
  Cs  Cs2  1  0.00162996  -0.00182559  0.66744478  1
  Cs  Cs3  1  -0.00030322  0.33268713  -0.00071308  1
  Cs  Cs4  1  -0.00147022  0.32945981  0.33169004  1
  Cs  Cs5  1  -0.00425087  0.33516675  0.66871592  1
  Cs  Cs6  1  -0.00070609  0.66787383  -0.00112430  1
  Cs  Cs7  1  0.00050389  0.66952546  0.33226662  1
  Cs  Cs8  1  0.00080024  0.66614266  0.66748633  1
  Cs  Cs9  1  0.34011785  0.00091246  -0.00248308  1
  Cs  Cs10  1  0.32828711  0.01075899  0.33677086  1
  Cs  Cs11  1  0.33428551  0.00096732  0.66694090  1
  Cs  Cs12  1  0.33283645  0.33390680  0.00675051  1
  Cs  Cs13  1  0.33274920  0.33024895  0.32395367  1
  Cs  Cs14  1  0.33558094  0.33733155  0.66794119  1
  Cs  Cs15  1  0.33431043  0.66503388  0.00059858  1
  Cs  Cs16  1  0.33362394  0.66346594  0.33686977  1
  Cs  Cs17  1  0.33336764  0.66656641  0.66560453  1
  Cs  Cs18  1  0.66369673  -0.00288613  0.00069058  1
  Cs  Cs19  1  0.66657944  -0.00131559  0.33173031  1
  Cs  Cs20  1  0.66338886  0.00136769  0.66729763  1
  Cs  Cs21  1  0.66874073  0.33273699  0.00039230  1
  Cs  Cs22  1  0.66826874  0.33062132  0.33636850  1
  Cs  Cs23  1  0.66822217  0.33524979  0.66290602  1
  Cs  Cs24  1  0.66628120  0.67059327  0.00383781  1
  Cs  Cs25  1  0.66562849  0.66913422  0.33186184  1
  Cs  Cs26  1  0.66557525  0.66414557  0.66574096  1
  Sn  Sn27  1  0.83250348  0.83316709  0.50124614  1
  Sn  Sn28  1  0.16702342  0.49976526  0.50029623  1
  Sn  Sn29  1  0.16726429  0.83316948  0.16567527  1
  Sn  Sn30  1  0.83350029  0.49944056  0.16669646  1
  Sn  Sn31  1  0.50046614  0.83295836  0.49999641  1
  Sn  Sn32  1  0.16618762  0.16670596  0.83321383  1
  Sn  Sn33  1  0.49941290  0.50020229  0.83309908  1
  Sn  Sn34  1  0.16632318  0.83350182  0.83448178  1
  Sn  Sn35  1  0.83391138  0.16565513  0.83394354  1
  Sn  Sn36  1  0.49897450  0.50075176  0.50064150  1
  Sn  Sn37  1  0.16749486  0.49991216  0.83276381  1
  Sn  Sn38  1  0.83364983  0.83398810  0.83234060  1
  Sn  Sn39  1  0.83359004  0.16730052  0.16567274  1
  Pb  Pb40  1  0.16703439  0.83190868  0.50068437  1
  Pb  Pb41  1  0.83334149  0.50039755  0.83471842  1
  Pb  Pb42  1  0.49989266  0.83124076  0.83171261  1
  Pb  Pb43  1  0.49615205  0.83334795  0.17016926  1
  Pb  Pb44  1  0.50040216  0.16968593  0.83330539  1
  Pb  Pb45  1  0.16477197  0.50138879  0.16630857  1
  Pb  Pb46  1  0.50251431  0.50010636  0.16708447  1
  Pb  Pb47  1  0.83342559  0.50212938  0.49764258  1
  Pb  Pb48  1  0.50307080  0.16647508  0.16643034  1
  Pb  Pb49  1  0.16449846  0.16401806  0.16378013  1
  Pb  Pb50  1  0.83345164  0.16362360  0.50070455  1
  Pb  Pb51  1  0.83457519  0.83396917  0.16636613  1
  Pb  Pb52  1  0.49982673  0.16737155  0.50015301  1
  Pb  Pb53  1  0.16652508  0.17048146  0.50306880  1
  I  I54  1  0.16318216  -0.00370690  0.16428296  1
  I  I55  1  0.16672210  0.00000279  0.49912656  1
  I  I56  1  0.16043739  -0.00078467  0.83782127  1
  I  I57  1  0.16654308  0.33307455  0.16699458  1
  I  I58  1  0.17192799  0.33850596  0.50393469  1
  I  I59  1  0.16520357  0.33392607  0.82770848  1
  I  I60  1  0.16155458  0.66909919  0.16111888  1
  I  I61  1  0.16711884  0.66404475  0.50566932  1
  I  I62  1  0.16527183  0.66678820  0.83291464  1
  I  I63  1  0.50282460  -0.00041053  0.16704497  1
  I  I64  1  0.50481887  -0.00314819  0.49976736  1
  I  I65  1  0.49787117  -0.00017849  0.83164638  1
  I  I66  1  0.49736481  0.33359963  0.16825441  1
  I  I67  1  0.49726891  0.33743001  0.50482672  1
  I  I68  1  0.49739282  0.33769990  0.82662561  1
  I  I69  1  0.50487662  0.66673149  0.16442625  1
  I  I70  1  0.50030766  0.66586621  0.50437782  1
  I  I71  1  0.49670338  0.66336125  0.83063916  1
  I  I72  1  0.83540380  0.00239838  0.16514833  1
  I  I73  1  0.82895840  -0.00447383  0.49898372  1
  I  I74  1  0.84121448  -0.00048299  0.83495993  1
  I  I75  1  0.83429350  0.33280148  0.16082886  1
  I  I76  1  0.83272239  0.33346362  0.50135939  1
  I  I77  1  0.83648945  0.33117905  0.83657939  1
  I  I78  1  0.83494781  0.66535210  0.16640675  1
  I  I79  1  0.83314849  0.66993669  0.50452473  1
  I  I80  1  0.83704773  0.66940070  0.83162127  1
  I  I81  1  0.16393705  0.17253874  -0.00427943  1
  I  I82  1  0.16552584  0.16538488  0.33307682  1
  I  I83  1  0.15974190  0.16016495  0.67132206  1
  I  I84  1  0.16929799  0.49900355  -0.00359148  1
  I  I85  1  0.16944308  0.50475338  0.33579874  1
  I  I86  1  0.16936802  0.50274525  0.66810207  1
  I  I87  1  0.15901397  0.83039055  -0.00249274  1
  I  I88  1  0.16461572  0.82966909  0.33188269  1
  I  I89  1  0.16462246  0.83421049  0.66999626  1
  I  I90  1  0.49804117  0.16852333  -0.00050594  1
  I  I91  1  0.50127852  0.16813491  0.33338594  1
  I  I92  1  0.50266186  0.16515546  0.66697788  1
  I  I93  1  0.49565080  0.49947447  -0.00286505  1
  I  I94  1  0.49656917  0.50469815  0.33692294  1
  I  I95  1  0.49645444  0.50366845  0.66643404  1
  I  I96  1  0.50299365  0.83133845  -0.00009601  1
  I  I97  1  0.50773846  0.82481920  0.33795006  1
  I  I98  1  0.50004053  0.83015026  0.66374366  1
  I  I99  1  0.83795652  0.16555936  -0.00133022  1
  I  I100  1  0.83218125  0.17020216  0.33072160  1
  I  I101  1  0.83734180  0.16508488  0.67035128  1
  I  I102  1  0.83427607  0.50121295  0.00228832  1
  I  I103  1  0.83404129  0.49629315  0.33014263  1
  I  I104  1  0.83332380  0.49826732  0.66669555  1
  I  I105  1  0.83667083  0.83340616  -0.00296419  1
  I  I106  1  0.83190766  0.83169282  0.33541996  1
  I  I107  1  0.83651953  0.83715574  0.66802798  1
  I  I108  1  -0.00334063  0.17061310  0.16453995  1
  I  I109  1  -0.00004680  0.16638632  0.49774158  1
  I  I110  1  -0.00018477  0.16801104  0.83664207  1
  I  I111  1  -0.00291036  0.49791244  0.16604938  1
  I  I112  1  0.00254290  0.50243999  0.50480876  1
  I  I113  1  0.00290308  0.50055668  0.83030708  1
  I  I114  1  0.00226971  0.83207209  0.16700201  1
  I  I115  1  -0.00195132  0.83172533  0.50081948  1
  I  I116  1  0.00016578  0.83153119  0.83123653  1
  I  I117  1  0.33276684  0.16579712  0.16658997  1
  I  I118  1  0.33300474  0.15990916  0.50183199  1
  I  I119  1  0.33008116  0.16290547  0.83155008  1
  I  I120  1  0.33313620  0.50186640  0.16686900  1
  I  I121  1  0.33348061  0.50789770  0.50535976  1
  I  I122  1  0.33186398  0.50105406  0.82906702  1
  I  I123  1  0.32865730  0.83054210  0.15883472  1
  I  I124  1  0.33567689  0.82904963  0.49987209  1
  I  I125  1  0.33011472  0.83537050  0.83549525  1
  I  I126  1  0.67149302  0.16957421  0.15986171  1
  I  I127  1  0.66695038  0.17109577  0.50193884  1
  I  I128  1  0.67026972  0.16258861  0.83756528  1
  I  I129  1  0.67037416  0.49763629  0.16548438  1
  I  I130  1  0.66395531  0.50236813  0.50408882  1
  I  I131  1  0.66451308  0.49994755  0.82968463  1
  I  I132  1  0.66668025  0.83323015  0.16500988  1
  I  I133  1  0.66722806  0.82741605  0.50486579  1
  I  I134  1  0.66954340  0.83614031  0.83158314  1
