# generated using pymatgen
data_Cs27Sn14Pb13I81
_symmetry_space_group_name_H-M   'P 1'
_cell_length_a   18.97452744
_cell_length_b   18.96929725
_cell_length_c   18.98350308
_cell_angle_alpha   90.00043477
_cell_angle_beta   90.00108861
_cell_angle_gamma   90.00022138
_symmetry_Int_Tables_number   1
_chemical_formula_structural   Cs27Sn14Pb13I81
_chemical_formula_sum   'Cs27 Sn14 Pb13 I81'
_cell_volume   6832.79777629
_cell_formula_units_Z   1
loop_
 _symmetry_equiv_pos_site_id
 _symmetry_equiv_pos_as_xyz
  1  'x, y, z'
loop_
 _atom_site_type_symbol
 _atom_site_label
 _atom_site_symmetry_multiplicity
 _atom_site_fract_x
 _atom_site_fract_y
 _atom_site_fract_z
 _atom_site_occupancy
  Cs  Cs0  1  -0.00061626  -0.00063233  0.00263097  1
  Cs  Cs1  1  -0.00183328  -0.00225029  0.33189508  1
  Cs  Cs2  1  -0.00411061  -0.00126885  0.66614194  1
  Cs  Cs3  1  0.00034719  0.33555734  -0.00454569  1
  Cs  Cs4  1  -0.00019263  0.33196585  0.33538985  1
  Cs  Cs5  1  0.00660999  0.33611951  0.66836375  1
  Cs  Cs6  1  0.00028659  0.66508291  -0.00060999  1
  Cs  Cs7  1  0.00213062  0.66947676  0.33320139  1
  Cs  Cs8  1  0.00154488  0.66434125  0.66819452  1
  Cs  Cs9  1  0.33394008  0.00458164  -0.00217122  1
  Cs  Cs10  1  0.33244754  0.00033495  0.33307875  1
  Cs  Cs11  1  0.33751061  0.00511084  0.66969549  1
  Cs  Cs12  1  0.33453219  0.32385550  0.00147493  1
  Cs  Cs13  1  0.33314321  0.32367598  0.33219904  1
  Cs  Cs14  1  0.32653097  0.33055122  0.66807947  1
  Cs  Cs15  1  0.33319165  0.66866690  0.00258577  1
  Cs  Cs16  1  0.33288047  0.66783117  0.33337530  1
  Cs  Cs17  1  0.33470891  0.66533073  0.66598950  1
  Cs  Cs18  1  0.66771146  -0.00087047  -0.00589092  1
  Cs  Cs19  1  0.67055163  -0.00059076  0.33550971  1
  Cs  Cs20  1  0.66692572  0.00005678  0.66862458  1
  Cs  Cs21  1  0.66608557  0.33908701  0.00504264  1
  Cs  Cs22  1  0.66547348  0.33566092  0.33196346  1
  Cs  Cs23  1  0.66583655  0.33350839  0.66396542  1
  Cs  Cs24  1  0.66626188  0.66233766  -0.00310858  1
  Cs  Cs25  1  0.66533690  0.66555678  0.33405838  1
  Cs  Cs26  1  0.66488503  0.66678987  0.66720616  1
  Sn  Sn27  1  0.83315781  0.16700843  0.83337624  1
  Sn  Sn28  1  0.16666680  0.83318038  0.83322847  1
  Sn  Sn29  1  0.49948176  0.50001048  0.83253830  1
  Sn  Sn30  1  0.83308826  0.83277248  0.49954082  1
  Sn  Sn31  1  0.83323308  0.16687821  0.50010394  1
  Sn  Sn32  1  0.50018175  0.83271063  0.49923204  1
  Sn  Sn33  1  0.83302015  0.50061724  0.49992177  1
  Sn  Sn34  1  0.16695788  0.83321032  0.50049558  1
  Sn  Sn35  1  0.50003731  0.50048348  0.50073431  1
  Sn  Sn36  1  0.83261478  0.83347050  0.16697691  1
  Sn  Sn37  1  0.50053082  0.83327084  0.16718383  1
  Sn  Sn38  1  0.16684066  0.83254481  0.16648557  1
  Sn  Sn39  1  0.83336274  0.16613495  0.16641083  1
  Sn  Sn40  1  0.16697954  0.50024881  0.16706400  1
  Pb  Pb41  1  0.83179336  0.49763903  0.83046933  1
  Pb  Pb42  1  0.50257309  0.16991468  0.83321191  1
  Pb  Pb43  1  0.50212838  0.16654148  0.49995873  1
  Pb  Pb44  1  0.16421872  0.16397468  0.83329954  1
  Pb  Pb45  1  0.83495740  0.83418036  0.83331522  1
  Pb  Pb46  1  0.16748960  0.50180978  0.49810482  1
  Pb  Pb47  1  0.49753894  0.50185271  0.16775888  1
  Pb  Pb48  1  0.49789368  0.83207781  0.83302168  1
  Pb  Pb49  1  0.16394986  0.16338884  0.49995852  1
  Pb  Pb50  1  0.16937953  0.50195877  0.83583047  1
  Pb  Pb51  1  0.83513436  0.50068568  0.16889470  1
  Pb  Pb52  1  0.16407954  0.16599430  0.16673134  1
  Pb  Pb53  1  0.50325891  0.16309688  0.16684759  1
  I  I54  1  0.16757958  -0.00418030  0.16747962  1
  I  I55  1  0.16730751  -0.00542593  0.49560827  1
  I  I56  1  0.16791394  -0.00419925  0.83628490  1
  I  I57  1  0.16525302  0.33571971  0.16710233  1
  I  I58  1  0.16594921  0.33339122  0.49810041  1
  I  I59  1  0.16649922  0.33345201  0.83513659  1
  I  I60  1  0.16361325  0.66969759  0.16721179  1
  I  I61  1  0.16096650  0.67058744  0.50042044  1
  I  I62  1  0.16422611  0.67007049  0.83158220  1
  I  I63  1  0.49372907  -0.00524055  0.17263882  1
  I  I64  1  0.49991345  -0.00385101  0.49555292  1
  I  I65  1  0.49889222  -0.00001180  0.83359523  1
  I  I66  1  0.49894591  0.33334303  0.16625967  1
  I  I67  1  0.50607323  0.33657963  0.50365122  1
  I  I68  1  0.50009060  0.33767082  0.82646942  1
  I  I69  1  0.50487736  0.67038781  0.16825236  1
  I  I70  1  0.50571642  0.66797441  0.50006242  1
  I  I71  1  0.50140595  0.66439400  0.83123248  1
  I  I72  1  0.83541493  -0.00162582  0.17166885  1
  I  I73  1  0.83442439  -0.00121301  0.49910392  1
  I  I74  1  0.83423929  0.00232202  0.82910981  1
  I  I75  1  0.83603297  0.33099233  0.16815348  1
  I  I76  1  0.82751427  0.33342203  0.49901100  1
  I  I77  1  0.83261107  0.32960511  0.83534917  1
  I  I78  1  0.83272961  0.67029937  0.17175760  1
  I  I79  1  0.83276586  0.66810121  0.49477265  1
  I  I80  1  0.83376057  0.66633892  0.83370240  1
  I  I81  1  0.16324431  0.16451861  0.00014544  1
  I  I82  1  0.16489071  0.16600780  0.33331885  1
  I  I83  1  0.16312674  0.16557261  0.66655329  1
  I  I84  1  0.16579298  0.50811237  0.00339077  1
  I  I85  1  0.16654243  0.50825966  0.33061003  1
  I  I86  1  0.16422148  0.50195429  0.66647693  1
  I  I87  1  0.16562375  0.82949967  0.00148021  1
  I  I88  1  0.16543669  0.82976436  0.33316160  1
  I  I89  1  0.16472616  0.83399303  0.66547923  1
  I  I90  1  0.50296285  0.16693923  0.00010415  1
  I  I91  1  0.50158395  0.17217394  0.33334080  1
  I  I92  1  0.50428710  0.16045334  0.66650982  1
  I  I93  1  0.49895496  0.50226317  -0.00142064  1
  I  I94  1  0.50465559  0.50345915  0.33662757  1
  I  I95  1  0.50525718  0.50741044  0.66477763  1
  I  I96  1  0.50028727  0.83171054  0.00280481  1
  I  I97  1  0.49751286  0.82785940  0.33425127  1
  I  I98  1  0.50114149  0.83161252  0.66323412  1
  I  I99  1  0.83390743  0.15927727  0.00093999  1
  I  I100  1  0.83372453  0.16369816  0.33371603  1
  I  I101  1  0.83288922  0.16449006  0.66538759  1
  I  I102  1  0.83239069  0.49940492  0.00008734  1
  I  I103  1  0.82709865  0.49702536  0.33689498  1
  I  I104  1  0.83314216  0.50260547  0.66223707  1
  I  I105  1  0.83393822  0.83865957  0.00312939  1
  I  I106  1  0.83699517  0.83768194  0.33397353  1
  I  I107  1  0.83337022  0.83476169  0.66314120  1
  I  I108  1  -0.00400395  0.15940111  0.16859135  1
  I  I109  1  -0.00480435  0.16731703  0.49908304  1
  I  I110  1  -0.00386660  0.16682865  0.83271917  1
  I  I111  1  0.00265331  0.50726741  0.16838725  1
  I  I112  1  -0.00261853  0.50035364  0.49739131  1
  I  I113  1  0.00019943  0.49910010  0.83278562  1
  I  I114  1  -0.00025302  0.83434137  0.16978369  1
  I  I115  1  -0.00085074  0.83439010  0.49697349  1
  I  I116  1  0.00297145  0.83424514  0.83348396  1
  I  I117  1  0.33335447  0.16668931  0.16554792  1
  I  I118  1  0.33329951  0.16707306  0.50074787  1
  I  I119  1  0.33336406  0.16646626  0.83364354  1
  I  I120  1  0.33009274  0.50923702  0.16804574  1
  I  I121  1  0.33643034  0.50747154  0.50268968  1
  I  I122  1  0.33675477  0.50234022  0.82465512  1
  I  I123  1  0.33289546  0.82694143  0.17000105  1
  I  I124  1  0.33372513  0.82681266  0.49632891  1
  I  I125  1  0.32999457  0.83154172  0.83407764  1
  I  I126  1  0.67143605  0.16295875  0.16823569  1
  I  I127  1  0.67084862  0.16108015  0.49949671  1
  I  I128  1  0.67059969  0.16230225  0.83224023  1
  I  I129  1  0.66655639  0.50013664  0.16461968  1
  I  I130  1  0.66702338  0.50491549  0.50259183  1
  I  I131  1  0.66395629  0.50202991  0.83342387  1
  I  I132  1  0.66742017  0.83812031  0.17438733  1
  I  I133  1  0.66741864  0.83320562  0.49337694  1
  I  I134  1  0.66658337  0.83413928  0.83403338  1
