# generated using pymatgen
data_Cs27Sn13Pb14I81
_symmetry_space_group_name_H-M   'P 1'
_cell_length_a   18.97386656
_cell_length_b   18.97388864
_cell_length_c   18.98138292
_cell_angle_alpha   89.99765366
_cell_angle_beta   89.99862617
_cell_angle_gamma   90.00227392
_symmetry_Int_Tables_number   1
_chemical_formula_structural   Cs27Sn13Pb14I81
_chemical_formula_sum   'Cs27 Sn13 Pb14 I81'
_cell_volume   6833.45028214
_cell_formula_units_Z   1
loop_
 _symmetry_equiv_pos_site_id
 _symmetry_equiv_pos_as_xyz
  1  'x, y, z'
loop_
 _atom_site_type_symbol
 _atom_site_label
 _atom_site_symmetry_multiplicity
 _atom_site_fract_x
 _atom_site_fract_y
 _atom_site_fract_z
 _atom_site_occupancy
  Cs  Cs0  1  -0.00070269  0.00234738  0.00311841  1
  Cs  Cs1  1  0.00481268  0.00021522  0.32483446  1
  Cs  Cs2  1  0.00152457  -0.00046645  0.66882169  1
  Cs  Cs3  1  -0.00497620  0.33134221  -0.00003760  1
  Cs  Cs4  1  0.00001367  0.33347591  0.33444083  1
  Cs  Cs5  1  0.00398279  0.33496251  0.66508668  1
  Cs  Cs6  1  0.00103927  0.66663031  -0.00128946  1
  Cs  Cs7  1  -0.01190529  0.66696668  0.33400957  1
  Cs  Cs8  1  0.00175810  0.66591417  0.66648215  1
  Cs  Cs9  1  0.33291208  -0.00321095  0.00028322  1
  Cs  Cs10  1  0.32878439  -0.00002903  0.33023503  1
  Cs  Cs11  1  0.33270099  -0.00093844  0.66730880  1
  Cs  Cs12  1  0.33550316  0.33667181  -0.00029464  1
  Cs  Cs13  1  0.33449654  0.33182328  0.33404099  1
  Cs  Cs14  1  0.33275779  0.33366832  0.66618873  1
  Cs  Cs15  1  0.33397235  0.66546873  0.00019654  1
  Cs  Cs16  1  0.33525908  0.66807656  0.32752063  1
  Cs  Cs17  1  0.33145100  0.66756264  0.66864429  1
  Cs  Cs18  1  0.66818410  0.00159913  -0.00119444  1
  Cs  Cs19  1  0.66779203  -0.00707851  0.33795521  1
  Cs  Cs20  1  0.66654092  0.00078274  0.66657018  1
  Cs  Cs21  1  0.66656444  0.33296089  -0.00066885  1
  Cs  Cs22  1  0.66385147  0.33536549  0.33397059  1
  Cs  Cs23  1  0.66526734  0.33044466  0.66743953  1
  Cs  Cs24  1  0.66556816  0.66644451  -0.00073238  1
  Cs  Cs25  1  0.67583845  0.67146931  0.33611026  1
  Cs  Cs26  1  0.66713230  0.67001169  0.66620822  1
  Sn  Sn27  1  0.83417913  0.83268096  0.83309059  1
  Sn  Sn28  1  0.50081625  0.49932721  0.83287841  1
  Sn  Sn29  1  0.49893253  0.16735203  0.83347802  1
  Sn  Sn30  1  0.49971670  0.50005427  0.50009128  1
  Sn  Sn31  1  0.50018656  0.16700874  0.16669128  1
  Sn  Sn32  1  0.83329236  0.16671934  0.49991859  1
  Sn  Sn33  1  0.16676536  0.49986857  0.16690644  1
  Sn  Sn34  1  0.49947018  0.49941767  0.16702755  1
  Sn  Sn35  1  0.16583813  0.83414647  0.83267357  1
  Sn  Sn36  1  0.50065213  0.16714128  0.49990571  1
  Sn  Sn37  1  0.83239256  0.50059416  0.83291944  1
  Sn  Sn38  1  0.16758972  0.16623908  0.83333456  1
  Sn  Sn39  1  0.16687374  0.83296469  0.50024127  1
  Pb  Pb40  1  0.83317797  0.16681717  0.83193599  1
  Pb  Pb41  1  0.16891939  0.16910149  0.16383127  1
  Pb  Pb42  1  0.83009649  0.16691286  0.17003432  1
  Pb  Pb43  1  0.83229671  0.49979546  0.16447956  1
  Pb  Pb44  1  0.16660688  0.83065429  0.16609172  1
  Pb  Pb45  1  0.83093751  0.49803920  0.50272592  1
  Pb  Pb46  1  0.83600402  0.83600206  0.50235217  1
  Pb  Pb47  1  0.83330336  0.83358928  0.16344639  1
  Pb  Pb48  1  0.16899733  0.50235297  0.49723255  1
  Pb  Pb49  1  0.49790104  0.83356319  0.50004724  1
  Pb  Pb50  1  0.16730385  0.16531028  0.50159372  1
  Pb  Pb51  1  0.16691143  0.49991695  0.83457402  1
  Pb  Pb52  1  0.50024906  0.83311996  0.16674511  1
  Pb  Pb53  1  0.49981257  0.83340199  0.83334055  1
  I  I54  1  0.16832693  0.00014278  0.16763412  1
  I  I55  1  0.16906084  -0.00260692  0.50351537  1
  I  I56  1  0.16731421  -0.00005524  0.82963971  1
  I  I57  1  0.17011306  0.33665034  0.16464746  1
  I  I58  1  0.16499943  0.33338208  0.50160273  1
  I  I59  1  0.16830223  0.33101147  0.83443408  1
  I  I60  1  0.17614606  0.66315764  0.16301365  1
  I  I61  1  0.16869098  0.66984976  0.50898674  1
  I  I62  1  0.16598262  0.66901060  0.83157172  1
  I  I63  1  0.50027243  0.00369554  0.16552338  1
  I  I64  1  0.50324517  0.00366529  0.50151312  1
  I  I65  1  0.49942291  0.00339125  0.83292327  1
  I  I66  1  0.49593633  0.33387411  0.16571235  1
  I  I67  1  0.50268293  0.33285967  0.50083360  1
  I  I68  1  0.50000317  0.33329535  0.83339812  1
  I  I69  1  0.49506718  0.66263626  0.16429991  1
  I  I70  1  0.49721895  0.66345072  0.50117000  1
  I  I71  1  0.50045306  0.66335075  0.83392154  1
  I  I72  1  0.83207368  0.00042140  0.16393254  1
  I  I73  1  0.82346397  0.00333331  0.50398859  1
  I  I74  1  0.83425425  -0.00203942  0.83111369  1
  I  I75  1  0.83656535  0.33334130  0.16216248  1
  I  I76  1  0.83196410  0.33029024  0.50356132  1
  I  I77  1  0.83161366  0.33566179  0.83291197  1
  I  I78  1  0.83098121  0.66644257  0.16909118  1
  I  I79  1  0.83230920  0.66678161  0.49925744  1
  I  I80  1  0.83306331  0.66638026  0.83328355  1
  I  I81  1  0.17052140  0.16045914  -0.00426785  1
  I  I82  1  0.16692308  0.16429885  0.33315209  1
  I  I83  1  0.17223818  0.16607446  0.66987356  1
  I  I84  1  0.17370480  0.50138537  0.00204014  1
  I  I85  1  0.17390080  0.50034740  0.32976049  1
  I  I86  1  0.16755942  0.49901590  0.66673584  1
  I  I87  1  0.16317563  0.83639641  -0.00352718  1
  I  I88  1  0.16994313  0.83370514  0.33563482  1
  I  I89  1  0.16435029  0.83640373  0.66851344  1
  I  I90  1  0.49517496  0.17263793  -0.00098372  1
  I  I91  1  0.50434113  0.17377360  0.33374475  1
  I  I92  1  0.50003069  0.17228879  0.66712220  1
  I  I93  1  0.49981649  0.49464692  -0.00062531  1
  I  I94  1  0.49323760  0.49262751  0.33323207  1
  I  I95  1  0.50408846  0.49378219  0.66737419  1
  I  I96  1  0.49820216  0.83323602  -0.00031731  1
  I  I97  1  0.49682879  0.83354296  0.33351624  1
  I  I98  1  0.50064416  0.83296955  0.66689396  1
  I  I99  1  0.83305297  0.16596705  -0.00019682  1
  I  I100  1  0.82905758  0.16712900  0.33778325  1
  I  I101  1  0.82601445  0.16661668  0.66454540  1
  I  I102  1  0.82805956  0.50238422  -0.00382324  1
  I  I103  1  0.83326128  0.49960674  0.33368554  1
  I  I104  1  0.82906769  0.50309781  0.67067869  1
  I  I105  1  0.83925869  0.83080792  -0.00493186  1
  I  I106  1  0.83433933  0.83366151  0.33387621  1
  I  I107  1  0.83471369  0.82966907  0.67018148  1
  I  I108  1  0.00014339  0.16775889  0.16629971  1
  I  I109  1  -0.00185717  0.16458939  0.50508503  1
  I  I110  1  0.00218296  0.16628992  0.83034408  1
  I  I111  1  0.00220240  0.50210506  0.16316914  1
  I  I112  1  -0.00010269  0.49862519  0.49997120  1
  I  I113  1  -0.00197084  0.50036781  0.83604212  1
  I  I114  1  0.00026910  0.83116035  0.16890688  1
  I  I115  1  0.00347750  0.83404684  0.50369740  1
  I  I116  1  0.00073227  0.83285010  0.82902720  1
  I  I117  1  0.33722034  0.16887531  0.17151744  1
  I  I118  1  0.33694487  0.16947933  0.49949198  1
  I  I119  1  0.33484258  0.16683133  0.83098249  1
  I  I120  1  0.33547969  0.49721877  0.16323729  1
  I  I121  1  0.33745619  0.49287318  0.50624282  1
  I  I122  1  0.33651647  0.49887421  0.83245819  1
  I  I123  1  0.33324337  0.83428643  0.16398072  1
  I  I124  1  0.33035541  0.83506432  0.50832154  1
  I  I125  1  0.33048910  0.83452707  0.83026320  1
  I  I126  1  0.66172586  0.17476868  0.15854562  1
  I  I127  1  0.66431835  0.17025183  0.50329261  1
  I  I128  1  0.66341954  0.16765216  0.83480967  1
  I  I129  1  0.66259220  0.49507519  0.16680225  1
  I  I130  1  0.66240130  0.49887888  0.49539823  1
  I  I131  1  0.66490945  0.49963121  0.83552575  1
  I  I132  1  0.66668351  0.83126538  0.16578163  1
  I  I133  1  0.66691390  0.83197598  0.50081734  1
  I  I134  1  0.66903084  0.83219846  0.83383790  1
