# generated using pymatgen
data_Cs27Sn14Pb13I81
_symmetry_space_group_name_H-M   'P 1'
_cell_length_a   18.97904859
_cell_length_b   18.97317389
_cell_length_c   18.97493804
_cell_angle_alpha   89.99945346
_cell_angle_beta   90.00023385
_cell_angle_gamma   89.99862071
_symmetry_Int_Tables_number   1
_chemical_formula_structural   Cs27Sn14Pb13I81
_chemical_formula_sum   'Cs27 Sn14 Pb13 I81'
_cell_volume   6832.73836024
_cell_formula_units_Z   1
loop_
 _symmetry_equiv_pos_site_id
 _symmetry_equiv_pos_as_xyz
  1  'x, y, z'
loop_
 _atom_site_type_symbol
 _atom_site_label
 _atom_site_symmetry_multiplicity
 _atom_site_fract_x
 _atom_site_fract_y
 _atom_site_fract_z
 _atom_site_occupancy
  Cs  Cs0  1  -0.00010901  -0.00302256  0.00242874  1
  Cs  Cs1  1  -0.00146799  0.00012289  0.33404089  1
  Cs  Cs2  1  -0.00251533  -0.00018503  0.66431378  1
  Cs  Cs3  1  -0.00147278  0.33440746  -0.00137896  1
  Cs  Cs4  1  0.00032191  0.33433439  0.33497596  1
  Cs  Cs5  1  0.00125823  0.33307684  0.66663252  1
  Cs  Cs6  1  -0.00090139  0.66648122  0.00002058  1
  Cs  Cs7  1  0.00071378  0.66259965  0.33312399  1
  Cs  Cs8  1  0.00164707  0.66543819  0.66744317  1
  Cs  Cs9  1  0.33284329  -0.00534916  0.00906909  1
  Cs  Cs10  1  0.33233547  0.00151191  0.32386602  1
  Cs  Cs11  1  0.33305486  0.00389815  0.66827874  1
  Cs  Cs12  1  0.33332798  0.33040005  -0.00440868  1
  Cs  Cs13  1  0.33466960  0.33184822  0.33318139  1
  Cs  Cs14  1  0.33273663  0.33321005  0.66793007  1
  Cs  Cs15  1  0.33143637  0.67666293  -0.00044024  1
  Cs  Cs16  1  0.34032611  0.66720813  0.33620407  1
  Cs  Cs17  1  0.33384106  0.66655021  0.66486120  1
  Cs  Cs18  1  0.66695627  -0.00071432  -0.00018639  1
  Cs  Cs19  1  0.66991782  -0.00229059  0.33620912  1
  Cs  Cs20  1  0.66912852  -0.00341595  0.66408721  1
  Cs  Cs21  1  0.66842956  0.33337779  -0.00081669  1
  Cs  Cs22  1  0.66555925  0.33629946  0.32988074  1
  Cs  Cs23  1  0.66534802  0.33130180  0.66929181  1
  Cs  Cs24  1  0.66752819  0.66748624  0.00235948  1
  Cs  Cs25  1  0.65675747  0.66415790  0.33206710  1
  Cs  Cs26  1  0.66416718  0.67385445  0.66495338  1
  Sn  Sn27  1  0.16716557  0.49955500  0.16635087  1
  Sn  Sn28  1  0.83330341  0.49982861  0.50111327  1
  Sn  Sn29  1  0.16690347  0.49938984  0.83356059  1
  Sn  Sn30  1  0.83367870  0.16713576  0.83404994  1
  Sn  Sn31  1  0.16656134  0.83366314  0.50025960  1
  Sn  Sn32  1  0.49914899  0.16705911  0.50062199  1
  Sn  Sn33  1  0.16660439  0.16689679  0.83303925  1
  Sn  Sn34  1  0.49991743  0.49970146  0.83330919  1
  Sn  Sn35  1  0.83373007  0.16612362  0.16587537  1
  Sn  Sn36  1  0.16754332  0.16656224  0.50061059  1
  Sn  Sn37  1  0.16625040  0.49991480  0.49994378  1
  Sn  Sn38  1  0.83305529  0.49940881  0.83197931  1
  Sn  Sn39  1  0.83358510  0.83371521  0.16697816  1
  Sn  Sn40  1  0.49976667  0.16699404  0.83259898  1
  Pb  Pb41  1  0.16481843  0.83046572  0.16951226  1
  Pb  Pb42  1  0.16454638  0.16846314  0.16645690  1
  Pb  Pb43  1  0.49991424  0.83420954  0.83313196  1
  Pb  Pb44  1  0.83344235  0.16855759  0.50044786  1
  Pb  Pb45  1  0.83456453  0.49971138  0.16647389  1
  Pb  Pb46  1  0.49973982  0.49786830  0.50224548  1
  Pb  Pb47  1  0.83357346  0.83319609  0.83468349  1
  Pb  Pb48  1  0.16643275  0.83383999  0.83126553  1
  Pb  Pb49  1  0.49636869  0.49954831  0.16292090  1
  Pb  Pb50  1  0.49695119  0.83703640  0.50025137  1
  Pb  Pb51  1  0.50295120  0.83339894  0.16677047  1
  Pb  Pb52  1  0.50278502  0.16688148  0.16622955  1
  Pb  Pb53  1  0.83522744  0.82970247  0.49779741  1
  I  I54  1  0.16698221  0.00003856  0.16668627  1
  I  I55  1  0.17040149  0.00168196  0.50541228  1
  I  I56  1  0.16621261  0.00396497  0.82846060  1
  I  I57  1  0.16243574  0.33626554  0.17057523  1
  I  I58  1  0.16599337  0.33366135  0.50123014  1
  I  I59  1  0.16602089  0.33374192  0.82933602  1
  I  I60  1  0.16211310  0.66265641  0.16371164  1
  I  I61  1  0.16018603  0.66472548  0.50010175  1
  I  I62  1  0.16581094  0.66290885  0.83309048  1
  I  I63  1  0.49614489  0.00039281  0.16422804  1
  I  I64  1  0.49770254  0.00500831  0.50785889  1
  I  I65  1  0.50081527  0.00452969  0.82912854  1
  I  I66  1  0.50412263  0.33330754  0.16995622  1
  I  I67  1  0.49422752  0.33008349  0.50234687  1
  I  I68  1  0.49970798  0.33270828  0.82968269  1
  I  I69  1  0.50286606  0.66621359  0.16585505  1
  I  I70  1  0.50015681  0.66646819  0.50061352  1
  I  I71  1  0.49974585  0.66332856  0.83402110  1
  I  I72  1  0.83467283  0.00135263  0.16090464  1
  I  I73  1  0.83412529  0.00014788  0.50135778  1
  I  I74  1  0.83328226  0.00367368  0.83525868  1
  I  I75  1  0.83450597  0.33110435  0.16461894  1
  I  I76  1  0.84026699  0.33632335  0.49903194  1
  I  I77  1  0.83418203  0.33327006  0.83600782  1
  I  I78  1  0.83698772  0.66817826  0.16673882  1
  I  I79  1  0.83995523  0.66177854  0.50496608  1
  I  I80  1  0.83478035  0.66281639  0.83163072  1
  I  I81  1  0.16850535  0.17245984  -0.00336720  1
  I  I82  1  0.16931164  0.16836982  0.33647434  1
  I  I83  1  0.16519838  0.17103948  0.66686758  1
  I  I84  1  0.16486923  0.49432628  -0.00184805  1
  I  I85  1  0.15923789  0.49931419  0.33506574  1
  I  I86  1  0.16522928  0.49932739  0.66686820  1
  I  I87  1  0.16656099  0.83272894  0.00033091  1
  I  I88  1  0.16469448  0.83486248  0.33721749  1
  I  I89  1  0.16511102  0.82854481  0.66342991  1
  I  I90  1  0.49770123  0.17127947  -0.00393479  1
  I  I91  1  0.49506567  0.16620659  0.33617556  1
  I  I92  1  0.50025025  0.17116361  0.66792556  1
  I  I93  1  0.50339161  0.49191282  -0.00513399  1
  I  I94  1  0.50131712  0.49923113  0.33347443  1
  I  I95  1  0.49601304  0.49681414  0.67028557  1
  I  I96  1  0.49821548  0.83442276  -0.00005905  1
  I  I97  1  0.49988956  0.83355304  0.33371749  1
  I  I98  1  0.50181299  0.83080521  0.66646677  1
  I  I99  1  0.83350148  0.16946823  -0.00195687  1
  I  I100  1  0.83431208  0.16518937  0.33166233  1
  I  I101  1  0.83377160  0.17001535  0.66977535  1
  I  I102  1  0.83476074  0.49884642  -0.00324893  1
  I  I103  1  0.84019073  0.49888574  0.33553607  1
  I  I104  1  0.83951338  0.49392691  0.66793560  1
  I  I105  1  0.83485807  0.83255274  0.00265014  1
  I  I106  1  0.83600711  0.84070485  0.33028272  1
  I  I107  1  0.83359002  0.83534580  0.66623316  1
  I  I108  1  -0.00323887  0.16482037  0.16276724  1
  I  I109  1  0.00309272  0.16624200  0.50264575  1
  I  I110  1  0.00032162  0.17301648  0.83292813  1
  I  I111  1  0.00245952  0.49937740  0.16354054  1
  I  I112  1  0.00168595  0.49764058  0.50392790  1
  I  I113  1  0.00045728  0.49458743  0.83271608  1
  I  I114  1  -0.00264709  0.83769018  0.16592115  1
  I  I115  1  0.00306751  0.83838838  0.50030271  1
  I  I116  1  0.00003908  0.83309281  0.83364925  1
  I  I117  1  0.33306769  0.16777761  0.16488969  1
  I  I118  1  0.33156852  0.16901707  0.50795717  1
  I  I119  1  0.33257512  0.17450329  0.82658670  1
  I  I120  1  0.32856373  0.49907657  0.17068444  1
  I  I121  1  0.32978869  0.50201649  0.50027073  1
  I  I122  1  0.33207745  0.49331028  0.83305788  1
  I  I123  1  0.33295157  0.83235614  0.16674640  1
  I  I124  1  0.32913780  0.82479094  0.50022003  1
  I  I125  1  0.33309269  0.83191535  0.83377741  1
  I  I126  1  0.67081875  0.16465716  0.16319034  1
  I  I127  1  0.66477122  0.16944825  0.50300762  1
  I  I128  1  0.66694450  0.17346293  0.83385660  1
  I  I129  1  0.66661661  0.50110913  0.16797212  1
  I  I130  1  0.66907750  0.49738660  0.50294793  1
  I  I131  1  0.66764988  0.49282187  0.82939538  1
  I  I132  1  0.67092413  0.83624263  0.16651481  1
  I  I133  1  0.66668146  0.83316119  0.49829385  1
  I  I134  1  0.66680216  0.83238477  0.83412937  1
