# generated using pymatgen
data_Cs27Sn14Pb13I81
_symmetry_space_group_name_H-M   'P 1'
_cell_length_a   18.98025890
_cell_length_b   18.97052449
_cell_length_c   18.97569219
_cell_angle_alpha   89.99985834
_cell_angle_beta   89.99965200
_cell_angle_gamma   90.00108405
_symmetry_Int_Tables_number   1
_chemical_formula_structural   Cs27Sn14Pb13I81
_chemical_formula_sum   'Cs27 Sn14 Pb13 I81'
_cell_volume   6832.49145491
_cell_formula_units_Z   1
loop_
 _symmetry_equiv_pos_site_id
 _symmetry_equiv_pos_as_xyz
  1  'x, y, z'
loop_
 _atom_site_type_symbol
 _atom_site_label
 _atom_site_symmetry_multiplicity
 _atom_site_fract_x
 _atom_site_fract_y
 _atom_site_fract_z
 _atom_site_occupancy
  Cs  Cs0  1  0.00570835  -0.00206856  0.00001173  1
  Cs  Cs1  1  -0.00063990  0.00053568  0.33187105  1
  Cs  Cs2  1  -0.00163921  0.00134687  0.66919127  1
  Cs  Cs3  1  -0.00380727  0.33660850  -0.01141306  1
  Cs  Cs4  1  0.00360330  0.33126325  0.33482560  1
  Cs  Cs5  1  -0.00241312  0.33320566  0.67473947  1
  Cs  Cs6  1  0.00430328  0.66360649  0.00950531  1
  Cs  Cs7  1  0.00072382  0.66497139  0.32872731  1
  Cs  Cs8  1  0.00231918  0.66667299  0.66482817  1
  Cs  Cs9  1  0.33313071  0.00019194  -0.00021484  1
  Cs  Cs10  1  0.33573562  0.00177546  0.33369921  1
  Cs  Cs11  1  0.33574623  -0.00094005  0.66657696  1
  Cs  Cs12  1  0.33523393  0.33694475  -0.00100223  1
  Cs  Cs13  1  0.33277347  0.33112692  0.33369836  1
  Cs  Cs14  1  0.33160796  0.33579757  0.66573041  1
  Cs  Cs15  1  0.32718481  0.65963572  -0.00027752  1
  Cs  Cs16  1  0.33131941  0.66347249  0.33609969  1
  Cs  Cs17  1  0.33185344  0.66654035  0.66478147  1
  Cs  Cs18  1  0.66349413  -0.00141889  0.00159199  1
  Cs  Cs19  1  0.66588685  0.00089240  0.33402612  1
  Cs  Cs20  1  0.66608843  -0.00161391  0.66542756  1
  Cs  Cs21  1  0.66733341  0.34194358  -0.00073701  1
  Cs  Cs22  1  0.66617262  0.33062675  0.33371179  1
  Cs  Cs23  1  0.67015798  0.33347458  0.66742921  1
  Cs  Cs24  1  0.66903738  0.65942565  0.00003475  1
  Cs  Cs25  1  0.66781801  0.66838165  0.33431690  1
  Cs  Cs26  1  0.66577035  0.67017713  0.66510647  1
  Sn  Sn27  1  0.16642436  0.83473300  0.49979546  1
  Sn  Sn28  1  0.83359849  0.83269570  0.50050286  1
  Sn  Sn29  1  0.50116463  0.49981999  0.49985041  1
  Sn  Sn30  1  0.50032335  0.16609544  0.83320068  1
  Sn  Sn31  1  0.16717901  0.16549621  0.49969201  1
  Sn  Sn32  1  0.16666634  0.16663694  0.16700083  1
  Sn  Sn33  1  0.50004879  0.83340005  0.16629072  1
  Sn  Sn34  1  0.83267457  0.50059063  0.49962634  1
  Sn  Sn35  1  0.50009739  0.16587164  0.16619757  1
  Sn  Sn36  1  0.83337217  0.16650936  0.16620186  1
  Sn  Sn37  1  0.50074572  0.83383393  0.83391829  1
  Sn  Sn38  1  0.49949610  0.16691590  0.50043196  1
  Sn  Sn39  1  0.50007497  0.83332063  0.49980462  1
  Sn  Sn40  1  0.83273324  0.83346227  0.83337677  1
  Pb  Pb41  1  0.49999487  0.50078725  0.83033627  1
  Pb  Pb42  1  0.16939792  0.16645437  0.83303965  1
  Pb  Pb43  1  0.83040148  0.16390567  0.83636277  1
  Pb  Pb44  1  0.16704583  0.83337782  0.83121325  1
  Pb  Pb45  1  0.16669850  0.49610981  0.16702388  1
  Pb  Pb46  1  0.83361408  0.16631127  0.49907805  1
  Pb  Pb47  1  0.83319962  0.49698271  0.16959972  1
  Pb  Pb48  1  0.49996201  0.50000345  0.16939564  1
  Pb  Pb49  1  0.16973022  0.83533051  0.16922603  1
  Pb  Pb50  1  0.16617999  0.49941741  0.50002427  1
  Pb  Pb51  1  0.83304378  0.50386606  0.83064202  1
  Pb  Pb52  1  0.83132331  0.83495309  0.16657370  1
  Pb  Pb53  1  0.16665336  0.50029354  0.83312045  1
  I  I54  1  0.16569624  0.00357113  0.16930366  1
  I  I55  1  0.17088062  0.00028435  0.49658391  1
  I  I56  1  0.16425641  0.00002213  0.83430174  1
  I  I57  1  0.17192326  0.32778246  0.17695109  1
  I  I58  1  0.17143530  0.32974223  0.49481919  1
  I  I59  1  0.16798713  0.33271424  0.83040739  1
  I  I60  1  0.16781269  0.66691905  0.16750590  1
  I  I61  1  0.17058423  0.66962102  0.50206888  1
  I  I62  1  0.17057842  0.66733992  0.82965200  1
  I  I63  1  0.50034305  0.00116779  0.17165250  1
  I  I64  1  0.49976472  -0.00031152  0.49965744  1
  I  I65  1  0.50291690  -0.00044057  0.82856550  1
  I  I66  1  0.49914074  0.32935679  0.16719870  1
  I  I67  1  0.49950890  0.33195581  0.49897951  1
  I  I68  1  0.49811544  0.33034385  0.83424714  1
  I  I69  1  0.50179573  0.66994531  0.16776745  1
  I  I70  1  0.49996746  0.66840174  0.50014115  1
  I  I71  1  0.50404609  0.67059629  0.83237185  1
  I  I72  1  0.83309237  0.00294125  0.17137961  1
  I  I73  1  0.83031572  -0.00307492  0.50180859  1
  I  I74  1  0.83085067  -0.00352738  0.82348111  1
  I  I75  1  0.82894164  0.32879644  0.16962169  1
  I  I76  1  0.82895722  0.33510948  0.49580312  1
  I  I77  1  0.83326526  0.33326609  0.83294540  1
  I  I78  1  0.83101714  0.66684931  0.16497430  1
  I  I79  1  0.82867648  0.66826749  0.50360445  1
  I  I80  1  0.82355062  0.67158980  0.83150703  1
  I  I81  1  0.16825508  0.16668987  0.00301285  1
  I  I82  1  0.17220145  0.16301302  0.33437179  1
  I  I83  1  0.17151819  0.16348921  0.66311061  1
  I  I84  1  0.16704719  0.49954373  0.00033068  1
  I  I85  1  0.16733272  0.50226165  0.33394536  1
  I  I86  1  0.16784905  0.49724812  0.66566500  1
  I  I87  1  0.16632966  0.83458429  0.00038867  1
  I  I88  1  0.16610330  0.83502077  0.33759975  1
  I  I89  1  0.17142787  0.83910134  0.66235202  1
  I  I90  1  0.49950390  0.15825962  0.00084351  1
  I  I91  1  0.49953159  0.16439790  0.33382043  1
  I  I92  1  0.49561919  0.16372881  0.66525919  1
  I  I93  1  0.49920637  0.49930590  -0.00003028  1
  I  I94  1  0.50304393  0.50008443  0.33767429  1
  I  I95  1  0.50306354  0.49949666  0.66210303  1
  I  I96  1  0.50590365  0.84411469  -0.00023373  1
  I  I97  1  0.50053618  0.83659333  0.33485066  1
  I  I98  1  0.50060936  0.83616176  0.66512748  1
  I  I99  1  0.83410554  0.16398361  0.00412154  1
  I  I100  1  0.82784504  0.16455167  0.33128838  1
  I  I101  1  0.83393166  0.16935573  0.66686475  1
  I  I102  1  0.83427629  0.49966529  -0.00007880  1
  I  I103  1  0.82847972  0.50802639  0.33749276  1
  I  I104  1  0.82843811  0.49850468  0.66258634  1
  I  I105  1  0.82660377  0.83821856  -0.00248905  1
  I  I106  1  0.83157365  0.83116022  0.33665850  1
  I  I107  1  0.82791288  0.83106113  0.66482916  1
  I  I108  1  0.00059466  0.16644141  0.17583940  1
  I  I109  1  0.00258170  0.16370628  0.49350700  1
  I  I110  1  -0.00027439  0.16667737  0.83311906  1
  I  I111  1  -0.00010119  0.50098909  0.17059884  1
  I  I112  1  -0.00299166  0.50382152  0.49960959  1
  I  I113  1  -0.00061667  0.49869828  0.82889446  1
  I  I114  1  0.00017378  0.83600902  0.16699657  1
  I  I115  1  -0.00047689  0.83352971  0.50504609  1
  I  I116  1  -0.00294009  0.83346960  0.82657003  1
  I  I117  1  0.33475070  0.16232982  0.16905112  1
  I  I118  1  0.33508272  0.16406377  0.49592234  1
  I  I119  1  0.33769928  0.15941351  0.83571807  1
  I  I120  1  0.33360513  0.49945993  0.16944478  1
  I  I121  1  0.33624984  0.50233235  0.50002505  1
  I  I122  1  0.33399569  0.50127165  0.83057814  1
  I  I123  1  0.33796606  0.84007104  0.16679715  1
  I  I124  1  0.33505733  0.83382368  0.49991521  1
  I  I125  1  0.33724166  0.83832445  0.83165869  1
  I  I126  1  0.66471993  0.16246731  0.16941201  1
  I  I127  1  0.66337371  0.16445793  0.49858066  1
  I  I128  1  0.66232788  0.16409144  0.82976357  1
  I  I129  1  0.66645758  0.49635375  0.16628049  1
  I  I130  1  0.66562602  0.50291182  0.49966369  1
  I  I131  1  0.66648989  0.49627509  0.83472875  1
  I  I132  1  0.66309348  0.84097464  0.17282713  1
  I  I133  1  0.66521214  0.83326312  0.50047922  1
  I  I134  1  0.66508513  0.83816952  0.82639554  1
