# generated using pymatgen
data_Cs27Sn14Pb13I81
_symmetry_space_group_name_H-M   'P 1'
_cell_length_a   18.97963970
_cell_length_b   18.97463771
_cell_length_c   18.97435275
_cell_angle_alpha   90.00102318
_cell_angle_beta   89.99919132
_cell_angle_gamma   90.00011024
_symmetry_Int_Tables_number   1
_chemical_formula_structural   Cs27Sn14Pb13I81
_chemical_formula_sum   'Cs27 Sn14 Pb13 I81'
_cell_volume   6833.26756568
_cell_formula_units_Z   1
loop_
 _symmetry_equiv_pos_site_id
 _symmetry_equiv_pos_as_xyz
  1  'x, y, z'
loop_
 _atom_site_type_symbol
 _atom_site_label
 _atom_site_symmetry_multiplicity
 _atom_site_fract_x
 _atom_site_fract_y
 _atom_site_fract_z
 _atom_site_occupancy
  Cs  Cs0  1  0.00049921  -0.00299405  0.00345306  1
  Cs  Cs1  1  -0.00232440  -0.00052680  0.33198605  1
  Cs  Cs2  1  -0.00040826  -0.00026240  0.66578459  1
  Cs  Cs3  1  0.00214037  0.33450940  0.00230753  1
  Cs  Cs4  1  0.00087491  0.33323680  0.33369931  1
  Cs  Cs5  1  0.00149389  0.33353059  0.66544930  1
  Cs  Cs6  1  -0.00177148  0.66716947  -0.00103853  1
  Cs  Cs7  1  -0.00091733  0.66607154  0.33218519  1
  Cs  Cs8  1  -0.00245143  0.66765952  0.66915338  1
  Cs  Cs9  1  0.33263007  -0.00264287  0.00454791  1
  Cs  Cs10  1  0.33366221  -0.00985748  0.32805844  1
  Cs  Cs11  1  0.33415287  0.00263292  0.66685480  1
  Cs  Cs12  1  0.33268216  0.33458819  -0.00264388  1
  Cs  Cs13  1  0.33157764  0.33495967  0.33178090  1
  Cs  Cs14  1  0.33172393  0.33074545  0.66914346  1
  Cs  Cs15  1  0.33324103  0.66519488  0.00053779  1
  Cs  Cs16  1  0.34166004  0.67316305  0.33459319  1
  Cs  Cs17  1  0.33268465  0.66989933  0.66544861  1
  Cs  Cs18  1  0.66692831  0.00253581  -0.00038991  1
  Cs  Cs19  1  0.67057955  -0.00070139  0.33166004  1
  Cs  Cs20  1  0.66624347  0.00296956  0.66706433  1
  Cs  Cs21  1  0.66375963  0.33102602  0.00020852  1
  Cs  Cs22  1  0.66415523  0.33574714  0.33237203  1
  Cs  Cs23  1  0.66708133  0.33198929  0.66637047  1
  Cs  Cs24  1  0.66940075  0.66720543  -0.00131020  1
  Cs  Cs25  1  0.66201642  0.66568043  0.33471143  1
  Cs  Cs26  1  0.66954234  0.66357311  0.66580123  1
  Sn  Sn27  1  0.49936494  0.50006891  0.83288431  1
  Sn  Sn28  1  0.83351025  0.83366571  0.49967026  1
  Sn  Sn29  1  0.49956542  0.16659974  0.83271469  1
  Sn  Sn30  1  0.16670866  0.49978104  0.50018280  1
  Sn  Sn31  1  0.16622717  0.50009355  0.16701051  1
  Sn  Sn32  1  0.83401664  0.16681362  0.83277654  1
  Sn  Sn33  1  0.83337880  0.16627691  0.50070320  1
  Sn  Sn34  1  0.49999862  0.83344095  0.83294151  1
  Sn  Sn35  1  0.49946573  0.16667596  0.50005037  1
  Sn  Sn36  1  0.83369997  0.50050220  0.16667696  1
  Sn  Sn37  1  0.83330627  0.83214721  0.16743843  1
  Sn  Sn38  1  0.16716113  0.16698601  0.50027903  1
  Sn  Sn39  1  0.16638856  0.16702135  0.83288331  1
  Sn  Sn40  1  0.16723174  0.49947027  0.83284155  1
  Pb  Pb41  1  0.83516212  0.49934345  0.49811986  1
  Pb  Pb42  1  0.49963752  0.16664419  0.16698111  1
  Pb  Pb43  1  0.16679700  0.16850084  0.16699065  1
  Pb  Pb44  1  0.16453985  0.83390812  0.50022411  1
  Pb  Pb45  1  0.49969612  0.49992711  0.16439710  1
  Pb  Pb46  1  0.50269628  0.83596448  0.50227463  1
  Pb  Pb47  1  0.49717460  0.49765686  0.50266929  1
  Pb  Pb48  1  0.83151613  0.83591232  0.83310580  1
  Pb  Pb49  1  0.16435162  0.83002830  0.16669829  1
  Pb  Pb50  1  0.50303029  0.83328000  0.16414026  1
  Pb  Pb51  1  0.16881155  0.83373149  0.83315114  1
  Pb  Pb52  1  0.83376243  0.49743033  0.83515327  1
  Pb  Pb53  1  0.83344977  0.16714024  0.16716014  1
  I  I54  1  0.16564496  -0.00020438  0.16572714  1
  I  I55  1  0.16784048  0.00392679  0.50711017  1
  I  I56  1  0.16682840  0.00385056  0.82735142  1
  I  I57  1  0.15909186  0.33677990  0.16589216  1
  I  I58  1  0.16372676  0.33242837  0.50121800  1
  I  I59  1  0.17077349  0.33314419  0.83342270  1
  I  I60  1  0.16445429  0.66172368  0.16464399  1
  I  I61  1  0.16386481  0.66348824  0.50126175  1
  I  I62  1  0.17092477  0.66307982  0.83338707  1
  I  I63  1  0.50186661  -0.00016372  0.16337683  1
  I  I64  1  0.49507970  0.00416227  0.50727159  1
  I  I65  1  0.50145993  0.00180645  0.82942010  1
  I  I66  1  0.50465206  0.33356583  0.16413163  1
  I  I67  1  0.50679558  0.32948841  0.50573766  1
  I  I68  1  0.49907630  0.33232508  0.83085166  1
  I  I69  1  0.49804369  0.66653131  0.16443536  1
  I  I70  1  0.50015731  0.66666025  0.50199606  1
  I  I71  1  0.49535880  0.66586984  0.83597817  1
  I  I72  1  0.83139948  -0.00215117  0.16743600  1
  I  I73  1  0.83513501  0.00157290  0.49794398  1
  I  I74  1  0.83349260  0.00409390  0.83422912  1
  I  I75  1  0.83789785  0.33602186  0.16554022  1
  I  I76  1  0.83201982  0.32988948  0.50318245  1
  I  I77  1  0.82907791  0.32942034  0.82849841  1
  I  I78  1  0.83823655  0.66656419  0.17044288  1
  I  I79  1  0.83548958  0.66876665  0.49772712  1
  I  I80  1  0.83224850  0.66659146  0.83177756  1
  I  I81  1  0.16685110  0.17071955  -0.00354138  1
  I  I82  1  0.16466255  0.17161374  0.33706000  1
  I  I83  1  0.16631893  0.17446253  0.66707630  1
  I  I84  1  0.16686543  0.49571395  -0.00100439  1
  I  I85  1  0.15921089  0.49384513  0.33371816  1
  I  I86  1  0.17099790  0.49459457  0.66733793  1
  I  I87  1  0.16432713  0.83481734  -0.00013572  1
  I  I88  1  0.16860132  0.83468997  0.33344604  1
  I  I89  1  0.16274207  0.82732427  0.66673722  1
  I  I90  1  0.50119900  0.16724644  -0.00427931  1
  I  I91  1  0.50193526  0.16763137  0.33709922  1
  I  I92  1  0.50067478  0.16687266  0.66794976  1
  I  I93  1  0.49505143  0.49591145  -0.00408177  1
  I  I94  1  0.49938453  0.49803730  0.33372374  1
  I  I95  1  0.49676583  0.50110553  0.67091640  1
  I  I96  1  0.50159912  0.83705455  -0.00393413  1
  I  I97  1  0.49875428  0.83481566  0.33366199  1
  I  I98  1  0.50210014  0.83181406  0.67015031  1
  I  I99  1  0.83216374  0.16710134  -0.00292418  1
  I  I100  1  0.83377014  0.16546950  0.33683267  1
  I  I101  1  0.83303389  0.16155037  0.66623313  1
  I  I102  1  0.83853464  0.50455615  0.00290520  1
  I  I103  1  0.83970228  0.49855922  0.33018591  1
  I  I104  1  0.83373845  0.50331716  0.66671562  1
  I  I105  1  0.83161261  0.83051725  0.00220003  1
  I  I106  1  0.83443414  0.83717413  0.33373883  1
  I  I107  1  0.83252806  0.83664084  0.66416815  1
  I  I108  1  -0.00006021  0.16499763  0.16466779  1
  I  I109  1  0.00007864  0.16690420  0.50626662  1
  I  I110  1  0.00067043  0.17178114  0.82759056  1
  I  I111  1  0.00065585  0.50310503  0.16354707  1
  I  I112  1  0.00324823  0.49430863  0.50513332  1
  I  I113  1  0.00321674  0.49505062  0.83232014  1
  I  I114  1  -0.00365928  0.83336814  0.16846846  1
  I  I115  1  -0.00348696  0.83965485  0.49739489  1
  I  I116  1  -0.00037939  0.83331663  0.83412635  1
  I  I117  1  0.33313867  0.16957285  0.16569097  1
  I  I118  1  0.33275595  0.17349916  0.50857988  1
  I  I119  1  0.33327184  0.16849848  0.82724388  1
  I  I120  1  0.33000815  0.49652216  0.16681289  1
  I  I121  1  0.32899168  0.49486358  0.49503707  1
  I  I122  1  0.33239372  0.49487843  0.83578196  1
  I  I123  1  0.33353989  0.83317914  0.16614632  1
  I  I124  1  0.33364154  0.83347711  0.50044488  1
  I  I125  1  0.33676222  0.83781428  0.83275987  1
  I  I126  1  0.66689738  0.16919488  0.16464851  1
  I  I127  1  0.66709687  0.16148524  0.50713661  1
  I  I128  1  0.66618312  0.16671812  0.82855823  1
  I  I129  1  0.66948397  0.50332369  0.16517279  1
  I  I130  1  0.66655685  0.49926272  0.49923547  1
  I  I131  1  0.66429267  0.49824336  0.83607724  1
  I  I132  1  0.67077431  0.82663853  0.17109844  1
  I  I133  1  0.67054837  0.83856673  0.49623225  1
  I  I134  1  0.66367576  0.83327238  0.83397243  1
