# generated using pymatgen
data_Cs27Sn14Pb13I81
_symmetry_space_group_name_H-M   'P 1'
_cell_length_a   18.97192760
_cell_length_b   18.97108873
_cell_length_c   18.98480104
_cell_angle_alpha   90.00018789
_cell_angle_beta   89.99917719
_cell_angle_gamma   90.00052612
_symmetry_Int_Tables_number   1
_chemical_formula_structural   Cs27Sn14Pb13I81
_chemical_formula_sum   'Cs27 Sn14 Pb13 I81'
_cell_volume   6832.97393124
_cell_formula_units_Z   1
loop_
 _symmetry_equiv_pos_site_id
 _symmetry_equiv_pos_as_xyz
  1  'x, y, z'
loop_
 _atom_site_type_symbol
 _atom_site_label
 _atom_site_symmetry_multiplicity
 _atom_site_fract_x
 _atom_site_fract_y
 _atom_site_fract_z
 _atom_site_occupancy
  Cs  Cs0  1  -0.00739024  -0.00095570  -0.00739504  1
  Cs  Cs1  1  -0.00676047  0.00339354  0.33576930  1
  Cs  Cs2  1  -0.00314801  0.00784099  0.67189436  1
  Cs  Cs3  1  -0.00198771  0.33892802  0.00107439  1
  Cs  Cs4  1  0.00184158  0.33312885  0.33501987  1
  Cs  Cs5  1  0.00194360  0.33042587  0.66405374  1
  Cs  Cs6  1  0.00118040  0.66411265  -0.00356715  1
  Cs  Cs7  1  0.00237777  0.66525250  0.33398685  1
  Cs  Cs8  1  -0.00012427  0.66712989  0.66801374  1
  Cs  Cs9  1  0.33382835  -0.00226858  0.00057843  1
  Cs  Cs10  1  0.33454579  -0.00097501  0.33309483  1
  Cs  Cs11  1  0.32996872  0.00014927  0.66688237  1
  Cs  Cs12  1  0.33459425  0.33088986  0.00285403  1
  Cs  Cs13  1  0.33263049  0.33101652  0.33153847  1
  Cs  Cs14  1  0.33556412  0.33042229  0.66852343  1
  Cs  Cs15  1  0.33139894  0.66955605  0.00287486  1
  Cs  Cs16  1  0.33248818  0.66866606  0.33331780  1
  Cs  Cs17  1  0.33445236  0.66752641  0.66451041  1
  Cs  Cs18  1  0.67080381  0.00244149  0.00140919  1
  Cs  Cs19  1  0.66795428  -0.00132197  0.33201442  1
  Cs  Cs20  1  0.67245655  0.00062665  0.66606006  1
  Cs  Cs21  1  0.66617441  0.33198685  -0.00196439  1
  Cs  Cs22  1  0.66541686  0.33325303  0.33249488  1
  Cs  Cs23  1  0.66227253  0.33752979  0.67289587  1
  Cs  Cs24  1  0.66635616  0.66665339  0.00111966  1
  Cs  Cs25  1  0.66550336  0.66770861  0.33469019  1
  Cs  Cs26  1  0.66548960  0.66353098  0.66425770  1
  Sn  Sn27  1  0.83419390  0.50021024  0.49992718  1
  Sn  Sn28  1  0.83417746  0.50046605  0.83296318  1
  Sn  Sn29  1  0.50005318  0.83340901  0.83315986  1
  Sn  Sn30  1  0.50068069  0.50017015  0.16685678  1
  Sn  Sn31  1  0.49915277  0.16605013  0.16759939  1
  Sn  Sn32  1  0.16680930  0.16450235  0.16653076  1
  Sn  Sn33  1  0.16671674  0.83327418  0.49934779  1
  Sn  Sn34  1  0.49995680  0.16553937  0.49934432  1
  Sn  Sn35  1  0.16634345  0.50053089  0.50107190  1
  Sn  Sn36  1  0.49948487  0.83366632  0.16668879  1
  Sn  Sn37  1  0.49921707  0.83450071  0.50005967  1
  Sn  Sn38  1  0.16663870  0.83510195  0.16750099  1
  Sn  Sn39  1  0.16681206  0.50006096  0.83192620  1
  Sn  Sn40  1  0.83224209  0.50046343  0.16712860  1
  Pb  Pb41  1  0.83327912  0.16974291  0.83324848  1
  Pb  Pb42  1  0.83399394  0.83152641  0.49997883  1
  Pb  Pb43  1  0.49926521  0.50003099  0.49804956  1
  Pb  Pb44  1  0.16693224  0.16937716  0.83675659  1
  Pb  Pb45  1  0.16684781  0.50038144  0.16713532  1
  Pb  Pb46  1  0.83065736  0.83086089  0.83315742  1
  Pb  Pb47  1  0.83407151  0.83104845  0.16683093  1
  Pb  Pb48  1  0.49981076  0.16352456  0.83361220  1
  Pb  Pb49  1  0.49934481  0.50187256  0.83609714  1
  Pb  Pb50  1  0.82985008  0.16987716  0.49987443  1
  Pb  Pb51  1  0.16845085  0.16612585  0.49816299  1
  Pb  Pb52  1  0.83333541  0.16914878  0.16679733  1
  Pb  Pb53  1  0.16809630  0.83178209  0.83306039  1
  I  I54  1  0.17809661  -0.00124717  0.17248454  1
  I  I55  1  0.17166768  -0.00327316  0.49671102  1
  I  I56  1  0.16869513  -0.00013722  0.83109993  1
  I  I57  1  0.17064855  0.33183787  0.16614013  1
  I  I58  1  0.16390797  0.33608408  0.50115280  1
  I  I59  1  0.16320460  0.33788039  0.82870813  1
  I  I60  1  0.17082513  0.66897989  0.16743857  1
  I  I61  1  0.16948055  0.66664302  0.49683962  1
  I  I62  1  0.16338365  0.66349024  0.83564828  1
  I  I63  1  0.49438835  -0.00070098  0.16726811  1
  I  I64  1  0.49406775  -0.00149015  0.49495330  1
  I  I65  1  0.49756575  -0.00429479  0.83828877  1
  I  I66  1  0.49926224  0.33304201  0.17134616  1
  I  I67  1  0.50069054  0.33151158  0.49385825  1
  I  I68  1  0.50153714  0.33355634  0.83349746  1
  I  I69  1  0.49981163  0.66755115  0.16690670  1
  I  I70  1  0.49976021  0.66935859  0.49840456  1
  I  I71  1  0.50032986  0.66952933  0.83283684  1
  I  I72  1  0.83076529  0.00001634  0.16643951  1
  I  I73  1  0.83509144  0.00017251  0.49982479  1
  I  I74  1  0.83252114  -0.00018322  0.83396742  1
  I  I75  1  0.82964540  0.33769875  0.16596869  1
  I  I76  1  0.83913773  0.33825730  0.49859369  1
  I  I77  1  0.83467745  0.33844152  0.83473683  1
  I  I78  1  0.82858332  0.66258574  0.16667731  1
  I  I79  1  0.83101620  0.66283680  0.49939920  1
  I  I80  1  0.83711527  0.66244417  0.83450972  1
  I  I81  1  0.17526789  0.16349532  0.00487533  1
  I  I82  1  0.17009599  0.17024124  0.33014497  1
  I  I83  1  0.16834676  0.16567472  0.66656375  1
  I  I84  1  0.16375723  0.49992819  -0.00134275  1
  I  I85  1  0.16401554  0.50118279  0.33563718  1
  I  I86  1  0.15931309  0.50585461  0.66545252  1
  I  I87  1  0.17253727  0.83357262  0.00302142  1
  I  I88  1  0.17620356  0.82796644  0.33329049  1
  I  I89  1  0.17306732  0.82799590  0.66351438  1
  I  I90  1  0.49675158  0.16796783  0.00369981  1
  I  I91  1  0.49662316  0.16381964  0.33193967  1
  I  I92  1  0.50039407  0.16455443  0.66365921  1
  I  I93  1  0.50291328  0.49976439  0.00423411  1
  I  I94  1  0.50322532  0.50362858  0.32998707  1
  I  I95  1  0.50305259  0.50002082  0.66657877  1
  I  I96  1  0.49590502  0.83079880  0.00188839  1
  I  I97  1  0.49625515  0.83273083  0.33283690  1
  I  I98  1  0.49588893  0.83561658  0.66515345  1
  I  I99  1  0.83082771  0.16964002  0.00031995  1
  I  I100  1  0.83470380  0.17114390  0.33327436  1
  I  I101  1  0.83163236  0.16826987  0.66635927  1
  I  I102  1  0.83399991  0.50009814  0.00014817  1
  I  I103  1  0.83329039  0.50035441  0.33332890  1
  I  I104  1  0.83749737  0.50094904  0.66645027  1
  I  I105  1  0.83311394  0.82927021  0.00012673  1
  I  I106  1  0.82857124  0.82859788  0.33336050  1
  I  I107  1  0.83104459  0.82897318  0.66650582  1
  I  I108  1  0.00305159  0.16510891  0.16697814  1
  I  I109  1  0.00001603  0.16536044  0.49800113  1
  I  I110  1  0.00025024  0.16339242  0.83487411  1
  I  I111  1  -0.00200984  0.49979880  0.16596609  1
  I  I112  1  0.00078526  0.50557056  0.49763965  1
  I  I113  1  -0.00019480  0.50127535  0.83722096  1
  I  I114  1  0.00381971  0.83498042  0.17226759  1
  I  I115  1  0.00377585  0.82838549  0.49327647  1
  I  I116  1  0.00010775  0.83275034  0.83468051  1
  I  I117  1  0.33479824  0.17034004  0.17006125  1
  I  I118  1  0.33657395  0.16901280  0.49675008  1
  I  I119  1  0.33352415  0.17281968  0.83208139  1
  I  I120  1  0.33588270  0.50024236  0.16669988  1
  I  I121  1  0.33052265  0.50168512  0.50266549  1
  I  I122  1  0.33074030  0.50168543  0.82973472  1
  I  I123  1  0.33462306  0.83000353  0.16709405  1
  I  I124  1  0.33402690  0.82908887  0.49837129  1
  I  I125  1  0.33618053  0.82873191  0.83477513  1
  I  I126  1  0.66303307  0.16460342  0.16986185  1
  I  I127  1  0.66187653  0.16101848  0.49212007  1
  I  I128  1  0.66621458  0.16953645  0.83538637  1
  I  I129  1  0.66593764  0.50032886  0.16676109  1
  I  I130  1  0.66852690  0.49964117  0.50172913  1
  I  I131  1  0.66900637  0.50175308  0.83089463  1
  I  I132  1  0.66310253  0.83473562  0.16750675  1
  I  I133  1  0.66310372  0.83478538  0.49814081  1
  I  I134  1  0.66230689  0.83077047  0.83488312  1
