# generated using pymatgen
data_Cs27Sn13Pb14I81
_symmetry_space_group_name_H-M   'P 1'
_cell_length_a   18.97384060
_cell_length_b   18.97995053
_cell_length_c   18.97633266
_cell_angle_alpha   89.99976689
_cell_angle_beta   89.99885237
_cell_angle_gamma   89.99928104
_symmetry_Int_Tables_number   1
_chemical_formula_structural   Cs27Sn13Pb14I81
_chemical_formula_sum   'Cs27 Sn13 Pb14 I81'
_cell_volume   6833.80541973
_cell_formula_units_Z   1
loop_
 _symmetry_equiv_pos_site_id
 _symmetry_equiv_pos_as_xyz
  1  'x, y, z'
loop_
 _atom_site_type_symbol
 _atom_site_label
 _atom_site_symmetry_multiplicity
 _atom_site_fract_x
 _atom_site_fract_y
 _atom_site_fract_z
 _atom_site_occupancy
  Cs  Cs0  1  0.00260584  0.00024749  -0.00170389  1
  Cs  Cs1  1  -0.00058767  0.00326631  0.33161863  1
  Cs  Cs2  1  -0.00193317  0.00019780  0.67007427  1
  Cs  Cs3  1  0.00170035  0.33111042  0.00023743  1
  Cs  Cs4  1  0.00032735  0.33260432  0.33328816  1
  Cs  Cs5  1  -0.00181505  0.33304156  0.66544280  1
  Cs  Cs6  1  0.00401927  0.66828700  0.00841703  1
  Cs  Cs7  1  0.00468471  0.66542201  0.32761342  1
  Cs  Cs8  1  0.00044438  0.66655510  0.66518456  1
  Cs  Cs9  1  0.33098856  -0.00122526  0.00000932  1
  Cs  Cs10  1  0.33538598  0.00128322  0.33573199  1
  Cs  Cs11  1  0.33435140  -0.00215443  0.66436569  1
  Cs  Cs12  1  0.33537298  0.33563177  -0.00639932  1
  Cs  Cs13  1  0.33282052  0.33128444  0.33260115  1
  Cs  Cs14  1  0.33568072  0.33595901  0.67587111  1
  Cs  Cs15  1  0.33115606  0.66559373  -0.00313472  1
  Cs  Cs16  1  0.32872742  0.66695343  0.33686023  1
  Cs  Cs17  1  0.32428945  0.66639311  0.66602066  1
  Cs  Cs18  1  0.66763257  -0.00251518  0.00012516  1
  Cs  Cs19  1  0.66540662  0.00008702  0.33433965  1
  Cs  Cs20  1  0.66649319  -0.00089844  0.66563555  1
  Cs  Cs21  1  0.66533517  0.33421450  -0.00190265  1
  Cs  Cs22  1  0.66702532  0.33415291  0.33342381  1
  Cs  Cs23  1  0.66681647  0.33476025  0.66783418  1
  Cs  Cs24  1  0.66674741  0.66798615  0.00007230  1
  Cs  Cs25  1  0.66776918  0.66509175  0.33248550  1
  Cs  Cs26  1  0.66790148  0.66666514  0.66739518  1
  Sn  Sn27  1  0.83258970  0.83193774  0.83284872  1
  Sn  Sn28  1  0.50006428  0.16672912  0.16675917  1
  Sn  Sn29  1  0.16627367  0.16703167  0.49990154  1
  Sn  Sn30  1  0.50029622  0.50009977  0.16763007  1
  Sn  Sn31  1  0.83319057  0.50121615  0.83312203  1
  Sn  Sn32  1  0.83303355  0.16666217  0.16723750  1
  Sn  Sn33  1  0.16698811  0.16680078  0.16746173  1
  Sn  Sn34  1  0.50068300  0.83317215  0.83357434  1
  Sn  Sn35  1  0.83370844  0.16665462  0.49916818  1
  Sn  Sn36  1  0.83270965  0.50040076  0.50029806  1
  Sn  Sn37  1  0.83310394  0.83297937  0.50007805  1
  Sn  Sn38  1  0.50033223  0.83313815  0.16624754  1
  Sn  Sn39  1  0.50046719  0.50004601  0.49947911  1
  Pb  Pb40  1  0.16599992  0.83331769  0.83322514  1
  Pb  Pb41  1  0.17009924  0.49731638  0.16675276  1
  Pb  Pb42  1  0.50020176  0.16375400  0.83599651  1
  Pb  Pb43  1  0.16318670  0.83614184  0.49986813  1
  Pb  Pb44  1  0.17005838  0.83584142  0.16693352  1
  Pb  Pb45  1  0.50177925  0.50259905  0.83310077  1
  Pb  Pb46  1  0.16258595  0.50012514  0.83326475  1
  Pb  Pb47  1  0.16670767  0.16664290  0.83274597  1
  Pb  Pb48  1  0.83178423  0.83543876  0.16669604  1
  Pb  Pb49  1  0.83314498  0.16641891  0.83290751  1
  Pb  Pb50  1  0.83178722  0.49783360  0.16669728  1
  Pb  Pb51  1  0.50023496  0.16885753  0.49862247  1
  Pb  Pb52  1  0.50175311  0.83074145  0.49993906  1
  Pb  Pb53  1  0.16625372  0.49733125  0.50002978  1
  I  I54  1  0.16732109  0.00421328  0.17036276  1
  I  I55  1  0.16326401  0.00424758  0.49498504  1
  I  I56  1  0.16426440  0.00002492  0.83425436  1
  I  I57  1  0.16644783  0.32900420  0.17155393  1
  I  I58  1  0.16004267  0.32947400  0.49383854  1
  I  I59  1  0.16655930  0.33328104  0.83420770  1
  I  I60  1  0.16654670  0.66661974  0.16573407  1
  I  I61  1  0.16688729  0.66653311  0.50104175  1
  I  I62  1  0.16982160  0.66675745  0.83304467  1
  I  I63  1  0.50037978  0.00051858  0.16207545  1
  I  I64  1  0.50088350  -0.00008695  0.49913271  1
  I  I65  1  0.50723670  -0.00418133  0.83733975  1
  I  I66  1  0.50054635  0.33299124  0.17241546  1
  I  I67  1  0.50603801  0.33665577  0.49424962  1
  I  I68  1  0.50097421  0.33382577  0.83440799  1
  I  I69  1  0.50355801  0.66660669  0.16617083  1
  I  I70  1  0.50684926  0.66304992  0.49394135  1
  I  I71  1  0.50404333  0.67005266  0.84019573  1
  I  I72  1  0.83062934  0.00362692  0.17043054  1
  I  I73  1  0.83703670  0.00046151  0.50015222  1
  I  I74  1  0.82967224  -0.00307032  0.83052225  1
  I  I75  1  0.83109542  0.32962699  0.17032209  1
  I  I76  1  0.83339401  0.33327156  0.50001096  1
  I  I77  1  0.83286972  0.33585092  0.83022702  1
  I  I78  1  0.83065116  0.66664456  0.16877710  1
  I  I79  1  0.82647053  0.66625595  0.50587554  1
  I  I80  1  0.82777436  0.66714744  0.82437402  1
  I  I81  1  0.16575201  0.16617232  0.00359382  1
  I  I82  1  0.16497966  0.16659125  0.33270560  1
  I  I83  1  0.15898679  0.16670081  0.66308283  1
  I  I84  1  0.16691914  0.49662210  0.00017786  1
  I  I85  1  0.16247822  0.50141358  0.33334055  1
  I  I86  1  0.17292876  0.49615638  0.66642626  1
  I  I87  1  0.16194269  0.83699728  0.00021101  1
  I  I88  1  0.16687907  0.83198187  0.33337213  1
  I  I89  1  0.17244321  0.83703717  0.66647223  1
  I  I90  1  0.50074477  0.17250831  0.00498715  1
  I  I91  1  0.50077303  0.16197830  0.32992442  1
  I  I92  1  0.49990681  0.16710990  0.66653692  1
  I  I93  1  0.50144385  0.49673115  0.00272869  1
  I  I94  1  0.50704160  0.50062862  0.33291784  1
  I  I95  1  0.50328356  0.49960348  0.66403421  1
  I  I96  1  0.50688157  0.83347335  0.00065900  1
  I  I97  1  0.50192402  0.83633792  0.33054347  1
  I  I98  1  0.50367930  0.83249926  0.66901631  1
  I  I99  1  0.83316047  0.16675864  0.00303871  1
  I  I100  1  0.83351071  0.16641397  0.33402182  1
  I  I101  1  0.83839058  0.16680607  0.66313466  1
  I  I102  1  0.83076991  0.50274683  -0.00230051  1
  I  I103  1  0.83036613  0.50127205  0.33639939  1
  I  I104  1  0.82731916  0.49758224  0.66509244  1
  I  I105  1  0.83011979  0.83072546  -0.00259602  1
  I  I106  1  0.83104383  0.83234732  0.33610466  1
  I  I107  1  0.82729572  0.83568800  0.66644888  1
  I  I108  1  -0.00067388  0.16661561  0.17097557  1
  I  I109  1  -0.00191773  0.16790690  0.49174907  1
  I  I110  1  -0.00039335  0.16498195  0.83899317  1
  I  I111  1  -0.00008905  0.49844669  0.16616709  1
  I  I112  1  -0.00388960  0.50073446  0.50492795  1
  I  I113  1  -0.00561373  0.50451539  0.82632630  1
  I  I114  1  -0.00011717  0.83515804  0.16581268  1
  I  I115  1  -0.00535963  0.82900604  0.50605913  1
  I  I116  1  -0.00412115  0.83114738  0.82815674  1
  I  I117  1  0.33383293  0.16585544  0.17144461  1
  I  I118  1  0.33117550  0.16768725  0.49431836  1
  I  I119  1  0.33355807  0.16566657  0.83250607  1
  I  I120  1  0.33851669  0.49883930  0.17236329  1
  I  I121  1  0.33626877  0.49902299  0.49463927  1
  I  I122  1  0.33366230  0.50031590  0.83306059  1
  I  I123  1  0.33846295  0.83493774  0.16071337  1
  I  I124  1  0.33349942  0.83366185  0.50059528  1
  I  I125  1  0.33647258  0.83476632  0.83919474  1
  I  I126  1  0.66648358  0.16636917  0.17064485  1
  I  I127  1  0.67001607  0.16534531  0.49570180  1
  I  I128  1  0.66685033  0.16809814  0.83406917  1
  I  I129  1  0.66357231  0.49669639  0.16799827  1
  I  I130  1  0.66810955  0.49694785  0.49940235  1
  I  I131  1  0.66973162  0.50106710  0.83155899  1
  I  I132  1  0.66361151  0.83688427  0.16564219  1
  I  I133  1  0.67007595  0.83916835  0.50088758  1
  I  I134  1  0.66768917  0.83064730  0.83428081  1
