# generated using pymatgen
data_Cs27Sn13Pb14I81
_symmetry_space_group_name_H-M   'P 1'
_cell_length_a   18.97409142
_cell_length_b   18.98181380
_cell_length_c   18.97610488
_cell_angle_alpha   89.99877031
_cell_angle_beta   89.99977591
_cell_angle_gamma   90.00023851
_symmetry_Int_Tables_number   1
_chemical_formula_structural   Cs27Sn13Pb14I81
_chemical_formula_sum   'Cs27 Sn13 Pb14 I81'
_cell_volume   6834.48460521
_cell_formula_units_Z   1
loop_
 _symmetry_equiv_pos_site_id
 _symmetry_equiv_pos_as_xyz
  1  'x, y, z'
loop_
 _atom_site_type_symbol
 _atom_site_label
 _atom_site_symmetry_multiplicity
 _atom_site_fract_x
 _atom_site_fract_y
 _atom_site_fract_z
 _atom_site_occupancy
  Cs  Cs0  1  -0.00279364  0.00078223  -0.00025435  1
  Cs  Cs1  1  0.00078389  -0.00058604  0.33463084  1
  Cs  Cs2  1  -0.00142657  -0.00124861  0.66604117  1
  Cs  Cs3  1  -0.00419775  0.33204758  0.00017942  1
  Cs  Cs4  1  0.00244697  0.33168473  0.33273084  1
  Cs  Cs5  1  0.00262913  0.33284694  0.66831270  1
  Cs  Cs6  1  0.00033992  0.66712949  -0.00157803  1
  Cs  Cs7  1  0.00075756  0.66897406  0.33368354  1
  Cs  Cs8  1  -0.00366415  0.66819240  0.66740049  1
  Cs  Cs9  1  0.33704321  -0.00184033  -0.00089161  1
  Cs  Cs10  1  0.33239523  -0.00213381  0.33408379  1
  Cs  Cs11  1  0.33379517  -0.00003022  0.66631249  1
  Cs  Cs12  1  0.33347559  0.33182272  -0.00433041  1
  Cs  Cs13  1  0.33152975  0.33502404  0.33544364  1
  Cs  Cs14  1  0.33242422  0.33362571  0.66671982  1
  Cs  Cs15  1  0.33238900  0.66912011  -0.00198054  1
  Cs  Cs16  1  0.33336382  0.66751739  0.33110384  1
  Cs  Cs17  1  0.33341170  0.66706058  0.66837915  1
  Cs  Cs18  1  0.66738601  0.00896355  0.00342611  1
  Cs  Cs19  1  0.66687571  0.00097343  0.33306544  1
  Cs  Cs20  1  0.66555765  -0.00317920  0.66645075  1
  Cs  Cs21  1  0.67435931  0.32529774  0.00853584  1
  Cs  Cs22  1  0.66722702  0.34013568  0.32734213  1
  Cs  Cs23  1  0.66644266  0.33706648  0.66638826  1
  Cs  Cs24  1  0.66812860  0.66420962  -0.00029980  1
  Cs  Cs25  1  0.66692759  0.65772818  0.33242141  1
  Cs  Cs26  1  0.67093363  0.66733915  0.66640307  1
  Sn  Sn27  1  0.49936452  0.83251267  0.83259652  1
  Sn  Sn28  1  0.49944711  0.50041047  0.83367953  1
  Sn  Sn29  1  0.16738077  0.83320705  0.50092692  1
  Sn  Sn30  1  0.50014178  0.16644765  0.50000582  1
  Sn  Sn31  1  0.16728632  0.50093027  0.83338449  1
  Sn  Sn32  1  0.16728319  0.16699142  0.16706922  1
  Sn  Sn33  1  0.83296414  0.16692079  0.50025414  1
  Sn  Sn34  1  0.16686616  0.50051050  0.50017342  1
  Sn  Sn35  1  0.16733045  0.83280686  0.83237618  1
  Sn  Sn36  1  0.83311014  0.83307415  0.16699377  1
  Sn  Sn37  1  0.16689341  0.16642975  0.49938139  1
  Sn  Sn38  1  0.49926468  0.83350335  0.50041798  1
  Sn  Sn39  1  0.16702834  0.49927842  0.16619220  1
  Pb  Pb40  1  0.83595529  0.16493203  0.16930868  1
  Pb  Pb41  1  0.49796920  0.50051552  0.50169029  1
  Pb  Pb42  1  0.16580701  0.83349566  0.16636845  1
  Pb  Pb43  1  0.16658767  0.16628545  0.83315717  1
  Pb  Pb44  1  0.49705236  0.16671317  0.16980242  1
  Pb  Pb45  1  0.50003352  0.16671774  0.83109877  1
  Pb  Pb46  1  0.83317461  0.16652464  0.83034705  1
  Pb  Pb47  1  0.83626796  0.49722848  0.50003620  1
  Pb  Pb48  1  0.83263615  0.83345747  0.83538552  1
  Pb  Pb49  1  0.49721732  0.50001131  0.16312986  1
  Pb  Pb50  1  0.83321354  0.49997092  0.83332296  1
  Pb  Pb51  1  0.83629067  0.50218144  0.16667359  1
  Pb  Pb52  1  0.50259390  0.83319012  0.16665754  1
  Pb  Pb53  1  0.83282014  0.83471911  0.49845730  1
  I  I54  1  0.16411341  0.00219695  0.17172412  1
  I  I55  1  0.16677994  0.00003626  0.49914531  1
  I  I56  1  0.17048697  -0.00340708  0.83036776  1
  I  I57  1  0.16659398  0.33355516  0.17131236  1
  I  I58  1  0.16625251  0.33298684  0.49936672  1
  I  I59  1  0.17066600  0.33643138  0.83047315  1
  I  I60  1  0.16442094  0.66418721  0.16926085  1
  I  I61  1  0.17107654  0.66726928  0.49945999  1
  I  I62  1  0.16994302  0.66679615  0.83115527  1
  I  I63  1  0.49754167  -0.00007831  0.16211250  1
  I  I64  1  0.49465408  -0.00062468  0.50520553  1
  I  I65  1  0.49447517  -0.00343055  0.83089325  1
  I  I66  1  0.50219811  0.33336458  0.16675968  1
  I  I67  1  0.49770483  0.33089285  0.50182605  1
  I  I68  1  0.49257112  0.33635680  0.83051186  1
  I  I69  1  0.49840957  0.66665611  0.17259467  1
  I  I70  1  0.49480898  0.66989012  0.50152928  1
  I  I71  1  0.49386842  0.66770164  0.82738312  1
  I  I72  1  0.83704875  -0.00239882  0.16663710  1
  I  I73  1  0.83961669  0.00259481  0.49834662  1
  I  I74  1  0.83540320  -0.00033279  0.83480745  1
  I  I75  1  0.83277755  0.33317864  0.16699857  1
  I  I76  1  0.83303302  0.32906690  0.49933964  1
  I  I77  1  0.83471389  0.33340176  0.83368285  1
  I  I78  1  0.83596581  0.66959132  0.16822790  1
  I  I79  1  0.83414413  0.66665667  0.49882352  1
  I  I80  1  0.83513136  0.66683637  0.83275275  1
  I  I81  1  0.16531891  0.16949514  0.00266834  1
  I  I82  1  0.16636571  0.16939391  0.33531661  1
  I  I83  1  0.16679896  0.16890043  0.66292894  1
  I  I84  1  0.17027035  0.50096743  -0.00070420  1
  I  I85  1  0.16514429  0.49893614  0.33414134  1
  I  I86  1  0.17016379  0.49911528  0.66654018  1
  I  I87  1  0.16901737  0.83030031  -0.00290596  1
  I  I88  1  0.16878768  0.83196667  0.33640417  1
  I  I89  1  0.16895886  0.83150957  0.66574298  1
  I  I90  1  0.49879681  0.16541719  0.00003827  1
  I  I91  1  0.50056260  0.15962018  0.33823524  1
  I  I92  1  0.49481698  0.16498974  0.66260819  1
  I  I93  1  0.49276434  0.50838751  -0.00485354  1
  I  I94  1  0.49899688  0.50024326  0.33343382  1
  I  I95  1  0.49223419  0.50020036  0.66950543  1
  I  I96  1  0.49429277  0.82855440  -0.00358093  1
  I  I97  1  0.49474773  0.83880140  0.33695238  1
  I  I98  1  0.49542725  0.83455461  0.66607565  1
  I  I99  1  0.83494614  0.16565229  0.00066659  1
  I  I100  1  0.83339823  0.16450094  0.33698901  1
  I  I101  1  0.83917940  0.16461763  0.66194934  1
  I  I102  1  0.83605011  0.50042047  0.00006382  1
  I  I103  1  0.83391089  0.50110521  0.33341930  1
  I  I104  1  0.83685930  0.49974915  0.66650808  1
  I  I105  1  0.83718100  0.83338206  0.00283033  1
  I  I106  1  0.83712983  0.83545649  0.33113228  1
  I  I107  1  0.83454155  0.83520485  0.66651074  1
  I  I108  1  0.00386045  0.16988429  0.17285339  1
  I  I109  1  0.00203766  0.16666828  0.49588373  1
  I  I110  1  0.00054155  0.16635987  0.83107702  1
  I  I111  1  0.00482302  0.49592226  0.16486489  1
  I  I112  1  0.00537082  0.50134855  0.50247126  1
  I  I113  1  0.00424124  0.50401939  0.83283852  1
  I  I114  1  -0.00147808  0.83375044  0.16785453  1
  I  I115  1  0.00345260  0.83412352  0.50235077  1
  I  I116  1  0.00331610  0.82941897  0.82976594  1
  I  I117  1  0.32893277  0.16855285  0.17250909  1
  I  I118  1  0.33200986  0.16555432  0.49657189  1
  I  I119  1  0.33308947  0.16687612  0.83196187  1
  I  I120  1  0.32871986  0.49828114  0.17071678  1
  I  I121  1  0.32924440  0.49521232  0.49827952  1
  I  I122  1  0.33146797  0.50431909  0.83294903  1
  I  I123  1  0.33323128  0.83361420  0.16699799  1
  I  I124  1  0.33195511  0.83832865  0.50279033  1
  I  I125  1  0.33232191  0.82938718  0.82983568  1
  I  I126  1  0.66684791  0.16516138  0.16711897  1
  I  I127  1  0.66583024  0.15869996  0.50347851  1
  I  I128  1  0.66632714  0.16609611  0.83199518  1
  I  I129  1  0.66666828  0.50095816  0.16598352  1
  I  I130  1  0.66641102  0.49991333  0.50218333  1
  I  I131  1  0.66311388  0.50644652  0.82961534  1
  I  I132  1  0.66998787  0.83505086  0.16736568  1
  I  I133  1  0.66326975  0.83919745  0.50388418  1
  I  I134  1  0.66282269  0.82854661  0.82788133  1
