# generated using pymatgen
data_Cs27Sn13Pb14I81
_symmetry_space_group_name_H-M   'P 1'
_cell_length_a   18.97613403
_cell_length_b   18.97973212
_cell_length_c   18.97664577
_cell_angle_alpha   89.99953119
_cell_angle_beta   90.00028783
_cell_angle_gamma   90.00019845
_symmetry_Int_Tables_number   1
_chemical_formula_structural   Cs27Sn13Pb14I81
_chemical_formula_sum   'Cs27 Sn13 Pb14 I81'
_cell_volume   6834.66556278
_cell_formula_units_Z   1
loop_
 _symmetry_equiv_pos_site_id
 _symmetry_equiv_pos_as_xyz
  1  'x, y, z'
loop_
 _atom_site_type_symbol
 _atom_site_label
 _atom_site_symmetry_multiplicity
 _atom_site_fract_x
 _atom_site_fract_y
 _atom_site_fract_z
 _atom_site_occupancy
  Cs  Cs0  1  -0.00006598  0.00013032  -0.00254818  1
  Cs  Cs1  1  0.00069359  -0.00125862  0.33293513  1
  Cs  Cs2  1  -0.00162830  -0.00157430  0.66909284  1
  Cs  Cs3  1  -0.00168169  0.33922132  -0.00045249  1
  Cs  Cs4  1  0.00380020  0.33558439  0.33443652  1
  Cs  Cs5  1  0.00014359  0.33529802  0.66738497  1
  Cs  Cs6  1  0.00072959  0.66128665  0.00107263  1
  Cs  Cs7  1  0.00088552  0.66723778  0.33143435  1
  Cs  Cs8  1  0.00035213  0.66930974  0.66694747  1
  Cs  Cs9  1  0.33277983  -0.00081848  0.00030075  1
  Cs  Cs10  1  0.32942748  0.00389401  0.33254134  1
  Cs  Cs11  1  0.33346298  -0.00018042  0.66764509  1
  Cs  Cs12  1  0.33394030  0.33216855  -0.00027461  1
  Cs  Cs13  1  0.32798211  0.33247886  0.34251602  1
  Cs  Cs14  1  0.33196613  0.33964913  0.65716170  1
  Cs  Cs15  1  0.33435126  0.66639484  -0.00098238  1
  Cs  Cs16  1  0.33025823  0.66349874  0.33172320  1
  Cs  Cs17  1  0.33956356  0.66103814  0.66666472  1
  Cs  Cs18  1  0.66679548  0.00162669  0.00021570  1
  Cs  Cs19  1  0.66769015  -0.00058475  0.33361380  1
  Cs  Cs20  1  0.66774431  -0.00161027  0.66572656  1
  Cs  Cs21  1  0.66835121  0.33134505  0.00152659  1
  Cs  Cs22  1  0.66709064  0.33271107  0.33125092  1
  Cs  Cs23  1  0.66702755  0.33343666  0.66590247  1
  Cs  Cs24  1  0.66510460  0.66432671  0.00062855  1
  Cs  Cs25  1  0.66768644  0.66938179  0.33313086  1
  Cs  Cs26  1  0.65866155  0.66850624  0.66526263  1
  Sn  Sn27  1  0.16688569  0.83372180  0.50126220  1
  Sn  Sn28  1  0.83316245  0.16592650  0.16673869  1
  Sn  Sn29  1  0.83337076  0.16750212  0.49986860  1
  Sn  Sn30  1  0.16668127  0.16628693  0.83338048  1
  Sn  Sn31  1  0.83297899  0.49967337  0.50010082  1
  Sn  Sn32  1  0.83270178  0.83420678  0.16534396  1
  Sn  Sn33  1  0.83367816  0.83371102  0.83435862  1
  Sn  Sn34  1  0.49991152  0.16663382  0.83350674  1
  Sn  Sn35  1  0.50072657  0.83382700  0.16653328  1
  Sn  Sn36  1  0.50043654  0.16665615  0.16613173  1
  Sn  Sn37  1  0.83340936  0.16601370  0.83345606  1
  Sn  Sn38  1  0.16611627  0.83393485  0.83231564  1
  Sn  Sn39  1  0.50004565  0.49921353  0.16669373  1
  Pb  Pb40  1  0.16616333  0.16674991  0.16430289  1
  Pb  Pb41  1  0.83197628  0.49999799  0.16837358  1
  Pb  Pb42  1  0.83435113  0.83364511  0.50008182  1
  Pb  Pb43  1  0.16367275  0.16468543  0.50290152  1
  Pb  Pb44  1  0.16619185  0.83350577  0.16556865  1
  Pb  Pb45  1  0.16987054  0.49962150  0.16658690  1
  Pb  Pb46  1  0.49686765  0.83367283  0.49691066  1
  Pb  Pb47  1  0.50256905  0.49995076  0.49731183  1
  Pb  Pb48  1  0.50214367  0.16637210  0.49983437  1
  Pb  Pb49  1  0.16667732  0.50030787  0.83330357  1
  Pb  Pb50  1  0.16400417  0.50292441  0.50028662  1
  Pb  Pb51  1  0.50026899  0.49648636  0.83546655  1
  Pb  Pb52  1  0.83302344  0.50056103  0.83123501  1
  Pb  Pb53  1  0.50014893  0.83528922  0.83519744  1
  I  I54  1  0.17142301  -0.00002273  0.16976933  1
  I  I55  1  0.16385983  -0.00288265  0.50051933  1
  I  I56  1  0.16473764  0.00000002  0.83020086  1
  I  I57  1  0.16514677  0.33289842  0.16459207  1
  I  I58  1  0.16789691  0.33314682  0.50054053  1
  I  I59  1  0.16473900  0.32964822  0.83591893  1
  I  I60  1  0.16581575  0.66702114  0.16557934  1
  I  I61  1  0.16359743  0.67057857  0.50548039  1
  I  I62  1  0.16082017  0.67065450  0.83089847  1
  I  I63  1  0.50467143  0.00076707  0.16267250  1
  I  I64  1  0.50324031  0.00006590  0.49730079  1
  I  I65  1  0.50080106  0.00342487  0.83964556  1
  I  I66  1  0.50576157  0.33163587  0.16130007  1
  I  I67  1  0.49787369  0.33304479  0.49848366  1
  I  I68  1  0.50204020  0.32807362  0.83957999  1
  I  I69  1  0.50433364  0.66756343  0.16805501  1
  I  I70  1  0.50324590  0.66683042  0.49888241  1
  I  I71  1  0.49979583  0.66686727  0.83519762  1
  I  I72  1  0.82601396  0.00057029  0.16794554  1
  I  I73  1  0.83441427  0.00276327  0.49994939  1
  I  I74  1  0.83408271  0.00106280  0.83239132  1
  I  I75  1  0.82910604  0.32990346  0.16364017  1
  I  I76  1  0.83243669  0.33146984  0.49979980  1
  I  I77  1  0.83403040  0.32949153  0.83651291  1
  I  I78  1  0.82996305  0.66982866  0.16467908  1
  I  I79  1  0.83594008  0.66506398  0.49832103  1
  I  I80  1  0.83925604  0.67049221  0.83705719  1
  I  I81  1  0.16335388  0.15880549  -0.00383404  1
  I  I82  1  0.16735084  0.16540669  0.33366943  1
  I  I83  1  0.16724762  0.16413671  0.67098515  1
  I  I84  1  0.16451563  0.50258113  -0.00010385  1
  I  I85  1  0.16643236  0.50232070  0.33363616  1
  I  I86  1  0.16711672  0.49763053  0.66664225  1
  I  I87  1  0.16562621  0.83843050  -0.00338325  1
  I  I88  1  0.16583348  0.83175855  0.33503534  1
  I  I89  1  0.15832561  0.83828106  0.66833009  1
  I  I90  1  0.50477130  0.16643667  0.00069033  1
  I  I91  1  0.50532993  0.16614439  0.32952764  1
  I  I92  1  0.50166978  0.16503078  0.66989427  1
  I  I93  1  0.50242767  0.50289586  0.00357974  1
  I  I94  1  0.50121816  0.49763406  0.32925183  1
  I  I95  1  0.49967642  0.49947938  0.66651143  1
  I  I96  1  0.49945681  0.83216149  0.00353919  1
  I  I97  1  0.50668207  0.83630849  0.32841914  1
  I  I98  1  0.50321867  0.83463528  0.66695586  1
  I  I99  1  0.83200351  0.16167976  -0.00017471  1
  I  I100  1  0.82732978  0.16567643  0.33207970  1
  I  I101  1  0.83329564  0.16618139  0.66803467  1
  I  I102  1  0.83250365  0.49822207  0.00021270  1
  I  I103  1  0.83169780  0.49630378  0.33602803  1
  I  I104  1  0.83448336  0.49483899  0.66348009  1
  I  I105  1  0.83499614  0.84105925  -0.00004475  1
  I  I106  1  0.83122117  0.83617297  0.33058333  1
  I  I107  1  0.83666717  0.83733646  0.66950229  1
  I  I108  1  -0.00393708  0.16066432  0.16682659  1
  I  I109  1  -0.00444045  0.16962071  0.49778078  1
  I  I110  1  -0.00126463  0.16164201  0.83278042  1
  I  I111  1  -0.00037927  0.50064403  0.16808395  1
  I  I112  1  -0.00354210  0.49421715  0.49801713  1
  I  I113  1  -0.00031181  0.49582656  0.83417768  1
  I  I114  1  -0.00348272  0.83882951  0.16680294  1
  I  I115  1  0.00209776  0.83399978  0.49971970  1
  I  I116  1  -0.00104276  0.84161639  0.83469203  1
  I  I117  1  0.33675969  0.16504214  0.16142817  1
  I  I118  1  0.33293300  0.16588283  0.49904014  1
  I  I119  1  0.33348573  0.16150335  0.84077893  1
  I  I120  1  0.33824914  0.50142936  0.16571620  1
  I  I121  1  0.33327264  0.50072675  0.49842916  1
  I  I122  1  0.33352107  0.50102935  0.83477387  1
  I  I123  1  0.33630023  0.83397049  0.16714503  1
  I  I124  1  0.32919758  0.83386137  0.50616242  1
  I  I125  1  0.33080060  0.83837632  0.83177271  1
  I  I126  1  0.66723724  0.16619455  0.16223896  1
  I  I127  1  0.67065164  0.16828919  0.50380818  1
  I  I128  1  0.66787819  0.16347533  0.83470055  1
  I  I129  1  0.66402125  0.49964972  0.16763606  1
  I  I130  1  0.67024628  0.49678450  0.50064067  1
  I  I131  1  0.66675270  0.50107587  0.83187465  1
  I  I132  1  0.66772638  0.83432752  0.16216732  1
  I  I133  1  0.66686116  0.83263419  0.50184657  1
  I  I134  1  0.66976717  0.83760054  0.83508872  1
