# generated using pymatgen
data_Cs27Sn13Pb14I81
_symmetry_space_group_name_H-M   'P 1'
_cell_length_a   18.97440688
_cell_length_b   18.97443852
_cell_length_c   18.98303936
_cell_angle_alpha   89.99994357
_cell_angle_beta   89.99986224
_cell_angle_gamma   89.99964904
_symmetry_Int_Tables_number   1
_chemical_formula_structural   Cs27Sn13Pb14I81
_chemical_formula_sum   'Cs27 Sn13 Pb14 I81'
_cell_volume   6834.43930387
_cell_formula_units_Z   1
loop_
 _symmetry_equiv_pos_site_id
 _symmetry_equiv_pos_as_xyz
  1  'x, y, z'
loop_
 _atom_site_type_symbol
 _atom_site_label
 _atom_site_symmetry_multiplicity
 _atom_site_fract_x
 _atom_site_fract_y
 _atom_site_fract_z
 _atom_site_occupancy
  Cs  Cs0  1  0.00029967  -0.00490879  -0.00227332  1
  Cs  Cs1  1  -0.00208049  -0.00698091  0.34026386  1
  Cs  Cs2  1  -0.00741163  -0.00628191  0.66220395  1
  Cs  Cs3  1  0.00103437  0.33368265  0.00050665  1
  Cs  Cs4  1  0.00234131  0.33504397  0.33313167  1
  Cs  Cs5  1  0.00016637  0.33311390  0.66641297  1
  Cs  Cs6  1  0.00233050  0.67192543  -0.00056722  1
  Cs  Cs7  1  0.00632406  0.66983322  0.33386215  1
  Cs  Cs8  1  0.00182318  0.67108910  0.66772357  1
  Cs  Cs9  1  0.33248504  0.00061833  0.00065640  1
  Cs  Cs10  1  0.33569581  0.00244851  0.33515286  1
  Cs  Cs11  1  0.33276099  0.00122874  0.66328496  1
  Cs  Cs12  1  0.33187174  0.33278606  -0.00103478  1
  Cs  Cs13  1  0.32993493  0.33300138  0.33351773  1
  Cs  Cs14  1  0.33290384  0.32998740  0.66835396  1
  Cs  Cs15  1  0.33353041  0.66753096  -0.00063049  1
  Cs  Cs16  1  0.33236064  0.66548029  0.33340179  1
  Cs  Cs17  1  0.33432670  0.66771558  0.66729574  1
  Cs  Cs18  1  0.66907219  0.00053396  0.00074918  1
  Cs  Cs19  1  0.66596046  -0.00101287  0.33311007  1
  Cs  Cs20  1  0.67289642  0.00785394  0.66647725  1
  Cs  Cs21  1  0.66702189  0.33458791  -0.00004562  1
  Cs  Cs22  1  0.66776401  0.33542517  0.33100629  1
  Cs  Cs23  1  0.66691235  0.33086099  0.66902372  1
  Cs  Cs24  1  0.66519502  0.66451825  0.00050669  1
  Cs  Cs25  1  0.66586177  0.66557571  0.33376498  1
  Cs  Cs26  1  0.66410080  0.66349780  0.66451833  1
  Sn  Sn27  1  0.50052666  0.83381835  0.83300175  1
  Sn  Sn28  1  0.50042812  0.83279426  0.50028580  1
  Sn  Sn29  1  0.16619477  0.16691481  0.83384484  1
  Sn  Sn30  1  0.83317200  0.49959701  0.16683126  1
  Sn  Sn31  1  0.50027142  0.49983806  0.16736115  1
  Sn  Sn32  1  0.16584384  0.49933504  0.83365239  1
  Sn  Sn33  1  0.50008788  0.83302626  0.16653651  1
  Sn  Sn34  1  0.50004210  0.16715934  0.16637047  1
  Sn  Sn35  1  0.83282313  0.49992466  0.49953037  1
  Sn  Sn36  1  0.50060601  0.50019555  0.49919854  1
  Sn  Sn37  1  0.16595872  0.16659073  0.16602575  1
  Sn  Sn38  1  0.83441550  0.49996528  0.83366107  1
  Sn  Sn39  1  0.83401322  0.16712801  0.16657890  1
  Pb  Pb40  1  0.16867797  0.83394050  0.83328041  1
  Pb  Pb41  1  0.49999451  0.50092188  0.83334561  1
  Pb  Pb42  1  0.16628091  0.16672850  0.50016237  1
  Pb  Pb43  1  0.50017695  0.16747559  0.49777105  1
  Pb  Pb44  1  0.83041494  0.83038613  0.49990591  1
  Pb  Pb45  1  0.83331723  0.16952635  0.49705362  1
  Pb  Pb46  1  0.16662045  0.49862529  0.16484300  1
  Pb  Pb47  1  0.49828995  0.16412874  0.83569157  1
  Pb  Pb48  1  0.83043357  0.83056843  0.83339210  1
  Pb  Pb49  1  0.16697734  0.49992595  0.50284719  1
  Pb  Pb50  1  0.16931620  0.83662813  0.16676521  1
  Pb  Pb51  1  0.16954018  0.83315678  0.49999276  1
  Pb  Pb52  1  0.83584932  0.16868374  0.83569196  1
  Pb  Pb53  1  0.83128767  0.83274167  0.16665964  1
  I  I54  1  0.16669827  0.00497140  0.15896780  1
  I  I55  1  0.16954378  -0.00000525  0.50088666  1
  I  I56  1  0.17140024  0.00321299  0.84006433  1
  I  I57  1  0.17229974  0.33049666  0.16435394  1
  I  I58  1  0.17066247  0.33362942  0.49854273  1
  I  I59  1  0.16497806  0.33374272  0.83778914  1
  I  I60  1  0.16720384  0.66669472  0.16496359  1
  I  I61  1  0.16526707  0.66618481  0.50140837  1
  I  I62  1  0.16382831  0.66389003  0.83282480  1
  I  I63  1  0.49894555  0.00015050  0.16621306  1
  I  I64  1  0.49706133  -0.00275943  0.49826845  1
  I  I65  1  0.49695482  -0.00386873  0.83354836  1
  I  I66  1  0.50087013  0.33403959  0.17071581  1
  I  I67  1  0.50331992  0.33709062  0.49565733  1
  I  I68  1  0.50081330  0.33326801  0.83340787  1
  I  I69  1  0.50496346  0.66581685  0.16691140  1
  I  I70  1  0.50363280  0.66585870  0.49522461  1
  I  I71  1  0.49850429  0.66880937  0.83830321  1
  I  I72  1  0.83161197  0.00301692  0.16513208  1
  I  I73  1  0.83296159  -0.00005554  0.49928985  1
  I  I74  1  0.83368363  0.00014066  0.83511377  1
  I  I75  1  0.82743439  0.33439208  0.16633152  1
  I  I76  1  0.82531887  0.33778389  0.50250746  1
  I  I77  1  0.83202760  0.33721104  0.83193267  1
  I  I78  1  0.82730927  0.66263341  0.16631903  1
  I  I79  1  0.83059984  0.66204933  0.49684330  1
  I  I80  1  0.83956675  0.66189971  0.83711586  1
  I  I81  1  0.16876103  0.17183996  0.00100016  1
  I  I82  1  0.16926157  0.16750826  0.32958123  1
  I  I83  1  0.16970108  0.17208365  0.67016825  1
  I  I84  1  0.16484416  0.49782878  -0.00299849  1
  I  I85  1  0.16544010  0.49848263  0.33320444  1
  I  I86  1  0.16464206  0.49390395  0.67079629  1
  I  I87  1  0.17093991  0.83086018  0.00005150  1
  I  I88  1  0.16845952  0.83397209  0.33309047  1
  I  I89  1  0.17073045  0.83448073  0.66689721  1
  I  I90  1  0.50175126  0.16858647  0.00436536  1
  I  I91  1  0.49744699  0.16282849  0.32883800  1
  I  I92  1  0.49696350  0.16642253  0.66682606  1
  I  I93  1  0.50270701  0.50065478  0.00301179  1
  I  I94  1  0.50678049  0.50397892  0.33214988  1
  I  I95  1  0.50256531  0.50628341  0.66422935  1
  I  I96  1  0.49939253  0.83231891  0.00120932  1
  I  I97  1  0.50006087  0.83264525  0.33270026  1
  I  I98  1  0.49835775  0.82473337  0.66597022  1
  I  I99  1  0.82907414  0.17318581  0.00383951  1
  I  I100  1  0.83363186  0.17211561  0.32855969  1
  I  I101  1  0.83456549  0.16782696  0.66684538  1
  I  I102  1  0.83104917  0.49572495  0.00104866  1
  I  I103  1  0.82599499  0.49506208  0.33240004  1
  I  I104  1  0.83184811  0.50185154  0.66660130  1
  I  I105  1  0.82929216  0.83064584  0.00012602  1
  I  I106  1  0.83116249  0.83308156  0.33319670  1
  I  I107  1  0.83082148  0.83243950  0.66664663  1
  I  I108  1  -0.00040511  0.17550468  0.16214079  1
  I  I109  1  -0.00025307  0.16947400  0.49681821  1
  I  I110  1  0.00371602  0.16924977  0.84068815  1
  I  I111  1  -0.00316917  0.49431570  0.16897233  1
  I  I112  1  -0.00326443  0.49728624  0.49624476  1
  I  I113  1  -0.00062747  0.49539144  0.83398729  1
  I  I114  1  -0.00001103  0.83257380  0.16585962  1
  I  I115  1  -0.00048070  0.83287181  0.50029318  1
  I  I116  1  -0.00011537  0.83412981  0.83386316  1
  I  I117  1  0.33412023  0.16612355  0.16305099  1
  I  I118  1  0.33355696  0.16828273  0.49727407  1
  I  I119  1  0.33043112  0.17433254  0.84001446  1
  I  I120  1  0.33663647  0.49989461  0.16935173  1
  I  I121  1  0.33693699  0.50423376  0.49566731  1
  I  I122  1  0.33129876  0.49815384  0.83422121  1
  I  I123  1  0.33825712  0.83101727  0.16648867  1
  I  I124  1  0.33829943  0.82622924  0.49916004  1
  I  I125  1  0.33691102  0.82960143  0.83461720  1
  I  I126  1  0.66612296  0.16762042  0.16786287  1
  I  I127  1  0.66656690  0.16427672  0.49973432  1
  I  I128  1  0.66687102  0.16696210  0.83451990  1
  I  I129  1  0.66602268  0.49611877  0.16490911  1
  I  I130  1  0.66592209  0.50429361  0.50024646  1
  I  I131  1  0.66905163  0.50290934  0.83424245  1
  I  I132  1  0.66232068  0.83705248  0.16682221  1
  I  I133  1  0.66221295  0.83069083  0.49779943  1
  I  I134  1  0.66232166  0.83088898  0.83550329  1
