# generated using pymatgen
data_Cs27Sn13Pb14I81
_symmetry_space_group_name_H-M   'P 1'
_cell_length_a   18.97790573
_cell_length_b   18.98564120
_cell_length_c   18.96916320
_cell_angle_alpha   89.99803845
_cell_angle_beta   89.99989611
_cell_angle_gamma   90.00076408
_symmetry_Int_Tables_number   1
_chemical_formula_structural   Cs27Sn13Pb14I81
_chemical_formula_sum   'Cs27 Sn13 Pb14 I81'
_cell_volume   6834.73572841
_cell_formula_units_Z   1
loop_
 _symmetry_equiv_pos_site_id
 _symmetry_equiv_pos_as_xyz
  1  'x, y, z'
loop_
 _atom_site_type_symbol
 _atom_site_label
 _atom_site_symmetry_multiplicity
 _atom_site_fract_x
 _atom_site_fract_y
 _atom_site_fract_z
 _atom_site_occupancy
  Cs  Cs0  1  -0.00017485  -0.00331980  -0.00019242  1
  Cs  Cs1  1  0.00269971  -0.00059763  0.33294783  1
  Cs  Cs2  1  0.00035243  0.00097820  0.66730450  1
  Cs  Cs3  1  -0.00167610  0.33370306  -0.00135938  1
  Cs  Cs4  1  -0.00060173  0.33325964  0.33387888  1
  Cs  Cs5  1  0.00255642  0.33413979  0.66768683  1
  Cs  Cs6  1  -0.00103144  0.67198393  0.00023306  1
  Cs  Cs7  1  -0.00577538  0.66816119  0.33494785  1
  Cs  Cs8  1  0.00013774  0.66547446  0.66649721  1
  Cs  Cs9  1  0.33395606  0.00023465  0.00012479  1
  Cs  Cs10  1  0.33155671  0.00122307  0.33270075  1
  Cs  Cs11  1  0.33296416  0.00096926  0.66763300  1
  Cs  Cs12  1  0.33322622  0.33367940  -0.00131881  1
  Cs  Cs13  1  0.33336301  0.33216086  0.33265528  1
  Cs  Cs14  1  0.33068786  0.33889224  0.67280295  1
  Cs  Cs15  1  0.33445125  0.66604256  0.00288775  1
  Cs  Cs16  1  0.33337044  0.66478573  0.33062673  1
  Cs  Cs17  1  0.33875351  0.66021400  0.66530914  1
  Cs  Cs18  1  0.66643827  0.00092036  -0.00099648  1
  Cs  Cs19  1  0.66708940  0.00201449  0.33504116  1
  Cs  Cs20  1  0.66584714  -0.00159807  0.66659524  1
  Cs  Cs21  1  0.66806184  0.33367352  0.00175923  1
  Cs  Cs22  1  0.66729498  0.33155577  0.33075360  1
  Cs  Cs23  1  0.66650705  0.33275960  0.66744960  1
  Cs  Cs24  1  0.66634284  0.66490857  -0.00124348  1
  Cs  Cs25  1  0.67135177  0.66647920  0.34176131  1
  Cs  Cs26  1  0.66111787  0.66869011  0.66021289  1
  Sn  Sn27  1  0.49969543  0.49981382  0.16689793  1
  Sn  Sn28  1  0.16705524  0.83367170  0.50104990  1
  Sn  Sn29  1  0.16651182  0.49910779  0.16678765  1
  Sn  Sn30  1  0.83365086  0.83315305  0.83298589  1
  Sn  Sn31  1  0.83329506  0.50038553  0.83308743  1
  Sn  Sn32  1  0.83375487  0.16653384  0.50095098  1
  Sn  Sn33  1  0.16684432  0.83342233  0.83198162  1
  Sn  Sn34  1  0.50051490  0.83350424  0.16707253  1
  Sn  Sn35  1  0.49910578  0.16674633  0.49975291  1
  Sn  Sn36  1  0.83353045  0.16653367  0.83252110  1
  Sn  Sn37  1  0.16717935  0.16617911  0.49969029  1
  Sn  Sn38  1  0.49897508  0.16655128  0.16728316  1
  Sn  Sn39  1  0.16723164  0.16749829  0.16700505  1
  Pb  Pb40  1  0.83546129  0.83570647  0.50238748  1
  Pb  Pb41  1  0.83028037  0.83339921  0.16479863  1
  Pb  Pb42  1  0.83342325  0.49727597  0.50271072  1
  Pb  Pb43  1  0.16796530  0.83349141  0.16692076  1
  Pb  Pb44  1  0.49965745  0.83339003  0.83487035  1
  Pb  Pb45  1  0.16478720  0.16521625  0.83361431  1
  Pb  Pb46  1  0.50221174  0.16673213  0.83342969  1
  Pb  Pb47  1  0.49724730  0.83558108  0.49770053  1
  Pb  Pb48  1  0.83375954  0.16645938  0.16688774  1
  Pb  Pb49  1  0.83350929  0.50007114  0.16518904  1
  Pb  Pb50  1  0.49986415  0.49699373  0.49730814  1
  Pb  Pb51  1  0.16660518  0.49979658  0.49766667  1
  Pb  Pb52  1  0.50224097  0.49991789  0.83562471  1
  Pb  Pb53  1  0.16489221  0.50290779  0.83598790  1
  I  I54  1  0.17054498  0.00281285  0.16769185  1
  I  I55  1  0.16579531  0.00163824  0.49720973  1
  I  I56  1  0.16039943  -0.00262109  0.83542534  1
  I  I57  1  0.17379969  0.33181299  0.17119134  1
  I  I58  1  0.16617586  0.32949471  0.49706069  1
  I  I59  1  0.16435730  0.33340295  0.83186189  1
  I  I60  1  0.17174043  0.66470656  0.16480111  1
  I  I61  1  0.16576081  0.66962651  0.50242335  1
  I  I62  1  0.16034710  0.67072567  0.83016135  1
  I  I63  1  0.49599335  0.00157585  0.16923560  1
  I  I64  1  0.50271137  0.00376010  0.49360976  1
  I  I65  1  0.50325741  0.00017008  0.83791810  1
  I  I66  1  0.49639597  0.33232078  0.17033583  1
  I  I67  1  0.49850669  0.32850929  0.49442239  1
  I  I68  1  0.50221662  0.33312253  0.83540507  1
  I  I69  1  0.49445840  0.66614683  0.16236657  1
  I  I70  1  0.49969187  0.66680900  0.49863062  1
  I  I71  1  0.50229445  0.66672433  0.83662068  1
  I  I72  1  0.83357761  0.00023247  0.16292552  1
  I  I73  1  0.83109865  0.00390174  0.50507909  1
  I  I74  1  0.83686971  0.00011218  0.83032068  1
  I  I75  1  0.82982213  0.33299881  0.16317990  1
  I  I76  1  0.83587887  0.32869731  0.50447801  1
  I  I77  1  0.83196277  0.33253963  0.83049208  1
  I  I78  1  0.83476147  0.66670918  0.16343797  1
  I  I79  1  0.83471479  0.66694758  0.50012855  1
  I  I80  1  0.83851446  0.66739795  0.83862728  1
  I  I81  1  0.17014210  0.16829576  0.00300673  1
  I  I82  1  0.16505019  0.16407756  0.33350597  1
  I  I83  1  0.16837712  0.16340242  0.66370133  1
  I  I84  1  0.17077083  0.49441508  0.00384783  1
  I  I85  1  0.17082380  0.49988991  0.32945202  1
  I  I86  1  0.16489785  0.49730467  0.66687951  1
  I  I87  1  0.16293619  0.83340813  -0.00202809  1
  I  I88  1  0.16945767  0.83626162  0.33563410  1
  I  I89  1  0.16153645  0.84119702  0.66648120  1
  I  I90  1  0.49691743  0.16685451  0.00373599  1
  I  I91  1  0.50180229  0.16658431  0.33245281  1
  I  I92  1  0.49827826  0.16495681  0.66336264  1
  I  I93  1  0.49639934  0.49645711  0.00414424  1
  I  I94  1  0.49638490  0.50182669  0.32892528  1
  I  I95  1  0.50117365  0.49895661  0.66645180  1
  I  I96  1  0.49800784  0.83676999  0.00334702  1
  I  I97  1  0.49719032  0.83207842  0.32956508  1
  I  I98  1  0.50203969  0.83560106  0.66624030  1
  I  I99  1  0.83309552  0.16649140  -0.00286121  1
  I  I100  1  0.83297722  0.16653917  0.33631122  1
  I  I101  1  0.83337483  0.16646094  0.66643952  1
  I  I102  1  0.83282764  0.49635196  -0.00307947  1
  I  I103  1  0.83288293  0.49850868  0.33350002  1
  I  I104  1  0.83481096  0.50181505  0.67082366  1
  I  I105  1  0.84060294  0.83710451  -0.00384561  1
  I  I106  1  0.83458195  0.83453179  0.33387820  1
  I  I107  1  0.83437608  0.83223955  0.67062210  1
  I  I108  1  0.00327157  0.17090879  0.16940282  1
  I  I109  1  0.00080506  0.16300447  0.49956089  1
  I  I110  1  -0.00341135  0.16788309  0.83046078  1
  I  I111  1  0.00309260  0.49408079  0.16525409  1
  I  I112  1  0.00006578  0.49745195  0.49611221  1
  I  I113  1  -0.00305650  0.49667501  0.83642555  1
  I  I114  1  0.00025320  0.83356670  0.16718117  1
  I  I115  1  0.00337664  0.83961281  0.49879385  1
  I  I116  1  -0.00023664  0.83442025  0.83177208  1
  I  I117  1  0.33344996  0.16686004  0.17364263  1
  I  I118  1  0.33265823  0.16146373  0.49237088  1
  I  I119  1  0.33311227  0.16425295  0.83197198  1
  I  I120  1  0.33360334  0.49886319  0.16611227  1
  I  I121  1  0.33320749  0.49874665  0.50314048  1
  I  I122  1  0.33308715  0.50111753  0.83278404  1
  I  I123  1  0.33585071  0.83427375  0.16417070  1
  I  I124  1  0.32945678  0.84013828  0.50589977  1
  I  I125  1  0.33017756  0.83550186  0.83194143  1
  I  I126  1  0.66358042  0.16762734  0.16884501  1
  I  I127  1  0.66647138  0.16795895  0.49906634  1
  I  I128  1  0.67068083  0.16393788  0.83089544  1
  I  I129  1  0.66345571  0.49735145  0.16367544  1
  I  I130  1  0.66665395  0.49888487  0.49769259  1
  I  I131  1  0.67044327  0.50084672  0.83661608  1
  I  I132  1  0.66215824  0.83521732  0.16429060  1
  I  I133  1  0.66652657  0.83479005  0.50018404  1
  I  I134  1  0.66978509  0.83447968  0.83734015  1
