# generated using pymatgen
data_Cs27Sn13Pb14I81
_symmetry_space_group_name_H-M   'P 1'
_cell_length_a   18.97934558
_cell_length_b   19.00817718
_cell_length_c   18.98957148
_cell_angle_alpha   89.99969169
_cell_angle_beta   89.99809442
_cell_angle_gamma   90.00022299
_symmetry_Int_Tables_number   1
_chemical_formula_structural   Cs27Sn13Pb14I81
_chemical_formula_sum   'Cs27 Sn13 Pb14 I81'
_cell_volume   6850.73028130
_cell_formula_units_Z   1
loop_
 _symmetry_equiv_pos_site_id
 _symmetry_equiv_pos_as_xyz
  1  'x, y, z'
loop_
 _atom_site_type_symbol
 _atom_site_label
 _atom_site_symmetry_multiplicity
 _atom_site_fract_x
 _atom_site_fract_y
 _atom_site_fract_z
 _atom_site_occupancy
  Cs  Cs0  1  -0.00069029  -0.00070474  -0.00142393  1
  Cs  Cs1  1  -0.00071710  -0.00139058  0.33194940  1
  Cs  Cs2  1  0.00029872  0.00161150  0.66875132  1
  Cs  Cs3  1  0.00023999  0.33525334  0.00379910  1
  Cs  Cs4  1  -0.00268609  0.33413725  0.32885184  1
  Cs  Cs5  1  -0.00072201  0.33441550  0.66765755  1
  Cs  Cs6  1  0.00044910  0.66422077  -0.00019872  1
  Cs  Cs7  1  -0.00162829  0.66677177  0.33274041  1
  Cs  Cs8  1  0.00192816  0.66441554  0.66766566  1
  Cs  Cs9  1  0.33816856  0.00265247  0.00243341  1
  Cs  Cs10  1  0.33279216  0.00184490  0.33610848  1
  Cs  Cs11  1  0.33023678  -0.00032072  0.66256986  1
  Cs  Cs12  1  0.34039187  0.33309336  0.00840492  1
  Cs  Cs13  1  0.33317229  0.33205413  0.33115773  1
  Cs  Cs14  1  0.33263104  0.33356773  0.66508419  1
  Cs  Cs15  1  0.33910292  0.66408527  0.00058994  1
  Cs  Cs16  1  0.33278758  0.66593244  0.33582750  1
  Cs  Cs17  1  0.33141533  0.66664681  0.66506767  1
  Cs  Cs18  1  0.66142009  -0.00596513  -0.00621352  1
  Cs  Cs19  1  0.66937116  -0.00442930  0.33137329  1
  Cs  Cs20  1  0.67419654  0.00341952  0.67514487  1
  Cs  Cs21  1  0.66170661  0.33247466  -0.00112448  1
  Cs  Cs22  1  0.67153580  0.33331010  0.33476858  1
  Cs  Cs23  1  0.66869904  0.33075637  0.66821150  1
  Cs  Cs24  1  0.65908726  0.67236425  0.00074662  1
  Cs  Cs25  1  0.67105075  0.67071031  0.33323810  1
  Cs  Cs26  1  0.66644345  0.66648556  0.66704601  1
  Sn  Sn27  1  0.16680350  0.83311973  0.83364570  1
  Sn  Sn28  1  0.16686043  0.83315632  0.16650994  1
  Sn  Sn29  1  0.49975658  0.16639098  0.50001570  1
  Sn  Sn30  1  0.49944812  0.83376895  0.50048747  1
  Sn  Sn31  1  0.16667861  0.83328730  0.50001719  1
  Sn  Sn32  1  0.16682771  0.16754869  0.83326223  1
  Sn  Sn33  1  0.16652978  0.49933108  0.83316112  1
  Sn  Sn34  1  0.83304920  0.16665678  0.16607956  1
  Sn  Sn35  1  0.83383805  0.50010225  0.83479202  1
  Sn  Sn36  1  0.16714701  0.49956843  0.50029552  1
  Sn  Sn37  1  0.49923828  0.49981229  0.49999393  1
  Sn  Sn38  1  0.83323690  0.49948300  0.16494775  1
  Sn  Sn39  1  0.16681291  0.16712848  0.50040353  1
  Pb  Pb40  1  0.16544271  0.16469986  0.16672285  1
  Pb  Pb41  1  0.83579540  0.16904839  0.83588840  1
  Pb  Pb42  1  0.83569347  0.83046057  0.83333715  1
  Pb  Pb43  1  0.83371405  0.83348917  0.50047717  1
  Pb  Pb44  1  0.83387010  0.16661729  0.49850738  1
  Pb  Pb45  1  0.83365097  0.49999259  0.50046562  1
  Pb  Pb46  1  0.50328683  0.50004374  0.16995140  1
  Pb  Pb47  1  0.49696661  0.83335575  0.16937765  1
  Pb  Pb48  1  0.16559814  0.50182679  0.16667516  1
  Pb  Pb49  1  0.83516357  0.83317854  0.16631613  1
  Pb  Pb50  1  0.50307119  0.16649929  0.16951414  1
  Pb  Pb51  1  0.49934734  0.49988846  0.83093443  1
  Pb  Pb52  1  0.49682874  0.83341242  0.83012461  1
  Pb  Pb53  1  0.49706432  0.16677125  0.83071869  1
  I  I54  1  0.16305023  -0.00305097  0.16864998  1
  I  I55  1  0.17187375  -0.00015669  0.50205035  1
  I  I56  1  0.16727941  -0.00007633  0.82872333  1
  I  I57  1  0.16598047  0.33336459  0.16773610  1
  I  I58  1  0.17208113  0.33353119  0.50702844  1
  I  I59  1  0.16127779  0.33391679  0.82327782  1
  I  I60  1  0.16312092  0.66958576  0.16912968  1
  I  I61  1  0.17144144  0.66658102  0.50221047  1
  I  I62  1  0.16168305  0.66629354  0.82888315  1
  I  I63  1  0.50253369  -0.00007659  0.16941095  1
  I  I64  1  0.49029007  -0.00006509  0.49840602  1
  I  I65  1  0.50006303  0.00002636  0.83183369  1
  I  I66  1  0.49612751  0.33334907  0.16993584  1
  I  I67  1  0.49271729  0.33336217  0.49996464  1
  I  I68  1  0.49803284  0.33342122  0.82951175  1
  I  I69  1  0.50242268  0.66666077  0.16925817  1
  I  I70  1  0.49247947  0.66667674  0.50011658  1
  I  I71  1  0.49908222  0.66660204  0.83070531  1
  I  I72  1  0.83668761  0.00237528  0.17154668  1
  I  I73  1  0.83438876  0.00010358  0.49587394  1
  I  I74  1  0.83446201  0.00017704  0.83409925  1
  I  I75  1  0.83708305  0.33428069  0.16540985  1
  I  I76  1  0.83329899  0.33350041  0.50043304  1
  I  I77  1  0.84087230  0.33670707  0.83290083  1
  I  I78  1  0.83580491  0.66370424  0.16469046  1
  I  I79  1  0.83362029  0.66644428  0.49650586  1
  I  I80  1  0.84029543  0.66253997  0.83805037  1
  I  I81  1  0.16212752  0.16616619  -0.00286753  1
  I  I82  1  0.16924384  0.16634195  0.33677423  1
  I  I83  1  0.16926461  0.16271835  0.66559862  1
  I  I84  1  0.16246041  0.50084146  -0.00304821  1
  I  I85  1  0.16873448  0.50044203  0.33666869  1
  I  I86  1  0.16417575  0.50389642  0.66610608  1
  I  I87  1  0.16172021  0.83319685  -0.00082832  1
  I  I88  1  0.16965116  0.83339421  0.33497465  1
  I  I89  1  0.17035476  0.83275561  0.66595497  1
  I  I90  1  0.49849444  0.16742626  -0.00003501  1
  I  I91  1  0.49078191  0.16703552  0.33791671  1
  I  I92  1  0.49894047  0.16717769  0.66215111  1
  I  I93  1  0.49693012  0.49969065  -0.00000403  1
  I  I94  1  0.49292026  0.50017373  0.33814076  1
  I  I95  1  0.49996866  0.50072800  0.66255195  1
  I  I96  1  0.49927277  0.83299012  -0.00021288  1
  I  I97  1  0.49347875  0.83287260  0.33767455  1
  I  I98  1  0.49267798  0.83172061  0.66204876  1
  I  I99  1  0.83848406  0.16937222  0.00330423  1
  I  I100  1  0.83611574  0.17445457  0.33086696  1
  I  I101  1  0.83132771  0.16769461  0.66702121  1
  I  I102  1  0.84383641  0.49580293  -0.00055098  1
  I  I103  1  0.83342827  0.49652826  0.33121062  1
  I  I104  1  0.83629778  0.50124776  0.66926813  1
  I  I105  1  0.83726437  0.83540645  -0.00010144  1
  I  I106  1  0.83680270  0.83020754  0.33325909  1
  I  I107  1  0.83522197  0.83173716  0.66689817  1
  I  I108  1  -0.00215544  0.17079931  0.16997724  1
  I  I109  1  0.00398004  0.16642469  0.50287288  1
  I  I110  1  0.00410352  0.16336818  0.82514704  1
  I  I111  1  -0.00233580  0.49734827  0.16890415  1
  I  I112  1  0.00356435  0.50069158  0.50085956  1
  I  I113  1  0.00195915  0.50091505  0.83019341  1
  I  I114  1  0.00347426  0.83315001  0.17145074  1
  I  I115  1  0.00478012  0.83266326  0.49980728  1
  I  I116  1  0.00469147  0.83588599  0.82862454  1
  I  I117  1  0.33330162  0.16519788  0.16472832  1
  I  I118  1  0.33166134  0.16621478  0.50316479  1
  I  I119  1  0.32838027  0.16888350  0.83246382  1
  I  I120  1  0.33346577  0.50139958  0.16428941  1
  I  I121  1  0.33151661  0.50105696  0.50543779  1
  I  I122  1  0.32933364  0.50183182  0.82944354  1
  I  I123  1  0.32879118  0.83337776  0.16433790  1
  I  I124  1  0.33129436  0.83287858  0.50005049  1
  I  I125  1  0.32816221  0.82913261  0.83491969  1
  I  I126  1  0.67078531  0.17278705  0.17005728  1
  I  I127  1  0.66358998  0.16786836  0.49644156  1
  I  I128  1  0.66678451  0.16850731  0.83142021  1
  I  I129  1  0.67123240  0.49601621  0.16184589  1
  I  I130  1  0.66372990  0.50040053  0.49896201  1
  I  I131  1  0.66944308  0.49906918  0.83507981  1
  I  I132  1  0.66647601  0.83267355  0.17033845  1
  I  I133  1  0.66321957  0.83141217  0.49742151  1
  I  I134  1  0.66634123  0.83219648  0.83182733  1
