# generated using pymatgen
data_Cs27Sn13Pb14I81
_symmetry_space_group_name_H-M   'P 1'
_cell_length_a   18.99225172
_cell_length_b   18.96893632
_cell_length_c   18.97480624
_cell_angle_alpha   89.99829705
_cell_angle_beta   89.99974378
_cell_angle_gamma   89.99996760
_symmetry_Int_Tables_number   1
_chemical_formula_structural   Cs27Sn13Pb14I81
_chemical_formula_sum   'Cs27 Sn13 Pb14 I81'
_cell_volume   6835.91707815
_cell_formula_units_Z   1
loop_
 _symmetry_equiv_pos_site_id
 _symmetry_equiv_pos_as_xyz
  1  'x, y, z'
loop_
 _atom_site_type_symbol
 _atom_site_label
 _atom_site_symmetry_multiplicity
 _atom_site_fract_x
 _atom_site_fract_y
 _atom_site_fract_z
 _atom_site_occupancy
  Cs  Cs0  1  -0.00114680  -0.00069352  -0.00076366  1
  Cs  Cs1  1  -0.00186729  -0.00016492  0.32995365  1
  Cs  Cs2  1  -0.00163004  -0.00307106  0.67126758  1
  Cs  Cs3  1  -0.00167731  0.33361121  0.00092614  1
  Cs  Cs4  1  0.00126177  0.33358714  0.33410847  1
  Cs  Cs5  1  0.00136192  0.33343916  0.66546678  1
  Cs  Cs6  1  0.00051170  0.66717770  -0.00209248  1
  Cs  Cs7  1  -0.00221982  0.66707533  0.33420783  1
  Cs  Cs8  1  -0.00187045  0.66932084  0.66796606  1
  Cs  Cs9  1  0.32908360  0.00478639  0.00697413  1
  Cs  Cs10  1  0.33412639  -0.00161792  0.33248276  1
  Cs  Cs11  1  0.33346280  -0.00073001  0.66585654  1
  Cs  Cs12  1  0.33428250  0.33211961  -0.00120603  1
  Cs  Cs13  1  0.33164174  0.33423823  0.33607321  1
  Cs  Cs14  1  0.33385124  0.33277766  0.66524018  1
  Cs  Cs15  1  0.33371612  0.66665663  -0.00043788  1
  Cs  Cs16  1  0.33413949  0.66674606  0.33325787  1
  Cs  Cs17  1  0.33493228  0.66725123  0.66720700  1
  Cs  Cs18  1  0.67122332  0.00785033  0.00775651  1
  Cs  Cs19  1  0.66709168  -0.00220421  0.32752021  1
  Cs  Cs20  1  0.66692855  -0.00037591  0.66837294  1
  Cs  Cs21  1  0.66706134  0.33099300  -0.00102879  1
  Cs  Cs22  1  0.66780571  0.33551126  0.33632532  1
  Cs  Cs23  1  0.66549387  0.33373871  0.66517103  1
  Cs  Cs24  1  0.66491695  0.66572144  0.00003840  1
  Cs  Cs25  1  0.66871610  0.66710656  0.33496785  1
  Cs  Cs26  1  0.66553948  0.66725442  0.66535705  1
  Sn  Sn27  1  0.83336621  0.16644094  0.50034417  1
  Sn  Sn28  1  0.16732051  0.83325533  0.50010717  1
  Sn  Sn29  1  0.49994167  0.83350354  0.83353935  1
  Sn  Sn30  1  0.83324852  0.49998896  0.16585192  1
  Sn  Sn31  1  0.49998865  0.50002025  0.16581899  1
  Sn  Sn32  1  0.49930686  0.83421661  0.50086710  1
  Sn  Sn33  1  0.16629323  0.16592388  0.50026279  1
  Sn  Sn34  1  0.16686196  0.49996978  0.83323795  1
  Sn  Sn35  1  0.16673216  0.50006668  0.16649265  1
  Sn  Sn36  1  0.83302043  0.49999933  0.83379312  1
  Sn  Sn37  1  0.49999916  0.50059234  0.83403220  1
  Sn  Sn38  1  0.50026103  0.16525862  0.50017733  1
  Sn  Sn39  1  0.16670695  0.50063232  0.50026079  1
  Pb  Pb40  1  0.16664923  0.83111594  0.16872969  1
  Pb  Pb41  1  0.83314298  0.83618375  0.50004459  1
  Pb  Pb42  1  0.16658681  0.16872001  0.16873853  1
  Pb  Pb43  1  0.83022356  0.83139027  0.83348906  1
  Pb  Pb44  1  0.83609386  0.49873524  0.50031794  1
  Pb  Pb45  1  0.83356874  0.16918201  0.16880439  1
  Pb  Pb46  1  0.49988837  0.16617412  0.83169422  1
  Pb  Pb47  1  0.16675125  0.16836340  0.83143462  1
  Pb  Pb48  1  0.49831325  0.50042035  0.50022943  1
  Pb  Pb49  1  0.16898469  0.83155835  0.83170419  1
  Pb  Pb50  1  0.83333004  0.16880477  0.83135064  1
  Pb  Pb51  1  0.49994317  0.83135674  0.16623396  1
  Pb  Pb52  1  0.83340163  0.83087416  0.16628597  1
  Pb  Pb53  1  0.49984886  0.16962542  0.16954410  1
  I  I54  1  0.16734175  -0.00004310  0.16880309  1
  I  I55  1  0.16875327  0.00014218  0.50044645  1
  I  I56  1  0.16853652  -0.00037426  0.83015508  1
  I  I57  1  0.16699181  0.33821104  0.16984092  1
  I  I58  1  0.16730707  0.33397571  0.49959462  1
  I  I59  1  0.16974851  0.33829286  0.83048778  1
  I  I60  1  0.16718574  0.66170216  0.16998321  1
  I  I61  1  0.17214707  0.66594556  0.49939197  1
  I  I62  1  0.16502379  0.66209512  0.83027936  1
  I  I63  1  0.50049848  0.00006735  0.16483488  1
  I  I64  1  0.49466973  -0.00041572  0.50603971  1
  I  I65  1  0.49936567  -0.00324208  0.82635609  1
  I  I66  1  0.49923766  0.33822102  0.16235909  1
  I  I67  1  0.49855381  0.33152211  0.49923309  1
  I  I68  1  0.49978007  0.33706369  0.83517532  1
  I  I69  1  0.49942221  0.66240415  0.16896143  1
  I  I70  1  0.49492934  0.66896276  0.50045984  1
  I  I71  1  0.49976530  0.66469202  0.82945437  1
  I  I72  1  0.83234869  0.00048294  0.16876280  1
  I  I73  1  0.83789671  0.00407292  0.50040680  1
  I  I74  1  0.83210241  -0.00003035  0.83073904  1
  I  I75  1  0.83375088  0.33795939  0.16353340  1
  I  I76  1  0.83207598  0.33090054  0.49988365  1
  I  I77  1  0.83085889  0.33806500  0.83649228  1
  I  I78  1  0.83337810  0.66147104  0.16617259  1
  I  I79  1  0.83326010  0.66656297  0.49918378  1
  I  I80  1  0.83630289  0.66205520  0.83479474  1
  I  I81  1  0.16727896  0.16899607  0.00009037  1
  I  I82  1  0.16756183  0.17096119  0.33807812  1
  I  I83  1  0.16774311  0.17163430  0.66199763  1
  I  I84  1  0.16681031  0.50045531  -0.00022976  1
  I  I85  1  0.16730085  0.49893053  0.33390822  1
  I  I86  1  0.16734100  0.49872741  0.66626200  1
  I  I87  1  0.16846412  0.83010419  -0.00018834  1
  I  I88  1  0.17356510  0.83082449  0.33795355  1
  I  I89  1  0.16891562  0.83019730  0.66271515  1
  I  I90  1  0.50082707  0.16518704  0.00017028  1
  I  I91  1  0.49872463  0.16318919  0.33815392  1
  I  I92  1  0.49874614  0.17025869  0.66271854  1
  I  I93  1  0.49604401  0.50550066  -0.00092279  1
  I  I94  1  0.49970836  0.49886701  0.33130404  1
  I  I95  1  0.49999584  0.50004818  0.66922099  1
  I  I96  1  0.50063748  0.82570849  -0.00316169  1
  I  I97  1  0.49590957  0.83561817  0.33664998  1
  I  I98  1  0.49636424  0.82927497  0.66553543  1
  I  I99  1  0.83204107  0.16668842  0.00012456  1
  I  I100  1  0.83374404  0.17057595  0.33721843  1
  I  I101  1  0.83369851  0.17079440  0.66282413  1
  I  I102  1  0.83755238  0.50035485  -0.00015882  1
  I  I103  1  0.83279962  0.49767737  0.33093014  1
  I  I104  1  0.83251891  0.49793963  0.66940799  1
  I  I105  1  0.83217376  0.83460227  -0.00029673  1
  I  I106  1  0.83100271  0.82952496  0.33370340  1
  I  I107  1  0.83469305  0.82928909  0.66650110  1
  I  I108  1  0.00007713  0.17156294  0.17181035  1
  I  I109  1  0.00109719  0.17104664  0.49961703  1
  I  I110  1  0.00004605  0.17030743  0.82829081  1
  I  I111  1  0.00045686  0.49932467  0.16575203  1
  I  I112  1  0.00429449  0.49965825  0.49967059  1
  I  I113  1  0.00051795  0.49793369  0.83452808  1
  I  I114  1  0.00018808  0.82935493  0.17084926  1
  I  I115  1  0.00319783  0.83124468  0.49905991  1
  I  I116  1  0.00012864  0.83019734  0.82985020  1
  I  I117  1  0.33333435  0.17055285  0.16942169  1
  I  I118  1  0.33299058  0.16814734  0.50032951  1
  I  I119  1  0.33343721  0.17220805  0.82909251  1
  I  I120  1  0.33308065  0.50023090  0.16571091  1
  I  I121  1  0.33018400  0.49586787  0.49962866  1
  I  I122  1  0.33349121  0.50307821  0.83463726  1
  I  I123  1  0.33339906  0.82883084  0.16707482  1
  I  I124  1  0.33346778  0.83616049  0.50325595  1
  I  I125  1  0.33688423  0.82404646  0.82843890  1
  I  I126  1  0.66660738  0.17011049  0.17072740  1
  I  I127  1  0.66584944  0.16494056  0.50069161  1
  I  I128  1  0.66648967  0.17116231  0.82762680  1
  I  I129  1  0.66645928  0.49979556  0.16068802  1
  I  I130  1  0.66669790  0.49879908  0.49929324  1
  I  I131  1  0.66599142  0.50300606  0.83921173  1
  I  I132  1  0.66631670  0.82889084  0.17132606  1
  I  I133  1  0.66321774  0.83582702  0.50332471  1
  I  I134  1  0.66219182  0.82454372  0.82340118  1
