# generated using pymatgen
data_Cs27Sn14Pb13I81
_symmetry_space_group_name_H-M   'P 1'
_cell_length_a   18.96904467
_cell_length_b   18.97512586
_cell_length_c   18.98411528
_cell_angle_alpha   89.99953186
_cell_angle_beta   90.00215048
_cell_angle_gamma   89.99799253
_symmetry_Int_Tables_number   1
_chemical_formula_structural   Cs27Sn14Pb13I81
_chemical_formula_sum   'Cs27 Sn14 Pb13 I81'
_cell_volume   6833.14263532
_cell_formula_units_Z   1
loop_
 _symmetry_equiv_pos_site_id
 _symmetry_equiv_pos_as_xyz
  1  'x, y, z'
loop_
 _atom_site_type_symbol
 _atom_site_label
 _atom_site_symmetry_multiplicity
 _atom_site_fract_x
 _atom_site_fract_y
 _atom_site_fract_z
 _atom_site_occupancy
  Cs  Cs0  1  0.00074552  -0.01017864  0.00171343  1
  Cs  Cs1  1  0.00455127  0.00090629  0.33367610  1
  Cs  Cs2  1  -0.00397568  0.00278102  0.66543048  1
  Cs  Cs3  1  0.00004599  0.33490156  -0.00378618  1
  Cs  Cs4  1  0.00048754  0.33071324  0.33757567  1
  Cs  Cs5  1  -0.00562609  0.33067566  0.66611439  1
  Cs  Cs6  1  -0.00657202  0.67526439  0.00213929  1
  Cs  Cs7  1  -0.00369951  0.66777460  0.33429656  1
  Cs  Cs8  1  0.00128392  0.66618103  0.66493910  1
  Cs  Cs9  1  0.33052051  -0.00019635  -0.00034016  1
  Cs  Cs10  1  0.33251606  0.00235558  0.33246402  1
  Cs  Cs11  1  0.33536220  -0.00271381  0.66774078  1
  Cs  Cs12  1  0.33503629  0.33483978  -0.00108785  1
  Cs  Cs13  1  0.33332834  0.33366282  0.33277305  1
  Cs  Cs14  1  0.33344284  0.33611954  0.66930463  1
  Cs  Cs15  1  0.33221961  0.66251370  -0.00227072  1
  Cs  Cs16  1  0.33443323  0.66353595  0.33628733  1
  Cs  Cs17  1  0.33268831  0.66671936  0.66560485  1
  Cs  Cs18  1  0.66776240  0.00239000  -0.00009300  1
  Cs  Cs19  1  0.66306975  -0.00007433  0.33216829  1
  Cs  Cs20  1  0.66627990  -0.00181893  0.66885963  1
  Cs  Cs21  1  0.66446463  0.33138753  0.00077809  1
  Cs  Cs22  1  0.66580488  0.33329276  0.33206849  1
  Cs  Cs23  1  0.67100718  0.33203851  0.66787352  1
  Cs  Cs24  1  0.67413456  0.66852781  0.00232659  1
  Cs  Cs25  1  0.66802469  0.66692638  0.33311911  1
  Cs  Cs26  1  0.66712285  0.67028574  0.66609800  1
  Sn  Sn27  1  0.16729585  0.50033234  0.49998303  1
  Sn  Sn28  1  0.83421986  0.83349961  0.49984381  1
  Sn  Sn29  1  0.50027169  0.16663953  0.16650373  1
  Sn  Sn30  1  0.16748309  0.16730388  0.83345532  1
  Sn  Sn31  1  0.16608638  0.83287965  0.49991792  1
  Sn  Sn32  1  0.49998588  0.49940846  0.83328184  1
  Sn  Sn33  1  0.49918383  0.83294154  0.16617819  1
  Sn  Sn34  1  0.49955726  0.49895507  0.50024343  1
  Sn  Sn35  1  0.16699851  0.49926251  0.83344529  1
  Sn  Sn36  1  0.83354537  0.16717430  0.16663804  1
  Sn  Sn37  1  0.49961980  0.16770923  0.50031768  1
  Sn  Sn38  1  0.16687879  0.49988083  0.16656857  1
  Sn  Sn39  1  0.49895449  0.16756398  0.83327040  1
  Sn  Sn40  1  0.49943125  0.50033564  0.16647334  1
  Pb  Pb41  1  0.83329578  0.49996525  0.83335704  1
  Pb  Pb42  1  0.16909289  0.83039056  0.16908227  1
  Pb  Pb43  1  0.83331650  0.16671130  0.83579393  1
  Pb  Pb44  1  0.83306760  0.50137667  0.49993511  1
  Pb  Pb45  1  0.16713733  0.16887854  0.16427769  1
  Pb  Pb46  1  0.83030416  0.16459093  0.49783448  1
  Pb  Pb47  1  0.16692153  0.83276804  0.83097814  1
  Pb  Pb48  1  0.49941710  0.83296114  0.49840108  1
  Pb  Pb49  1  0.49983845  0.83278591  0.83635356  1
  Pb  Pb50  1  0.83106391  0.83590317  0.16879121  1
  Pb  Pb51  1  0.83341300  0.49779750  0.16681672  1
  Pb  Pb52  1  0.16893945  0.16735776  0.50233281  1
  Pb  Pb53  1  0.83327657  0.83345728  0.83059131  1
  I  I54  1  0.16757398  0.00006290  0.16658250  1
  I  I55  1  0.16495650  -0.00190380  0.50140544  1
  I  I56  1  0.17184631  0.00288639  0.83247024  1
  I  I57  1  0.17261835  0.33699833  0.17247434  1
  I  I58  1  0.17005381  0.33674905  0.49741174  1
  I  I59  1  0.17194859  0.33458636  0.83186478  1
  I  I60  1  0.17270891  0.66221221  0.16163136  1
  I  I61  1  0.16954392  0.66480077  0.50185881  1
  I  I62  1  0.17278846  0.66270085  0.83396907  1
  I  I63  1  0.50531805  0.00134691  0.16822080  1
  I  I64  1  0.50037085  0.00245727  0.49907486  1
  I  I65  1  0.49679960  0.00349021  0.83233843  1
  I  I66  1  0.50057887  0.33358839  0.16705144  1
  I  I67  1  0.49484130  0.33425968  0.49536555  1
  I  I68  1  0.49599711  0.33342993  0.83705037  1
  I  I69  1  0.49497936  0.66503464  0.16852782  1
  I  I70  1  0.49910066  0.66342314  0.49976618  1
  I  I71  1  0.49453147  0.66272388  0.83134695  1
  I  I72  1  0.82600305  0.00350194  0.16685194  1
  I  I73  1  0.83903257  -0.00306599  0.49883064  1
  I  I74  1  0.83267230  0.00040211  0.83353983  1
  I  I75  1  0.82469206  0.33033591  0.16727264  1
  I  I76  1  0.83541308  0.33295002  0.49951374  1
  I  I77  1  0.83383570  0.33316656  0.83184851  1
  I  I78  1  0.83198510  0.66687157  0.16696737  1
  I  I79  1  0.83173120  0.66931833  0.49831730  1
  I  I80  1  0.83215948  0.66662130  0.83519905  1
  I  I81  1  0.17271486  0.17262670  -0.00340965  1
  I  I82  1  0.16702111  0.16688777  0.33334296  1
  I  I83  1  0.17256827  0.17131947  0.67002511  1
  I  I84  1  0.17493633  0.49353556  -0.00026114  1
  I  I85  1  0.17391762  0.50474662  0.33371133  1
  I  I86  1  0.17358398  0.50152746  0.66648554  1
  I  I87  1  0.16729264  0.83314533  0.00023357  1
  I  I88  1  0.16410153  0.82900748  0.33690198  1
  I  I89  1  0.16519617  0.82722596  0.66303677  1
  I  I90  1  0.50097689  0.16932776  0.00023491  1
  I  I91  1  0.50471113  0.16869334  0.33281932  1
  I  I92  1  0.49526117  0.17223728  0.66700898  1
  I  I93  1  0.49357954  0.49670292  0.00027670  1
  I  I94  1  0.49469089  0.49771314  0.33319065  1
  I  I95  1  0.49389685  0.49363153  0.66649873  1
  I  I96  1  0.50048566  0.83378644  0.00425047  1
  I  I97  1  0.50006903  0.83390250  0.33063952  1
  I  I98  1  0.50127007  0.83425490  0.66653450  1
  I  I99  1  0.82477223  0.16726296  0.00323728  1
  I  I100  1  0.82663564  0.16720443  0.33023686  1
  I  I101  1  0.83215479  0.16465239  0.66656720  1
  I  I102  1  0.83326520  0.50052047  0.00016307  1
  I  I103  1  0.83267597  0.49991386  0.33334462  1
  I  I104  1  0.83216583  0.50078866  0.66655737  1
  I  I105  1  0.83244660  0.83379436  0.00057141  1
  I  I106  1  0.83689331  0.83274971  0.33623498  1
  I  I107  1  0.83492298  0.83356722  0.66255039  1
  I  I108  1  -0.00179614  0.16894117  0.16573979  1
  I  I109  1  0.00015347  0.16840788  0.49981000  1
  I  I110  1  0.00313801  0.17254836  0.83321665  1
  I  I111  1  0.00332812  0.49761474  0.16721693  1
  I  I112  1  0.00355005  0.50254802  0.49988138  1
  I  I113  1  0.00408492  0.49487662  0.83195524  1
  I  I114  1  0.00021056  0.83397378  0.16575234  1
  I  I115  1  0.00118066  0.82667438  0.49959451  1
  I  I116  1  0.00037442  0.83357429  0.83687034  1
  I  I117  1  0.33706998  0.16520784  0.16889323  1
  I  I118  1  0.33716009  0.16514811  0.49333724  1
  I  I119  1  0.33502332  0.17086902  0.83566957  1
  I  I120  1  0.33488669  0.49796969  0.16737792  1
  I  I121  1  0.33385246  0.50280010  0.49957931  1
  I  I122  1  0.33394806  0.49596817  0.83357496  1
  I  I123  1  0.33691181  0.83984359  0.16954054  1
  I  I124  1  0.33101362  0.83067915  0.49915729  1
  I  I125  1  0.33349127  0.83495473  0.82990710  1
  I  I126  1  0.66337737  0.16824098  0.16539177  1
  I  I127  1  0.66191522  0.17073682  0.50409235  1
  I  I128  1  0.66280800  0.17097646  0.83185469  1
  I  I129  1  0.66261867  0.50176895  0.16704637  1
  I  I130  1  0.66273221  0.49807171  0.49910143  1
  I  I131  1  0.66236084  0.49518831  0.83358044  1
  I  I132  1  0.66308612  0.82781130  0.17022513  1
  I  I133  1  0.66800311  0.83411993  0.49737075  1
  I  I134  1  0.66617468  0.83316899  0.83008817  1
