# generated using pymatgen
data_Cs27Sn13Pb14I81
_symmetry_space_group_name_H-M   'P 1'
_cell_length_a   18.97551761
_cell_length_b   18.98435206
_cell_length_c   18.97062259
_cell_angle_alpha   90.00079233
_cell_angle_beta   90.00047098
_cell_angle_gamma   90.00109227
_symmetry_Int_Tables_number   1
_chemical_formula_structural   Cs27Sn13Pb14I81
_chemical_formula_sum   'Cs27 Sn13 Pb14 I81'
_cell_volume   6833.93737146
_cell_formula_units_Z   1
loop_
 _symmetry_equiv_pos_site_id
 _symmetry_equiv_pos_as_xyz
  1  'x, y, z'
loop_
 _atom_site_type_symbol
 _atom_site_label
 _atom_site_symmetry_multiplicity
 _atom_site_fract_x
 _atom_site_fract_y
 _atom_site_fract_z
 _atom_site_occupancy
  Cs  Cs0  1  -0.00315018  -0.00566424  -0.00192956  1
  Cs  Cs1  1  0.00047093  -0.00282011  0.33723271  1
  Cs  Cs2  1  0.00094798  0.00316790  0.66710916  1
  Cs  Cs3  1  -0.00381592  0.33572835  -0.00330477  1
  Cs  Cs4  1  0.00350879  0.33271314  0.33765700  1
  Cs  Cs5  1  -0.00014726  0.33279921  0.66680437  1
  Cs  Cs6  1  0.00046945  0.66704010  0.00174727  1
  Cs  Cs7  1  0.00009362  0.66953920  0.33129757  1
  Cs  Cs8  1  0.00226071  0.66452803  0.66656159  1
  Cs  Cs9  1  0.33290934  -0.00125502  0.00136435  1
  Cs  Cs10  1  0.33309281  0.00766083  0.33123661  1
  Cs  Cs11  1  0.33346901  -0.00287704  0.66738551  1
  Cs  Cs12  1  0.33453349  0.33331314  0.00312890  1
  Cs  Cs13  1  0.33017053  0.32832411  0.32807725  1
  Cs  Cs14  1  0.33316947  0.33444119  0.66690874  1
  Cs  Cs15  1  0.33238685  0.66931991  -0.00078813  1
  Cs  Cs16  1  0.33264226  0.66585650  0.33405895  1
  Cs  Cs17  1  0.33758973  0.66912910  0.66585127  1
  Cs  Cs18  1  0.66876262  0.00290067  0.00120126  1
  Cs  Cs19  1  0.66770326  -0.00455707  0.33314678  1
  Cs  Cs20  1  0.66555772  -0.00045291  0.66494030  1
  Cs  Cs21  1  0.66758454  0.33297021  -0.00037866  1
  Cs  Cs22  1  0.66678689  0.33512450  0.33219452  1
  Cs  Cs23  1  0.66650387  0.33552251  0.66611253  1
  Cs  Cs24  1  0.66628102  0.66514541  0.00047135  1
  Cs  Cs25  1  0.66630061  0.66901107  0.33780666  1
  Cs  Cs26  1  0.65774127  0.66592778  0.65953723  1
  Sn  Sn27  1  0.16657919  0.83262836  0.50023100  1
  Sn  Sn28  1  0.83371820  0.16744215  0.16639218  1
  Sn  Sn29  1  0.50004665  0.16685007  0.83258004  1
  Sn  Sn30  1  0.16667349  0.16739083  0.83371618  1
  Sn  Sn31  1  0.50080390  0.50114044  0.16626610  1
  Sn  Sn32  1  0.49996284  0.83226236  0.16626311  1
  Sn  Sn33  1  0.50042661  0.16709501  0.50087102  1
  Sn  Sn34  1  0.83345927  0.50051380  0.83350377  1
  Sn  Sn35  1  0.16664203  0.50078809  0.50089274  1
  Sn  Sn36  1  0.16634551  0.49942340  0.83268633  1
  Sn  Sn37  1  0.83253328  0.49916210  0.16618113  1
  Sn  Sn38  1  0.83266774  0.83245984  0.83267833  1
  Sn  Sn39  1  0.83322387  0.16673549  0.83386247  1
  Pb  Pb40  1  0.83183131  0.83274075  0.16505718  1
  Pb  Pb41  1  0.50240600  0.83582925  0.83505548  1
  Pb  Pb42  1  0.49775060  0.83554003  0.49769064  1
  Pb  Pb43  1  0.16273440  0.16670892  0.16331358  1
  Pb  Pb44  1  0.16846027  0.16704446  0.50237029  1
  Pb  Pb45  1  0.83532814  0.50000824  0.49999331  1
  Pb  Pb46  1  0.83538969  0.83315504  0.50301739  1
  Pb  Pb47  1  0.50204766  0.16701729  0.16620885  1
  Pb  Pb48  1  0.16589659  0.49987529  0.16597732  1
  Pb  Pb49  1  0.16900327  0.83345080  0.16905658  1
  Pb  Pb50  1  0.83125959  0.16680125  0.50025258  1
  Pb  Pb51  1  0.16498840  0.83283039  0.83193888  1
  Pb  Pb52  1  0.49718892  0.49779553  0.49715824  1
  Pb  Pb53  1  0.49991789  0.49822622  0.83502117  1
  I  I54  1  0.16849813  0.00030626  0.16767914  1
  I  I55  1  0.16826210  -0.00170294  0.50108210  1
  I  I56  1  0.16535387  0.00277559  0.83177217  1
  I  I57  1  0.17317869  0.33335017  0.17268849  1
  I  I58  1  0.16740741  0.33588034  0.50205081  1
  I  I59  1  0.16173483  0.33361334  0.82776955  1
  I  I60  1  0.16310864  0.66642991  0.16249060  1
  I  I61  1  0.16644178  0.66556915  0.50619352  1
  I  I62  1  0.16122499  0.66344157  0.83217451  1
  I  I63  1  0.50121730  -0.00134056  0.16675538  1
  I  I64  1  0.49765999  0.00321523  0.50226969  1
  I  I65  1  0.49921429  0.00413163  0.83255528  1
  I  I66  1  0.50202047  0.33551332  0.16649360  1
  I  I67  1  0.49857152  0.33025516  0.50295363  1
  I  I68  1  0.50375899  0.32999844  0.83280167  1
  I  I69  1  0.50579658  0.66560131  0.16618295  1
  I  I70  1  0.50028716  0.66649945  0.50011598  1
  I  I71  1  0.50013089  0.66659087  0.83365276  1
  I  I72  1  0.83085411  0.00246275  0.16095313  1
  I  I73  1  0.83599762  0.00008679  0.49921816  1
  I  I74  1  0.83371912  0.00166572  0.83758099  1
  I  I75  1  0.82671945  0.33396811  0.15747362  1
  I  I76  1  0.83580340  0.33337913  0.50289495  1
  I  I77  1  0.83459726  0.33319351  0.83791161  1
  I  I78  1  0.83203320  0.66341590  0.16140531  1
  I  I79  1  0.83157805  0.66650174  0.49980812  1
  I  I80  1  0.84040369  0.66509357  0.83885906  1
  I  I81  1  0.17290128  0.17280779  -0.00487766  1
  I  I82  1  0.16838998  0.16697035  0.33344333  1
  I  I83  1  0.16107786  0.16804982  0.67052510  1
  I  I84  1  0.16506504  0.49486756  -0.00340157  1
  I  I85  1  0.16740542  0.50398511  0.33575504  1
  I  I86  1  0.16047666  0.49873852  0.66820076  1
  I  I87  1  0.16670194  0.83362112  -0.00029577  1
  I  I88  1  0.16584639  0.82696343  0.33709271  1
  I  I89  1  0.16624967  0.83238614  0.66417218  1
  I  I90  1  0.49921899  0.16681242  -0.00284972  1
  I  I91  1  0.50006547  0.16647484  0.33489455  1
  I  I92  1  0.50189698  0.16651633  0.66834025  1
  I  I93  1  0.49958659  0.50006578  0.00299097  1
  I  I94  1  0.50559306  0.50097736  0.32938944  1
  I  I95  1  0.50243873  0.49978699  0.66672450  1
  I  I96  1  0.49964807  0.83169874  0.00284197  1
  I  I97  1  0.50151528  0.83196194  0.32996640  1
  I  I98  1  0.50067928  0.83359428  0.66667881  1
  I  I99  1  0.83085191  0.16766975  -0.00177673  1
  I  I100  1  0.82986724  0.17143212  0.33027930  1
  I  I101  1  0.83548888  0.16763188  0.67070969  1
  I  I102  1  0.83537577  0.49827692  -0.00114702  1
  I  I103  1  0.83070485  0.49475877  0.32985203  1
  I  I104  1  0.83654976  0.49709692  0.67039463  1
  I  I105  1  0.83439857  0.83520852  -0.00311847  1
  I  I106  1  0.83335261  0.83462580  0.33320089  1
  I  I107  1  0.83341081  0.83589995  0.67128964  1
  I  I108  1  -0.00510491  0.17327700  0.16235039  1
  I  I109  1  0.00025986  0.16631321  0.49975611  1
  I  I110  1  -0.00079697  0.16749769  0.83744159  1
  I  I111  1  -0.00342734  0.49535964  0.16468265  1
  I  I112  1  0.00343483  0.50140617  0.50004338  1
  I  I113  1  -0.00075951  0.49519999  0.83487972  1
  I  I114  1  -0.00032431  0.83369048  0.16692881  1
  I  I115  1  0.00333793  0.83100984  0.49899384  1
  I  I116  1  -0.00306498  0.83833526  0.83397169  1
  I  I117  1  0.33342329  0.16671070  0.16617510  1
  I  I118  1  0.33626981  0.16667225  0.50383197  1
  I  I119  1  0.33321694  0.17118607  0.82835294  1
  I  I120  1  0.33572722  0.50313158  0.16691744  1
  I  I121  1  0.32956293  0.50350421  0.50648631  1
  I  I122  1  0.33055960  0.49484470  0.83152220  1
  I  I123  1  0.33708759  0.82818039  0.16507209  1
  I  I124  1  0.33016709  0.82895011  0.50209225  1
  I  I125  1  0.33345909  0.83440955  0.83375881  1
  I  I126  1  0.66963104  0.16813423  0.15989789  1
  I  I127  1  0.66347012  0.16609076  0.50564846  1
  I  I128  1  0.66774062  0.16654705  0.83427975  1
  I  I129  1  0.66777955  0.49864613  0.16009069  1
  I  I130  1  0.66634498  0.49889945  0.50233599  1
  I  I131  1  0.66974552  0.49782045  0.83706000  1
  I  I132  1  0.66403736  0.83345678  0.16601727  1
  I  I133  1  0.66628451  0.83506090  0.49982970  1
  I  I134  1  0.67049879  0.83343891  0.83485426  1
