# generated using pymatgen
data_Cs27Sn14Pb13I81
_symmetry_space_group_name_H-M   'P 1'
_cell_length_a   18.97688232
_cell_length_b   18.97138598
_cell_length_c   18.98244336
_cell_angle_alpha   89.99959222
_cell_angle_beta   90.00019323
_cell_angle_gamma   90.00053867
_symmetry_Int_Tables_number   1
_chemical_formula_structural   Cs27Sn14Pb13I81
_chemical_formula_sum   'Cs27 Sn14 Pb13 I81'
_cell_volume   6834.01672466
_cell_formula_units_Z   1
loop_
 _symmetry_equiv_pos_site_id
 _symmetry_equiv_pos_as_xyz
  1  'x, y, z'
loop_
 _atom_site_type_symbol
 _atom_site_label
 _atom_site_symmetry_multiplicity
 _atom_site_fract_x
 _atom_site_fract_y
 _atom_site_fract_z
 _atom_site_occupancy
  Cs  Cs0  1  0.00008420  -0.00326658  0.00023545  1
  Cs  Cs1  1  -0.00125043  0.00221151  0.33492530  1
  Cs  Cs2  1  -0.00081172  -0.00075914  0.66531858  1
  Cs  Cs3  1  0.00771056  0.33254942  0.00062436  1
  Cs  Cs4  1  0.00120174  0.32828767  0.33026673  1
  Cs  Cs5  1  0.00081245  0.33292128  0.66847266  1
  Cs  Cs6  1  -0.00172452  0.66788662  0.00007675  1
  Cs  Cs7  1  -0.00000596  0.66690071  0.33252139  1
  Cs  Cs8  1  -0.00139438  0.66692099  0.66707600  1
  Cs  Cs9  1  0.33469386  0.00253318  -0.00088781  1
  Cs  Cs10  1  0.33594082  -0.00097027  0.33707212  1
  Cs  Cs11  1  0.33454157  0.00123162  0.66432320  1
  Cs  Cs12  1  0.32542526  0.32615067  -0.00077771  1
  Cs  Cs13  1  0.33042629  0.33448509  0.33368727  1
  Cs  Cs14  1  0.33052817  0.33208177  0.66663295  1
  Cs  Cs15  1  0.33781056  0.66813358  0.00137333  1
  Cs  Cs16  1  0.33362502  0.66565034  0.33998020  1
  Cs  Cs17  1  0.33323479  0.66568852  0.65811209  1
  Cs  Cs18  1  0.66515585  -0.00250288  -0.00005312  1
  Cs  Cs19  1  0.66700573  0.00775135  0.33429576  1
  Cs  Cs20  1  0.66652463  0.00217212  0.66692777  1
  Cs  Cs21  1  0.66557780  0.33822525  -0.00018413  1
  Cs  Cs22  1  0.66648336  0.32747758  0.33479903  1
  Cs  Cs23  1  0.66607010  0.33368560  0.66563958  1
  Cs  Cs24  1  0.66702951  0.66694731  -0.00007013  1
  Cs  Cs25  1  0.66675320  0.66601663  0.32955751  1
  Cs  Cs26  1  0.66832498  0.66572696  0.66966702  1
  Sn  Sn27  1  0.50020460  0.83251686  0.16599618  1
  Sn  Sn28  1  0.16632593  0.16648834  0.50023979  1
  Sn  Sn29  1  0.83290787  0.83258224  0.49976172  1
  Sn  Sn30  1  0.83327028  0.50072979  0.49961452  1
  Sn  Sn31  1  0.83316671  0.83324951  0.83328093  1
  Sn  Sn32  1  0.16717408  0.83268666  0.83379077  1
  Sn  Sn33  1  0.16694590  0.83290209  0.16603555  1
  Sn  Sn34  1  0.50033773  0.50093377  0.83433600  1
  Sn  Sn35  1  0.49990543  0.83220208  0.83379372  1
  Sn  Sn36  1  0.50067438  0.50074476  0.16551052  1
  Sn  Sn37  1  0.83295854  0.49993318  0.83374976  1
  Sn  Sn38  1  0.83311646  0.16698487  0.83416202  1
  Sn  Sn39  1  0.83270755  0.50067206  0.16662833  1
  Sn  Sn40  1  0.83298898  0.83279431  0.16700612  1
  Pb  Pb41  1  0.50256715  0.50013758  0.49988706  1
  Pb  Pb42  1  0.50013980  0.16724549  0.16633741  1
  Pb  Pb43  1  0.16347423  0.49781386  0.49995093  1
  Pb  Pb44  1  0.83320768  0.16708990  0.16373648  1
  Pb  Pb45  1  0.50218314  0.16704441  0.83355234  1
  Pb  Pb46  1  0.16707165  0.50263639  0.16642077  1
  Pb  Pb47  1  0.16432005  0.16356489  0.83198965  1
  Pb  Pb48  1  0.16735322  0.50284091  0.83345847  1
  Pb  Pb49  1  0.49717279  0.16694751  0.50025442  1
  Pb  Pb50  1  0.50326558  0.83327933  0.49990766  1
  Pb  Pb51  1  0.16668787  0.16319096  0.16857583  1
  Pb  Pb52  1  0.16422875  0.83423028  0.49992007  1
  Pb  Pb53  1  0.83425566  0.16702950  0.50225798  1
  I  I54  1  0.16467680  -0.00515781  0.16196287  1
  I  I55  1  0.16175696  0.00178197  0.50048038  1
  I  I56  1  0.16585116  -0.00459361  0.83691401  1
  I  I57  1  0.16610767  0.33337934  0.16871747  1
  I  I58  1  0.16419862  0.33012753  0.50110950  1
  I  I59  1  0.16589554  0.33326938  0.83116905  1
  I  I60  1  0.16393127  0.67085747  0.16331305  1
  I  I61  1  0.16755206  0.66681940  0.50005782  1
  I  I62  1  0.15938729  0.67093802  0.83619573  1
  I  I63  1  0.50094749  -0.00408931  0.16232435  1
  I  I64  1  0.50367489  -0.00041794  0.49989818  1
  I  I65  1  0.50118428  -0.00375721  0.83737257  1
  I  I66  1  0.50734784  0.33756007  0.16305406  1
  I  I67  1  0.50379229  0.33380550  0.50015339  1
  I  I68  1  0.50660191  0.33721912  0.83671555  1
  I  I69  1  0.50232293  0.66771728  0.16168875  1
  I  I70  1  0.49476257  0.66683507  0.50059286  1
  I  I71  1  0.50625919  0.66759445  0.83762715  1
  I  I72  1  0.83322412  -0.00383256  0.16708659  1
  I  I73  1  0.83509306  -0.00284133  0.50037127  1
  I  I74  1  0.83400712  -0.00241865  0.83230596  1
  I  I75  1  0.82796283  0.33717972  0.16823219  1
  I  I76  1  0.83439021  0.33653765  0.50042815  1
  I  I77  1  0.82805347  0.33500054  0.83132414  1
  I  I78  1  0.83332524  0.66781129  0.16345304  1
  I  I79  1  0.83460787  0.66717817  0.50464025  1
  I  I80  1  0.83326975  0.66742426  0.83275870  1
  I  I81  1  0.16617300  0.16815297  -0.00014273  1
  I  I82  1  0.16281982  0.16497661  0.33615248  1
  I  I83  1  0.16416481  0.16377869  0.66445170  1
  I  I84  1  0.16037163  0.49611558  -0.00009785  1
  I  I85  1  0.16698536  0.50238070  0.33315515  1
  I  I86  1  0.16623636  0.50277825  0.66682235  1
  I  I87  1  0.16055416  0.83348325  -0.00026666  1
  I  I88  1  0.16588692  0.83485487  0.33038594  1
  I  I89  1  0.16511488  0.83497303  0.66946386  1
  I  I90  1  0.49936635  0.16532506  -0.00020775  1
  I  I91  1  0.50152391  0.16526419  0.33318419  1
  I  I92  1  0.50103854  0.16546908  0.66720402  1
  I  I93  1  0.51089214  0.50606747  -0.00032633  1
  I  I94  1  0.50382090  0.50548988  0.32971395  1
  I  I95  1  0.50489621  0.50464618  0.67015263  1
  I  I96  1  0.50428255  0.83025844  -0.00037637  1
  I  I97  1  0.49836791  0.82905558  0.32969006  1
  I  I98  1  0.49975403  0.82986231  0.67025542  1
  I  I99  1  0.83386187  0.16393868  -0.00403688  1
  I  I100  1  0.83506677  0.16579830  0.33331425  1
  I  I101  1  0.83463091  0.16478368  0.66993272  1
  I  I102  1  0.82924794  0.50346773  -0.00032788  1
  I  I103  1  0.83052381  0.50826474  0.33238687  1
  I  I104  1  0.83065341  0.50301583  0.66795673  1
  I  I105  1  0.83417265  0.83211500  -0.00038406  1
  I  I106  1  0.83486540  0.82685482  0.33227439  1
  I  I107  1  0.83459421  0.83136120  0.66821274  1
  I  I108  1  -0.00020962  0.16701917  0.16654043  1
  I  I109  1  0.00171850  0.16509124  0.50140299  1
  I  I110  1  -0.00367065  0.16738617  0.83234649  1
  I  I111  1  -0.00354673  0.50399085  0.16617676  1
  I  I112  1  -0.00502231  0.50509521  0.50128632  1
  I  I113  1  -0.00374609  0.50078415  0.83327349  1
  I  I114  1  -0.00155414  0.83044256  0.16373819  1
  I  I115  1  -0.00395876  0.83074056  0.50108380  1
  I  I116  1  -0.00181540  0.83402479  0.83538477  1
  I  I117  1  0.33327767  0.16730745  0.16741058  1
  I  I118  1  0.32941398  0.16344867  0.50089944  1
  I  I119  1  0.33315333  0.16687084  0.83113435  1
  I  I120  1  0.33707207  0.50406971  0.16167108  1
  I  I121  1  0.33346757  0.49736410  0.50024990  1
  I  I122  1  0.33713442  0.50435868  0.83833195  1
  I  I123  1  0.33415645  0.83073305  0.15898292  1
  I  I124  1  0.33336466  0.83689021  0.50032369  1
  I  I125  1  0.33418945  0.82978923  0.84073966  1
  I  I126  1  0.66697220  0.16065289  0.16867171  1
  I  I127  1  0.66706075  0.16621879  0.50051163  1
  I  I128  1  0.67027736  0.16079600  0.83123681  1
  I  I129  1  0.66793206  0.50837616  0.16524127  1
  I  I130  1  0.67092125  0.50412077  0.50146266  1
  I  I131  1  0.66835351  0.50451543  0.83346600  1
  I  I132  1  0.66741853  0.82941671  0.16335953  1
  I  I133  1  0.67143935  0.83014696  0.50165560  1
  I  I134  1  0.66776422  0.83328125  0.83516088  1
