# generated using pymatgen
data_Cs27Sn13Pb14I81
_symmetry_space_group_name_H-M   'P 1'
_cell_length_a   18.97205988
_cell_length_b   18.98301299
_cell_length_c   18.97747775
_cell_angle_alpha   90.00064610
_cell_angle_beta   90.00136071
_cell_angle_gamma   90.00158998
_symmetry_Int_Tables_number   1
_chemical_formula_structural   Cs27Sn13Pb14I81
_chemical_formula_sum   'Cs27 Sn13 Pb14 I81'
_cell_volume   6834.67900116
_cell_formula_units_Z   1
loop_
 _symmetry_equiv_pos_site_id
 _symmetry_equiv_pos_as_xyz
  1  'x, y, z'
loop_
 _atom_site_type_symbol
 _atom_site_label
 _atom_site_symmetry_multiplicity
 _atom_site_fract_x
 _atom_site_fract_y
 _atom_site_fract_z
 _atom_site_occupancy
  Cs  Cs0  1  0.00070775  -0.00123618  0.00019766  1
  Cs  Cs1  1  -0.00331707  0.00060774  0.33244167  1
  Cs  Cs2  1  -0.00134580  -0.00605386  0.66723291  1
  Cs  Cs3  1  0.00116037  0.33258712  0.00000452  1
  Cs  Cs4  1  -0.00304735  0.33007683  0.33241279  1
  Cs  Cs5  1  0.00056352  0.33393433  0.66790964  1
  Cs  Cs6  1  -0.00080309  0.66887934  -0.00243233  1
  Cs  Cs7  1  0.00052804  0.66930106  0.33398631  1
  Cs  Cs8  1  -0.00546599  0.67401465  0.66918589  1
  Cs  Cs9  1  0.33611097  0.00358540  0.00096896  1
  Cs  Cs10  1  0.33307126  -0.00005537  0.33306594  1
  Cs  Cs11  1  0.33391077  0.00013533  0.66642139  1
  Cs  Cs12  1  0.33191383  0.33114722  -0.00218994  1
  Cs  Cs13  1  0.33083449  0.33593923  0.33734702  1
  Cs  Cs14  1  0.33339143  0.33409394  0.66660238  1
  Cs  Cs15  1  0.33289898  0.66599810  0.00048595  1
  Cs  Cs16  1  0.33411681  0.66585825  0.33397407  1
  Cs  Cs17  1  0.33231550  0.66576395  0.66584134  1
  Cs  Cs18  1  0.65938890  0.00215997  0.00086799  1
  Cs  Cs19  1  0.66939569  0.00031594  0.33232343  1
  Cs  Cs20  1  0.66519401  0.00129937  0.66596837  1
  Cs  Cs21  1  0.66775382  0.33256663  0.00481448  1
  Cs  Cs22  1  0.67752862  0.33490877  0.32931829  1
  Cs  Cs23  1  0.66615845  0.33300856  0.66638288  1
  Cs  Cs24  1  0.66827943  0.66489434  0.00266373  1
  Cs  Cs25  1  0.66524603  0.66405830  0.32927454  1
  Cs  Cs26  1  0.66905733  0.66643897  0.66773221  1
  Sn  Sn27  1  0.49924421  0.50077122  0.83271067  1
  Sn  Sn28  1  0.16717297  0.49977760  0.83272724  1
  Sn  Sn29  1  0.16656957  0.49970192  0.50059190  1
  Sn  Sn30  1  0.83406151  0.83323116  0.16640740  1
  Sn  Sn31  1  0.49965922  0.83292371  0.50083273  1
  Sn  Sn32  1  0.83433890  0.16679796  0.83302973  1
  Sn  Sn33  1  0.16690757  0.50084318  0.16674591  1
  Sn  Sn34  1  0.49960218  0.49967311  0.50082820  1
  Sn  Sn35  1  0.16568758  0.16711238  0.83202140  1
  Sn  Sn36  1  0.16625409  0.83274550  0.16663223  1
  Sn  Sn37  1  0.49937591  0.16742967  0.49989918  1
  Sn  Sn38  1  0.16730458  0.16712697  0.50121790  1
  Sn  Sn39  1  0.49939465  0.83203015  0.83255261  1
  Pb  Pb40  1  0.83323073  0.49816858  0.83327803  1
  Pb  Pb41  1  0.82995826  0.83324556  0.49793018  1
  Pb  Pb42  1  0.83360311  0.16439214  0.16376017  1
  Pb  Pb43  1  0.49930537  0.16758384  0.83174249  1
  Pb  Pb44  1  0.83691063  0.50215820  0.16643371  1
  Pb  Pb45  1  0.49970188  0.16729173  0.17082044  1
  Pb  Pb46  1  0.49769339  0.49965959  0.16673061  1
  Pb  Pb47  1  0.16688619  0.16695094  0.16701673  1
  Pb  Pb48  1  0.83382708  0.50010729  0.50030941  1
  Pb  Pb49  1  0.83411911  0.16668076  0.50215258  1
  Pb  Pb50  1  0.49946993  0.83318817  0.16671209  1
  Pb  Pb51  1  0.83009533  0.83564936  0.83527118  1
  Pb  Pb52  1  0.16869262  0.83347692  0.83516082  1
  Pb  Pb53  1  0.16834357  0.83337252  0.49819650  1
  I  I54  1  0.16358170  -0.00258523  0.16676237  1
  I  I55  1  0.17159121  0.00280369  0.50276792  1
  I  I56  1  0.16516980  0.00278479  0.83064283  1
  I  I57  1  0.16927643  0.33649251  0.16644043  1
  I  I58  1  0.17477343  0.33387345  0.49869230  1
  I  I59  1  0.16889401  0.33413373  0.83541878  1
  I  I60  1  0.16381566  0.66578372  0.16693115  1
  I  I61  1  0.17151375  0.66352460  0.50099862  1
  I  I62  1  0.16991518  0.66358961  0.83147029  1
  I  I63  1  0.49762324  -0.00022298  0.16469662  1
  I  I64  1  0.49611953  0.00013346  0.50389074  1
  I  I65  1  0.50051197  -0.00162748  0.83033420  1
  I  I66  1  0.49835286  0.33360265  0.16282703  1
  I  I67  1  0.49399975  0.33412002  0.50526429  1
  I  I68  1  0.49836112  0.33634442  0.82941533  1
  I  I69  1  0.50144100  0.66662172  0.17064961  1
  I  I70  1  0.49544951  0.66584296  0.50320167  1
  I  I71  1  0.49448719  0.66571273  0.82624985  1
  I  I72  1  0.84045588  -0.00331142  0.16751940  1
  I  I73  1  0.83299357  0.00001976  0.49944587  1
  I  I74  1  0.83923187  0.00324507  0.83347451  1
  I  I75  1  0.83267198  0.33332868  0.16694491  1
  I  I76  1  0.82800100  0.33325437  0.49870478  1
  I  I77  1  0.83313243  0.33026869  0.83290990  1
  I  I78  1  0.83352708  0.66986210  0.16577134  1
  I  I79  1  0.83438361  0.66676796  0.50036330  1
  I  I80  1  0.83506512  0.66692548  0.83457843  1
  I  I81  1  0.16323727  0.16965582  -0.00302904  1
  I  I82  1  0.17232175  0.16950862  0.33671549  1
  I  I83  1  0.16754307  0.17431407  0.66667298  1
  I  I84  1  0.17059250  0.49962870  -0.00113273  1
  I  I85  1  0.17146607  0.50028752  0.33438822  1
  I  I86  1  0.17266722  0.49329773  0.66673332  1
  I  I87  1  0.16601225  0.82937688  0.00298343  1
  I  I88  1  0.16614064  0.82965622  0.33030825  1
  I  I89  1  0.16648098  0.83196355  0.66669420  1
  I  I90  1  0.50000378  0.16463947  -0.00044080  1
  I  I91  1  0.49238437  0.16474504  0.33925300  1
  I  I92  1  0.49856517  0.16564315  0.66361147  1
  I  I93  1  0.49601452  0.50565712  -0.00345355  1
  I  I94  1  0.49529679  0.50167297  0.33701962  1
  I  I95  1  0.49211582  0.50090770  0.66633636  1
  I  I96  1  0.49988590  0.82934853  -0.00279502  1
  I  I97  1  0.49941434  0.83315657  0.33642916  1
  I  I98  1  0.49886554  0.83307382  0.66629559  1
  I  I99  1  0.83938965  0.16730441  -0.00398058  1
  I  I100  1  0.83227351  0.16566822  0.33332541  1
  I  I101  1  0.83461021  0.16601112  0.66980631  1
  I  I102  1  0.83175807  0.49916085  -0.00013450  1
  I  I103  1  0.83134452  0.49965279  0.33327022  1
  I  I104  1  0.83688957  0.50076148  0.66688967  1
  I  I105  1  0.83670593  0.83379777  0.00290441  1
  I  I106  1  0.83684182  0.83433412  0.33008460  1
  I  I107  1  0.83417059  0.83412047  0.66698329  1
  I  I108  1  0.00044380  0.16810300  0.17113663  1
  I  I109  1  0.00385990  0.17255355  0.50058223  1
  I  I110  1  0.00238440  0.17211286  0.82885498  1
  I  I111  1  0.00518064  0.50058068  0.16669973  1
  I  I112  1  0.00454337  0.49397308  0.49959375  1
  I  I113  1  0.00384139  0.49730907  0.83313933  1
  I  I114  1  0.00126824  0.82905440  0.16617308  1
  I  I115  1  0.00017934  0.83354971  0.49990786  1
  I  I116  1  0.00014585  0.83154095  0.83351493  1
  I  I117  1  0.33287727  0.16189300  0.16031293  1
  I  I118  1  0.33272686  0.16741425  0.50583415  1
  I  I119  1  0.33041126  0.16776549  0.83206498  1
  I  I120  1  0.32938739  0.50734080  0.16705560  1
  I  I121  1  0.33309186  0.49917365  0.50009989  1
  I  I122  1  0.33251003  0.49801839  0.83301365  1
  I  I123  1  0.33062486  0.82931467  0.16720655  1
  I  I124  1  0.33660686  0.83351468  0.50085682  1
  I  I125  1  0.33659175  0.83435429  0.83188405  1
  I  I126  1  0.66676402  0.16348500  0.16493128  1
  I  I127  1  0.66354987  0.16616981  0.50187644  1
  I  I128  1  0.66794109  0.16473763  0.83241116  1
  I  I129  1  0.66676189  0.50153497  0.16697917  1
  I  I130  1  0.66268972  0.49961408  0.50496558  1
  I  I131  1  0.66301609  0.50250151  0.82795346  1
  I  I132  1  0.66861404  0.83576747  0.16690119  1
  I  I133  1  0.66147907  0.83415737  0.50195834  1
  I  I134  1  0.66222055  0.82951383  0.83147288  1
