# generated using pymatgen
data_Cs27Sn14Pb13I81
_symmetry_space_group_name_H-M   'P 1'
_cell_length_a   18.96219113
_cell_length_b   18.96262788
_cell_length_c   18.95985533
_cell_angle_alpha   90.00032396
_cell_angle_beta   90.00084774
_cell_angle_gamma   89.99913785
_symmetry_Int_Tables_number   1
_chemical_formula_structural   Cs27Sn14Pb13I81
_chemical_formula_sum   'Cs27 Sn14 Pb13 I81'
_cell_volume   6817.45157004
_cell_formula_units_Z   1
loop_
 _symmetry_equiv_pos_site_id
 _symmetry_equiv_pos_as_xyz
  1  'x, y, z'
loop_
 _atom_site_type_symbol
 _atom_site_label
 _atom_site_symmetry_multiplicity
 _atom_site_fract_x
 _atom_site_fract_y
 _atom_site_fract_z
 _atom_site_occupancy
  Cs  Cs0  1  -0.00019341  0.00052748  -0.00307633  1
  Cs  Cs1  1  -0.00142181  -0.00038862  0.33483082  1
  Cs  Cs2  1  0.00047822  -0.00120842  0.66769026  1
  Cs  Cs3  1  0.00070575  0.33441129  -0.00022955  1
  Cs  Cs4  1  0.00039368  0.33375990  0.33343780  1
  Cs  Cs5  1  0.00192818  0.33266347  0.66645334  1
  Cs  Cs6  1  0.00007792  0.66365791  -0.00120524  1
  Cs  Cs7  1  -0.00120527  0.66702130  0.33270359  1
  Cs  Cs8  1  -0.00025802  0.66948501  0.66859335  1
  Cs  Cs9  1  0.33475529  -0.00024839  0.00141255  1
  Cs  Cs10  1  0.33445132  0.00384353  0.32699395  1
  Cs  Cs11  1  0.33263902  -0.00091648  0.66830569  1
  Cs  Cs12  1  0.32958352  0.33457603  -0.00043098  1
  Cs  Cs13  1  0.32809125  0.32785560  0.34031271  1
  Cs  Cs14  1  0.33487587  0.33973590  0.66056677  1
  Cs  Cs15  1  0.33060721  0.66634344  0.00280724  1
  Cs  Cs16  1  0.33030832  0.66798612  0.33097615  1
  Cs  Cs17  1  0.33512109  0.66498232  0.66575405  1
  Cs  Cs18  1  0.66554247  0.00030349  -0.00113889  1
  Cs  Cs19  1  0.66682061  -0.00005115  0.33294770  1
  Cs  Cs20  1  0.66644435  -0.00112868  0.66754138  1
  Cs  Cs21  1  0.66742288  0.33451757  0.00061753  1
  Cs  Cs22  1  0.66743302  0.33458864  0.33267612  1
  Cs  Cs23  1  0.66365791  0.33470124  0.66618181  1
  Cs  Cs24  1  0.66840953  0.66419630  0.00006949  1
  Cs  Cs25  1  0.66775892  0.66643945  0.33225087  1
  Cs  Cs26  1  0.66571537  0.66737857  0.66834689  1
  Sn  Sn27  1  0.50010299  0.49953451  0.16712403  1
  Sn  Sn28  1  0.49918283  0.83386232  0.83282710  1
  Sn  Sn29  1  0.83310820  0.16660627  0.16665475  1
  Sn  Sn30  1  0.83312350  0.83315540  0.49939457  1
  Sn  Sn31  1  0.83305008  0.16672853  0.50022537  1
  Sn  Sn32  1  0.83319176  0.83339045  0.16708521  1
  Sn  Sn33  1  0.16694885  0.83381541  0.50046470  1
  Sn  Sn34  1  0.49988440  0.83366949  0.50017645  1
  Sn  Sn35  1  0.83312482  0.50035524  0.49965475  1
  Sn  Sn36  1  0.83253050  0.49999089  0.16755662  1
  Sn  Sn37  1  0.83312157  0.16660198  0.83312033  1
  Sn  Sn38  1  0.16779393  0.83406617  0.83254214  1
  Sn  Sn39  1  0.16713396  0.16602253  0.83292778  1
  Sn  Sn40  1  0.49968658  0.16636688  0.83318913  1
  Pb  Pb41  1  0.50188743  0.16900564  0.16454932  1
  Pb  Pb42  1  0.16399639  0.83356732  0.16629569  1
  Pb  Pb43  1  0.16686528  0.50043083  0.83302943  1
  Pb  Pb44  1  0.49997607  0.50040783  0.83533569  1
  Pb  Pb45  1  0.16399960  0.50287135  0.50002706  1
  Pb  Pb46  1  0.16424348  0.16647455  0.16429327  1
  Pb  Pb47  1  0.50198765  0.16452185  0.50195453  1
  Pb  Pb48  1  0.83329477  0.49679842  0.83307177  1
  Pb  Pb49  1  0.83316666  0.83485450  0.83323745  1
  Pb  Pb50  1  0.50217521  0.83196373  0.16632045  1
  Pb  Pb51  1  0.16640785  0.49979424  0.16703655  1
  Pb  Pb52  1  0.16463053  0.16426450  0.50220029  1
  Pb  Pb53  1  0.50198781  0.50253022  0.49756131  1
  I  I54  1  0.16456270  -0.00016334  0.16805325  1
  I  I55  1  0.16228039  -0.00402346  0.50264368  1
  I  I56  1  0.16550301  -0.00046694  0.82961292  1
  I  I57  1  0.16354885  0.33313029  0.16314746  1
  I  I58  1  0.16455938  0.33306115  0.50152324  1
  I  I59  1  0.16446405  0.32986667  0.83586939  1
  I  I60  1  0.16299892  0.66694006  0.16351626  1
  I  I61  1  0.16378214  0.67127678  0.50657098  1
  I  I62  1  0.17010994  0.67069926  0.83004865  1
  I  I63  1  0.50248336  0.00003969  0.16733064  1
  I  I64  1  0.50399548  -0.00399307  0.50115141  1
  I  I65  1  0.50085006  -0.00048624  0.83063893  1
  I  I66  1  0.50896771  0.33657116  0.16385036  1
  I  I67  1  0.50260281  0.33334840  0.50179101  1
  I  I68  1  0.50203316  0.33020424  0.83592812  1
  I  I69  1  0.50851226  0.66427311  0.16493954  1
  I  I70  1  0.50323209  0.67085081  0.50687193  1
  I  I71  1  0.49639342  0.67035213  0.83023179  1
  I  I72  1  0.83438540  0.00015530  0.16908812  1
  I  I73  1  0.83365946  -0.00071744  0.49772080  1
  I  I74  1  0.83345014  0.00314788  0.83388161  1
  I  I75  1  0.82978796  0.33325109  0.16810169  1
  I  I76  1  0.83314740  0.33279857  0.49788156  1
  I  I77  1  0.83344159  0.32829704  0.83386112  1
  I  I78  1  0.83020749  0.66665276  0.17339557  1
  I  I79  1  0.83368577  0.66790640  0.49297720  1
  I  I80  1  0.83366116  0.66678071  0.83411541  1
  I  I81  1  0.16392628  0.16008279  -0.00431729  1
  I  I82  1  0.16474899  0.16580821  0.33369316  1
  I  I83  1  0.16232089  0.16365827  0.67054612  1
  I  I84  1  0.16303270  0.50240997  0.00000049  1
  I  I85  1  0.16730385  0.50237797  0.33359069  1
  I  I86  1  0.16396111  0.49816791  0.66646383  1
  I  I87  1  0.16965751  0.83715268  -0.00353423  1
  I  I88  1  0.16705569  0.83124858  0.33643762  1
  I  I89  1  0.16327523  0.83711536  0.66685886  1
  I  I90  1  0.50336963  0.15981739  -0.00394161  1
  I  I91  1  0.50243573  0.16536796  0.33340746  1
  I  I92  1  0.50395098  0.16499791  0.67048976  1
  I  I93  1  0.50941574  0.50190053  0.00301496  1
  I  I94  1  0.50582130  0.50243075  0.32992890  1
  I  I95  1  0.50178922  0.49885246  0.66634651  1
  I  I96  1  0.49756229  0.83617127  -0.00311177  1
  I  I97  1  0.49980308  0.83067787  0.33604132  1
  I  I98  1  0.50298507  0.83643935  0.66685751  1
  I  I99  1  0.83350606  0.16602985  -0.00014375  1
  I  I100  1  0.83310766  0.16592723  0.33354917  1
  I  I101  1  0.83370692  0.16508983  0.66667351  1
  I  I102  1  0.83037100  0.50118825  0.00327613  1
  I  I103  1  0.82985356  0.49728155  0.33304231  1
  I  I104  1  0.83425683  0.50196199  0.66335171  1
  I  I105  1  0.83302904  0.83321626  0.00232431  1
  I  I106  1  0.83331737  0.83675211  0.33462418  1
  I  I107  1  0.83355764  0.83333115  0.66363268  1
  I  I108  1  -0.00499122  0.16865887  0.16493139  1
  I  I109  1  -0.00436728  0.16444762  0.50163329  1
  I  I110  1  -0.00061738  0.16238815  0.83377727  1
  I  I111  1  -0.00428621  0.50012016  0.16982937  1
  I  I112  1  -0.00473476  0.50088935  0.49353599  1
  I  I113  1  -0.00027849  0.50107479  0.83599208  1
  I  I114  1  -0.00468184  0.83128082  0.16989893  1
  I  I115  1  -0.00132038  0.83338642  0.50062188  1
  I  I116  1  0.00203578  0.83759820  0.83075272  1
  I  I117  1  0.33351927  0.16845023  0.16495443  1
  I  I118  1  0.33335099  0.16616261  0.50106158  1
  I  I119  1  0.33349911  0.16062665  0.83491857  1
  I  I120  1  0.33618885  0.50304919  0.16268390  1
  I  I121  1  0.33351413  0.50084410  0.49873298  1
  I  I122  1  0.33351114  0.49586269  0.83665593  1
  I  I123  1  0.33350756  0.83007433  0.16889871  1
  I  I124  1  0.33349347  0.83225271  0.50659602  1
  I  I125  1  0.33355396  0.84102454  0.82598609  1
  I  I126  1  0.67097340  0.16436428  0.16436129  1
  I  I127  1  0.67095223  0.16385453  0.50208124  1
  I  I128  1  0.66720537  0.16221475  0.83374586  1
  I  I129  1  0.66930473  0.50043091  0.16920082  1
  I  I130  1  0.67066884  0.50176179  0.49840243  1
  I  I131  1  0.66687607  0.50093332  0.83227071  1
  I  I132  1  0.67067931  0.83526234  0.16995829  1
  I  I133  1  0.66790714  0.83355245  0.50075036  1
  I  I134  1  0.66436276  0.83754188  0.83067789  1
