# generated using pymatgen
data_Cs27Sn14Pb13I81
_symmetry_space_group_name_H-M   'P 1'
_cell_length_a   18.97439908
_cell_length_b   18.98761864
_cell_length_c   18.96719380
_cell_angle_alpha   89.99982784
_cell_angle_beta   90.00089448
_cell_angle_gamma   90.00010548
_symmetry_Int_Tables_number   1
_chemical_formula_structural   Cs27Sn14Pb13I81
_chemical_formula_sum   'Cs27 Sn14 Pb13 I81'
_cell_volume   6833.47504246
_cell_formula_units_Z   1
loop_
 _symmetry_equiv_pos_site_id
 _symmetry_equiv_pos_as_xyz
  1  'x, y, z'
loop_
 _atom_site_type_symbol
 _atom_site_label
 _atom_site_symmetry_multiplicity
 _atom_site_fract_x
 _atom_site_fract_y
 _atom_site_fract_z
 _atom_site_occupancy
  Cs  Cs0  1  -0.00160262  -0.00321247  -0.00257572  1
  Cs  Cs1  1  -0.00319086  0.00089254  0.33591254  1
  Cs  Cs2  1  0.00111960  -0.00082466  0.66652673  1
  Cs  Cs3  1  -0.00062206  0.33818596  0.00042958  1
  Cs  Cs4  1  0.00001845  0.33177638  0.33456350  1
  Cs  Cs5  1  0.00270666  0.33253058  0.66524578  1
  Cs  Cs6  1  -0.00152557  0.66409527  -0.00131572  1
  Cs  Cs7  1  -0.00000029  0.66734403  0.33393239  1
  Cs  Cs8  1  0.00308600  0.66850048  0.66728790  1
  Cs  Cs9  1  0.33431121  0.00063425  0.00682293  1
  Cs  Cs10  1  0.33201827  -0.00054315  0.32599529  1
  Cs  Cs11  1  0.33433974  0.00139569  0.66658826  1
  Cs  Cs12  1  0.33095686  0.33036148  -0.00060795  1
  Cs  Cs13  1  0.33387709  0.33380914  0.32838408  1
  Cs  Cs14  1  0.33299700  0.33385605  0.66677566  1
  Cs  Cs15  1  0.33181170  0.66900664  0.00382247  1
  Cs  Cs16  1  0.33454593  0.66737809  0.32487655  1
  Cs  Cs17  1  0.33362886  0.66458301  0.66702007  1
  Cs  Cs18  1  0.66621912  -0.00029041  0.00022611  1
  Cs  Cs19  1  0.66917069  -0.00036441  0.33463316  1
  Cs  Cs20  1  0.66572862  0.00093684  0.66623166  1
  Cs  Cs21  1  0.67024381  0.33606162  -0.00064445  1
  Cs  Cs22  1  0.66593388  0.33493869  0.33516954  1
  Cs  Cs23  1  0.66443405  0.33176348  0.66626676  1
  Cs  Cs24  1  0.66996274  0.66448816  0.00164993  1
  Cs  Cs25  1  0.66608692  0.66634619  0.33394720  1
  Cs  Cs26  1  0.66340176  0.66723351  0.66563931  1
  Sn  Sn27  1  0.49915025  0.16660241  0.83257602  1
  Sn  Sn28  1  0.16786512  0.49919092  0.83211039  1
  Sn  Sn29  1  0.50017493  0.83424090  0.50067644  1
  Sn  Sn30  1  0.83256446  0.83332036  0.49984033  1
  Sn  Sn31  1  0.49909491  0.49968910  0.83299243  1
  Sn  Sn32  1  0.49992542  0.83368261  0.83252701  1
  Sn  Sn33  1  0.83326731  0.83430138  0.16757259  1
  Sn  Sn34  1  0.16645361  0.49937186  0.50039091  1
  Sn  Sn35  1  0.83403264  0.50002482  0.50065938  1
  Sn  Sn36  1  0.83324626  0.16666133  0.49963680  1
  Sn  Sn37  1  0.16745251  0.16709928  0.83244271  1
  Sn  Sn38  1  0.83327328  0.16596017  0.16725175  1
  Sn  Sn39  1  0.49945581  0.16573761  0.50034217  1
  Sn  Sn40  1  0.16725677  0.16726892  0.50057839  1
  Pb  Pb41  1  0.16380049  0.16664885  0.16650634  1
  Pb  Pb42  1  0.16657948  0.49971486  0.16675499  1
  Pb  Pb43  1  0.16746022  0.83345430  0.49993654  1
  Pb  Pb44  1  0.50262009  0.16684092  0.16677179  1
  Pb  Pb45  1  0.83366975  0.16671525  0.83293346  1
  Pb  Pb46  1  0.16961752  0.83367146  0.83310818  1
  Pb  Pb47  1  0.49996142  0.49970346  0.16267896  1
  Pb  Pb48  1  0.83343161  0.49988917  0.16984246  1
  Pb  Pb49  1  0.50240559  0.83351034  0.16718222  1
  Pb  Pb50  1  0.49917519  0.49996911  0.50106639  1
  Pb  Pb51  1  0.83390944  0.49993630  0.83034356  1
  Pb  Pb52  1  0.16298989  0.83352328  0.16672556  1
  Pb  Pb53  1  0.83096566  0.83331647  0.83266165  1
  I  I54  1  0.16898629  0.00040687  0.16600482  1
  I  I55  1  0.16329903  0.00353180  0.50472210  1
  I  I56  1  0.16849450  0.00357963  0.82813113  1
  I  I57  1  0.16287923  0.33305875  0.16658885  1
  I  I58  1  0.16215159  0.33242730  0.50433814  1
  I  I59  1  0.17500143  0.33290046  0.82868347  1
  I  I60  1  0.16502441  0.66648555  0.16655386  1
  I  I61  1  0.16211769  0.66357608  0.50506864  1
  I  I62  1  0.16955992  0.66344665  0.82854516  1
  I  I63  1  0.49851767  0.00014824  0.16112221  1
  I  I64  1  0.50463470  0.00080215  0.50843203  1
  I  I65  1  0.49775579  0.00090363  0.82863543  1
  I  I66  1  0.50439455  0.33302275  0.16927464  1
  I  I67  1  0.50415932  0.33033393  0.50407793  1
  I  I68  1  0.49673506  0.33245599  0.82848694  1
  I  I69  1  0.50326762  0.66683283  0.16841314  1
  I  I70  1  0.50506113  0.66905487  0.50482007  1
  I  I71  1  0.49786432  0.66675250  0.82802992  1
  I  I72  1  0.83307607  0.00017190  0.17593992  1
  I  I73  1  0.83265663  0.00050490  0.49589173  1
  I  I74  1  0.83446141  0.00013533  0.83030923  1
  I  I75  1  0.83327262  0.33039457  0.17028596  1
  I  I76  1  0.83323200  0.33226987  0.49671053  1
  I  I77  1  0.82718417  0.33322241  0.83518946  1
  I  I78  1  0.83194232  0.66961553  0.17047048  1
  I  I79  1  0.83257895  0.66720914  0.49699369  1
  I  I80  1  0.83298126  0.66662034  0.83390754  1
  I  I81  1  0.17088645  0.17080125  -0.00356005  1
  I  I82  1  0.16899155  0.17078317  0.33707172  1
  I  I83  1  0.16502124  0.17066654  0.66562794  1
  I  I84  1  0.17139650  0.49544842  -0.00383529  1
  I  I85  1  0.16118036  0.49560991  0.33715063  1
  I  I86  1  0.16581039  0.49542434  0.66646325  1
  I  I87  1  0.16683092  0.83321346  -0.00035731  1
  I  I88  1  0.17276581  0.83247017  0.33379576  1
  I  I89  1  0.15949126  0.83311126  0.66645516  1
  I  I90  1  0.49640560  0.16634418  -0.00364950  1
  I  I91  1  0.49760057  0.16139453  0.33721584  1
  I  I92  1  0.50247602  0.16591032  0.66609637  1
  I  I93  1  0.49474065  0.49980617  -0.00599560  1
  I  I94  1  0.50029732  0.50069169  0.33369496  1
  I  I95  1  0.49990762  0.50013765  0.66932507  1
  I  I96  1  0.50040370  0.83341870  -0.00311994  1
  I  I97  1  0.50193219  0.83832540  0.33700250  1
  I  I98  1  0.50702754  0.83459250  0.66591294  1
  I  I99  1  0.83258606  0.16087296  0.00246882  1
  I  I100  1  0.83355743  0.16587625  0.33589880  1
  I  I101  1  0.83282651  0.16571275  0.66294389  1
  I  I102  1  0.83271151  0.50072117  -0.00007007  1
  I  I103  1  0.83867178  0.49964850  0.33814630  1
  I  I104  1  0.83410770  0.49889836  0.66223812  1
  I  I105  1  0.83224575  0.83899290  0.00266732  1
  I  I106  1  0.82753974  0.83412742  0.33552776  1
  I  I107  1  0.83157739  0.83517564  0.66280433  1
  I  I108  1  -0.00394511  0.16231383  0.17208696  1
  I  I109  1  -0.00020732  0.16715000  0.49986506  1
  I  I110  1  0.00321064  0.17249566  0.83036595  1
  I  I111  1  -0.00026314  0.50119076  0.16027608  1
  I  I112  1  0.00008570  0.49697542  0.50508567  1
  I  I113  1  0.00348583  0.49404150  0.83228198  1
  I  I114  1  -0.00511702  0.83781482  0.17423974  1
  I  I115  1  -0.00296660  0.83535700  0.49499884  1
  I  I116  1  0.00006407  0.83294232  0.83479726  1
  I  I117  1  0.33328082  0.16741239  0.16902936  1
  I  I118  1  0.33354693  0.16693375  0.50628806  1
  I  I119  1  0.33395537  0.16759777  0.82506837  1
  I  I120  1  0.33320054  0.50112705  0.17392443  1
  I  I121  1  0.33045674  0.49673972  0.50357117  1
  I  I122  1  0.33313116  0.49935997  0.82564386  1
  I  I123  1  0.33368128  0.83168142  0.16716824  1
  I  I124  1  0.33688258  0.83612898  0.50654863  1
  I  I125  1  0.33772566  0.83300006  0.82483268  1
  I  I126  1  0.67044503  0.16229890  0.17107069  1
  I  I127  1  0.66672327  0.16632850  0.50038293  1
  I  I128  1  0.66344646  0.16688083  0.83010656  1
  I  I129  1  0.66707789  0.49975346  0.16613563  1
  I  I130  1  0.66879833  0.49786673  0.50084768  1
  I  I131  1  0.66368866  0.49912811  0.83233969  1
  I  I132  1  0.67013664  0.83818594  0.16866454  1
  I  I133  1  0.66708293  0.83596632  0.50038258  1
  I  I134  1  0.66265627  0.83436081  0.83153766  1
