# generated using pymatgen
data_Cs27Sn13Pb14I81
_symmetry_space_group_name_H-M   'P 1'
_cell_length_a   18.97215494
_cell_length_b   18.98578805
_cell_length_c   18.97744451
_cell_angle_alpha   90.00030921
_cell_angle_beta   90.00082691
_cell_angle_gamma   90.00077669
_symmetry_Int_Tables_number   1
_chemical_formula_structural   Cs27Sn13Pb14I81
_chemical_formula_sum   'Cs27 Sn13 Pb14 I81'
_cell_volume   6835.70041755
_cell_formula_units_Z   1
loop_
 _symmetry_equiv_pos_site_id
 _symmetry_equiv_pos_as_xyz
  1  'x, y, z'
loop_
 _atom_site_type_symbol
 _atom_site_label
 _atom_site_symmetry_multiplicity
 _atom_site_fract_x
 _atom_site_fract_y
 _atom_site_fract_z
 _atom_site_occupancy
  Cs  Cs0  1  -0.00846953  -0.00556071  -0.00131658  1
  Cs  Cs1  1  0.00031611  -0.00026135  0.33419066  1
  Cs  Cs2  1  0.00051352  -0.00023319  0.66654268  1
  Cs  Cs3  1  -0.00702113  0.33593585  0.00214647  1
  Cs  Cs4  1  -0.00136013  0.33505595  0.33446589  1
  Cs  Cs5  1  -0.00199535  0.33260774  0.66401186  1
  Cs  Cs6  1  0.00320379  0.67241401  0.00172448  1
  Cs  Cs7  1  -0.00118552  0.66481926  0.33001466  1
  Cs  Cs8  1  -0.00128720  0.66783570  0.66912687  1
  Cs  Cs9  1  0.33361701  0.00085393  0.00015202  1
  Cs  Cs10  1  0.33524217  0.00131298  0.33479736  1
  Cs  Cs11  1  0.33401876  0.00127268  0.66509017  1
  Cs  Cs12  1  0.33389387  0.33355954  -0.00020854  1
  Cs  Cs13  1  0.33351456  0.33165381  0.33299114  1
  Cs  Cs14  1  0.33313029  0.33167167  0.66792189  1
  Cs  Cs15  1  0.32945979  0.66505109  -0.00155067  1
  Cs  Cs16  1  0.33365057  0.66637936  0.33234889  1
  Cs  Cs17  1  0.33281406  0.66524055  0.66901634  1
  Cs  Cs18  1  0.67013987  0.00022700  0.00002777  1
  Cs  Cs19  1  0.66380473  -0.00093072  0.33437267  1
  Cs  Cs20  1  0.66497307  -0.00076338  0.66523629  1
  Cs  Cs21  1  0.66946801  0.33178815  -0.00246219  1
  Cs  Cs22  1  0.66742641  0.33509474  0.33316240  1
  Cs  Cs23  1  0.66907538  0.33724393  0.66839874  1
  Cs  Cs24  1  0.66740584  0.66840518  -0.00324261  1
  Cs  Cs25  1  0.66632265  0.66457409  0.33397179  1
  Cs  Cs26  1  0.66761598  0.66166293  0.66755904  1
  Sn  Sn27  1  0.49876401  0.49976172  0.49935803  1
  Sn  Sn28  1  0.16788167  0.49995631  0.50001230  1
  Sn  Sn29  1  0.16691592  0.16638747  0.16615184  1
  Sn  Sn30  1  0.83401910  0.16556854  0.49975496  1
  Sn  Sn31  1  0.16603681  0.16657745  0.49987069  1
  Sn  Sn32  1  0.16608364  0.83326928  0.49978343  1
  Sn  Sn33  1  0.49921345  0.16668546  0.16577004  1
  Sn  Sn34  1  0.49949462  0.83436870  0.83412307  1
  Sn  Sn35  1  0.83409779  0.83424392  0.49981239  1
  Sn  Sn36  1  0.49970988  0.49975160  0.16728001  1
  Sn  Sn37  1  0.16693232  0.16668185  0.83400798  1
  Sn  Sn38  1  0.49955120  0.83345708  0.16564123  1
  Sn  Sn39  1  0.49911133  0.16567923  0.83425508  1
  Pb  Pb40  1  0.83077265  0.83348269  0.83075516  1
  Pb  Pb41  1  0.83332861  0.16662764  0.83080621  1
  Pb  Pb42  1  0.83078796  0.83341448  0.16919674  1
  Pb  Pb43  1  0.83400003  0.50031966  0.49989760  1
  Pb  Pb44  1  0.83091471  0.50019872  0.16659080  1
  Pb  Pb45  1  0.16850783  0.49770839  0.16837960  1
  Pb  Pb46  1  0.49983101  0.83109390  0.50026193  1
  Pb  Pb47  1  0.50005733  0.16860322  0.50024071  1
  Pb  Pb48  1  0.16878622  0.83573088  0.16869144  1
  Pb  Pb49  1  0.49982759  0.49956947  0.83406200  1
  Pb  Pb50  1  0.16652752  0.49734004  0.83149928  1
  Pb  Pb51  1  0.83407260  0.50034701  0.83372782  1
  Pb  Pb52  1  0.16874709  0.83570932  0.83128401  1
  Pb  Pb53  1  0.83322096  0.16658113  0.16915887  1
  I  I54  1  0.17414509  0.00401400  0.17103848  1
  I  I55  1  0.16251878  0.00120273  0.50009933  1
  I  I56  1  0.17047062  0.00398285  0.82906114  1
  I  I57  1  0.17385594  0.32919791  0.17021834  1
  I  I58  1  0.16735953  0.33197146  0.50009205  1
  I  I59  1  0.17577602  0.32851891  0.82973286  1
  I  I60  1  0.16920383  0.66678074  0.17023735  1
  I  I61  1  0.16813278  0.66675479  0.49966851  1
  I  I62  1  0.16907617  0.66700575  0.82986123  1
  I  I63  1  0.49647531  0.00082060  0.16361587  1
  I  I64  1  0.49863340  0.00006142  0.49791036  1
  I  I65  1  0.49661374  0.00111578  0.83901463  1
  I  I66  1  0.49562204  0.33234080  0.16819734  1
  I  I67  1  0.49666778  0.33623464  0.49661421  1
  I  I68  1  0.49611646  0.32998611  0.83479726  1
  I  I69  1  0.50174964  0.66673292  0.16922940  1
  I  I70  1  0.49704254  0.66352082  0.49646805  1
  I  I71  1  0.50165512  0.66927134  0.83439779  1
  I  I72  1  0.82977798  0.00015165  0.16753794  1
  I  I73  1  0.84040137  0.00058178  0.49996456  1
  I  I74  1  0.83343082  0.00018721  0.83278778  1
  I  I75  1  0.83086493  0.33299181  0.17039683  1
  I  I76  1  0.83623159  0.33074465  0.50017315  1
  I  I77  1  0.82936918  0.33270846  0.82925236  1
  I  I78  1  0.83119609  0.66687647  0.17159388  1
  I  I79  1  0.83470634  0.66951039  0.50017974  1
  I  I80  1  0.82845802  0.66720068  0.82769618  1
  I  I81  1  0.17587681  0.16727351  0.00020824  1
  I  I82  1  0.16828569  0.16665339  0.33430955  1
  I  I83  1  0.16805687  0.16671033  0.66554965  1
  I  I84  1  0.16938784  0.49836901  0.00027083  1
  I  I85  1  0.16947380  0.49709688  0.33722572  1
  I  I86  1  0.17410138  0.49771020  0.66205899  1
  I  I87  1  0.16666138  0.83413207  0.00006060  1
  I  I88  1  0.16676952  0.83640462  0.33725870  1
  I  I89  1  0.16667188  0.83598402  0.66267571  1
  I  I90  1  0.49223847  0.16807939  0.00062755  1
  I  I91  1  0.49736419  0.16436578  0.33084765  1
  I  I92  1  0.49714159  0.16309640  0.66893992  1
  I  I93  1  0.50083371  0.49929795  0.00331880  1
  I  I94  1  0.49651130  0.49969925  0.33343493  1
  I  I95  1  0.49749648  0.50005768  0.66406194  1
  I  I96  1  0.49958324  0.83273225  0.00054272  1
  I  I97  1  0.49998191  0.83640731  0.33114779  1
  I  I98  1  0.49981012  0.83808287  0.66865791  1
  I  I99  1  0.83529627  0.16769343  0.00003174  1
  I  I100  1  0.83648766  0.16366878  0.33731034  1
  I  I101  1  0.83650496  0.16379301  0.66263348  1
  I  I102  1  0.82956571  0.49730907  0.00027788  1
  I  I103  1  0.83275780  0.49899729  0.33385080  1
  I  I104  1  0.82815301  0.49868602  0.66569939  1
  I  I105  1  0.83357637  0.83289605  -0.00002334  1
  I  I106  1  0.83453704  0.83784630  0.33742299  1
  I  I107  1  0.83482178  0.83791402  0.66251645  1
  I  I108  1  0.00333522  0.16709505  0.16627380  1
  I  I109  1  0.00207235  0.16853046  0.50032163  1
  I  I110  1  0.00337794  0.16806274  0.83334937  1
  I  I111  1  0.00058773  0.49676139  0.16993367  1
  I  I112  1  0.00342880  0.49793807  0.50108214  1
  I  I113  1  0.00059040  0.49665180  0.82833730  1
  I  I114  1  0.00031450  0.83527906  0.16664253  1
  I  I115  1  0.00103008  0.83375397  0.50030135  1
  I  I116  1  0.00020988  0.83473796  0.83295962  1
  I  I117  1  0.33435340  0.16657037  0.16989522  1
  I  I118  1  0.33044126  0.16431754  0.49990056  1
  I  I119  1  0.33397788  0.16332116  0.83019198  1
  I  I120  1  0.33715753  0.50112501  0.17016019  1
  I  I121  1  0.33306493  0.49926171  0.49657678  1
  I  I122  1  0.33352849  0.50141483  0.83188463  1
  I  I123  1  0.33732171  0.83226581  0.16724280  1
  I  I124  1  0.33084178  0.83724543  0.49971956  1
  I  I125  1  0.33696910  0.83561416  0.83352532  1
  I  I126  1  0.66283798  0.16712948  0.16399103  1
  I  I127  1  0.66862323  0.16338540  0.49966781  1
  I  I128  1  0.66320594  0.16405523  0.83673213  1
  I  I129  1  0.66131577  0.49662178  0.17550762  1
  I  I130  1  0.66396587  0.49989452  0.49659021  1
  I  I131  1  0.66579473  0.49739739  0.82867524  1
  I  I132  1  0.66190804  0.83661112  0.16627350  1
  I  I133  1  0.66844717  0.83755032  0.49964788  1
  I  I134  1  0.66231899  0.83995876  0.83499991  1
