# generated using pymatgen
data_Cs27Sn14Pb13I81
_symmetry_space_group_name_H-M   'P 1'
_cell_length_a   18.98666216
_cell_length_b   18.96583479
_cell_length_c   18.97681929
_cell_angle_alpha   90.00043758
_cell_angle_beta   89.99943485
_cell_angle_gamma   90.00043067
_symmetry_Int_Tables_number   1
_chemical_formula_structural   Cs27Sn14Pb13I81
_chemical_formula_sum   'Cs27 Sn14 Pb13 I81'
_cell_volume   6833.51273062
_cell_formula_units_Z   1
loop_
 _symmetry_equiv_pos_site_id
 _symmetry_equiv_pos_as_xyz
  1  'x, y, z'
loop_
 _atom_site_type_symbol
 _atom_site_label
 _atom_site_symmetry_multiplicity
 _atom_site_fract_x
 _atom_site_fract_y
 _atom_site_fract_z
 _atom_site_occupancy
  Cs  Cs0  1  0.00067405  -0.00214995  -0.00115508  1
  Cs  Cs1  1  0.00061134  -0.00253765  0.33697117  1
  Cs  Cs2  1  -0.00523743  0.00019187  0.66613669  1
  Cs  Cs3  1  0.00009522  0.33475643  0.00137028  1
  Cs  Cs4  1  -0.00111641  0.33325540  0.33181269  1
  Cs  Cs5  1  -0.00066739  0.33339781  0.66601695  1
  Cs  Cs6  1  -0.00087358  0.66519880  -0.00134856  1
  Cs  Cs7  1  0.00615993  0.66869185  0.33422794  1
  Cs  Cs8  1  0.00198344  0.66687050  0.66876542  1
  Cs  Cs9  1  0.33255148  0.00087004  -0.00220722  1
  Cs  Cs10  1  0.33408808  -0.00263910  0.33250880  1
  Cs  Cs11  1  0.33297720  0.00379277  0.67207187  1
  Cs  Cs12  1  0.33351955  0.33149513  -0.00047043  1
  Cs  Cs13  1  0.33270468  0.33280704  0.33256454  1
  Cs  Cs14  1  0.33664916  0.33294970  0.66779149  1
  Cs  Cs15  1  0.33176395  0.66837337  -0.00051249  1
  Cs  Cs16  1  0.33280340  0.67389736  0.34249552  1
  Cs  Cs17  1  0.33510394  0.66521891  0.66044343  1
  Cs  Cs18  1  0.66775250  -0.00352720  0.00045216  1
  Cs  Cs19  1  0.66518818  -0.00149132  0.33725386  1
  Cs  Cs20  1  0.67275449  -0.00184276  0.66348160  1
  Cs  Cs21  1  0.66682194  0.33421039  0.00194275  1
  Cs  Cs22  1  0.66891463  0.33118198  0.32989029  1
  Cs  Cs23  1  0.66590938  0.33464706  0.66688044  1
  Cs  Cs24  1  0.66922681  0.66679365  -0.00052070  1
  Cs  Cs25  1  0.66191268  0.67253172  0.33257484  1
  Cs  Cs26  1  0.66243637  0.66735318  0.66683582  1
  Sn  Sn27  1  0.49900038  0.16735094  0.49931085  1
  Sn  Sn28  1  0.83334838  0.16787395  0.83459506  1
  Sn  Sn29  1  0.83399510  0.49888727  0.83320938  1
  Sn  Sn30  1  0.83342438  0.49966504  0.16707269  1
  Sn  Sn31  1  0.83327654  0.50006826  0.49944605  1
  Sn  Sn32  1  0.83354947  0.16673375  0.16569032  1
  Sn  Sn33  1  0.16771400  0.83209376  0.83359498  1
  Sn  Sn34  1  0.49940710  0.49976159  0.16670080  1
  Sn  Sn35  1  0.49992797  0.16733592  0.16731069  1
  Sn  Sn36  1  0.16756976  0.16739540  0.49901451  1
  Sn  Sn37  1  0.49906706  0.83314520  0.83371074  1
  Sn  Sn38  1  0.16653286  0.16728873  0.16747839  1
  Sn  Sn39  1  0.16654129  0.50041215  0.83386869  1
  Sn  Sn40  1  0.16721088  0.49945287  0.16619596  1
  Pb  Pb41  1  0.49977431  0.83362197  0.16490072  1
  Pb  Pb42  1  0.83351749  0.82923608  0.49980584  1
  Pb  Pb43  1  0.83334455  0.16814226  0.49930686  1
  Pb  Pb44  1  0.49978699  0.50144543  0.83543971  1
  Pb  Pb45  1  0.16667991  0.83664272  0.50331448  1
  Pb  Pb46  1  0.50301320  0.16510702  0.83384999  1
  Pb  Pb47  1  0.49982186  0.83655146  0.50281283  1
  Pb  Pb48  1  0.83353116  0.83316348  0.16688755  1
  Pb  Pb49  1  0.16670071  0.83327712  0.16478130  1
  Pb  Pb50  1  0.50223477  0.49764353  0.49687291  1
  Pb  Pb51  1  0.16526632  0.49790231  0.49986201  1
  Pb  Pb52  1  0.16462595  0.16746318  0.83373059  1
  Pb  Pb53  1  0.83370620  0.83259841  0.83352643  1
  I  I54  1  0.16682577  0.00375157  0.16859529  1
  I  I55  1  0.16869667  0.00471503  0.49388834  1
  I  I56  1  0.16864734  -0.00147877  0.83304163  1
  I  I57  1  0.16584014  0.33342661  0.16392403  1
  I  I58  1  0.16943995  0.32989701  0.50094831  1
  I  I59  1  0.16307633  0.33623311  0.83506381  1
  I  I60  1  0.16440886  0.66291599  0.16359342  1
  I  I61  1  0.16422354  0.66646397  0.49749423  1
  I  I62  1  0.16309169  0.66487741  0.83981129  1
  I  I63  1  0.50047007  0.00387203  0.16913337  1
  I  I64  1  0.49839584  0.00445790  0.49191604  1
  I  I65  1  0.49417904  -0.00249735  0.83518589  1
  I  I66  1  0.50107517  0.33262994  0.16859305  1
  I  I67  1  0.49605345  0.32974133  0.50079795  1
  I  I68  1  0.49791027  0.33321492  0.83127039  1
  I  I69  1  0.50266525  0.66342517  0.16325705  1
  I  I70  1  0.50248290  0.66650201  0.49880765  1
  I  I71  1  0.50153302  0.66920651  0.83642677  1
  I  I72  1  0.83293438  0.00413073  0.16073473  1
  I  I73  1  0.83304893  0.00040317  0.50190767  1
  I  I74  1  0.83346932  0.00271638  0.83746776  1
  I  I75  1  0.83320346  0.33357661  0.16517960  1
  I  I76  1  0.83380650  0.33591619  0.50058859  1
  I  I77  1  0.83865393  0.33458515  0.83480969  1
  I  I78  1  0.83300902  0.66209515  0.16421905  1
  I  I79  1  0.83409550  0.66115085  0.50080460  1
  I  I80  1  0.83434910  0.66287246  0.83506120  1
  I  I81  1  0.16911613  0.16737773  0.00303014  1
  I  I82  1  0.16458465  0.17299810  0.33143512  1
  I  I83  1  0.16931672  0.16595065  0.66487074  1
  I  I84  1  0.16172738  0.49822753  0.00065528  1
  I  I85  1  0.16435238  0.49643134  0.32995130  1
  I  I86  1  0.16064652  0.50222394  0.66950246  1
  I  I87  1  0.16940651  0.83454982  -0.00326247  1
  I  I88  1  0.16631074  0.83051963  0.33354067  1
  I  I89  1  0.16991239  0.82717044  0.67117345  1
  I  I90  1  0.49738496  0.16931437  0.00341027  1
  I  I91  1  0.50211927  0.17081734  0.33168175  1
  I  I92  1  0.49649801  0.16385465  0.66458322  1
  I  I93  1  0.50427056  0.49319442  0.00352747  1
  I  I94  1  0.49968611  0.49834257  0.32859058  1
  I  I95  1  0.50126104  0.50004078  0.66654892  1
  I  I96  1  0.49681129  0.83608713  -0.00279717  1
  I  I97  1  0.50101289  0.83125593  0.33346440  1
  I  I98  1  0.49663380  0.83285524  0.67046389  1
  I  I99  1  0.83348852  0.17386871  0.00110127  1
  I  I100  1  0.83334088  0.17185564  0.33001076  1
  I  I101  1  0.83385860  0.17018080  0.66867849  1
  I  I102  1  0.83418382  0.49625681  0.00033503  1
  I  I103  1  0.83360778  0.49353107  0.33148303  1
  I  I104  1  0.83859722  0.49529109  0.66819023  1
  I  I105  1  0.83267293  0.83133418  -0.00014838  1
  I  I106  1  0.83212418  0.83580369  0.33333488  1
  I  I107  1  0.83315674  0.83701764  0.66705795  1
  I  I108  1  0.00005458  0.17285375  0.16625131  1
  I  I109  1  0.00205921  0.16818412  0.49767529  1
  I  I110  1  -0.00316449  0.16588847  0.83609322  1
  I  I111  1  -0.00014344  0.49371909  0.16487381  1
  I  I112  1  -0.00266669  0.49546559  0.49655754  1
  I  I113  1  -0.00035997  0.50201619  0.83802330  1
  I  I114  1  0.00015820  0.83421221  0.16314468  1
  I  I115  1  0.00026220  0.83806949  0.50256039  1
  I  I116  1  0.00258782  0.83204561  0.83382543  1
  I  I117  1  0.33312086  0.17274479  0.17084468  1
  I  I118  1  0.33320353  0.16718283  0.49279349  1
  I  I119  1  0.33329657  0.16744369  0.83450301  1
  I  I120  1  0.33242528  0.49222817  0.15949051  1
  I  I121  1  0.33347204  0.50058612  0.50107507  1
  I  I122  1  0.33038613  0.50181991  0.83842771  1
  I  I123  1  0.33322441  0.83338497  0.16507116  1
  I  I124  1  0.33326555  0.82939824  0.49908654  1
  I  I125  1  0.33234560  0.82956452  0.83526375  1
  I  I126  1  0.66684907  0.17288605  0.16606295  1
  I  I127  1  0.66466980  0.16800420  0.49737502  1
  I  I128  1  0.67072969  0.17135102  0.83661288  1
  I  I129  1  0.66748714  0.49354459  0.16582476  1
  I  I130  1  0.67012050  0.49634431  0.50290489  1
  I  I131  1  0.66977455  0.49781668  0.83448389  1
  I  I132  1  0.66658619  0.83247566  0.16241522  1
  I  I133  1  0.66647941  0.83650596  0.50343922  1
  I  I134  1  0.66483265  0.83455477  0.83382117  1
