# generated using pymatgen
data_Cs27Sn14Pb13I81
_symmetry_space_group_name_H-M   'P 1'
_cell_length_a   18.95815648
_cell_length_b   18.95767085
_cell_length_c   18.96669219
_cell_angle_alpha   89.99983167
_cell_angle_beta   90.00101103
_cell_angle_gamma   90.00073063
_symmetry_Int_Tables_number   1
_chemical_formula_structural   Cs27Sn14Pb13I81
_chemical_formula_sum   'Cs27 Sn14 Pb13 I81'
_cell_volume   6816.67640875
_cell_formula_units_Z   1
loop_
 _symmetry_equiv_pos_site_id
 _symmetry_equiv_pos_as_xyz
  1  'x, y, z'
loop_
 _atom_site_type_symbol
 _atom_site_label
 _atom_site_symmetry_multiplicity
 _atom_site_fract_x
 _atom_site_fract_y
 _atom_site_fract_z
 _atom_site_occupancy
  Cs  Cs0  1  0.00192308  0.00069394  -0.00091242  1
  Cs  Cs1  1  0.00153360  -0.00095892  0.33587433  1
  Cs  Cs2  1  -0.00043342  -0.00083693  0.66473622  1
  Cs  Cs3  1  -0.00334022  0.33563548  0.00064662  1
  Cs  Cs4  1  -0.00129618  0.33114549  0.33083137  1
  Cs  Cs5  1  0.00109604  0.33426031  0.66899482  1
  Cs  Cs6  1  -0.00150882  0.66341213  -0.00161062  1
  Cs  Cs7  1  -0.00066383  0.66906509  0.33478373  1
  Cs  Cs8  1  0.00132938  0.66580425  0.66665268  1
  Cs  Cs9  1  0.33342803  -0.00035153  0.00127031  1
  Cs  Cs10  1  0.33159876  -0.00094899  0.32766507  1
  Cs  Cs11  1  0.33348093  0.00086809  0.66894166  1
  Cs  Cs12  1  0.33156452  0.33500247  0.00068541  1
  Cs  Cs13  1  0.33535987  0.33478547  0.33464260  1
  Cs  Cs14  1  0.33512517  0.33611558  0.66391114  1
  Cs  Cs15  1  0.33517915  0.66670428  0.00069621  1
  Cs  Cs16  1  0.33118485  0.66607500  0.33170569  1
  Cs  Cs17  1  0.33391041  0.66386855  0.66694632  1
  Cs  Cs18  1  0.66462787  0.00408035  0.00044112  1
  Cs  Cs19  1  0.66571452  -0.00012800  0.33273105  1
  Cs  Cs20  1  0.66743315  -0.00253642  0.66751387  1
  Cs  Cs21  1  0.67294534  0.32899114  0.00070589  1
  Cs  Cs22  1  0.66538028  0.33267508  0.33354756  1
  Cs  Cs23  1  0.66334709  0.32938471  0.66530021  1
  Cs  Cs24  1  0.66484575  0.66653243  0.00019006  1
  Cs  Cs25  1  0.66843989  0.66651891  0.33442387  1
  Cs  Cs26  1  0.66622264  0.66951563  0.66628138  1
  Sn  Sn27  1  0.16704992  0.49950140  0.16671689  1
  Sn  Sn28  1  0.83331810  0.83350113  0.16644153  1
  Sn  Sn29  1  0.16658828  0.16757198  0.16669202  1
  Sn  Sn30  1  0.83338757  0.49989887  0.50039321  1
  Sn  Sn31  1  0.83327211  0.83332169  0.83375701  1
  Sn  Sn32  1  0.83273609  0.83335313  0.49999246  1
  Sn  Sn33  1  0.49993551  0.83277841  0.83266479  1
  Sn  Sn34  1  0.16676856  0.83360822  0.83318869  1
  Sn  Sn35  1  0.49982721  0.50002742  0.16573191  1
  Sn  Sn36  1  0.50041797  0.50026518  0.83425476  1
  Sn  Sn37  1  0.16674003  0.16636171  0.83308018  1
  Sn  Sn38  1  0.83391614  0.16669136  0.50019507  1
  Sn  Sn39  1  0.50002135  0.83344964  0.50026594  1
  Sn  Sn40  1  0.16627711  0.16653332  0.50012523  1
  Pb  Pb41  1  0.16450592  0.49753989  0.49767255  1
  Pb  Pb42  1  0.83556967  0.16447760  0.83116570  1
  Pb  Pb43  1  0.83552394  0.16421130  0.16878818  1
  Pb  Pb44  1  0.16468458  0.83310233  0.16421901  1
  Pb  Pb45  1  0.83318898  0.50161694  0.16832791  1
  Pb  Pb46  1  0.50198316  0.83165447  0.16641278  1
  Pb  Pb47  1  0.49983377  0.16361569  0.49993494  1
  Pb  Pb48  1  0.16694185  0.83491942  0.50205188  1
  Pb  Pb49  1  0.83055618  0.50191486  0.83105858  1
  Pb  Pb50  1  0.16836344  0.49994902  0.83503399  1
  Pb  Pb51  1  0.49775360  0.16653813  0.83340315  1
  Pb  Pb52  1  0.49775090  0.16966580  0.16662370  1
  Pb  Pb53  1  0.50183375  0.50224178  0.49995079  1
  I  I54  1  0.16364693  0.00250845  0.16839743  1
  I  I55  1  0.16124178  0.00312367  0.49574468  1
  I  I56  1  0.16769956  -0.00047665  0.83491645  1
  I  I57  1  0.17006297  0.33283028  0.16542039  1
  I  I58  1  0.16197143  0.32925119  0.50523471  1
  I  I59  1  0.16864483  0.33061980  0.83147246  1
  I  I60  1  0.16904733  0.66428072  0.16484532  1
  I  I61  1  0.16522301  0.66670230  0.49970202  1
  I  I62  1  0.16484496  0.66954043  0.83478742  1
  I  I63  1  0.49945420  -0.00022183  0.16695951  1
  I  I64  1  0.50574565  -0.00438087  0.50648904  1
  I  I65  1  0.50184966  -0.00364152  0.82858995  1
  I  I66  1  0.49971327  0.33781880  0.16186642  1
  I  I67  1  0.50162879  0.33346020  0.50054878  1
  I  I68  1  0.49736963  0.33628635  0.83656054  1
  I  I69  1  0.49355374  0.66380534  0.16565591  1
  I  I70  1  0.50615799  0.67030265  0.50188983  1
  I  I71  1  0.49796129  0.66828479  0.83304533  1
  I  I72  1  0.83451734  -0.00389120  0.16814619  1
  I  I73  1  0.83435070  -0.00115948  0.50049724  1
  I  I74  1  0.82894349  -0.00427257  0.83114032  1
  I  I75  1  0.83214142  0.33319653  0.16932911  1
  I  I76  1  0.83834325  0.33267842  0.49861711  1
  I  I77  1  0.83353622  0.33328602  0.83169267  1
  I  I78  1  0.83574037  0.66979095  0.16946018  1
  I  I79  1  0.82852872  0.66840743  0.49957065  1
  I  I80  1  0.83865757  0.67074593  0.83058971  1
  I  I81  1  0.16871898  0.16529177  -0.00015230  1
  I  I82  1  0.16215709  0.17046706  0.33346863  1
  I  I83  1  0.16259840  0.16037412  0.66666646  1
  I  I84  1  0.16712624  0.49570126  0.00300170  1
  I  I85  1  0.17260489  0.49646087  0.32967989  1
  I  I86  1  0.16744286  0.49925162  0.66666592  1
  I  I87  1  0.16731099  0.83842265  -0.00389596  1
  I  I88  1  0.16619852  0.83450039  0.33325050  1
  I  I89  1  0.16313285  0.83811732  0.67027615  1
  I  I90  1  0.49823278  0.16133563  -0.00005591  1
  I  I91  1  0.49782464  0.16611107  0.33343509  1
  I  I92  1  0.49686150  0.17109089  0.66661387  1
  I  I93  1  0.49540309  0.50744432  -0.00031711  1
  I  I94  1  0.49715553  0.50127364  0.33098552  1
  I  I95  1  0.50108124  0.50324073  0.66906394  1
  I  I96  1  0.50059227  0.83106135  -0.00316095  1
  I  I97  1  0.50560089  0.83257175  0.33569073  1
  I  I98  1  0.50455458  0.82868307  0.66769352  1
  I  I99  1  0.83480831  0.16487848  -0.00008262  1
  I  I100  1  0.83908355  0.16365559  0.33701975  1
  I  I101  1  0.83869675  0.16449033  0.66287830  1
  I  I102  1  0.83473838  0.50276645  -0.00011825  1
  I  I103  1  0.83222861  0.50346963  0.33637851  1
  I  I104  1  0.83294285  0.50232386  0.66306877  1
  I  I105  1  0.83428977  0.83201527  -0.00103330  1
  I  I106  1  0.82947854  0.83315005  0.33499542  1
  I  I107  1  0.83226775  0.83399028  0.66620747  1
  I  I108  1  0.00380104  0.17266010  0.16425183  1
  I  I109  1  -0.00020566  0.16345000  0.49973041  1
  I  I110  1  0.00386766  0.16156037  0.83491153  1
  I  I111  1  0.00242372  0.49701978  0.16812098  1
  I  I112  1  -0.00349749  0.50678022  0.49869212  1
  I  I113  1  -0.00013961  0.50144948  0.83416901  1
  I  I114  1  -0.00323027  0.83202785  0.16910701  1
  I  I115  1  -0.00312579  0.83257990  0.50068342  1
  I  I116  1  -0.00030605  0.83840194  0.83285434  1
  I  I117  1  0.32902776  0.16522582  0.16956094  1
  I  I118  1  0.33004292  0.16507247  0.50021468  1
  I  I119  1  0.32926180  0.16047352  0.83117891  1
  I  I120  1  0.33320966  0.49731993  0.16370649  1
  I  I121  1  0.33339373  0.50018676  0.50085893  1
  I  I122  1  0.33632950  0.50610277  0.83381457  1
  I  I123  1  0.33317662  0.83476344  0.16724061  1
  I  I124  1  0.33583259  0.83433743  0.50485183  1
  I  I125  1  0.33383040  0.83386171  0.82890182  1
  I  I126  1  0.66704177  0.16714799  0.16841588  1
  I  I127  1  0.66979189  0.16734893  0.50011204  1
  I  I128  1  0.66686404  0.16606602  0.83134133  1
  I  I129  1  0.66421822  0.50444590  0.16463693  1
  I  I130  1  0.66990247  0.49711109  0.49789073  1
  I  I131  1  0.66259398  0.50630926  0.83928337  1
  I  I132  1  0.67001144  0.83063972  0.16485159  1
  I  I133  1  0.66831678  0.83487466  0.50436169  1
  I  I134  1  0.66668541  0.82808312  0.83112492  1
