# generated using pymatgen
data_Cs27Sn14Pb13I81
_symmetry_space_group_name_H-M   'P 1'
_cell_length_a   18.98208670
_cell_length_b   18.97131957
_cell_length_c   18.97226930
_cell_angle_alpha   89.99956574
_cell_angle_beta   89.99840194
_cell_angle_gamma   89.99959205
_symmetry_Int_Tables_number   1
_chemical_formula_structural   Cs27Sn14Pb13I81
_chemical_formula_sum   'Cs27 Sn14 Pb13 I81'
_cell_volume   6832.20317568
_cell_formula_units_Z   1
loop_
 _symmetry_equiv_pos_site_id
 _symmetry_equiv_pos_as_xyz
  1  'x, y, z'
loop_
 _atom_site_type_symbol
 _atom_site_label
 _atom_site_symmetry_multiplicity
 _atom_site_fract_x
 _atom_site_fract_y
 _atom_site_fract_z
 _atom_site_occupancy
  Cs  Cs0  1  -0.00055499  0.00007379  0.00015184  1
  Cs  Cs1  1  0.00053568  -0.00236764  0.33442732  1
  Cs  Cs2  1  -0.00127575  0.00005835  0.66596662  1
  Cs  Cs3  1  0.00054932  0.33353716  -0.00059669  1
  Cs  Cs4  1  -0.00073854  0.33160773  0.33019855  1
  Cs  Cs5  1  -0.00018445  0.34389841  0.66967670  1
  Cs  Cs6  1  0.00100382  0.66578130  0.00084737  1
  Cs  Cs7  1  0.00104945  0.67168142  0.33156591  1
  Cs  Cs8  1  0.00070097  0.65907820  0.66750633  1
  Cs  Cs9  1  0.33412750  0.00041328  -0.00259793  1
  Cs  Cs10  1  0.32777178  0.00223978  0.33705781  1
  Cs  Cs11  1  0.33458828  0.00000615  0.66697885  1
  Cs  Cs12  1  0.33221589  0.33206855  0.00051084  1
  Cs  Cs13  1  0.33520550  0.33253354  0.33249168  1
  Cs  Cs14  1  0.33131962  0.33443785  0.66740586  1
  Cs  Cs15  1  0.33818016  0.66887278  -0.00050551  1
  Cs  Cs16  1  0.33361364  0.66534914  0.33263769  1
  Cs  Cs17  1  0.33073904  0.66333910  0.66772469  1
  Cs  Cs18  1  0.66632707  -0.00031703  -0.00176881  1
  Cs  Cs19  1  0.66935327  0.00216208  0.33761324  1
  Cs  Cs20  1  0.66676059  -0.00039650  0.66615480  1
  Cs  Cs21  1  0.66815745  0.33108973  0.00001443  1
  Cs  Cs22  1  0.66567171  0.33386244  0.33276926  1
  Cs  Cs23  1  0.66955036  0.33435780  0.66712542  1
  Cs  Cs24  1  0.65951547  0.67336010  0.00361485  1
  Cs  Cs25  1  0.66493383  0.66304993  0.33341496  1
  Cs  Cs26  1  0.66794275  0.66932203  0.66366643  1
  Sn  Sn27  1  0.50073386  0.16605952  0.50031207  1
  Sn  Sn28  1  0.16644692  0.16714835  0.16577762  1
  Sn  Sn29  1  0.50036892  0.83414204  0.49989543  1
  Sn  Sn30  1  0.16686742  0.16598419  0.83365466  1
  Sn  Sn31  1  0.50050022  0.49878802  0.83318988  1
  Sn  Sn32  1  0.83268218  0.83411012  0.50110978  1
  Sn  Sn33  1  0.83342016  0.16709755  0.16730491  1
  Sn  Sn34  1  0.16540580  0.83424632  0.83324821  1
  Sn  Sn35  1  0.49943089  0.16769055  0.83303310  1
  Sn  Sn36  1  0.83386313  0.49936950  0.16638929  1
  Sn  Sn37  1  0.83442744  0.83358967  0.83266760  1
  Sn  Sn38  1  0.50006615  0.16635173  0.16674171  1
  Sn  Sn39  1  0.16610306  0.49918976  0.16647140  1
  Sn  Sn40  1  0.83309820  0.16651868  0.49973536  1
  Pb  Pb41  1  0.83360195  0.16558322  0.83304879  1
  Pb  Pb42  1  0.83337666  0.49987046  0.49743771  1
  Pb  Pb43  1  0.16631182  0.83341144  0.50285210  1
  Pb  Pb44  1  0.49993498  0.83682353  0.17031668  1
  Pb  Pb45  1  0.83317236  0.83373710  0.16719168  1
  Pb  Pb46  1  0.16837858  0.49963401  0.83564877  1
  Pb  Pb47  1  0.16689516  0.83381853  0.16422144  1
  Pb  Pb48  1  0.16662952  0.49979026  0.49630901  1
  Pb  Pb49  1  0.50008871  0.49924188  0.50228975  1
  Pb  Pb50  1  0.83066913  0.50330730  0.83642213  1
  Pb  Pb51  1  0.49997846  0.83405939  0.83131841  1
  Pb  Pb52  1  0.16599496  0.16701072  0.50050910  1
  Pb  Pb53  1  0.50000070  0.49773081  0.16488237  1
  I  I54  1  0.16618589  0.00389195  0.16517301  1
  I  I55  1  0.16698272  0.00029091  0.49469535  1
  I  I56  1  0.16957893  0.00141704  0.83944741  1
  I  I57  1  0.16572044  0.33118160  0.16060685  1
  I  I58  1  0.16719615  0.33286843  0.50646070  1
  I  I59  1  0.16964554  0.33020939  0.83536047  1
  I  I60  1  0.16057266  0.66389174  0.16608420  1
  I  I61  1  0.16770391  0.66693716  0.50066470  1
  I  I62  1  0.16501295  0.66900127  0.83367010  1
  I  I63  1  0.50067368  0.00522410  0.15877682  1
  I  I64  1  0.50457883  0.00174566  0.50193384  1
  I  I65  1  0.49868607  0.00327367  0.83549211  1
  I  I66  1  0.49996763  0.32921962  0.17137439  1
  I  I67  1  0.50414015  0.32918937  0.49742165  1
  I  I68  1  0.49411312  0.33056645  0.83202034  1
  I  I69  1  0.49986332  0.66658494  0.16507410  1
  I  I70  1  0.50461688  0.66949874  0.50288725  1
  I  I71  1  0.50003711  0.66524343  0.83298903  1
  I  I72  1  0.83370294  0.00358055  0.16754117  1
  I  I73  1  0.82876852  0.00072464  0.49754508  1
  I  I74  1  0.83205394  -0.00239029  0.83458855  1
  I  I75  1  0.83368219  0.33116539  0.17185942  1
  I  I76  1  0.82814084  0.32989285  0.49746359  1
  I  I77  1  0.83547231  0.33338333  0.83046672  1
  I  I78  1  0.83923340  0.66413876  0.16552080  1
  I  I79  1  0.82871968  0.66995726  0.50284210  1
  I  I80  1  0.83819247  0.67097448  0.82773686  1
  I  I81  1  0.16982542  0.16637768  0.00035756  1
  I  I82  1  0.16954019  0.17129021  0.33021586  1
  I  I83  1  0.17123493  0.16102678  0.66997685  1
  I  I84  1  0.16261944  0.49704582  0.00327527  1
  I  I85  1  0.16434032  0.49279422  0.32808755  1
  I  I86  1  0.16811016  0.49979976  0.66732683  1
  I  I87  1  0.16108112  0.83566072  -0.00377709  1
  I  I88  1  0.16641193  0.83273064  0.33338717  1
  I  I89  1  0.16677705  0.84114968  0.67075870  1
  I  I90  1  0.49945455  0.17178439  -0.00016520  1
  I  I91  1  0.50042894  0.16203968  0.33325752  1
  I  I92  1  0.49981684  0.16568068  0.66676699  1
  I  I93  1  0.49983378  0.49565700  -0.00294278  1
  I  I94  1  0.49946464  0.50064817  0.33308193  1
  I  I95  1  0.49871331  0.49427672  0.67016846  1
  I  I96  1  0.50046895  0.83301542  -0.00023544  1
  I  I97  1  0.50764442  0.83685003  0.33815459  1
  I  I98  1  0.50173366  0.84003932  0.66379938  1
  I  I99  1  0.83116152  0.16846527  0.00263064  1
  I  I100  1  0.83035026  0.16485968  0.33294103  1
  I  I101  1  0.82911225  0.16223956  0.66409251  1
  I  I102  1  0.83735647  0.49242733  0.00385301  1
  I  I103  1  0.83588385  0.49976147  0.32944955  1
  I  I104  1  0.83243149  0.49762208  0.66696141  1
  I  I105  1  0.83736471  0.83382766  -0.00242415  1
  I  I106  1  0.82854449  0.83473786  0.33643927  1
  I  I107  1  0.83228875  0.84061050  0.66600844  1
  I  I108  1  -0.00011212  0.17046255  0.16640217  1
  I  I109  1  -0.00342507  0.16098733  0.49532488  1
  I  I110  1  0.00250163  0.16307546  0.83734192  1
  I  I111  1  -0.00005296  0.49085990  0.16591335  1
  I  I112  1  -0.00029741  0.49973750  0.50461257  1
  I  I113  1  -0.00012084  0.49834568  0.83235783  1
  I  I114  1  -0.00008006  0.83733277  0.17059069  1
  I  I115  1  -0.00348275  0.83898853  0.50030483  1
  I  I116  1  -0.00004485  0.83991018  0.82900587  1
  I  I117  1  0.33324578  0.17019233  0.16601277  1
  I  I118  1  0.33643236  0.16228625  0.49762231  1
  I  I119  1  0.33372436  0.16429439  0.83679132  1
  I  I120  1  0.33088753  0.49560113  0.16482621  1
  I  I121  1  0.33369158  0.50117060  0.49833961  1
  I  I122  1  0.33608410  0.50065010  0.83569206  1
  I  I123  1  0.33346968  0.83136491  0.16568144  1
  I  I124  1  0.33623455  0.83920970  0.50064194  1
  I  I125  1  0.33141965  0.83469182  0.83334397  1
  I  I126  1  0.66684409  0.17035151  0.16700971  1
  I  I127  1  0.66634719  0.16241332  0.49677310  1
  I  I128  1  0.66397815  0.16803964  0.83607684  1
  I  I129  1  0.66907962  0.49594157  0.16577238  1
  I  I130  1  0.66668984  0.50062249  0.49732165  1
  I  I131  1  0.66337398  0.49262412  0.83520773  1
  I  I132  1  0.66666496  0.83136583  0.15922381  1
  I  I133  1  0.66742895  0.83860990  0.50688330  1
  I  I134  1  0.66877560  0.83338566  0.83175175  1
