# generated using pymatgen
data_Cs27Sn13Pb14I81
_symmetry_space_group_name_H-M   'P 1'
_cell_length_a   18.99905905
_cell_length_b   18.98731995
_cell_length_c   18.98975600
_cell_angle_alpha   90.00073017
_cell_angle_beta   89.99668761
_cell_angle_gamma   89.99970244
_symmetry_Int_Tables_number   1
_chemical_formula_structural   Cs27Sn13Pb14I81
_chemical_formula_sum   'Cs27 Sn13 Pb14 I81'
_cell_volume   6850.38759787
_cell_formula_units_Z   1
loop_
 _symmetry_equiv_pos_site_id
 _symmetry_equiv_pos_as_xyz
  1  'x, y, z'
loop_
 _atom_site_type_symbol
 _atom_site_label
 _atom_site_symmetry_multiplicity
 _atom_site_fract_x
 _atom_site_fract_y
 _atom_site_fract_z
 _atom_site_occupancy
  Cs  Cs0  1  0.00385263  0.00186897  -0.00072449  1
  Cs  Cs1  1  0.00036307  0.00003553  0.33419475  1
  Cs  Cs2  1  0.00108314  0.00042834  0.66723144  1
  Cs  Cs3  1  -0.00164801  0.33438982  0.00231110  1
  Cs  Cs4  1  0.00006876  0.33935305  0.33066819  1
  Cs  Cs5  1  0.00253039  0.33136901  0.66674899  1
  Cs  Cs6  1  -0.00162608  0.66179256  -0.00191170  1
  Cs  Cs7  1  0.00161193  0.66178277  0.33587826  1
  Cs  Cs8  1  -0.01217604  0.66595832  0.66573036  1
  Cs  Cs9  1  0.33211734  0.00008299  -0.00037317  1
  Cs  Cs10  1  0.33375977  -0.00114979  0.33323861  1
  Cs  Cs11  1  0.32977901  0.00100814  0.66634105  1
  Cs  Cs12  1  0.33142465  0.33196255  -0.00027036  1
  Cs  Cs13  1  0.33348605  0.33515761  0.33657321  1
  Cs  Cs14  1  0.33523566  0.33470195  0.66345399  1
  Cs  Cs15  1  0.33569047  0.66798356  0.00001169  1
  Cs  Cs16  1  0.33044284  0.66982992  0.33051256  1
  Cs  Cs17  1  0.33633567  0.66315051  0.67045482  1
  Cs  Cs18  1  0.66523444  0.00212566  0.00310781  1
  Cs  Cs19  1  0.66529549  0.00006010  0.33203084  1
  Cs  Cs20  1  0.66976818  0.00063543  0.66477604  1
  Cs  Cs21  1  0.67022832  0.33189935  0.00080031  1
  Cs  Cs22  1  0.66612484  0.33269281  0.33402245  1
  Cs  Cs23  1  0.66219406  0.33639215  0.66579629  1
  Cs  Cs24  1  0.66353631  0.66498142  -0.00839337  1
  Cs  Cs25  1  0.66845459  0.67233414  0.33552814  1
  Cs  Cs26  1  0.67586073  0.65980589  0.67564305  1
  Sn  Sn27  1  0.16622187  0.83406222  0.16726660  1
  Sn  Sn28  1  0.16756422  0.83382255  0.49963753  1
  Sn  Sn29  1  0.50000296  0.49995976  0.16721881  1
  Sn  Sn30  1  0.16692946  0.50014851  0.83324132  1
  Sn  Sn31  1  0.16748371  0.16620233  0.16786701  1
  Sn  Sn32  1  0.49948906  0.83315881  0.50019140  1
  Sn  Sn33  1  0.50004344  0.83318924  0.16722279  1
  Sn  Sn34  1  0.83234816  0.16612568  0.83240608  1
  Sn  Sn35  1  0.83430766  0.16642853  0.50030737  1
  Sn  Sn36  1  0.16581088  0.16597181  0.49861646  1
  Sn  Sn37  1  0.50055393  0.16600254  0.83390791  1
  Sn  Sn38  1  0.83378755  0.83334566  0.16631057  1
  Sn  Sn39  1  0.49898871  0.16701710  0.16615284  1
  Pb  Pb40  1  0.83355086  0.83520221  0.49819527  1
  Pb  Pb41  1  0.83313162  0.49658911  0.49959511  1
  Pb  Pb42  1  0.83552421  0.49656969  0.83355953  1
  Pb  Pb43  1  0.16683803  0.50082506  0.50211632  1
  Pb  Pb44  1  0.49837752  0.49699444  0.83563112  1
  Pb  Pb45  1  0.16848976  0.50018888  0.16541067  1
  Pb  Pb46  1  0.83371760  0.16529114  0.16708482  1
  Pb  Pb47  1  0.49981991  0.50412677  0.49748838  1
  Pb  Pb48  1  0.49955190  0.16497935  0.49958823  1
  Pb  Pb49  1  0.49988612  0.83570276  0.83287703  1
  Pb  Pb50  1  0.16662609  0.83093586  0.83277864  1
  Pb  Pb51  1  0.83005657  0.50349191  0.16668693  1
  Pb  Pb52  1  0.83340939  0.83625646  0.83621369  1
  Pb  Pb53  1  0.16693466  0.16776424  0.83332692  1
  I  I54  1  0.17138851  0.00013890  0.16884950  1
  I  I55  1  0.16685127  0.00044048  0.49624997  1
  I  I56  1  0.16636962  0.00014677  0.83408315  1
  I  I57  1  0.17103312  0.33006937  0.16890087  1
  I  I58  1  0.16235870  0.33000334  0.49656005  1
  I  I59  1  0.16694002  0.33503400  0.83497742  1
  I  I60  1  0.16775890  0.67022235  0.16969156  1
  I  I61  1  0.17188696  0.67055675  0.49396757  1
  I  I62  1  0.16899927  0.66359087  0.83604800  1
  I  I63  1  0.49960479  -0.00007508  0.16618007  1
  I  I64  1  0.49907729  -0.00265763  0.49285455  1
  I  I65  1  0.50162445  0.00364943  0.84113756  1
  I  I66  1  0.49479853  0.33160036  0.16104121  1
  I  I67  1  0.50022596  0.33321056  0.49948711  1
  I  I68  1  0.50338121  0.32905857  0.83843984  1
  I  I69  1  0.49883623  0.66830862  0.17199130  1
  I  I70  1  0.49189569  0.67215018  0.49271867  1
  I  I71  1  0.49837954  0.66654912  0.83452501  1
  I  I72  1  0.82828361  -0.00241758  0.16666371  1
  I  I73  1  0.83490850  0.00311515  0.50354187  1
  I  I74  1  0.83123650  0.00407428  0.82932949  1
  I  I75  1  0.83353357  0.33321637  0.16605394  1
  I  I76  1  0.83933762  0.32795283  0.50226999  1
  I  I77  1  0.82895428  0.32880809  0.83154575  1
  I  I78  1  0.83636394  0.67152653  0.16868450  1
  I  I79  1  0.83393746  0.66716396  0.49878960  1
  I  I80  1  0.83409901  0.66645840  0.83381003  1
  I  I81  1  0.16780091  0.16320655  0.00294165  1
  I  I82  1  0.16701536  0.16285732  0.33269985  1
  I  I83  1  0.16586018  0.16349368  0.66396007  1
  I  I84  1  0.16784851  0.49772315  -0.00202806  1
  I  I85  1  0.16748974  0.49900221  0.33333242  1
  I  I86  1  0.16839252  0.49668186  0.66954046  1
  I  I87  1  0.16865636  0.83816923  0.00371621  1
  I  I88  1  0.16850837  0.83782601  0.33210376  1
  I  I89  1  0.17251559  0.83910570  0.66281473  1
  I  I90  1  0.49995618  0.16422035  0.00199122  1
  I  I91  1  0.49991524  0.16742281  0.33001658  1
  I  I92  1  0.50038177  0.16443337  0.66861123  1
  I  I93  1  0.49849120  0.50661203  0.00343597  1
  I  I94  1  0.49780469  0.49221746  0.32936354  1
  I  I95  1  0.49856569  0.49910814  0.66684183  1
  I  I96  1  0.49882130  0.83196118  0.00380063  1
  I  I97  1  0.49926838  0.83633740  0.33132542  1
  I  I98  1  0.49257035  0.83810708  0.66337503  1
  I  I99  1  0.83216381  0.16494502  -0.00169911  1
  I  I100  1  0.83385013  0.16373959  0.33557445  1
  I  I101  1  0.83406058  0.16522555  0.66638234  1
  I  I102  1  0.83470595  0.49753273  0.00015018  1
  I  I103  1  0.83507989  0.49637878  0.33285334  1
  I  I104  1  0.83318003  0.50448718  0.66684450  1
  I  I105  1  0.83241348  0.83603146  0.00440542  1
  I  I106  1  0.83131234  0.83802927  0.33034515  1
  I  I107  1  0.83357814  0.83253228  0.66645792  1
  I  I108  1  0.00297623  0.16140182  0.16612136  1
  I  I109  1  0.00136020  0.16002109  0.50123063  1
  I  I110  1  -0.00183594  0.16855882  0.83290493  1
  I  I111  1  0.00008079  0.49909771  0.16450344  1
  I  I112  1  0.00017942  0.50463573  0.49987844  1
  I  I113  1  0.00288949  0.49844305  0.83570038  1
  I  I114  1  0.00157033  0.84072707  0.16976965  1
  I  I115  1  0.00318172  0.83602075  0.49521416  1
  I  I116  1  0.00008628  0.83547878  0.83443532  1
  I  I117  1  0.33370548  0.16201185  0.16523479  1
  I  I118  1  0.33054597  0.16461368  0.49957542  1
  I  I119  1  0.33555678  0.16817077  0.83602393  1
  I  I120  1  0.33613015  0.50353431  0.16485563  1
  I  I121  1  0.33335410  0.49312873  0.50190792  1
  I  I122  1  0.33104649  0.49705664  0.83387265  1
  I  I123  1  0.33348108  0.83428126  0.17061692  1
  I  I124  1  0.33259709  0.84071932  0.49028987  1
  I  I125  1  0.33325899  0.83612988  0.83790964  1
  I  I126  1  0.66386378  0.16504272  0.16565157  1
  I  I127  1  0.66825258  0.16443471  0.50059453  1
  I  I128  1  0.66610468  0.16580590  0.83497039  1
  I  I129  1  0.66217083  0.49617832  0.16555737  1
  I  I130  1  0.66634591  0.49943214  0.49996790  1
  I  I131  1  0.66665268  0.50132871  0.83421428  1
  I  I132  1  0.66489289  0.83521916  0.17122806  1
  I  I133  1  0.66422862  0.83687288  0.49244309  1
  I  I134  1  0.66657814  0.83138643  0.83349849  1
