# generated using pymatgen
data_Cs27Sn13Pb14I81
_symmetry_space_group_name_H-M   'P 1'
_cell_length_a   18.98044160
_cell_length_b   18.97242501
_cell_length_c   18.97729833
_cell_angle_alpha   90.00234437
_cell_angle_beta   89.99998515
_cell_angle_gamma   90.00187563
_symmetry_Int_Tables_number   1
_chemical_formula_structural   Cs27Sn13Pb14I81
_chemical_formula_sum   'Cs27 Sn13 Pb14 I81'
_cell_volume   6833.82010058
_cell_formula_units_Z   1
loop_
 _symmetry_equiv_pos_site_id
 _symmetry_equiv_pos_as_xyz
  1  'x, y, z'
loop_
 _atom_site_type_symbol
 _atom_site_label
 _atom_site_symmetry_multiplicity
 _atom_site_fract_x
 _atom_site_fract_y
 _atom_site_fract_z
 _atom_site_occupancy
  Cs  Cs0  1  -0.00082858  -0.00018116  0.00073075  1
  Cs  Cs1  1  0.00130038  0.00302828  0.33095936  1
  Cs  Cs2  1  0.00166765  0.00416160  0.66710948  1
  Cs  Cs3  1  -0.00035956  0.33166527  -0.00019519  1
  Cs  Cs4  1  -0.00132751  0.33102493  0.33549097  1
  Cs  Cs5  1  -0.00150028  0.33138833  0.66539716  1
  Cs  Cs6  1  0.00703627  0.66649319  0.00086499  1
  Cs  Cs7  1  -0.00269278  0.66622326  0.32846214  1
  Cs  Cs8  1  -0.00121186  0.66444089  0.67078028  1
  Cs  Cs9  1  0.33527875  0.00352374  -0.00205096  1
  Cs  Cs10  1  0.33396461  -0.00255904  0.33851705  1
  Cs  Cs11  1  0.33199838  -0.00401496  0.66459773  1
  Cs  Cs12  1  0.34027967  0.33556943  0.00252226  1
  Cs  Cs13  1  0.33480902  0.33553426  0.33099488  1
  Cs  Cs14  1  0.33651287  0.33335929  0.66658855  1
  Cs  Cs15  1  0.32447309  0.66060230  0.00132617  1
  Cs  Cs16  1  0.33174154  0.66678229  0.33421419  1
  Cs  Cs17  1  0.32947369  0.67147973  0.66515949  1
  Cs  Cs18  1  0.66652018  -0.00007585  -0.00015025  1
  Cs  Cs19  1  0.66749288  -0.00241701  0.33227945  1
  Cs  Cs20  1  0.66714169  -0.00178902  0.66805649  1
  Cs  Cs21  1  0.66086547  0.33341623  -0.00156760  1
  Cs  Cs22  1  0.66712263  0.33340868  0.33402333  1
  Cs  Cs23  1  0.66701193  0.33463403  0.66720217  1
  Cs  Cs24  1  0.66779488  0.66896962  -0.00124992  1
  Cs  Cs25  1  0.66799600  0.66817032  0.33495694  1
  Cs  Cs26  1  0.66744420  0.66721547  0.66592538  1
  Sn  Sn27  1  0.50040346  0.16712697  0.49998275  1
  Sn  Sn28  1  0.49971038  0.83302622  0.16527517  1
  Sn  Sn29  1  0.83368073  0.16605041  0.83429005  1
  Sn  Sn30  1  0.83363091  0.83292980  0.50075606  1
  Sn  Sn31  1  0.16617308  0.49990021  0.50013909  1
  Sn  Sn32  1  0.50042124  0.83301358  0.83484636  1
  Sn  Sn33  1  0.83289545  0.83408107  0.83264995  1
  Sn  Sn34  1  0.16643124  0.16678003  0.16591911  1
  Sn  Sn35  1  0.16625891  0.16690573  0.83415430  1
  Sn  Sn36  1  0.83356042  0.16763782  0.16570785  1
  Sn  Sn37  1  0.83343000  0.50089771  0.49931844  1
  Sn  Sn38  1  0.50009393  0.49933981  0.50010681  1
  Sn  Sn39  1  0.83285718  0.49907853  0.16680334  1
  Pb  Pb40  1  0.16268880  0.83076574  0.49988740  1
  Pb  Pb41  1  0.50037876  0.16514300  0.16862470  1
  Pb  Pb42  1  0.16606966  0.83557571  0.83344314  1
  Pb  Pb43  1  0.50239786  0.50254578  0.16860372  1
  Pb  Pb44  1  0.16425553  0.49734975  0.16860123  1
  Pb  Pb45  1  0.50168471  0.83276062  0.50034715  1
  Pb  Pb46  1  0.83328359  0.49990265  0.83375555  1
  Pb  Pb47  1  0.16906265  0.16853682  0.49993274  1
  Pb  Pb48  1  0.16669522  0.49662655  0.83123262  1
  Pb  Pb49  1  0.16976223  0.83608710  0.16662267  1
  Pb  Pb50  1  0.50033950  0.16497254  0.83126482  1
  Pb  Pb51  1  0.49993355  0.50339455  0.83096661  1
  Pb  Pb52  1  0.83250660  0.83347725  0.16599874  1
  Pb  Pb53  1  0.83192398  0.16671450  0.50009666  1
  I  I54  1  0.15822672  0.00414195  0.16500197  1
  I  I55  1  0.16844260  0.00034588  0.50014321  1
  I  I56  1  0.16490869  0.00363266  0.83503674  1
  I  I57  1  0.16571843  0.32945620  0.16353000  1
  I  I58  1  0.16074723  0.33629200  0.50031599  1
  I  I59  1  0.15904151  0.32867770  0.83582237  1
  I  I60  1  0.16576771  0.66626401  0.16808634  1
  I  I61  1  0.17365773  0.66272558  0.49985013  1
  I  I62  1  0.16663726  0.66661617  0.83160298  1
  I  I63  1  0.50335702  -0.00253373  0.16694564  1
  I  I64  1  0.50192945  0.00150244  0.49967388  1
  I  I65  1  0.50253121  -0.00285900  0.83298873  1
  I  I66  1  0.49892252  0.33341890  0.16751646  1
  I  I67  1  0.50290202  0.33414636  0.49956923  1
  I  I68  1  0.50054681  0.33320278  0.83246034  1
  I  I69  1  0.50403463  0.67017565  0.16567276  1
  I  I70  1  0.49999086  0.66388648  0.49992644  1
  I  I71  1  0.50895652  0.67137794  0.83421580  1
  I  I72  1  0.83525829  0.00279629  0.16686483  1
  I  I73  1  0.82867518  -0.00203991  0.50068426  1
  I  I74  1  0.83280217  0.00025192  0.83249634  1
  I  I75  1  0.83668205  0.33257722  0.16906488  1
  I  I76  1  0.83395510  0.33606254  0.49905032  1
  I  I77  1  0.83787425  0.33013529  0.83272879  1
  I  I78  1  0.82976398  0.66449910  0.17033011  1
  I  I79  1  0.83019973  0.66569404  0.49947491  1
  I  I80  1  0.82768849  0.66962927  0.83067736  1
  I  I81  1  0.16150772  0.16519138  -0.00002066  1
  I  I82  1  0.16196076  0.16800691  0.33080976  1
  I  I83  1  0.16224573  0.16781894  0.66913682  1
  I  I84  1  0.16435393  0.50206099  0.00030826  1
  I  I85  1  0.16855136  0.49716400  0.33666283  1
  I  I86  1  0.16362113  0.49832557  0.66283119  1
  I  I87  1  0.16217084  0.83020949  -0.00001607  1
  I  I88  1  0.16815694  0.83709588  0.33342391  1
  I  I89  1  0.17206644  0.83621088  0.66656927  1
  I  I90  1  0.49973378  0.16590936  -0.00007181  1
  I  I91  1  0.50075806  0.16749222  0.33636005  1
  I  I92  1  0.50078813  0.16858445  0.66353706  1
  I  I93  1  0.50191077  0.49858998  0.00023464  1
  I  I94  1  0.49919231  0.49854857  0.33702732  1
  I  I95  1  0.50450928  0.49691737  0.66226587  1
  I  I96  1  0.50861403  0.83682350  -0.00080308  1
  I  I97  1  0.50267974  0.83426299  0.33196731  1
  I  I98  1  0.50339330  0.83393301  0.66881436  1
  I  I99  1  0.83679003  0.16570065  -0.00008832  1
  I  I100  1  0.83604306  0.16706600  0.33096810  1
  I  I101  1  0.83595819  0.16530587  0.66912621  1
  I  I102  1  0.83320439  0.49902601  0.00298852  1
  I  I103  1  0.83316053  0.50012677  0.33464745  1
  I  I104  1  0.83265729  0.50093387  0.66344570  1
  I  I105  1  0.82957134  0.83529622  -0.00282666  1
  I  I106  1  0.82999139  0.83191094  0.33532400  1
  I  I107  1  0.82669903  0.83333746  0.66713781  1
  I  I108  1  -0.00139770  0.16952427  0.16440970  1
  I  I109  1  -0.00009665  0.16716493  0.50020629  1
  I  I110  1  -0.00151455  0.16092647  0.83549139  1
  I  I111  1  -0.00382855  0.50027093  0.17311920  1
  I  I112  1  -0.00142588  0.50414888  0.49641794  1
  I  I113  1  -0.00029534  0.50468530  0.82989700  1
  I  I114  1  -0.00011774  0.83149413  0.16746304  1
  I  I115  1  -0.00532202  0.83027322  0.50524786  1
  I  I116  1  -0.00358179  0.83527406  0.82825764  1
  I  I117  1  0.33099521  0.16402249  0.16396557  1
  I  I118  1  0.33673207  0.17046408  0.49996435  1
  I  I119  1  0.33100569  0.16566308  0.83546478  1
  I  I120  1  0.33333542  0.49969364  0.16897356  1
  I  I121  1  0.33396728  0.49379548  0.50141938  1
  I  I122  1  0.33337491  0.49971913  0.83109765  1
  I  I123  1  0.33768238  0.83489187  0.16294748  1
  I  I124  1  0.33337215  0.83317972  0.50050255  1
  I  I125  1  0.33607935  0.83522229  0.83512019  1
  I  I126  1  0.66984354  0.16880279  0.16410619  1
  I  I127  1  0.66433889  0.17116044  0.49976490  1
  I  I128  1  0.66976123  0.16417678  0.83610287  1
  I  I129  1  0.67038773  0.49342756  0.17340131  1
  I  I130  1  0.66758270  0.50038190  0.49623258  1
  I  I131  1  0.66684748  0.49511137  0.83028056  1
  I  I132  1  0.66475365  0.83587447  0.16698118  1
  I  I133  1  0.66950019  0.82855191  0.50110868  1
  I  I134  1  0.66797789  0.83949926  0.83229324  1
