# generated using pymatgen
data_Cs27Sn13Pb14I81
_symmetry_space_group_name_H-M   'P 1'
_cell_length_a   18.97420852
_cell_length_b   18.97820312
_cell_length_c   18.97876837
_cell_angle_alpha   89.99766168
_cell_angle_beta   90.00042652
_cell_angle_gamma   89.99880551
_symmetry_Int_Tables_number   1
_chemical_formula_structural   Cs27Sn13Pb14I81
_chemical_formula_sum   'Cs27 Sn13 Pb14 I81'
_cell_volume   6834.18584277
_cell_formula_units_Z   1
loop_
 _symmetry_equiv_pos_site_id
 _symmetry_equiv_pos_as_xyz
  1  'x, y, z'
loop_
 _atom_site_type_symbol
 _atom_site_label
 _atom_site_symmetry_multiplicity
 _atom_site_fract_x
 _atom_site_fract_y
 _atom_site_fract_z
 _atom_site_occupancy
  Cs  Cs0  1  0.00074001  0.00002881  0.00176607  1
  Cs  Cs1  1  -0.00155924  -0.00037028  0.33400639  1
  Cs  Cs2  1  0.00721869  0.00101630  0.66443351  1
  Cs  Cs3  1  0.00029975  0.33472856  0.00058410  1
  Cs  Cs4  1  -0.00054634  0.33274890  0.33415561  1
  Cs  Cs5  1  0.00091096  0.33170800  0.66361400  1
  Cs  Cs6  1  -0.00355193  0.66570492  0.00096235  1
  Cs  Cs7  1  0.00002469  0.66723234  0.33189823  1
  Cs  Cs8  1  -0.00189638  0.66723249  0.66756221  1
  Cs  Cs9  1  0.33482877  -0.00056917  0.00015926  1
  Cs  Cs10  1  0.33505554  -0.00454923  0.33133683  1
  Cs  Cs11  1  0.32656002  -0.00549731  0.66634296  1
  Cs  Cs12  1  0.33258341  0.33150557  -0.00255711  1
  Cs  Cs13  1  0.33656610  0.33586281  0.33176143  1
  Cs  Cs14  1  0.33441051  0.33348809  0.66961131  1
  Cs  Cs15  1  0.33330182  0.66864786  -0.00088759  1
  Cs  Cs16  1  0.33827662  0.66641365  0.33727816  1
  Cs  Cs17  1  0.33537890  0.67011143  0.66328436  1
  Cs  Cs18  1  0.66462848  0.00028885  -0.00039810  1
  Cs  Cs19  1  0.66952082  0.00131440  0.33196322  1
  Cs  Cs20  1  0.66707923  0.00326815  0.66824497  1
  Cs  Cs21  1  0.66691706  0.33350711  -0.00052548  1
  Cs  Cs22  1  0.66346073  0.33439440  0.33344741  1
  Cs  Cs23  1  0.66466583  0.33082399  0.66696426  1
  Cs  Cs24  1  0.67073773  0.66694552  -0.00244635  1
  Cs  Cs25  1  0.66236987  0.66425295  0.33424610  1
  Cs  Cs26  1  0.66691724  0.66959734  0.66804161  1
  Sn  Sn27  1  0.16587369  0.83308207  0.16676296  1
  Sn  Sn28  1  0.16732403  0.49990311  0.83324325  1
  Sn  Sn29  1  0.83394495  0.83384372  0.16754734  1
  Sn  Sn30  1  0.16596220  0.16672586  0.16680213  1
  Sn  Sn31  1  0.83338956  0.83263128  0.49938080  1
  Sn  Sn32  1  0.16599571  0.49980563  0.49990941  1
  Sn  Sn33  1  0.83410179  0.16637452  0.16576839  1
  Sn  Sn34  1  0.83364528  0.50070848  0.49996954  1
  Sn  Sn35  1  0.83335652  0.16679148  0.83395221  1
  Sn  Sn36  1  0.49951050  0.16632657  0.50082458  1
  Sn  Sn37  1  0.16653880  0.50015582  0.16675398  1
  Sn  Sn38  1  0.50035584  0.16724369  0.83217650  1
  Sn  Sn39  1  0.49950345  0.49956976  0.83346890  1
  Pb  Pb40  1  0.50032886  0.16668281  0.16607076  1
  Pb  Pb41  1  0.83487755  0.49981884  0.16860453  1
  Pb  Pb42  1  0.16676776  0.16825726  0.83518654  1
  Pb  Pb43  1  0.50003082  0.83373747  0.83322188  1
  Pb  Pb44  1  0.83355966  0.83639364  0.83339538  1
  Pb  Pb45  1  0.50085673  0.83311830  0.16663632  1
  Pb  Pb46  1  0.83357221  0.49777938  0.83096959  1
  Pb  Pb47  1  0.49728140  0.50009624  0.16359753  1
  Pb  Pb48  1  0.16638623  0.83017394  0.83590770  1
  Pb  Pb49  1  0.16938293  0.16868526  0.49718161  1
  Pb  Pb50  1  0.50305736  0.83633665  0.50005372  1
  Pb  Pb51  1  0.16452974  0.83081711  0.49767149  1
  Pb  Pb52  1  0.49998804  0.49859195  0.50227450  1
  Pb  Pb53  1  0.83229790  0.16663488  0.49966192  1
  I  I54  1  0.16240362  0.00025572  0.16617756  1
  I  I55  1  0.16622337  -0.00005677  0.49927061  1
  I  I56  1  0.16730621  0.00010679  0.83479121  1
  I  I57  1  0.16286378  0.33356460  0.16622561  1
  I  I58  1  0.15984740  0.33693780  0.49766368  1
  I  I59  1  0.16760978  0.33648635  0.83650002  1
  I  I60  1  0.16213585  0.66638491  0.16563480  1
  I  I61  1  0.16634139  0.66256159  0.49847789  1
  I  I62  1  0.17224359  0.66170162  0.83480662  1
  I  I63  1  0.49467539  0.00021771  0.16473039  1
  I  I64  1  0.50161463  0.00417130  0.50582959  1
  I  I65  1  0.50546072  0.00390360  0.83126852  1
  I  I66  1  0.50040433  0.33324004  0.16919275  1
  I  I67  1  0.50296617  0.33081012  0.50133998  1
  I  I68  1  0.49957635  0.33259516  0.82991944  1
  I  I69  1  0.50029519  0.66647682  0.16562370  1
  I  I70  1  0.49848691  0.66660181  0.50096479  1
  I  I71  1  0.49493009  0.66335191  0.83408595  1
  I  I72  1  0.84093392  0.00042083  0.16880365  1
  I  I73  1  0.82986158  -0.00206858  0.49760437  1
  I  I74  1  0.82639078  0.00440460  0.83358710  1
  I  I75  1  0.83741959  0.33049350  0.16450081  1
  I  I76  1  0.83627604  0.33552372  0.50021012  1
  I  I77  1  0.83188681  0.33000291  0.83840092  1
  I  I78  1  0.83797489  0.66924366  0.16863815  1
  I  I79  1  0.83760740  0.66643975  0.49479310  1
  I  I80  1  0.83239962  0.66643494  0.83566710  1
  I  I81  1  0.16694059  0.16926591  0.00346209  1
  I  I82  1  0.16090684  0.16894480  0.32915562  1
  I  I83  1  0.16389563  0.16911858  0.66661471  1
  I  I84  1  0.17148398  0.49930253  0.00050739  1
  I  I85  1  0.16076531  0.49916929  0.33296899  1
  I  I86  1  0.16643654  0.49793500  0.66660362  1
  I  I87  1  0.16020243  0.83201563  0.00439153  1
  I  I88  1  0.16437376  0.83254119  0.32945854  1
  I  I89  1  0.16554827  0.83275186  0.66635336  1
  I  I90  1  0.50116029  0.17111027  -0.00307243  1
  I  I91  1  0.50056266  0.16724911  0.33531627  1
  I  I92  1  0.50783489  0.17207247  0.66800668  1
  I  I93  1  0.49628567  0.49237642  -0.00432635  1
  I  I94  1  0.49920829  0.49778590  0.33363009  1
  I  I95  1  0.49437698  0.49619570  0.66994103  1
  I  I96  1  0.50125667  0.83504509  -0.00000571  1
  I  I97  1  0.49756149  0.83513015  0.33345429  1
  I  I98  1  0.50194260  0.83157486  0.66648904  1
  I  I99  1  0.83134320  0.16260395  0.00095679  1
  I  I100  1  0.83583750  0.16561654  0.33053075  1
  I  I101  1  0.82933201  0.16825217  0.66872344  1
  I  I102  1  0.83374398  0.50190190  -0.00009431  1
  I  I103  1  0.83860382  0.49814998  0.33651260  1
  I  I104  1  0.83891310  0.50364601  0.66317850  1
  I  I105  1  0.83741459  0.83509287  0.00343293  1
  I  I106  1  0.83804408  0.83641530  0.33224759  1
  I  I107  1  0.83130890  0.82936763  0.66376759  1
  I  I108  1  -0.00050667  0.16650217  0.16157549  1
  I  I109  1  0.00014810  0.16617214  0.50245007  1
  I  I110  1  -0.00239435  0.16820251  0.83615374  1
  I  I111  1  0.00345616  0.49944605  0.16183276  1
  I  I112  1  0.00058435  0.50192305  0.50149202  1
  I  I113  1  0.00290201  0.49864717  0.83574585  1
  I  I114  1  -0.00018789  0.83437085  0.17016115  1
  I  I115  1  -0.00340797  0.83380192  0.49796088  1
  I  I116  1  -0.00009990  0.83319105  0.83153189  1
  I  I117  1  0.33029259  0.16732873  0.16690563  1
  I  I118  1  0.33678743  0.16995903  0.50548883  1
  I  I119  1  0.33591784  0.17044928  0.83189581  1
  I  I120  1  0.32831485  0.49891825  0.17236136  1
  I  I121  1  0.33042655  0.49724562  0.49699332  1
  I  I122  1  0.33274491  0.49290786  0.83355684  1
  I  I123  1  0.32978833  0.83436081  0.16522815  1
  I  I124  1  0.33313491  0.83259924  0.49840239  1
  I  I125  1  0.33305616  0.83772063  0.83592745  1
  I  I126  1  0.66992784  0.16128411  0.16606454  1
  I  I127  1  0.66451622  0.16917779  0.49974747  1
  I  I128  1  0.66647262  0.17247510  0.83536391  1
  I  I129  1  0.66686963  0.49952124  0.16752290  1
  I  I130  1  0.66926149  0.50199575  0.50093729  1
  I  I131  1  0.66443385  0.49676255  0.83096419  1
  I  I132  1  0.67084106  0.83979506  0.16998144  1
  I  I133  1  0.67097889  0.82594014  0.49261971  1
  I  I134  1  0.66700320  0.82834223  0.83637869  1
