# generated using pymatgen
data_Cs27Sn13Pb14I81
_symmetry_space_group_name_H-M   'P 1'
_cell_length_a   18.97702754
_cell_length_b   18.97682293
_cell_length_c   18.97691335
_cell_angle_alpha   90.00145623
_cell_angle_beta   89.99768447
_cell_angle_gamma   90.00061745
_symmetry_Int_Tables_number   1
_chemical_formula_structural   Cs27Sn13Pb14I81
_chemical_formula_sum   'Cs27 Sn13 Pb14 I81'
_cell_volume   6834.03607674
_cell_formula_units_Z   1
loop_
 _symmetry_equiv_pos_site_id
 _symmetry_equiv_pos_as_xyz
  1  'x, y, z'
loop_
 _atom_site_type_symbol
 _atom_site_label
 _atom_site_symmetry_multiplicity
 _atom_site_fract_x
 _atom_site_fract_y
 _atom_site_fract_z
 _atom_site_occupancy
  Cs  Cs0  1  0.00074103  0.00178015  0.00039336  1
  Cs  Cs1  1  -0.00173555  -0.00475635  0.33670670  1
  Cs  Cs2  1  0.00077455  -0.00177631  0.66382356  1
  Cs  Cs3  1  0.00362770  0.33404923  -0.00074193  1
  Cs  Cs4  1  -0.00007663  0.33360105  0.33207184  1
  Cs  Cs5  1  0.00011326  0.33678791  0.66905620  1
  Cs  Cs6  1  -0.00087081  0.66370869  -0.00194867  1
  Cs  Cs7  1  -0.00104842  0.67091487  0.33615520  1
  Cs  Cs8  1  0.00059300  0.66514978  0.66598308  1
  Cs  Cs9  1  0.33387804  0.00108269  -0.00117286  1
  Cs  Cs10  1  0.32930569  0.00066040  0.33637714  1
  Cs  Cs11  1  0.33297953  -0.00294435  0.66713530  1
  Cs  Cs12  1  0.32576764  0.33181236  0.00234719  1
  Cs  Cs13  1  0.33497005  0.33704522  0.33234459  1
  Cs  Cs14  1  0.33459366  0.33255996  0.66541960  1
  Cs  Cs15  1  0.33659449  0.66755837  0.00428785  1
  Cs  Cs16  1  0.33525562  0.66281366  0.33298984  1
  Cs  Cs17  1  0.33499606  0.67140003  0.66482238  1
  Cs  Cs18  1  0.66598620  -0.00049667  -0.00044873  1
  Cs  Cs19  1  0.67216818  0.00242539  0.33245561  1
  Cs  Cs20  1  0.66625662  0.00350749  0.66757140  1
  Cs  Cs21  1  0.66913890  0.33075137  -0.00150194  1
  Cs  Cs22  1  0.66505842  0.33242994  0.33549360  1
  Cs  Cs23  1  0.66560727  0.33201917  0.66565808  1
  Cs  Cs24  1  0.66490830  0.67049152  0.00072003  1
  Cs  Cs25  1  0.66590061  0.66589200  0.32773629  1
  Cs  Cs26  1  0.66345873  0.66350215  0.67114377  1
  Sn  Sn27  1  0.16611383  0.49896459  0.50012327  1
  Sn  Sn28  1  0.16577885  0.83337383  0.83455547  1
  Sn  Sn29  1  0.50031097  0.16667733  0.16608348  1
  Sn  Sn30  1  0.83282705  0.16748765  0.16593895  1
  Sn  Sn31  1  0.50029256  0.16784385  0.83424273  1
  Sn  Sn32  1  0.50111820  0.83366363  0.49943155  1
  Sn  Sn33  1  0.16641896  0.16786414  0.50017315  1
  Sn  Sn34  1  0.83309171  0.16589324  0.83392747  1
  Sn  Sn35  1  0.16655689  0.83329368  0.16555177  1
  Sn  Sn36  1  0.83339770  0.49923990  0.16731991  1
  Sn  Sn37  1  0.83425656  0.83423351  0.83326829  1
  Sn  Sn38  1  0.49953687  0.49861507  0.83385954  1
  Sn  Sn39  1  0.83360462  0.49976401  0.49921070  1
  Pb  Pb40  1  0.50228582  0.49739894  0.16410623  1
  Pb  Pb41  1  0.49829834  0.16518039  0.50000296  1
  Pb  Pb42  1  0.50017834  0.83417684  0.83255499  1
  Pb  Pb43  1  0.16598749  0.16518859  0.16871025  1
  Pb  Pb44  1  0.83060777  0.83064490  0.50265786  1
  Pb  Pb45  1  0.83208126  0.49952199  0.83360870  1
  Pb  Pb46  1  0.50030370  0.50151611  0.50139934  1
  Pb  Pb47  1  0.16942862  0.50258971  0.83141903  1
  Pb  Pb48  1  0.49810588  0.83619242  0.16910932  1
  Pb  Pb49  1  0.83489671  0.83371874  0.16446929  1
  Pb  Pb50  1  0.83526441  0.16857106  0.50021904  1
  Pb  Pb51  1  0.16426795  0.50227835  0.16883318  1
  Pb  Pb52  1  0.16646517  0.16503754  0.83151729  1
  Pb  Pb53  1  0.16774422  0.83268095  0.50013898  1
  I  I54  1  0.16543381  -0.00256488  0.16631682  1
  I  I55  1  0.16937733  0.00139133  0.50003540  1
  I  I56  1  0.16781470  -0.00292885  0.83279244  1
  I  I57  1  0.16825395  0.33335060  0.16736137  1
  I  I58  1  0.16425355  0.33384871  0.50038077  1
  I  I59  1  0.16484724  0.33335809  0.83256789  1
  I  I60  1  0.16582683  0.67003095  0.16462540  1
  I  I61  1  0.16413817  0.66423562  0.50065088  1
  I  I62  1  0.16158586  0.67048148  0.83363620  1
  I  I63  1  0.50641205  0.00387194  0.15988207  1
  I  I64  1  0.49547440  -0.00224328  0.50339748  1
  I  I65  1  0.50120121  0.00302911  0.83513303  1
  I  I66  1  0.50033575  0.32945242  0.16696831  1
  I  I67  1  0.49981555  0.33324846  0.49991710  1
  I  I68  1  0.50704170  0.33171588  0.83378816  1
  I  I69  1  0.50048519  0.66657412  0.16587066  1
  I  I70  1  0.49676681  0.66908255  0.50437076  1
  I  I71  1  0.50050492  0.66530566  0.82898603  1
  I  I72  1  0.83057511  0.00309144  0.16420202  1
  I  I73  1  0.83512069  0.00004977  0.49792883  1
  I  I74  1  0.83067360  0.00114725  0.83820026  1
  I  I75  1  0.83013783  0.33229574  0.16482683  1
  I  I76  1  0.83420850  0.33645731  0.50146041  1
  I  I77  1  0.82997091  0.33042519  0.83369811  1
  I  I78  1  0.83598664  0.66439667  0.16950807  1
  I  I79  1  0.84012732  0.66292545  0.49608082  1
  I  I80  1  0.83487944  0.66862353  0.83232755  1
  I  I81  1  0.16724923  0.16567278  -0.00002403  1
  I  I82  1  0.16760153  0.16654426  0.33638860  1
  I  I83  1  0.16719805  0.16702394  0.66379004  1
  I  I84  1  0.16580978  0.49995643  0.00003557  1
  I  I85  1  0.16687812  0.49907518  0.33686313  1
  I  I86  1  0.15970916  0.49884083  0.66346312  1
  I  I87  1  0.16382959  0.83513726  -0.00090666  1
  I  I88  1  0.16861004  0.83440539  0.33169075  1
  I  I89  1  0.16521927  0.83373627  0.66890061  1
  I  I90  1  0.50400174  0.16885659  -0.00094925  1
  I  I91  1  0.50365312  0.16352701  0.33072461  1
  I  I92  1  0.50366531  0.16814680  0.66968450  1
  I  I93  1  0.50245436  0.50170151  -0.00366312  1
  I  I94  1  0.49850584  0.50041474  0.33305055  1
  I  I95  1  0.50304791  0.49526789  0.66929671  1
  I  I96  1  0.50032060  0.83127498  0.00014377  1
  I  I97  1  0.49621447  0.83292041  0.33638778  1
  I  I98  1  0.49661992  0.83430400  0.66499183  1
  I  I99  1  0.82962672  0.16813946  -0.00020535  1
  I  I100  1  0.82975005  0.16885478  0.33056819  1
  I  I101  1  0.82964626  0.16409867  0.66968739  1
  I  I102  1  0.83081558  0.49927670  0.00226402  1
  I  I103  1  0.83660066  0.49502446  0.33317357  1
  I  I104  1  0.83583530  0.50096690  0.66468793  1
  I  I105  1  0.83349400  0.83217214  -0.00350696  1
  I  I106  1  0.83500417  0.83556588  0.33328706  1
  I  I107  1  0.83925617  0.83808653  0.67051178  1
  I  I108  1  -0.00333768  0.16961483  0.16255435  1
  I  I109  1  0.00299577  0.16611263  0.49990523  1
  I  I110  1  -0.00302412  0.16420713  0.83662288  1
  I  I111  1  -0.00364551  0.49305524  0.16603161  1
  I  I112  1  -0.00009757  0.49726890  0.49783029  1
  I  I113  1  0.00004019  0.49899057  0.83359494  1
  I  I114  1  0.00271748  0.83571680  0.16689393  1
  I  I115  1  -0.00031266  0.83440084  0.49942458  1
  I  I116  1  -0.00037565  0.83851656  0.83548117  1
  I  I117  1  0.33561369  0.16340996  0.16305572  1
  I  I118  1  0.33045086  0.17052146  0.50009072  1
  I  I119  1  0.33610719  0.16825095  0.83581886  1
  I  I120  1  0.33336148  0.50003078  0.16783879  1
  I  I121  1  0.33099181  0.49898891  0.50277177  1
  I  I122  1  0.33703565  0.49519618  0.83053236  1
  I  I123  1  0.33026090  0.83498067  0.16076624  1
  I  I124  1  0.33513524  0.83242492  0.50345185  1
  I  I125  1  0.33125150  0.83315122  0.83337639  1
  I  I126  1  0.66750200  0.16908651  0.16333180  1
  I  I127  1  0.66688356  0.16664158  0.50045817  1
  I  I128  1  0.66703254  0.16400903  0.83585334  1
  I  I129  1  0.67026414  0.50012498  0.17346885  1
  I  I130  1  0.66934887  0.50204424  0.49834501  1
  I  I131  1  0.66435397  0.50140897  0.83027480  1
  I  I132  1  0.66687793  0.83127726  0.16636109  1
  I  I133  1  0.66356241  0.83356403  0.50260226  1
  I  I134  1  0.66897743  0.83378017  0.83070197  1
