# generated using pymatgen
data_Cs27Sn14Pb13I81
_symmetry_space_group_name_H-M   'P 1'
_cell_length_a   18.97841253
_cell_length_b   18.98213875
_cell_length_c   18.96675486
_cell_angle_alpha   90.00177251
_cell_angle_beta   90.00041118
_cell_angle_gamma   89.99895783
_symmetry_Int_Tables_number   1
_chemical_formula_structural   Cs27Sn14Pb13I81
_chemical_formula_sum   'Cs27 Sn14 Pb13 I81'
_cell_volume   6832.78974309
_cell_formula_units_Z   1
loop_
 _symmetry_equiv_pos_site_id
 _symmetry_equiv_pos_as_xyz
  1  'x, y, z'
loop_
 _atom_site_type_symbol
 _atom_site_label
 _atom_site_symmetry_multiplicity
 _atom_site_fract_x
 _atom_site_fract_y
 _atom_site_fract_z
 _atom_site_occupancy
  Cs  Cs0  1  0.00081451  0.00107978  -0.00122742  1
  Cs  Cs1  1  0.00003306  -0.00105474  0.33516775  1
  Cs  Cs2  1  0.00021434  -0.00186593  0.66813220  1
  Cs  Cs3  1  -0.00410077  0.33091881  0.00095979  1
  Cs  Cs4  1  0.00258902  0.33648103  0.33236410  1
  Cs  Cs5  1  0.00227239  0.33436444  0.66614291  1
  Cs  Cs6  1  0.00020882  0.66791662  -0.00187679  1
  Cs  Cs7  1  -0.00066694  0.66437339  0.32883665  1
  Cs  Cs8  1  -0.00239556  0.66773457  0.66851980  1
  Cs  Cs9  1  0.33140282  -0.00148771  0.00376903  1
  Cs  Cs10  1  0.33396110  -0.00054927  0.33153958  1
  Cs  Cs11  1  0.33215878  -0.00115522  0.66652468  1
  Cs  Cs12  1  0.34273916  0.33253960  -0.00150212  1
  Cs  Cs13  1  0.32732750  0.33566456  0.33815676  1
  Cs  Cs14  1  0.33331702  0.33441548  0.66442630  1
  Cs  Cs15  1  0.33444110  0.66729838  0.00491882  1
  Cs  Cs16  1  0.33133241  0.66655594  0.32542392  1
  Cs  Cs17  1  0.33460746  0.66747280  0.66799820  1
  Cs  Cs18  1  0.66712435  0.00790127  0.00240541  1
  Cs  Cs19  1  0.66543238  -0.00007012  0.33605515  1
  Cs  Cs20  1  0.66737641  -0.00092043  0.66475366  1
  Cs  Cs21  1  0.66214408  0.32610831  0.00759321  1
  Cs  Cs22  1  0.66873866  0.33304900  0.33016831  1
  Cs  Cs23  1  0.66491162  0.33413643  0.66766479  1
  Cs  Cs24  1  0.66614551  0.66402805  0.00103583  1
  Cs  Cs25  1  0.66821310  0.66634505  0.33552203  1
  Cs  Cs26  1  0.66754904  0.66727616  0.66520981  1
  Sn  Sn27  1  0.16760208  0.83288922  0.50047258  1
  Sn  Sn28  1  0.50070541  0.50044345  0.50038403  1
  Sn  Sn29  1  0.83272559  0.49881599  0.50111072  1
  Sn  Sn30  1  0.83339252  0.50009154  0.83288405  1
  Sn  Sn31  1  0.16621027  0.50014289  0.83330252  1
  Sn  Sn32  1  0.49854078  0.83292537  0.50084005  1
  Sn  Sn33  1  0.16658591  0.16683235  0.16556748  1
  Sn  Sn34  1  0.16708331  0.83289534  0.83265474  1
  Sn  Sn35  1  0.16673200  0.16687643  0.83423361  1
  Sn  Sn36  1  0.83279239  0.83293338  0.83464559  1
  Sn  Sn37  1  0.83310268  0.83341305  0.16505569  1
  Sn  Sn38  1  0.50016321  0.83350758  0.83294867  1
  Sn  Sn39  1  0.50083879  0.16664840  0.50046719  1
  Sn  Sn40  1  0.83294454  0.16801787  0.50069114  1
  Pb  Pb41  1  0.50008969  0.50001244  0.17009282  1
  Pb  Pb42  1  0.49742297  0.16404441  0.83105002  1
  Pb  Pb43  1  0.16627246  0.50307635  0.50190192  1
  Pb  Pb44  1  0.16644230  0.49713262  0.16248800  1
  Pb  Pb45  1  0.83526035  0.16445027  0.16964960  1
  Pb  Pb46  1  0.50066862  0.50196169  0.83176862  1
  Pb  Pb47  1  0.83329037  0.83277103  0.50076225  1
  Pb  Pb48  1  0.83485275  0.16703738  0.83141180  1
  Pb  Pb49  1  0.50274447  0.83341695  0.16659823  1
  Pb  Pb50  1  0.16477953  0.83454014  0.16612934  1
  Pb  Pb51  1  0.83331828  0.50177627  0.16595023  1
  Pb  Pb52  1  0.16661033  0.16475305  0.50060141  1
  Pb  Pb53  1  0.49731237  0.16655549  0.16996468  1
  I  I54  1  0.16509534  0.00219162  0.16197329  1
  I  I55  1  0.16858942  -0.00306297  0.50528903  1
  I  I56  1  0.16620033  -0.00131294  0.83247627  1
  I  I57  1  0.16524930  0.32941752  0.16611824  1
  I  I58  1  0.16925672  0.33355888  0.50059364  1
  I  I59  1  0.16036483  0.33356779  0.83653224  1
  I  I60  1  0.16571653  0.66658035  0.16823083  1
  I  I61  1  0.16914608  0.67092493  0.50572689  1
  I  I62  1  0.16490564  0.66787790  0.82649855  1
  I  I63  1  0.50040297  -0.00011723  0.16985463  1
  I  I64  1  0.50054912  -0.00080167  0.50362141  1
  I  I65  1  0.50126689  -0.00420451  0.82623114  1
  I  I66  1  0.50065315  0.33303854  0.16544661  1
  I  I67  1  0.50422033  0.33344441  0.49951193  1
  I  I68  1  0.49827050  0.33326669  0.83099483  1
  I  I69  1  0.49855286  0.66709717  0.16907971  1
  I  I70  1  0.50162529  0.66734065  0.50513274  1
  I  I71  1  0.49604082  0.67021813  0.82614216  1
  I  I72  1  0.83448740  -0.00322909  0.16170329  1
  I  I73  1  0.83133785  0.00132552  0.49958566  1
  I  I74  1  0.83504438  -0.00302457  0.83406813  1
  I  I75  1  0.83441058  0.33309347  0.16551631  1
  I  I76  1  0.82666942  0.33420050  0.50521760  1
  I  I77  1  0.83999041  0.33625945  0.82850374  1
  I  I78  1  0.83536358  0.66979505  0.16878989  1
  I  I79  1  0.83069652  0.66435984  0.50113955  1
  I  I80  1  0.83866772  0.66747767  0.83017156  1
  I  I81  1  0.16451168  0.16262138  -0.00172408  1
  I  I82  1  0.16678995  0.16247066  0.33208887  1
  I  I83  1  0.16643964  0.16635078  0.66936679  1
  I  I84  1  0.15975103  0.50825822  -0.00548688  1
  I  I85  1  0.16708384  0.49978244  0.33347074  1
  I  I86  1  0.16510896  0.49562669  0.66992646  1
  I  I87  1  0.16872563  0.83191810  -0.00388024  1
  I  I88  1  0.16911082  0.83665853  0.33584034  1
  I  I89  1  0.16491031  0.83667486  0.66813175  1
  I  I90  1  0.50086595  0.16522571  -0.00022556  1
  I  I91  1  0.50204203  0.16239129  0.33825106  1
  I  I92  1  0.50117008  0.16756402  0.66283613  1
  I  I93  1  0.49952189  0.50231101  -0.00045567  1
  I  I94  1  0.50604706  0.50367264  0.33902673  1
  I  I95  1  0.50119295  0.49883728  0.66331611  1
  I  I96  1  0.49553995  0.83231389  -0.00346562  1
  I  I97  1  0.49694647  0.83375262  0.33716027  1
  I  I98  1  0.50060622  0.83359504  0.66585473  1
  I  I99  1  0.83343426  0.16820332  -0.00015882  1
  I  I100  1  0.83212887  0.16923138  0.33772151  1
  I  I101  1  0.83258630  0.16410953  0.66333260  1
  I  I102  1  0.83990839  0.50441210  -0.00386194  1
  I  I103  1  0.82868666  0.49875118  0.33661414  1
  I  I104  1  0.83392114  0.50356317  0.66665273  1
  I  I105  1  0.83559008  0.82785692  -0.00269730  1
  I  I106  1  0.83429682  0.83462451  0.33223384  1
  I  I107  1  0.83457324  0.83265084  0.66951565  1
  I  I108  1  0.00286065  0.16471649  0.16460778  1
  I  I109  1  -0.00210685  0.16854345  0.50020937  1
  I  I110  1  0.00303857  0.16107379  0.83275323  1
  I  I111  1  -0.00002984  0.50042496  0.17417750  1
  I  I112  1  -0.00284232  0.49649337  0.50202799  1
  I  I113  1  -0.00048294  0.50563932  0.82649242  1
  I  I114  1  -0.00289724  0.83438027  0.16483242  1
  I  I115  1  0.00188656  0.83545139  0.50334206  1
  I  I116  1  0.00047501  0.83315539  0.83212745  1
  I  I117  1  0.32971447  0.16324286  0.16318597  1
  I  I118  1  0.33570597  0.16803301  0.50022745  1
  I  I119  1  0.32918012  0.16700907  0.83402369  1
  I  I120  1  0.33300715  0.50144689  0.16739484  1
  I  I121  1  0.33573297  0.49675271  0.50193636  1
  I  I122  1  0.33080713  0.50066945  0.83121294  1
  I  I123  1  0.33331512  0.83473030  0.16601473  1
  I  I124  1  0.33401814  0.83490378  0.50797968  1
  I  I125  1  0.33247245  0.83407895  0.82662074  1
  I  I126  1  0.66670951  0.16585700  0.16609707  1
  I  I127  1  0.66649445  0.16323925  0.50063054  1
  I  I128  1  0.66645642  0.16584251  0.83311730  1
  I  I129  1  0.66691086  0.50043334  0.16216520  1
  I  I130  1  0.66723478  0.50224895  0.50603270  1
  I  I131  1  0.66980582  0.50725517  0.82903013  1
  I  I132  1  0.67047334  0.83338860  0.16435456  1
  I  I133  1  0.66418183  0.83402431  0.50271665  1
  I  I134  1  0.66723841  0.82773703  0.83084567  1
