# generated using pymatgen
data_Cs27Sn13Pb14I81
_symmetry_space_group_name_H-M   'P 1'
_cell_length_a   18.97448859
_cell_length_b   18.97506250
_cell_length_c   18.98320344
_cell_angle_alpha   89.99783274
_cell_angle_beta   89.99856538
_cell_angle_gamma   90.00127482
_symmetry_Int_Tables_number   1
_chemical_formula_structural   Cs27Sn13Pb14I81
_chemical_formula_sum   'Cs27 Sn13 Pb14 I81'
_cell_volume   6834.75255058
_cell_formula_units_Z   1
loop_
 _symmetry_equiv_pos_site_id
 _symmetry_equiv_pos_as_xyz
  1  'x, y, z'
loop_
 _atom_site_type_symbol
 _atom_site_label
 _atom_site_symmetry_multiplicity
 _atom_site_fract_x
 _atom_site_fract_y
 _atom_site_fract_z
 _atom_site_occupancy
  Cs  Cs0  1  -0.00026976  0.00360011  -0.00367874  1
  Cs  Cs1  1  0.00022812  -0.00357220  0.33335822  1
  Cs  Cs2  1  -0.00434183  -0.00024539  0.66854594  1
  Cs  Cs3  1  -0.00013526  0.33335873  0.00292997  1
  Cs  Cs4  1  0.00630589  0.33365766  0.33024581  1
  Cs  Cs5  1  -0.00117084  0.33304634  0.66672068  1
  Cs  Cs6  1  0.00304492  0.66412190  0.00251194  1
  Cs  Cs7  1  -0.00211994  0.66871546  0.32990747  1
  Cs  Cs8  1  0.00244244  0.66723869  0.66637419  1
  Cs  Cs9  1  0.33511265  -0.00393904  0.00175342  1
  Cs  Cs10  1  0.33258184  0.00688198  0.33164243  1
  Cs  Cs11  1  0.33301851  -0.00163631  0.66654155  1
  Cs  Cs12  1  0.33222939  0.33319186  0.00179229  1
  Cs  Cs13  1  0.32811380  0.32484513  0.33337127  1
  Cs  Cs14  1  0.33340503  0.33403278  0.66359378  1
  Cs  Cs15  1  0.33360416  0.67045395  -0.00503625  1
  Cs  Cs16  1  0.33264851  0.66655721  0.33658005  1
  Cs  Cs17  1  0.33207193  0.66717489  0.66820456  1
  Cs  Cs18  1  0.66424676  -0.00049676  0.00068303  1
  Cs  Cs19  1  0.66572952  -0.00200122  0.33120541  1
  Cs  Cs20  1  0.67023556  0.00186910  0.66653320  1
  Cs  Cs21  1  0.66850603  0.33488563  -0.00373826  1
  Cs  Cs22  1  0.66490560  0.33432134  0.33423594  1
  Cs  Cs23  1  0.66633904  0.33388228  0.66826099  1
  Cs  Cs24  1  0.66496968  0.66592591  0.00329371  1
  Cs  Cs25  1  0.66955207  0.66697421  0.33391525  1
  Cs  Cs26  1  0.66546040  0.66442767  0.66440562  1
  Sn  Sn27  1  0.49929281  0.83307456  0.50011663  1
  Sn  Sn28  1  0.83293963  0.83151427  0.83360834  1
  Sn  Sn29  1  0.83296578  0.49899575  0.50051199  1
  Sn  Sn30  1  0.16692514  0.83317858  0.16734912  1
  Sn  Sn31  1  0.50063159  0.49925524  0.83332399  1
  Sn  Sn32  1  0.16822062  0.16702464  0.83291191  1
  Sn  Sn33  1  0.83287998  0.16682601  0.16821557  1
  Sn  Sn34  1  0.50039288  0.50046502  0.49964627  1
  Sn  Sn35  1  0.83316805  0.16789181  0.49832103  1
  Sn  Sn36  1  0.83280106  0.50134453  0.83261960  1
  Sn  Sn37  1  0.16759287  0.83328722  0.49935240  1
  Sn  Sn38  1  0.49968547  0.49987937  0.16711222  1
  Sn  Sn39  1  0.49869838  0.16722490  0.83306834  1
  Pb  Pb40  1  0.16393552  0.16415679  0.50193505  1
  Pb  Pb41  1  0.16476529  0.16462133  0.16455400  1
  Pb  Pb42  1  0.50190024  0.16879432  0.16420315  1
  Pb  Pb43  1  0.83181675  0.49838853  0.16695852  1
  Pb  Pb44  1  0.83278383  0.16769766  0.83313363  1
  Pb  Pb45  1  0.83311826  0.83265735  0.50117478  1
  Pb  Pb46  1  0.16467677  0.83506319  0.83296696  1
  Pb  Pb47  1  0.49815056  0.83123526  0.16950186  1
  Pb  Pb48  1  0.16667036  0.49772730  0.83317679  1
  Pb  Pb49  1  0.50200033  0.83289585  0.83126571  1
  Pb  Pb50  1  0.16981624  0.50221971  0.16672028  1
  Pb  Pb51  1  0.16646679  0.50195233  0.49997366  1
  Pb  Pb52  1  0.50183309  0.16699718  0.50175983  1
  Pb  Pb53  1  0.83487210  0.83526278  0.16383347  1
  I  I54  1  0.16643993  -0.00304294  0.17053927  1
  I  I55  1  0.17139539  -0.00364513  0.49733551  1
  I  I56  1  0.16871558  0.00288436  0.83302600  1
  I  I57  1  0.16609327  0.33308248  0.16499121  1
  I  I58  1  0.16850843  0.33306736  0.50119233  1
  I  I59  1  0.16458141  0.32995581  0.83374154  1
  I  I60  1  0.16414501  0.67007972  0.16954451  1
  I  I61  1  0.16575893  0.67005354  0.49848385  1
  I  I62  1  0.16763903  0.66677130  0.83368871  1
  I  I63  1  0.50052424  0.00001973  0.16574760  1
  I  I64  1  0.49847746  -0.00227772  0.50306915  1
  I  I65  1  0.49970425  0.00221537  0.83124386  1
  I  I66  1  0.50099370  0.33680854  0.17114707  1
  I  I67  1  0.50392298  0.33666930  0.50022442  1
  I  I68  1  0.50344695  0.33478376  0.83115509  1
  I  I69  1  0.50117855  0.66321495  0.16065866  1
  I  I70  1  0.50223271  0.66523294  0.50257649  1
  I  I71  1  0.50295906  0.66332870  0.83446136  1
  I  I72  1  0.83345012  0.00318883  0.17005399  1
  I  I73  1  0.83372190  0.00181556  0.50070286  1
  I  I74  1  0.83434728  -0.00112774  0.83220326  1
  I  I75  1  0.83303035  0.33055189  0.16399598  1
  I  I76  1  0.82693659  0.33450395  0.50427695  1
  I  I77  1  0.83137022  0.33625403  0.83190602  1
  I  I78  1  0.83384600  0.66652597  0.16793933  1
  I  I79  1  0.83158674  0.66368380  0.50363367  1
  I  I80  1  0.82866610  0.66498608  0.82719706  1
  I  I81  1  0.16652263  0.16401994  -0.00322843  1
  I  I82  1  0.16660407  0.16698433  0.33345252  1
  I  I83  1  0.16722896  0.16443865  0.66961385  1
  I  I84  1  0.16547846  0.50252654  -0.00016824  1
  I  I85  1  0.16607948  0.49829536  0.33344265  1
  I  I86  1  0.16961997  0.50276774  0.66664720  1
  I  I87  1  0.16389392  0.83522325  0.00177860  1
  I  I88  1  0.16911694  0.83317649  0.33434314  1
  I  I89  1  0.16880504  0.83440568  0.66412019  1
  I  I90  1  0.50025188  0.17102226  -0.00389673  1
  I  I91  1  0.50031424  0.16742415  0.33343990  1
  I  I92  1  0.50039122  0.17174457  0.66974470  1
  I  I93  1  0.50457616  0.49500383  -0.00149321  1
  I  I94  1  0.50568378  0.50655207  0.33482678  1
  I  I95  1  0.50508046  0.49985753  0.66668717  1
  I  I96  1  0.49907148  0.83281521  -0.00013268  1
  I  I97  1  0.50110770  0.82816525  0.33748963  1
  I  I98  1  0.49477016  0.82791917  0.66356647  1
  I  I99  1  0.83398542  0.16571102  0.00129921  1
  I  I100  1  0.83291723  0.17113316  0.33444458  1
  I  I101  1  0.83327256  0.16688145  0.66477161  1
  I  I102  1  0.82892584  0.50110122  -0.00293915  1
  I  I103  1  0.82825842  0.49832943  0.33648131  1
  I  I104  1  0.82554648  0.49770235  0.66667317  1
  I  I105  1  0.83478436  0.83045132  -0.00398564  1
  I  I106  1  0.83267007  0.83228561  0.33336035  1
  I  I107  1  0.83533122  0.83573131  0.66899781  1
  I  I108  1  -0.00317057  0.16773776  0.16648534  1
  I  I109  1  -0.00406447  0.17096147  0.50080804  1
  I  I110  1  0.00123138  0.16435537  0.83325364  1
  I  I111  1  -0.00009797  0.49942404  0.16583294  1
  I  I112  1  -0.00358313  0.49737479  0.50618200  1
  I  I113  1  -0.00346157  0.50175567  0.82820912  1
  I  I114  1  0.00267282  0.83337046  0.17367668  1
  I  I115  1  0.00193672  0.83453527  0.49867501  1
  I  I116  1  -0.00320702  0.83137723  0.83044337  1
  I  I117  1  0.33345952  0.16705900  0.16638522  1
  I  I118  1  0.33338407  0.16849982  0.50052182  1
  I  I119  1  0.33445333  0.17121302  0.83285066  1
  I  I120  1  0.33803134  0.49958259  0.16563498  1
  I  I121  1  0.33695012  0.50337033  0.50255101  1
  I  I122  1  0.33706221  0.49811244  0.83214094  1
  I  I123  1  0.33031524  0.83337967  0.16598179  1
  I  I124  1  0.33399540  0.82718625  0.49888640  1
  I  I125  1  0.33352057  0.83230297  0.83419630  1
  I  I126  1  0.66975234  0.16551657  0.16736285  1
  I  I127  1  0.66987335  0.16527627  0.50093441  1
  I  I128  1  0.66448969  0.16838072  0.83295702  1
  I  I129  1  0.66376184  0.50001735  0.16573496  1
  I  I130  1  0.66617069  0.50238347  0.50182529  1
  I  I131  1  0.66623461  0.49709147  0.83197335  1
  I  I132  1  0.66649725  0.83414969  0.16687631  1
  I  I133  1  0.66439062  0.83165433  0.50329334  1
  I  I134  1  0.66972669  0.83577528  0.83078608  1
