# generated using pymatgen
data_Cs27Sn13Pb14I81
_symmetry_space_group_name_H-M   'P 1'
_cell_length_a   18.97464513
_cell_length_b   18.97903857
_cell_length_c   18.97960600
_cell_angle_alpha   90.00076832
_cell_angle_beta   90.00130378
_cell_angle_gamma   89.99921927
_symmetry_Int_Tables_number   1
_chemical_formula_structural   Cs27Sn13Pb14I81
_chemical_formula_sum   'Cs27 Sn13 Pb14 I81'
_cell_volume   6834.94561497
_cell_formula_units_Z   1
loop_
 _symmetry_equiv_pos_site_id
 _symmetry_equiv_pos_as_xyz
  1  'x, y, z'
loop_
 _atom_site_type_symbol
 _atom_site_label
 _atom_site_symmetry_multiplicity
 _atom_site_fract_x
 _atom_site_fract_y
 _atom_site_fract_z
 _atom_site_occupancy
  Cs  Cs0  1  0.00253653  -0.00415927  -0.00370374  1
  Cs  Cs1  1  0.00108308  0.00132970  0.33316164  1
  Cs  Cs2  1  0.00211624  0.00094442  0.66990300  1
  Cs  Cs3  1  -0.00284745  0.33121499  -0.00037606  1
  Cs  Cs4  1  -0.00034961  0.33230315  0.33436886  1
  Cs  Cs5  1  -0.00061623  0.33233058  0.66562423  1
  Cs  Cs6  1  0.00247752  0.67278383  0.00343991  1
  Cs  Cs7  1  0.00182255  0.66869176  0.33000290  1
  Cs  Cs8  1  -0.00064407  0.66586376  0.66594755  1
  Cs  Cs9  1  0.33327517  -0.00205364  -0.00100573  1
  Cs  Cs10  1  0.33396492  0.00385810  0.33602731  1
  Cs  Cs11  1  0.33204135  0.00038293  0.66559729  1
  Cs  Cs12  1  0.33567932  0.33353236  0.00098200  1
  Cs  Cs13  1  0.33665489  0.33627019  0.33199126  1
  Cs  Cs14  1  0.33241159  0.33497695  0.66653239  1
  Cs  Cs15  1  0.33290468  0.66853445  0.00153390  1
  Cs  Cs16  1  0.33039782  0.65794241  0.33342703  1
  Cs  Cs17  1  0.33447550  0.66398877  0.66536747  1
  Cs  Cs18  1  0.66560096  -0.00196667  -0.00111125  1
  Cs  Cs19  1  0.66530919  -0.00052017  0.33648741  1
  Cs  Cs20  1  0.66686682  -0.00407791  0.66525339  1
  Cs  Cs21  1  0.66733821  0.33347814  0.00067960  1
  Cs  Cs22  1  0.66638656  0.33137829  0.33053619  1
  Cs  Cs23  1  0.66909818  0.33377889  0.66814446  1
  Cs  Cs24  1  0.66576522  0.66688699  -0.00100653  1
  Cs  Cs25  1  0.66704878  0.67024308  0.33669008  1
  Cs  Cs26  1  0.66619630  0.66839920  0.66587582  1
  Sn  Sn27  1  0.83421957  0.16688562  0.16706028  1
  Sn  Sn28  1  0.83340740  0.49922835  0.49964795  1
  Sn  Sn29  1  0.83383712  0.50000010  0.83366084  1
  Sn  Sn30  1  0.49992914  0.83319589  0.83387729  1
  Sn  Sn31  1  0.50012759  0.16668990  0.83304102  1
  Sn  Sn32  1  0.49991522  0.83336033  0.16687956  1
  Sn  Sn33  1  0.83332121  0.49965216  0.16669597  1
  Sn  Sn34  1  0.16593712  0.16628444  0.49915623  1
  Sn  Sn35  1  0.16613271  0.16688379  0.16698608  1
  Sn  Sn36  1  0.16656412  0.83383262  0.49983370  1
  Sn  Sn37  1  0.49989984  0.49986462  0.83349420  1
  Sn  Sn38  1  0.16627181  0.49984043  0.83385708  1
  Sn  Sn39  1  0.83408632  0.16735436  0.49940282  1
  Pb  Pb40  1  0.16441930  0.49910121  0.50138567  1
  Pb  Pb41  1  0.50031893  0.16689602  0.50221099  1
  Pb  Pb42  1  0.50045321  0.16512188  0.16476775  1
  Pb  Pb43  1  0.16426241  0.49754092  0.16437708  1
  Pb  Pb44  1  0.16904665  0.83591395  0.16885956  1
  Pb  Pb45  1  0.49733245  0.83323217  0.49980292  1
  Pb  Pb46  1  0.50246850  0.50192650  0.16471542  1
  Pb  Pb47  1  0.16852481  0.16838474  0.83325770  1
  Pb  Pb48  1  0.16899462  0.83088898  0.83142425  1
  Pb  Pb49  1  0.83160336  0.16799837  0.83337907  1
  Pb  Pb50  1  0.83161533  0.83422907  0.16678535  1
  Pb  Pb51  1  0.83577004  0.83404447  0.49988786  1
  Pb  Pb52  1  0.50303636  0.49973631  0.50200503  1
  Pb  Pb53  1  0.83136487  0.83050070  0.83332207  1
  I  I54  1  0.15996138  0.00381561  0.16633053  1
  I  I55  1  0.16196167  0.00176669  0.49764100  1
  I  I56  1  0.16941481  0.00012873  0.83425860  1
  I  I57  1  0.16700057  0.32972407  0.17308319  1
  I  I58  1  0.16398532  0.33016551  0.49876926  1
  I  I59  1  0.16900217  0.33635044  0.83090474  1
  I  I60  1  0.16620474  0.66656182  0.16734788  1
  I  I61  1  0.16687729  0.66814615  0.50386812  1
  I  I62  1  0.16707280  0.66286154  0.83100747  1
  I  I63  1  0.50166316  -0.00250299  0.15862710  1
  I  I64  1  0.50451641  0.00009585  0.50424837  1
  I  I65  1  0.49961669  -0.00031105  0.83734256  1
  I  I66  1  0.49881025  0.33330409  0.16421871  1
  I  I67  1  0.49482438  0.33326515  0.50256990  1
  I  I68  1  0.50070959  0.33441436  0.83197571  1
  I  I69  1  0.50118310  0.66963823  0.16039114  1
  I  I70  1  0.49981106  0.66657029  0.50243592  1
  I  I71  1  0.50125092  0.66606124  0.83687880  1
  I  I72  1  0.83493754  0.00385244  0.17248488  1
  I  I73  1  0.83382494  0.00371558  0.49470788  1
  I  I74  1  0.83039687  0.00011429  0.83284819  1
  I  I75  1  0.83562428  0.33319220  0.16654429  1
  I  I76  1  0.83895893  0.33301725  0.50090932  1
  I  I77  1  0.82985261  0.33660285  0.83295716  1
  I  I78  1  0.83070859  0.66364242  0.16571622  1
  I  I79  1  0.83342863  0.66361512  0.50139994  1
  I  I80  1  0.83121733  0.66158095  0.83258171  1
  I  I81  1  0.16329281  0.16968446  0.00244422  1
  I  I82  1  0.16283259  0.16259092  0.33388689  1
  I  I83  1  0.16331322  0.16444501  0.66383845  1
  I  I84  1  0.16617393  0.49846274  -0.00364972  1
  I  I85  1  0.16561036  0.50267243  0.33320732  1
  I  I86  1  0.16578028  0.49831309  0.66958625  1
  I  I87  1  0.16610855  0.83371224  0.00006199  1
  I  I88  1  0.16832113  0.83366282  0.33654641  1
  I  I89  1  0.16772298  0.84049196  0.66382558  1
  I  I90  1  0.50027560  0.16963336  -0.00326473  1
  I  I91  1  0.50008615  0.16333219  0.33320044  1
  I  I92  1  0.50011653  0.16545261  0.67049411  1
  I  I93  1  0.50266298  0.49778828  -0.00392341  1
  I  I94  1  0.50032361  0.50244481  0.33303397  1
  I  I95  1  0.50193916  0.50292561  0.67100996  1
  I  I96  1  0.50044404  0.83280630  -0.00146163  1
  I  I97  1  0.50114514  0.83552605  0.33074605  1
  I  I98  1  0.49957960  0.83194018  0.66983041  1
  I  I99  1  0.83538621  0.17172622  0.00280912  1
  I  I100  1  0.83633415  0.17521560  0.33344496  1
  I  I101  1  0.83632970  0.17135223  0.66386362  1
  I  I102  1  0.83137701  0.49509445  -0.00024145  1
  I  I103  1  0.83393529  0.49545740  0.33332453  1
  I  I104  1  0.83245417  0.49615419  0.66695430  1
  I  I105  1  0.83511145  0.83371336  0.00003262  1
  I  I106  1  0.82890755  0.82716769  0.33337276  1
  I  I107  1  0.83037115  0.83299722  0.66657344  1
  I  I108  1  -0.00080628  0.17124563  0.17035777  1
  I  I109  1  -0.00037235  0.16725314  0.49711262  1
  I  I110  1  -0.00001994  0.16960373  0.83318606  1
  I  I111  1  -0.00398194  0.49935413  0.16405681  1
  I  I112  1  -0.00365866  0.49855718  0.50413335  1
  I  I113  1  -0.00108297  0.49773779  0.83179349  1
  I  I114  1  0.00026509  0.83093901  0.16787182  1
  I  I115  1  0.00331620  0.83430935  0.50001527  1
  I  I116  1  0.00040568  0.83179311  0.83255702  1
  I  I117  1  0.33089137  0.16409200  0.16959425  1
  I  I118  1  0.33015974  0.16210651  0.49782328  1
  I  I119  1  0.33653380  0.16972062  0.83354476  1
  I  I120  1  0.33324447  0.49936336  0.16460048  1
  I  I121  1  0.33303553  0.50033564  0.50327833  1
  I  I122  1  0.33414088  0.49994890  0.83201583  1
  I  I123  1  0.33660458  0.83495548  0.16008337  1
  I  I124  1  0.32980446  0.84063738  0.50182659  1
  I  I125  1  0.33709709  0.83088929  0.83666375  1
  I  I126  1  0.66992250  0.17009163  0.16950919  1
  I  I127  1  0.67022068  0.17156868  0.49671256  1
  I  I128  1  0.66355403  0.16907437  0.83375789  1
  I  I129  1  0.67066614  0.49314860  0.16459151  1
  I  I130  1  0.67142640  0.49457456  0.50209715  1
  I  I131  1  0.66684476  0.50000028  0.83303984  1
  I  I132  1  0.66376765  0.83434716  0.16135048  1
  I  I133  1  0.66660950  0.83318815  0.50116187  1
  I  I134  1  0.66280615  0.83208890  0.83552559  1
