# generated using pymatgen
data_Cs27Sn13Pb14I81
_symmetry_space_group_name_H-M   'P 1'
_cell_length_a   18.97931010
_cell_length_b   18.97242360
_cell_length_c   18.97927536
_cell_angle_alpha   89.99913382
_cell_angle_beta   89.99910493
_cell_angle_gamma   90.00246871
_symmetry_Int_Tables_number   1
_chemical_formula_structural   Cs27Sn13Pb14I81
_chemical_formula_sum   'Cs27 Sn13 Pb14 I81'
_cell_volume   6834.12409755
_cell_formula_units_Z   1
loop_
 _symmetry_equiv_pos_site_id
 _symmetry_equiv_pos_as_xyz
  1  'x, y, z'
loop_
 _atom_site_type_symbol
 _atom_site_label
 _atom_site_symmetry_multiplicity
 _atom_site_fract_x
 _atom_site_fract_y
 _atom_site_fract_z
 _atom_site_occupancy
  Cs  Cs0  1  -0.00389763  -0.00502310  0.00105749  1
  Cs  Cs1  1  -0.00199724  0.00032569  0.33377375  1
  Cs  Cs2  1  0.00165836  0.00210027  0.66462398  1
  Cs  Cs3  1  0.00083829  0.33302390  -0.00157658  1
  Cs  Cs4  1  0.00016536  0.33228375  0.33431857  1
  Cs  Cs5  1  0.00080519  0.33294112  0.66697885  1
  Cs  Cs6  1  -0.00161005  0.67573612  0.00541220  1
  Cs  Cs7  1  0.00114017  0.66981745  0.32806804  1
  Cs  Cs8  1  0.00025430  0.66213014  0.66825137  1
  Cs  Cs9  1  0.33621038  0.00087002  -0.00300244  1
  Cs  Cs10  1  0.33449037  0.00186984  0.33646840  1
  Cs  Cs11  1  0.33338621  -0.00294208  0.66661717  1
  Cs  Cs12  1  0.33384836  0.33399171  -0.00035323  1
  Cs  Cs13  1  0.33400450  0.33335995  0.33016276  1
  Cs  Cs14  1  0.33056596  0.33192091  0.66900866  1
  Cs  Cs15  1  0.33028084  0.66490350  0.00016938  1
  Cs  Cs16  1  0.33449336  0.66601362  0.33267815  1
  Cs  Cs17  1  0.33587625  0.67364342  0.66677900  1
  Cs  Cs18  1  0.66813615  -0.00357272  0.00082006  1
  Cs  Cs19  1  0.66894922  0.00144694  0.33132267  1
  Cs  Cs20  1  0.66520535  0.00019247  0.66759128  1
  Cs  Cs21  1  0.66526321  0.33274875  -0.00067493  1
  Cs  Cs22  1  0.66524460  0.33476782  0.33269517  1
  Cs  Cs23  1  0.66893712  0.33587904  0.66758025  1
  Cs  Cs24  1  0.67071849  0.67442315  -0.00206523  1
  Cs  Cs25  1  0.66508990  0.66377529  0.33668686  1
  Cs  Cs26  1  0.66373723  0.66237873  0.66451241  1
  Sn  Sn27  1  0.49931755  0.83333320  0.16708590  1
  Sn  Sn28  1  0.83347521  0.83382579  0.50047166  1
  Sn  Sn29  1  0.16748247  0.49927238  0.83260057  1
  Sn  Sn30  1  0.49946163  0.16760507  0.83238702  1
  Sn  Sn31  1  0.16685783  0.49928302  0.50038847  1
  Sn  Sn32  1  0.83402728  0.16800068  0.16721209  1
  Sn  Sn33  1  0.50008373  0.16712828  0.50085271  1
  Sn  Sn34  1  0.16729666  0.16702489  0.83353381  1
  Sn  Sn35  1  0.16592154  0.16679792  0.16640408  1
  Sn  Sn36  1  0.16681245  0.16750518  0.49992454  1
  Sn  Sn37  1  0.83313404  0.16611332  0.49932174  1
  Sn  Sn38  1  0.49935635  0.49917120  0.83346760  1
  Sn  Sn39  1  0.83331071  0.49881282  0.16642412  1
  Pb  Pb40  1  0.16469301  0.83329498  0.50000980  1
  Pb  Pb41  1  0.49725765  0.49752868  0.50201101  1
  Pb  Pb42  1  0.16657590  0.83330170  0.83318014  1
  Pb  Pb43  1  0.16934349  0.83674489  0.16693237  1
  Pb  Pb44  1  0.16512282  0.49799238  0.16626618  1
  Pb  Pb45  1  0.50220530  0.50225231  0.16386466  1
  Pb  Pb46  1  0.50021328  0.16585021  0.16625847  1
  Pb  Pb47  1  0.49983245  0.83347611  0.83486609  1
  Pb  Pb48  1  0.83168829  0.83394945  0.16874303  1
  Pb  Pb49  1  0.50206509  0.83577152  0.49825380  1
  Pb  Pb50  1  0.83348857  0.16655283  0.83321344  1
  Pb  Pb51  1  0.83568819  0.49931831  0.49830164  1
  Pb  Pb52  1  0.83333645  0.83336739  0.82949195  1
  Pb  Pb53  1  0.83409663  0.49986681  0.83586376  1
  I  I54  1  0.15951818  0.00530808  0.16739151  1
  I  I55  1  0.16808092  0.00406482  0.50052698  1
  I  I56  1  0.17099421  0.00420599  0.83196530  1
  I  I57  1  0.16594403  0.32945544  0.16745103  1
  I  I58  1  0.16391994  0.33114507  0.50112444  1
  I  I59  1  0.17078826  0.33197926  0.83235635  1
  I  I60  1  0.16440291  0.66647993  0.16638754  1
  I  I61  1  0.16407989  0.66339917  0.50538752  1
  I  I62  1  0.17127612  0.66279259  0.82772097  1
  I  I63  1  0.50218347  -0.00151912  0.16535288  1
  I  I64  1  0.49488067  0.00446656  0.50536910  1
  I  I65  1  0.49549764  0.00358544  0.83057903  1
  I  I66  1  0.49963229  0.33322303  0.16797706  1
  I  I67  1  0.50570294  0.32903527  0.49900164  1
  I  I68  1  0.49579510  0.33199234  0.83093977  1
  I  I69  1  0.50291594  0.66964733  0.16583485  1
  I  I70  1  0.50107703  0.66643982  0.50058694  1
  I  I71  1  0.49552332  0.66355100  0.83590993  1
  I  I72  1  0.83604765  0.00329640  0.16884131  1
  I  I73  1  0.83511638  0.00291080  0.49380498  1
  I  I74  1  0.83269668  0.00048761  0.83925464  1
  I  I75  1  0.83616359  0.33122106  0.17251251  1
  I  I76  1  0.83255181  0.32971815  0.49754020  1
  I  I77  1  0.83225700  0.33310467  0.83009373  1
  I  I78  1  0.83205746  0.66474826  0.16700387  1
  I  I79  1  0.83501369  0.66842932  0.49754720  1
  I  I80  1  0.83301719  0.66637991  0.83514807  1
  I  I81  1  0.16771313  0.17080419  -0.00061717  1
  I  I82  1  0.16621446  0.16983416  0.33427439  1
  I  I83  1  0.16635978  0.17015010  0.66624603  1
  I  I84  1  0.17001700  0.49447097  -0.00309021  1
  I  I85  1  0.16368646  0.49505034  0.33572546  1
  I  I86  1  0.16785322  0.49092398  0.66696877  1
  I  I87  1  0.16551446  0.83307267  0.00018274  1
  I  I88  1  0.16695222  0.83247012  0.33339012  1
  I  I89  1  0.16604595  0.83812226  0.66652255  1
  I  I90  1  0.49644882  0.16843707  -0.00280693  1
  I  I91  1  0.49779657  0.16345095  0.33576837  1
  I  I92  1  0.49771184  0.16895119  0.66660247  1
  I  I93  1  0.49281005  0.49164734  -0.00383703  1
  I  I94  1  0.49947836  0.50002747  0.33336137  1
  I  I95  1  0.50082818  0.49893051  0.67006477  1
  I  I96  1  0.50290628  0.83727565  0.00248311  1
  I  I97  1  0.50092808  0.83610871  0.33076182  1
  I  I98  1  0.50184255  0.83244116  0.66650178  1
  I  I99  1  0.83596664  0.17028595  0.00303530  1
  I  I100  1  0.83631995  0.16599058  0.33385050  1
  I  I101  1  0.83545406  0.16247700  0.66333073  1
  I  I102  1  0.83413733  0.49296655  0.00363711  1
  I  I103  1  0.83503100  0.49778911  0.33054463  1
  I  I104  1  0.83198338  0.50079784  0.66661931  1
  I  I105  1  0.83210042  0.83338545  0.00041390  1
  I  I106  1  0.83276909  0.83712833  0.33610030  1
  I  I107  1  0.83328693  0.84179206  0.66180059  1
  I  I108  1  -0.00009970  0.16997405  0.16998113  1
  I  I109  1  0.00044831  0.16603996  0.49942958  1
  I  I110  1  0.00340033  0.17163183  0.83088838  1
  I  I111  1  -0.00279744  0.49829864  0.16586670  1
  I  I112  1  0.00340410  0.49340112  0.50658841  1
  I  I113  1  0.00380086  0.49352801  0.82896956  1
  I  I114  1  -0.00015724  0.83166976  0.16698535  1
  I  I115  1  -0.00306504  0.84076667  0.49728516  1
  I  I116  1  0.00004198  0.83344855  0.83630564  1
  I  I117  1  0.33073961  0.16446840  0.16932600  1
  I  I118  1  0.33252581  0.17057783  0.49930749  1
  I  I119  1  0.33282524  0.16978887  0.83148418  1
  I  I120  1  0.33318271  0.50004374  0.16833546  1
  I  I121  1  0.32930793  0.49414438  0.49920565  1
  I  I122  1  0.33254465  0.49432456  0.83108354  1
  I  I123  1  0.33663411  0.83473584  0.16641242  1
  I  I124  1  0.33349147  0.83455487  0.49919953  1
  I  I125  1  0.33331734  0.83472434  0.83346053  1
  I  I126  1  0.66931228  0.16776604  0.17032971  1
  I  I127  1  0.66705781  0.16145062  0.49909196  1
  I  I128  1  0.66358849  0.17027490  0.83058057  1
  I  I129  1  0.66994749  0.49249026  0.16720838  1
  I  I130  1  0.66665977  0.49978412  0.50068938  1
  I  I131  1  0.66389991  0.49529723  0.83523625  1
  I  I132  1  0.66447651  0.83691486  0.16636951  1
  I  I133  1  0.66989607  0.83923042  0.49816358  1
  I  I134  1  0.66638731  0.83419320  0.83553707  1
