# generated using pymatgen
data_Cs27Sn14Pb13I81
_symmetry_space_group_name_H-M   'P 1'
_cell_length_a   18.96239131
_cell_length_b   18.98701281
_cell_length_c   18.97888199
_cell_angle_alpha   89.99963804
_cell_angle_beta   90.00308935
_cell_angle_gamma   89.99937162
_symmetry_Int_Tables_number   1
_chemical_formula_structural   Cs27Sn14Pb13I81
_chemical_formula_sum   'Cs27 Sn14 Pb13 I81'
_cell_volume   6833.14084580
_cell_formula_units_Z   1
loop_
 _symmetry_equiv_pos_site_id
 _symmetry_equiv_pos_as_xyz
  1  'x, y, z'
loop_
 _atom_site_type_symbol
 _atom_site_label
 _atom_site_symmetry_multiplicity
 _atom_site_fract_x
 _atom_site_fract_y
 _atom_site_fract_z
 _atom_site_occupancy
  Cs  Cs0  1  0.00293365  -0.00040336  0.00129233  1
  Cs  Cs1  1  -0.00044494  0.00234078  0.33517647  1
  Cs  Cs2  1  0.00061324  -0.00351899  0.66366970  1
  Cs  Cs3  1  0.00025224  0.33396424  0.00005407  1
  Cs  Cs4  1  -0.00836530  0.33161442  0.34076303  1
  Cs  Cs5  1  -0.00872357  0.33277487  0.66027877  1
  Cs  Cs6  1  0.00180374  0.66677275  -0.00150774  1
  Cs  Cs7  1  -0.00090529  0.66558010  0.33572148  1
  Cs  Cs8  1  -0.00059086  0.66889287  0.66619191  1
  Cs  Cs9  1  0.33296621  0.00090830  -0.00083790  1
  Cs  Cs10  1  0.33251759  0.00336985  0.33340420  1
  Cs  Cs11  1  0.33370636  0.00066993  0.66777066  1
  Cs  Cs12  1  0.33147705  0.33407510  0.00284706  1
  Cs  Cs13  1  0.33525471  0.33339134  0.33009523  1
  Cs  Cs14  1  0.33426511  0.33508940  0.66673602  1
  Cs  Cs15  1  0.33271409  0.66520253  0.00004746  1
  Cs  Cs16  1  0.33379776  0.66415237  0.33342872  1
  Cs  Cs17  1  0.33303903  0.66524570  0.66676438  1
  Cs  Cs18  1  0.66716667  -0.00185750  -0.00133080  1
  Cs  Cs19  1  0.66751244  -0.00207846  0.33097413  1
  Cs  Cs20  1  0.66524212  -0.00102561  0.66978137  1
  Cs  Cs21  1  0.67390331  0.33219708  -0.00268926  1
  Cs  Cs22  1  0.66526993  0.33341528  0.33343134  1
  Cs  Cs23  1  0.67073306  0.33138415  0.66939449  1
  Cs  Cs24  1  0.66817132  0.66976567  0.00337313  1
  Cs  Cs25  1  0.66638859  0.66868260  0.33123702  1
  Cs  Cs26  1  0.66672703  0.66809936  0.66595281  1
  Sn  Sn27  1  0.16719242  0.49933233  0.83346827  1
  Sn  Sn28  1  0.16683422  0.16732172  0.83339722  1
  Sn  Sn29  1  0.83403873  0.83320263  0.83303686  1
  Sn  Sn30  1  0.16684115  0.49953136  0.16637221  1
  Sn  Sn31  1  0.16705947  0.83311221  0.16623542  1
  Sn  Sn32  1  0.83229556  0.83326993  0.50060824  1
  Sn  Sn33  1  0.49959733  0.49906104  0.16595835  1
  Sn  Sn34  1  0.49951298  0.16671888  0.49961944  1
  Sn  Sn35  1  0.49963762  0.49977076  0.50003800  1
  Sn  Sn36  1  0.16627453  0.83327612  0.83404300  1
  Sn  Sn37  1  0.16716977  0.16740118  0.16613214  1
  Sn  Sn38  1  0.49953681  0.16741871  0.16676886  1
  Sn  Sn39  1  0.49957131  0.49999673  0.83394940  1
  Sn  Sn40  1  0.50038159  0.83345755  0.50004613  1
  Pb  Pb41  1  0.83651812  0.83331642  0.16668861  1
  Pb  Pb42  1  0.16701302  0.83326772  0.50004604  1
  Pb  Pb43  1  0.82966643  0.16379890  0.50002201  1
  Pb  Pb44  1  0.16866470  0.16695434  0.49983931  1
  Pb  Pb45  1  0.82989463  0.50248898  0.50000392  1
  Pb  Pb46  1  0.83691198  0.16374061  0.83350124  1
  Pb  Pb47  1  0.16834034  0.49975672  0.49992193  1
  Pb  Pb48  1  0.83404038  0.50227407  0.83349667  1
  Pb  Pb49  1  0.83333356  0.16672707  0.16650347  1
  Pb  Pb50  1  0.83368403  0.49991031  0.16652198  1
  Pb  Pb51  1  0.49926053  0.83119729  0.83162832  1
  Pb  Pb52  1  0.49814953  0.16915369  0.83408994  1
  Pb  Pb53  1  0.49763272  0.83345690  0.16863367  1
  I  I54  1  0.17034197  0.00046294  0.16091643  1
  I  I55  1  0.16998943  -0.00009637  0.49993363  1
  I  I56  1  0.16250465  -0.00043522  0.83890803  1
  I  I57  1  0.17346932  0.33355072  0.15864007  1
  I  I58  1  0.16862716  0.33333192  0.50153140  1
  I  I59  1  0.17447500  0.33404994  0.84037740  1
  I  I60  1  0.17071627  0.66604787  0.16092727  1
  I  I61  1  0.16964875  0.66673144  0.49909947  1
  I  I62  1  0.16683360  0.66659320  0.83881041  1
  I  I63  1  0.49523398  0.00267484  0.17243459  1
  I  I64  1  0.50324985  0.00006364  0.49528976  1
  I  I65  1  0.49944135  0.00001083  0.83187880  1
  I  I66  1  0.49092857  0.33384586  0.17314399  1
  I  I67  1  0.49584638  0.33371329  0.49831504  1
  I  I68  1  0.49418971  0.33716660  0.82818153  1
  I  I69  1  0.49593735  0.66374120  0.16766395  1
  I  I70  1  0.50350187  0.66626913  0.50017881  1
  I  I71  1  0.49449862  0.66316606  0.83372218  1
  I  I72  1  0.83235774  -0.00022453  0.16706211  1
  I  I73  1  0.82883274  -0.00396178  0.50421490  1
  I  I74  1  0.83681522  -0.00431766  0.82897847  1
  I  I75  1  0.83718752  0.33331847  0.16704897  1
  I  I76  1  0.83427068  0.33318125  0.49963867  1
  I  I77  1  0.83319725  0.33332688  0.83308704  1
  I  I78  1  0.83182163  0.66688515  0.16753076  1
  I  I79  1  0.82886385  0.67034822  0.50387017  1
  I  I80  1  0.83917314  0.67010282  0.82882347  1
  I  I81  1  0.17277729  0.16509762  0.00066927  1
  I  I82  1  0.16931490  0.16503998  0.32972455  1
  I  I83  1  0.16881988  0.16452818  0.66977152  1
  I  I84  1  0.17462008  0.50158230  -0.00006621  1
  I  I85  1  0.17143150  0.50174987  0.32969722  1
  I  I86  1  0.17186000  0.50230988  0.67012109  1
  I  I87  1  0.16160116  0.83311012  -0.00083657  1
  I  I88  1  0.16800556  0.83326469  0.33039654  1
  I  I89  1  0.16597495  0.83292544  0.66984230  1
  I  I90  1  0.49688027  0.17027662  0.00321945  1
  I  I91  1  0.49391002  0.17049455  0.33283893  1
  I  I92  1  0.49830519  0.16687147  0.66435280  1
  I  I93  1  0.49449596  0.49641209  0.00072567  1
  I  I94  1  0.49591827  0.50015560  0.33286839  1
  I  I95  1  0.49507490  0.50171405  0.66676896  1
  I  I96  1  0.50345091  0.83370240  0.00000148  1
  I  I97  1  0.50398682  0.82892295  0.33676858  1
  I  I98  1  0.49885969  0.83344689  0.66340954  1
  I  I99  1  0.82661696  0.16334482  -0.00016774  1
  I  I100  1  0.83918097  0.16330312  0.33346699  1
  I  I101  1  0.83347651  0.16821509  0.66671480  1
  I  I102  1  0.82699614  0.50393855  -0.00012651  1
  I  I103  1  0.83547531  0.50357226  0.33342137  1
  I  I104  1  0.83401158  0.49946969  0.66671446  1
  I  I105  1  0.83600219  0.83247616  -0.00289777  1
  I  I106  1  0.82903921  0.83309477  0.33614768  1
  I  I107  1  0.83603201  0.83266432  0.66691775  1
  I  I108  1  0.00417047  0.16609597  0.16155668  1
  I  I109  1  -0.00025928  0.16459720  0.49930830  1
  I  I110  1  0.00533836  0.17204192  0.84052227  1
  I  I111  1  0.00430547  0.50077066  0.15997179  1
  I  I112  1  -0.00028306  0.50205059  0.49959206  1
  I  I113  1  0.00401861  0.49916710  0.83992251  1
  I  I114  1  0.00486154  0.83316976  0.16733722  1
  I  I115  1  -0.00218988  0.83340371  0.50133775  1
  I  I116  1  0.00163549  0.83148330  0.83060053  1
  I  I117  1  0.33286043  0.16718580  0.16757508  1
  I  I118  1  0.33711009  0.16300903  0.49852322  1
  I  I119  1  0.32993983  0.15995316  0.83412583  1
  I  I120  1  0.33340816  0.50005258  0.16644538  1
  I  I121  1  0.33721576  0.50444544  0.50026657  1
  I  I122  1  0.33261886  0.50341674  0.83339680  1
  I  I123  1  0.32955447  0.83303634  0.16135675  1
  I  I124  1  0.33647619  0.83253316  0.50002823  1
  I  I125  1  0.32989385  0.83445224  0.83561646  1
  I  I126  1  0.66274873  0.17147099  0.17211340  1
  I  I127  1  0.66145231  0.17058000  0.49393492  1
  I  I128  1  0.66652574  0.16669057  0.83311767  1
  I  I129  1  0.66250622  0.49586568  0.16707480  1
  I  I130  1  0.66126068  0.49742960  0.49995385  1
  I  I131  1  0.66347573  0.50146372  0.83275218  1
  I  I132  1  0.66648234  0.83323708  0.16475541  1
  I  I133  1  0.66579157  0.83261498  0.50589112  1
  I  I134  1  0.66853082  0.83093353  0.82966065  1
