# generated using pymatgen
data_Cs27Sn13Pb14I81
_symmetry_space_group_name_H-M   'P 1'
_cell_length_a   18.97534288
_cell_length_b   18.97847892
_cell_length_c   18.97365371
_cell_angle_alpha   89.99818821
_cell_angle_beta   90.00285916
_cell_angle_gamma   89.99902122
_symmetry_Int_Tables_number   1
_chemical_formula_structural   Cs27Sn13Pb14I81
_chemical_formula_sum   'Cs27 Sn13 Pb14 I81'
_cell_volume   6832.85183104
_cell_formula_units_Z   1
loop_
 _symmetry_equiv_pos_site_id
 _symmetry_equiv_pos_as_xyz
  1  'x, y, z'
loop_
 _atom_site_type_symbol
 _atom_site_label
 _atom_site_symmetry_multiplicity
 _atom_site_fract_x
 _atom_site_fract_y
 _atom_site_fract_z
 _atom_site_occupancy
  Cs  Cs0  1  -0.00061500  -0.00087322  -0.00189971  1
  Cs  Cs1  1  -0.00435325  0.00317631  0.33369930  1
  Cs  Cs2  1  0.00133067  0.00024279  0.66731427  1
  Cs  Cs3  1  0.00388113  0.33129500  0.00017729  1
  Cs  Cs4  1  0.00175805  0.33308744  0.33305889  1
  Cs  Cs5  1  -0.00182280  0.33192813  0.66726135  1
  Cs  Cs6  1  -0.00239723  0.67203220  -0.00423085  1
  Cs  Cs7  1  0.00135217  0.66342432  0.33580365  1
  Cs  Cs8  1  0.00129246  0.66564932  0.66823411  1
  Cs  Cs9  1  0.33412113  -0.00156280  0.00113803  1
  Cs  Cs10  1  0.33488514  -0.00146383  0.33315215  1
  Cs  Cs11  1  0.33416967  -0.00205173  0.66399899  1
  Cs  Cs12  1  0.33116636  0.33363915  0.00074001  1
  Cs  Cs13  1  0.32830661  0.33634387  0.33056555  1
  Cs  Cs14  1  0.34072683  0.33288755  0.67044615  1
  Cs  Cs15  1  0.33434381  0.66973339  0.00122918  1
  Cs  Cs16  1  0.33085316  0.66708498  0.33809122  1
  Cs  Cs17  1  0.33083925  0.66981198  0.65790473  1
  Cs  Cs18  1  0.66654536  -0.00122099  0.00185464  1
  Cs  Cs19  1  0.66822950  0.00025472  0.33294604  1
  Cs  Cs20  1  0.66438485  0.00383000  0.66137239  1
  Cs  Cs21  1  0.66512578  0.33384093  -0.00012285  1
  Cs  Cs22  1  0.66764375  0.33274223  0.33246179  1
  Cs  Cs23  1  0.66138047  0.33879771  0.66892314  1
  Cs  Cs24  1  0.66759495  0.66766200  0.00070583  1
  Cs  Cs25  1  0.66651910  0.66656667  0.33116795  1
  Cs  Cs26  1  0.66723882  0.65421668  0.66692000  1
  Sn  Sn27  1  0.83391160  0.16613015  0.50042792  1
  Sn  Sn28  1  0.49910947  0.83324728  0.16599011  1
  Sn  Sn29  1  0.83339129  0.16646171  0.83323999  1
  Sn  Sn30  1  0.50038108  0.50003787  0.16635991  1
  Sn  Sn31  1  0.50050551  0.83338532  0.83325595  1
  Sn  Sn32  1  0.16633222  0.16721702  0.83225460  1
  Sn  Sn33  1  0.83318710  0.49910332  0.16631391  1
  Sn  Sn34  1  0.16676615  0.83357909  0.16668548  1
  Sn  Sn35  1  0.50056477  0.16684276  0.16656664  1
  Sn  Sn36  1  0.83302554  0.83347501  0.50048121  1
  Sn  Sn37  1  0.83254189  0.16751894  0.16630302  1
  Sn  Sn38  1  0.16634858  0.16668549  0.50105066  1
  Sn  Sn39  1  0.16687501  0.49975649  0.83335642  1
  Pb  Pb40  1  0.16427420  0.83578368  0.49766438  1
  Pb  Pb41  1  0.83345009  0.49892164  0.49784337  1
  Pb  Pb42  1  0.50272792  0.83326513  0.49973251  1
  Pb  Pb43  1  0.49979852  0.16510321  0.83556408  1
  Pb  Pb44  1  0.16628891  0.16506733  0.16640680  1
  Pb  Pb45  1  0.16645647  0.49680250  0.50310244  1
  Pb  Pb46  1  0.16830830  0.83402937  0.83447867  1
  Pb  Pb47  1  0.50000377  0.16692350  0.49715965  1
  Pb  Pb48  1  0.49979796  0.49987217  0.49697872  1
  Pb  Pb49  1  0.83059139  0.83565248  0.83032727  1
  Pb  Pb50  1  0.83301850  0.83338250  0.16787903  1
  Pb  Pb51  1  0.49753662  0.50267161  0.83568074  1
  Pb  Pb52  1  0.83509750  0.49747707  0.83601868  1
  Pb  Pb53  1  0.16622171  0.50258066  0.16490936  1
  I  I54  1  0.17100777  -0.00247910  0.16490241  1
  I  I55  1  0.16434994  0.00365549  0.50574005  1
  I  I56  1  0.16345730  0.00327187  0.83176319  1
  I  I57  1  0.16936786  0.33314935  0.16816424  1
  I  I58  1  0.15887214  0.32882042  0.49700127  1
  I  I59  1  0.16279482  0.33148797  0.83213594  1
  I  I60  1  0.17009339  0.67006751  0.16431807  1
  I  I61  1  0.16541713  0.66679141  0.50013629  1
  I  I62  1  0.16850021  0.66491734  0.83859941  1
  I  I63  1  0.50028728  -0.00006589  0.16335702  1
  I  I64  1  0.49898233  0.00015558  0.49657719  1
  I  I65  1  0.49845512  -0.00245938  0.84157590  1
  I  I66  1  0.50537695  0.33294829  0.16760679  1
  I  I67  1  0.50233911  0.33302609  0.49986660  1
  I  I68  1  0.50111545  0.33335516  0.83479627  1
  I  I69  1  0.50104651  0.66700367  0.16227432  1
  I  I70  1  0.50190704  0.66687625  0.49842464  1
  I  I71  1  0.49941051  0.67016883  0.84081952  1
  I  I72  1  0.83086280  0.00309702  0.16619615  1
  I  I73  1  0.83614410  0.00221467  0.49616219  1
  I  I74  1  0.84003297  0.00404655  0.84013598  1
  I  I75  1  0.82619293  0.33167565  0.16840770  1
  I  I76  1  0.83770592  0.32927384  0.49972144  1
  I  I77  1  0.83370553  0.32898767  0.82926088  1
  I  I78  1  0.83071233  0.66459887  0.16914415  1
  I  I79  1  0.83153834  0.66884577  0.49587232  1
  I  I80  1  0.83479595  0.66663688  0.83373750  1
  I  I81  1  0.16374426  0.16846206  -0.00247515  1
  I  I82  1  0.16339612  0.16344506  0.33508786  1
  I  I83  1  0.15782832  0.16908134  0.66728450  1
  I  I84  1  0.16667648  0.49155894  -0.00247269  1
  I  I85  1  0.16734995  0.49975001  0.33312870  1
  I  I86  1  0.16576009  0.50050857  0.67087157  1
  I  I87  1  0.16783869  0.83595815  0.00269713  1
  I  I88  1  0.17373461  0.83416534  0.32979670  1
  I  I89  1  0.16861130  0.83165932  0.66652341  1
  I  I90  1  0.50349781  0.16730296  0.00391843  1
  I  I91  1  0.50397444  0.16337295  0.32868458  1
  I  I92  1  0.50202974  0.16371878  0.66685669  1
  I  I93  1  0.50364158  0.49783026  0.00399435  1
  I  I94  1  0.50318017  0.50221582  0.32805290  1
  I  I95  1  0.49950712  0.50169552  0.66724117  1
  I  I96  1  0.49672828  0.83428779  0.00228114  1
  I  I97  1  0.49751383  0.83370620  0.32963250  1
  I  I98  1  0.49985691  0.83623369  0.66915643  1
  I  I99  1  0.83395359  0.17069712  0.00064475  1
  I  I100  1  0.83344929  0.16586221  0.33282438  1
  I  I101  1  0.83953193  0.16016646  0.66654297  1
  I  I102  1  0.82940358  0.49598942  0.00403332  1
  I  I103  1  0.83000617  0.49522197  0.32946786  1
  I  I104  1  0.83440297  0.50039971  0.66700371  1
  I  I105  1  0.83491211  0.83431578  -0.00005591  1
  I  I106  1  0.83234087  0.84029546  0.33537760  1
  I  I107  1  0.83337036  0.84049656  0.66296077  1
  I  I108  1  -0.00300955  0.16902387  0.16728183  1
  I  I109  1  -0.00124078  0.16274127  0.49763055  1
  I  I110  1  -0.00024982  0.16931990  0.83575368  1
  I  I111  1  -0.00267189  0.49521070  0.16647009  1
  I  I112  1  -0.00004632  0.50265933  0.49521896  1
  I  I113  1  0.00287527  0.49913299  0.83684429  1
  I  I114  1  0.00173706  0.83445725  0.16792617  1
  I  I115  1  -0.00329794  0.83680646  0.49681608  1
  I  I116  1  -0.00016228  0.83212808  0.83568948  1
  I  I117  1  0.33569802  0.16775680  0.16635547  1
  I  I118  1  0.33037667  0.16666692  0.50345805  1
  I  I119  1  0.33046279  0.16893561  0.83094766  1
  I  I120  1  0.33606924  0.49698940  0.16468217  1
  I  I121  1  0.33293211  0.49933393  0.49677946  1
  I  I122  1  0.33013266  0.49116340  0.83698196  1
  I  I123  1  0.33488350  0.83473063  0.16294441  1
  I  I124  1  0.33331696  0.83472140  0.50026720  1
  I  I125  1  0.33614864  0.83592791  0.83800097  1
  I  I126  1  0.66756057  0.16491261  0.16673909  1
  I  I127  1  0.67017239  0.16231698  0.50043327  1
  I  I128  1  0.66943786  0.16374727  0.83213761  1
  I  I129  1  0.66637318  0.50092921  0.16652915  1
  I  I130  1  0.66688736  0.49827921  0.50265312  1
  I  I131  1  0.66652484  0.49959721  0.83246912  1
  I  I132  1  0.66385765  0.83382062  0.16486562  1
  I  I133  1  0.67019233  0.84284711  0.49601885  1
  I  I134  1  0.66331437  0.83533066  0.84340379  1
