# generated using pymatgen
data_Cs27Sn13Pb14I81
_symmetry_space_group_name_H-M   'P 1'
_cell_length_a   18.97520780
_cell_length_b   18.98066376
_cell_length_c   18.97638178
_cell_angle_alpha   89.99934292
_cell_angle_beta   90.00059884
_cell_angle_gamma   90.00132899
_symmetry_Int_Tables_number   1
_chemical_formula_structural   Cs27Sn13Pb14I81
_chemical_formula_sum   'Cs27 Sn13 Pb14 I81'
_cell_volume   6834.57235201
_cell_formula_units_Z   1
loop_
 _symmetry_equiv_pos_site_id
 _symmetry_equiv_pos_as_xyz
  1  'x, y, z'
loop_
 _atom_site_type_symbol
 _atom_site_label
 _atom_site_symmetry_multiplicity
 _atom_site_fract_x
 _atom_site_fract_y
 _atom_site_fract_z
 _atom_site_occupancy
  Cs  Cs0  1  -0.00096656  0.00477387  -0.00076618  1
  Cs  Cs1  1  -0.00835512  -0.00121348  0.33411836  1
  Cs  Cs2  1  0.00125157  0.00217827  0.66707020  1
  Cs  Cs3  1  -0.00087413  0.32770474  0.00081718  1
  Cs  Cs4  1  0.00098609  0.33146997  0.33073053  1
  Cs  Cs5  1  -0.00680142  0.33148940  0.66804980  1
  Cs  Cs6  1  0.00083693  0.66587641  -0.00053122  1
  Cs  Cs7  1  0.00286492  0.66785485  0.33113513  1
  Cs  Cs8  1  0.00133113  0.66652509  0.66809640  1
  Cs  Cs9  1  0.33489913  0.00244050  -0.00093647  1
  Cs  Cs10  1  0.33642944  0.00078708  0.33393256  1
  Cs  Cs11  1  0.33194480  0.00093150  0.66772260  1
  Cs  Cs12  1  0.33335387  0.33385698  0.00243753  1
  Cs  Cs13  1  0.33234882  0.33373848  0.33242639  1
  Cs  Cs14  1  0.33447578  0.33170459  0.66591721  1
  Cs  Cs15  1  0.33267990  0.66548021  -0.00151739  1
  Cs  Cs16  1  0.33236925  0.66594628  0.33536396  1
  Cs  Cs17  1  0.33340239  0.66699093  0.66708380  1
  Cs  Cs18  1  0.66490562  -0.00097801  0.00843348  1
  Cs  Cs19  1  0.67358797  -0.00618041  0.32499461  1
  Cs  Cs20  1  0.66657268  0.00062127  0.66492025  1
  Cs  Cs21  1  0.66670999  0.33522957  -0.00041753  1
  Cs  Cs22  1  0.66918317  0.33365407  0.33499372  1
  Cs  Cs23  1  0.67141365  0.33526639  0.66543778  1
  Cs  Cs24  1  0.66763180  0.66500974  -0.00077366  1
  Cs  Cs25  1  0.66726377  0.67095613  0.33828622  1
  Cs  Cs26  1  0.66693852  0.66382272  0.66306730  1
  Sn  Sn27  1  0.50101746  0.50043024  0.16652642  1
  Sn  Sn28  1  0.49921976  0.49985838  0.83367944  1
  Sn  Sn29  1  0.16666690  0.83292253  0.83357549  1
  Sn  Sn30  1  0.49982256  0.16692691  0.83245295  1
  Sn  Sn31  1  0.16755052  0.16669684  0.50023255  1
  Sn  Sn32  1  0.83323067  0.83326750  0.83314170  1
  Sn  Sn33  1  0.16689373  0.49949379  0.50132484  1
  Sn  Sn34  1  0.49964369  0.16636009  0.50041882  1
  Sn  Sn35  1  0.16707059  0.83366067  0.50001637  1
  Sn  Sn36  1  0.16721413  0.50000455  0.83257089  1
  Sn  Sn37  1  0.50026901  0.83319196  0.83318434  1
  Sn  Sn38  1  0.16725025  0.83372515  0.16615210  1
  Sn  Sn39  1  0.83235809  0.50030878  0.16654638  1
  Pb  Pb40  1  0.16693530  0.16330334  0.16985435  1
  Pb  Pb41  1  0.16827432  0.16703532  0.83177481  1
  Pb  Pb42  1  0.82953237  0.16367535  0.83337950  1
  Pb  Pb43  1  0.49818809  0.83564919  0.50203857  1
  Pb  Pb44  1  0.83353319  0.50156740  0.83463861  1
  Pb  Pb45  1  0.83318641  0.16943729  0.16645072  1
  Pb  Pb46  1  0.83659516  0.50023357  0.49732291  1
  Pb  Pb47  1  0.49822828  0.49825341  0.50039586  1
  Pb  Pb48  1  0.16698738  0.50122335  0.16608405  1
  Pb  Pb49  1  0.83587053  0.83306743  0.50261388  1
  Pb  Pb50  1  0.49992515  0.16905373  0.16705467  1
  Pb  Pb51  1  0.83564318  0.83117437  0.16416661  1
  Pb  Pb52  1  0.83272475  0.16656014  0.50007561  1
  Pb  Pb53  1  0.49794527  0.83072749  0.16457190  1
  I  I54  1  0.16711712  -0.00467447  0.16240223  1
  I  I55  1  0.17103569  -0.00060337  0.50131925  1
  I  I56  1  0.16749360  -0.00323445  0.83260419  1
  I  I57  1  0.16587521  0.33341661  0.16690444  1
  I  I58  1  0.17115603  0.33378180  0.50393988  1
  I  I59  1  0.17130218  0.33650143  0.83003560  1
  I  I60  1  0.16693004  0.66913745  0.16976845  1
  I  I61  1  0.16583093  0.66693786  0.50103047  1
  I  I62  1  0.17072984  0.66735306  0.82939081  1
  I  I63  1  0.49829296  -0.00030411  0.16529935  1
  I  I64  1  0.49232745  0.00350307  0.50669173  1
  I  I65  1  0.49824920  -0.00063121  0.82791423  1
  I  I66  1  0.50118458  0.33708364  0.16003458  1
  I  I67  1  0.49212412  0.33049107  0.50573042  1
  I  I68  1  0.49399429  0.33442070  0.83415360  1
  I  I69  1  0.50165078  0.66286299  0.16096816  1
  I  I70  1  0.49805390  0.66664866  0.50031922  1
  I  I71  1  0.49771271  0.66651254  0.83851150  1
  I  I72  1  0.83460112  -0.00053796  0.16662964  1
  I  I73  1  0.83607811  -0.00022225  0.50019386  1
  I  I74  1  0.83835841  -0.00429104  0.83296801  1
  I  I75  1  0.83153078  0.33751888  0.16497888  1
  I  I76  1  0.83652672  0.33348211  0.50023649  1
  I  I77  1  0.83444409  0.33336509  0.83492563  1
  I  I78  1  0.83016590  0.66371501  0.16520512  1
  I  I79  1  0.83394572  0.66664222  0.50009720  1
  I  I80  1  0.83157713  0.66950216  0.83473158  1
  I  I81  1  0.16776892  0.16711839  -0.00010010  1
  I  I82  1  0.17360353  0.16995028  0.33817017  1
  I  I83  1  0.16954205  0.16241404  0.66366455  1
  I  I84  1  0.16832468  0.50627910  -0.00311715  1
  I  I85  1  0.16670140  0.50153431  0.33571475  1
  I  I86  1  0.17243094  0.50577132  0.66770160  1
  I  I87  1  0.16698813  0.82627465  -0.00195249  1
  I  I88  1  0.16697742  0.83139147  0.33416998  1
  I  I89  1  0.16702462  0.83229474  0.66759017  1
  I  I90  1  0.49986791  0.16431235  -0.00329399  1
  I  I91  1  0.49341063  0.16985890  0.33654877  1
  I  I92  1  0.49442236  0.16752553  0.66767202  1
  I  I93  1  0.49711456  0.49871622  -0.00199009  1
  I  I94  1  0.50069490  0.49731327  0.33111718  1
  I  I95  1  0.49668215  0.50246565  0.67014628  1
  I  I96  1  0.49678760  0.83802890  -0.00425838  1
  I  I97  1  0.49722735  0.83347586  0.33333032  1
  I  I98  1  0.49732832  0.82794979  0.67096107  1
  I  I99  1  0.83362614  0.16608362  -0.00037746  1
  I  I100  1  0.83268057  0.16615993  0.33339546  1
  I  I101  1  0.83553625  0.16761819  0.66690546  1
  I  I102  1  0.83429370  0.50245389  0.00234591  1
  I  I103  1  0.82787192  0.50046635  0.32956508  1
  I  I104  1  0.83192548  0.50073667  0.66674919  1
  I  I105  1  0.83544084  0.83193199  -0.00359357  1
  I  I106  1  0.83546873  0.83319855  0.33308654  1
  I  I107  1  0.83473231  0.83156187  0.67070590  1
  I  I108  1  0.00034294  0.16983365  0.16756894  1
  I  I109  1  0.00355826  0.16596372  0.49970878  1
  I  I110  1  -0.00001028  0.16692057  0.83203534  1
  I  I111  1  -0.00143119  0.50319099  0.16756637  1
  I  I112  1  0.00521399  0.49872354  0.50506648  1
  I  I113  1  0.00331740  0.50575916  0.83126175  1
  I  I114  1  0.00364094  0.82923007  0.16577538  1
  I  I115  1  0.00495176  0.83533945  0.50173682  1
  I  I116  1  0.00211600  0.82728240  0.83281238  1
  I  I117  1  0.33334570  0.16972646  0.16488721  1
  I  I118  1  0.33241912  0.16628568  0.50455710  1
  I  I119  1  0.33639977  0.16280332  0.83135028  1
  I  I120  1  0.33556795  0.50100115  0.16426565  1
  I  I121  1  0.32979871  0.50283345  0.49928338  1
  I  I122  1  0.33344365  0.50487737  0.83528360  1
  I  I123  1  0.32989455  0.83007045  0.16499672  1
  I  I124  1  0.32935156  0.83079854  0.50266229  1
  I  I125  1  0.33258141  0.83200471  0.83280586  1
  I  I126  1  0.66629397  0.16331416  0.16841522  1
  I  I127  1  0.66302713  0.16931143  0.50622163  1
  I  I128  1  0.66132847  0.16960602  0.82639548  1
  I  I129  1  0.66542893  0.49927106  0.15850681  1
  I  I130  1  0.66650392  0.49735851  0.50221261  1
  I  I131  1  0.66341232  0.50093763  0.83610273  1
  I  I132  1  0.66658099  0.83438057  0.16494979  1
  I  I133  1  0.66646811  0.83506000  0.50133307  1
  I  I134  1  0.66553121  0.83310668  0.83405971  1
