# generated using pymatgen
data_Cs27Sn13Pb14I81
_symmetry_space_group_name_H-M   'P 1'
_cell_length_a   18.99880956
_cell_length_b   19.01281557
_cell_length_c   19.00465974
_cell_angle_alpha   89.99961999
_cell_angle_beta   89.99376627
_cell_angle_gamma   90.00205570
_symmetry_Int_Tables_number   1
_chemical_formula_structural   Cs27Sn13Pb14I81
_chemical_formula_sum   'Cs27 Sn13 Pb14 I81'
_cell_volume   6864.87953225
_cell_formula_units_Z   1
loop_
 _symmetry_equiv_pos_site_id
 _symmetry_equiv_pos_as_xyz
  1  'x, y, z'
loop_
 _atom_site_type_symbol
 _atom_site_label
 _atom_site_symmetry_multiplicity
 _atom_site_fract_x
 _atom_site_fract_y
 _atom_site_fract_z
 _atom_site_occupancy
  Cs  Cs0  1  0.00081085  0.00249775  -0.00175071  1
  Cs  Cs1  1  -0.00189086  0.00009411  0.33429869  1
  Cs  Cs2  1  -0.00223037  0.00179098  0.66620421  1
  Cs  Cs3  1  0.00324321  0.33167711  -0.00098326  1
  Cs  Cs4  1  -0.00237781  0.33112040  0.33336487  1
  Cs  Cs5  1  -0.00106352  0.32700670  0.66533562  1
  Cs  Cs6  1  0.00130963  0.66625970  0.00140910  1
  Cs  Cs7  1  0.00141517  0.66704691  0.33434560  1
  Cs  Cs8  1  0.00397345  0.66894068  0.66403542  1
  Cs  Cs9  1  0.33293633  0.00095555  0.00110546  1
  Cs  Cs10  1  0.33803724  0.00215396  0.32931095  1
  Cs  Cs11  1  0.33609568  -0.00242914  0.66852362  1
  Cs  Cs12  1  0.32829836  0.32942889  0.00120295  1
  Cs  Cs13  1  0.34323391  0.32829852  0.33653271  1
  Cs  Cs14  1  0.33916768  0.33667929  0.66406288  1
  Cs  Cs15  1  0.33167738  0.66878090  -0.00098697  1
  Cs  Cs16  1  0.32921335  0.66601118  0.33466891  1
  Cs  Cs17  1  0.32982627  0.66565924  0.66613699  1
  Cs  Cs18  1  0.66560936  -0.00300755  -0.00216044  1
  Cs  Cs19  1  0.66745365  -0.00042252  0.33445208  1
  Cs  Cs20  1  0.66675222  -0.00166612  0.66697881  1
  Cs  Cs21  1  0.66858483  0.35177731  -0.00218059  1
  Cs  Cs22  1  0.66411189  0.33298475  0.33367811  1
  Cs  Cs23  1  0.66129366  0.33631882  0.66710435  1
  Cs  Cs24  1  0.66657215  0.65733635  0.00090844  1
  Cs  Cs25  1  0.66915668  0.66890686  0.32740860  1
  Cs  Cs26  1  0.66640896  0.66928342  0.67107358  1
  Sn  Sn27  1  0.16570056  0.83304678  0.16604126  1
  Sn  Sn28  1  0.16705359  0.83313466  0.83402227  1
  Sn  Sn29  1  0.16627801  0.50056555  0.83351466  1
  Sn  Sn30  1  0.83364816  0.16666883  0.49926998  1
  Sn  Sn31  1  0.83277924  0.16588260  0.16654934  1
  Sn  Sn32  1  0.83249356  0.83310926  0.49937777  1
  Sn  Sn33  1  0.50081579  0.83315542  0.50042591  1
  Sn  Sn34  1  0.16664471  0.50026495  0.16680065  1
  Sn  Sn35  1  0.83436108  0.83444146  0.16695951  1
  Sn  Sn36  1  0.16677830  0.16618687  0.49991214  1
  Sn  Sn37  1  0.50054760  0.16590164  0.83411928  1
  Sn  Sn38  1  0.49918430  0.83407841  0.83284436  1
  Sn  Sn39  1  0.83345155  0.50028884  0.50028958  1
  Pb  Pb40  1  0.50110512  0.16433422  0.50149935  1
  Pb  Pb41  1  0.50300361  0.50372671  0.49987038  1
  Pb  Pb42  1  0.16836532  0.16624129  0.83106768  1
  Pb  Pb43  1  0.83565231  0.50018257  0.16870726  1
  Pb  Pb44  1  0.16501545  0.16625269  0.16883268  1
  Pb  Pb45  1  0.16657164  0.83520684  0.49965273  1
  Pb  Pb46  1  0.16495252  0.49744040  0.49962768  1
  Pb  Pb47  1  0.50011144  0.83322344  0.16613372  1
  Pb  Pb48  1  0.83359196  0.83329340  0.83400287  1
  Pb  Pb49  1  0.83044880  0.16671003  0.83366267  1
  Pb  Pb50  1  0.49696511  0.50100834  0.83338022  1
  Pb  Pb51  1  0.83694662  0.50017030  0.83039909  1
  Pb  Pb52  1  0.49609546  0.50021059  0.16690989  1
  Pb  Pb53  1  0.50414596  0.16660333  0.16332744  1
  I  I54  1  0.16456320  -0.00313675  0.16284371  1
  I  I55  1  0.15970223  0.00246261  0.50080797  1
  I  I56  1  0.16905514  -0.00315634  0.83698976  1
  I  I57  1  0.16406418  0.33555921  0.16119316  1
  I  I58  1  0.15959057  0.32992718  0.50097997  1
  I  I59  1  0.16708044  0.33559743  0.83758693  1
  I  I60  1  0.16044828  0.66822741  0.16313169  1
  I  I61  1  0.16606367  0.66685824  0.50064097  1
  I  I62  1  0.17254943  0.66817778  0.83590702  1
  I  I63  1  0.49372245  -0.00011141  0.16844850  1
  I  I64  1  0.50539055  -0.00318143  0.50266039  1
  I  I65  1  0.49387883  -0.00189231  0.82863850  1
  I  I66  1  0.50004453  0.33306952  0.16524107  1
  I  I67  1  0.49934901  0.33325004  0.50253075  1
  I  I68  1  0.50031529  0.33129436  0.83209916  1
  I  I69  1  0.50759765  0.66707718  0.16471166  1
  I  I70  1  0.50310136  0.67158807  0.50769244  1
  I  I71  1  0.49823561  0.67022373  0.82854106  1
  I  I72  1  0.84008715  -0.00123219  0.17631947  1
  I  I73  1  0.83345533  -0.00034802  0.49562809  1
  I  I74  1  0.83839811  -0.00013935  0.82866746  1
  I  I75  1  0.83422041  0.33087519  0.17165592  1
  I  I76  1  0.84095093  0.33218689  0.49647996  1
  I  I77  1  0.83244738  0.33336306  0.83396672  1
  I  I78  1  0.83489143  0.66973749  0.17169390  1
  I  I79  1  0.82897144  0.66821881  0.49613865  1
  I  I80  1  0.82721257  0.66686356  0.83285300  1
  I  I81  1  0.16594483  0.16763963  0.00004013  1
  I  I82  1  0.16436598  0.16598932  0.33647549  1
  I  I83  1  0.15819917  0.16590027  0.66360489  1
  I  I84  1  0.16603029  0.50443612  -0.00006221  1
  I  I85  1  0.16365010  0.50669402  0.33071489  1
  I  I86  1  0.16560440  0.50514947  0.66907046  1
  I  I87  1  0.16683389  0.82981098  -0.00005728  1
  I  I88  1  0.16527024  0.82904906  0.33076035  1
  I  I89  1  0.16779338  0.82979776  0.66892922  1
  I  I90  1  0.49707848  0.15661918  -0.00401184  1
  I  I91  1  0.49653045  0.16568768  0.33327027  1
  I  I92  1  0.50089091  0.16354396  0.66908773  1
  I  I93  1  0.50679287  0.50219945  -0.00023113  1
  I  I94  1  0.49616077  0.50006450  0.33371911  1
  I  I95  1  0.49764886  0.49715057  0.66662044  1
  I  I96  1  0.49791105  0.83793526  -0.00313846  1
  I  I97  1  0.50136689  0.83376141  0.33581846  1
  I  I98  1  0.50037023  0.83765623  0.66706101  1
  I  I99  1  0.83351339  0.15884865  0.00331306  1
  I  I100  1  0.83851463  0.16516256  0.33466078  1
  I  I101  1  0.83734467  0.16492506  0.66328348  1
  I  I102  1  0.83049388  0.49986841  0.00020667  1
  I  I103  1  0.83753698  0.50079092  0.33630625  1
  I  I104  1  0.83519561  0.49979239  0.66244588  1
  I  I105  1  0.83506312  0.83943082  0.00337279  1
  I  I106  1  0.83356125  0.83378062  0.33411962  1
  I  I107  1  0.83287449  0.83479786  0.66367611  1
  I  I108  1  -0.00292337  0.16489601  0.16902257  1
  I  I109  1  -0.00178387  0.16399467  0.49831453  1
  I  I110  1  -0.00012323  0.16673327  0.83333346  1
  I  I111  1  0.00308934  0.50254389  0.16226906  1
  I  I112  1  -0.00278215  0.50631449  0.50027113  1
  I  I113  1  0.00438968  0.50716261  0.83804234  1
  I  I114  1  -0.00006593  0.83284015  0.16764782  1
  I  I115  1  -0.00295025  0.83218613  0.49945020  1
  I  I116  1  0.00307743  0.82854942  0.83338530  1
  I  I117  1  0.33352610  0.16729486  0.16929154  1
  I  I118  1  0.33159164  0.16554556  0.50171274  1
  I  I119  1  0.33591693  0.16436211  0.82978398  1
  I  I120  1  0.32789153  0.50828594  0.16299418  1
  I  I121  1  0.33317859  0.49860826  0.50025332  1
  I  I122  1  0.32946453  0.50179427  0.83592773  1
  I  I123  1  0.33025422  0.82827344  0.16650977  1
  I  I124  1  0.33520647  0.83670015  0.50148715  1
  I  I125  1  0.33281509  0.83327485  0.83214286  1
  I  I126  1  0.67176271  0.15764906  0.17720647  1
  I  I127  1  0.67029808  0.16809323  0.49677994  1
  I  I128  1  0.66302711  0.15666648  0.83028367  1
  I  I129  1  0.66719790  0.50020504  0.16698719  1
  I  I130  1  0.67095823  0.49187783  0.49920448  1
  I  I131  1  0.66656163  0.49964366  0.83269166  1
  I  I132  1  0.66990877  0.83878638  0.16944153  1
  I  I133  1  0.66816810  0.83589019  0.50068150  1
  I  I134  1  0.66408961  0.83917250  0.83049948  1
