# generated using pymatgen
data_Cs27Sn14Pb13I81
_symmetry_space_group_name_H-M   'P 1'
_cell_length_a   18.96176773
_cell_length_b   18.96534392
_cell_length_c   18.95675463
_cell_angle_alpha   89.99896623
_cell_angle_beta   90.00124329
_cell_angle_gamma   89.99864191
_symmetry_Int_Tables_number   1
_chemical_formula_structural   Cs27Sn14Pb13I81
_chemical_formula_sum   'Cs27 Sn14 Pb13 I81'
_cell_volume   6817.16072676
_cell_formula_units_Z   1
loop_
 _symmetry_equiv_pos_site_id
 _symmetry_equiv_pos_as_xyz
  1  'x, y, z'
loop_
 _atom_site_type_symbol
 _atom_site_label
 _atom_site_symmetry_multiplicity
 _atom_site_fract_x
 _atom_site_fract_y
 _atom_site_fract_z
 _atom_site_occupancy
  Cs  Cs0  1  -0.00221961  -0.00261294  -0.00050751  1
  Cs  Cs1  1  -0.00239892  0.00042853  0.33248557  1
  Cs  Cs2  1  0.00569993  -0.00265061  0.66662813  1
  Cs  Cs3  1  0.00046724  0.33397659  0.00166051  1
  Cs  Cs4  1  -0.00154176  0.33559208  0.32998105  1
  Cs  Cs5  1  -0.00143787  0.33294323  0.66646127  1
  Cs  Cs6  1  0.00055315  0.66634991  -0.00083195  1
  Cs  Cs7  1  0.00267574  0.66238349  0.33454936  1
  Cs  Cs8  1  -0.00116728  0.66889859  0.66644421  1
  Cs  Cs9  1  0.33383020  0.00160492  -0.00073246  1
  Cs  Cs10  1  0.33374309  -0.00248944  0.33921128  1
  Cs  Cs11  1  0.32465800  0.00089166  0.65992074  1
  Cs  Cs12  1  0.33395307  0.33462590  -0.00020174  1
  Cs  Cs13  1  0.33311211  0.33192510  0.33115195  1
  Cs  Cs14  1  0.33426404  0.32949224  0.66677089  1
  Cs  Cs15  1  0.33545557  0.66323033  0.00180613  1
  Cs  Cs16  1  0.33328388  0.67095125  0.33225360  1
  Cs  Cs17  1  0.33320922  0.66873870  0.66544981  1
  Cs  Cs18  1  0.66781592  -0.00021241  0.00237804  1
  Cs  Cs19  1  0.66721554  -0.00269622  0.33005356  1
  Cs  Cs20  1  0.66779729  0.00233818  0.66735535  1
  Cs  Cs21  1  0.66518798  0.33198704  -0.00175071  1
  Cs  Cs22  1  0.66811982  0.33300009  0.33665652  1
  Cs  Cs23  1  0.66703381  0.33459064  0.66686812  1
  Cs  Cs24  1  0.66506357  0.66905814  -0.00152188  1
  Cs  Cs25  1  0.66424188  0.66857982  0.33726667  1
  Cs  Cs26  1  0.66804349  0.66302195  0.66709318  1
  Sn  Sn27  1  0.16722809  0.49942768  0.50122831  1
  Sn  Sn28  1  0.49916615  0.16739595  0.16607880  1
  Sn  Sn29  1  0.49973151  0.83399106  0.83304024  1
  Sn  Sn30  1  0.50140959  0.49917694  0.16622872  1
  Sn  Sn31  1  0.83346904  0.49922551  0.83438385  1
  Sn  Sn32  1  0.16757181  0.16520360  0.16624916  1
  Sn  Sn33  1  0.49988874  0.49988792  0.83395153  1
  Sn  Sn34  1  0.16660587  0.83479385  0.16605878  1
  Sn  Sn35  1  0.83161574  0.50010868  0.16573262  1
  Sn  Sn36  1  0.16678948  0.49978088  0.83204565  1
  Sn  Sn37  1  0.83299735  0.16717709  0.83263224  1
  Sn  Sn38  1  0.83308182  0.83440629  0.50025025  1
  Sn  Sn39  1  0.83325079  0.16557837  0.50102285  1
  Sn  Sn40  1  0.50043616  0.16633329  0.83382141  1
  Pb  Pb41  1  0.83268526  0.16823506  0.16600695  1
  Pb  Pb42  1  0.50214762  0.16669788  0.49996515  1
  Pb  Pb43  1  0.16463890  0.83133999  0.49790665  1
  Pb  Pb44  1  0.50224044  0.83350796  0.50306118  1
  Pb  Pb45  1  0.49845146  0.83359124  0.16501779  1
  Pb  Pb46  1  0.83167626  0.83351377  0.83190278  1
  Pb  Pb47  1  0.49737126  0.49982177  0.49996209  1
  Pb  Pb48  1  0.83513248  0.83002037  0.16850024  1
  Pb  Pb49  1  0.16404550  0.16872956  0.49731944  1
  Pb  Pb50  1  0.83461702  0.49963964  0.50046654  1
  Pb  Pb51  1  0.16732858  0.49964395  0.16611448  1
  Pb  Pb52  1  0.16909026  0.83082808  0.83521846  1
  Pb  Pb53  1  0.16650435  0.16848073  0.83515573  1
  I  I54  1  0.17130008  0.00104948  0.16650035  1
  I  I55  1  0.16665564  0.00018612  0.49992392  1
  I  I56  1  0.16667971  0.00009414  0.83372991  1
  I  I57  1  0.16741179  0.33149042  0.16669517  1
  I  I58  1  0.16393440  0.33645645  0.50151459  1
  I  I59  1  0.16977780  0.33692998  0.83343728  1
  I  I60  1  0.16583367  0.66779491  0.16707367  1
  I  I61  1  0.16318146  0.66347312  0.50085539  1
  I  I62  1  0.16529414  0.66232657  0.83314806  1
  I  I63  1  0.49832961  0.00309681  0.16177810  1
  I  I64  1  0.49846119  0.00019168  0.49965798  1
  I  I65  1  0.50678962  0.00165245  0.83876951  1
  I  I66  1  0.49731612  0.33361560  0.15901213  1
  I  I67  1  0.50257428  0.33335673  0.50285612  1
  I  I68  1  0.50095440  0.33378037  0.83773185  1
  I  I69  1  0.50104020  0.66365368  0.16211522  1
  I  I70  1  0.50258847  0.66648917  0.49945443  1
  I  I71  1  0.50004540  0.66473558  0.83727036  1
  I  I72  1  0.83237286  0.00004257  0.16543723  1
  I  I73  1  0.83332165  0.00108293  0.50482921  1
  I  I74  1  0.82841686  0.00308762  0.83182334  1
  I  I75  1  0.83586976  0.33632222  0.16771666  1
  I  I76  1  0.83477475  0.33115955  0.50105637  1
  I  I77  1  0.82915469  0.33400438  0.83117835  1
  I  I78  1  0.83056310  0.66189661  0.16206335  1
  I  I79  1  0.83573165  0.66806693  0.49929489  1
  I  I80  1  0.83250948  0.66336856  0.83502625  1
  I  I81  1  0.16580991  0.16736622  0.00323037  1
  I  I82  1  0.17104774  0.16722235  0.32932951  1
  I  I83  1  0.16883923  0.16709149  0.66680036  1
  I  I84  1  0.16656684  0.49989047  -0.00263325  1
  I  I85  1  0.16408584  0.50008962  0.33455142  1
  I  I86  1  0.16536693  0.50018249  0.66825286  1
  I  I87  1  0.16534453  0.83396664  0.00304586  1
  I  I88  1  0.16756301  0.83280840  0.33004444  1
  I  I89  1  0.16729234  0.83279890  0.66679567  1
  I  I90  1  0.50201140  0.16870270  -0.00079952  1
  I  I91  1  0.49757378  0.17223224  0.32983288  1
  I  I92  1  0.50305420  0.16964503  0.67044926  1
  I  I93  1  0.49830145  0.49924844  -0.00094436  1
  I  I94  1  0.50293489  0.49550289  0.32976132  1
  I  I95  1  0.50340602  0.49904791  0.67059010  1
  I  I96  1  0.50082989  0.83139939  -0.00305702  1
  I  I97  1  0.49936146  0.83217532  0.33318825  1
  I  I98  1  0.50008709  0.83064769  0.67130012  1
  I  I99  1  0.83218650  0.17031128  -0.00292671  1
  I  I100  1  0.83450421  0.16606880  0.33502096  1
  I  I101  1  0.82753530  0.17040727  0.66830638  1
  I  I102  1  0.83565626  0.49476916  -0.00134606  1
  I  I103  1  0.83282873  0.49937459  0.33104548  1
  I  I104  1  0.83087873  0.49913088  0.66996943  1
  I  I105  1  0.83384256  0.83469642  -0.00006179  1
  I  I106  1  0.83392725  0.83805340  0.33631483  1
  I  I107  1  0.83276785  0.83157318  0.66407289  1
  I  I108  1  0.00168351  0.16680052  0.16733740  1
  I  I109  1  -0.00383282  0.16458199  0.50508017  1
  I  I110  1  -0.00285395  0.17229902  0.83168780  1
  I  I111  1  -0.00169119  0.49952152  0.16438872  1
  I  I112  1  0.00238575  0.49997312  0.50166724  1
  I  I113  1  -0.00108166  0.49553773  0.83453010  1
  I  I114  1  0.00301462  0.83694098  0.16648161  1
  I  I115  1  -0.00309030  0.83598005  0.50121572  1
  I  I116  1  0.00009237  0.83227749  0.83321686  1
  I  I117  1  0.33457357  0.17082384  0.16069297  1
  I  I118  1  0.33308391  0.16789358  0.50195903  1
  I  I119  1  0.33639409  0.16911900  0.83701632  1
  I  I120  1  0.33605366  0.49897130  0.16303317  1
  I  I121  1  0.32958698  0.50069281  0.50258355  1
  I  I122  1  0.33457688  0.50005047  0.83499986  1
  I  I123  1  0.33060424  0.83016267  0.16593796  1
  I  I124  1  0.33309114  0.83137164  0.49971084  1
  I  I125  1  0.33713838  0.83294822  0.83480707  1
  I  I126  1  0.66381722  0.16983828  0.16530195  1
  I  I127  1  0.67033376  0.16587807  0.49957315  1
  I  I128  1  0.66621325  0.17141526  0.83471791  1
  I  I129  1  0.66591233  0.49496989  0.15991698  1
  I  I130  1  0.66673384  0.50044607  0.50083295  1
  I  I131  1  0.66649291  0.49947474  0.83772285  1
  I  I132  1  0.66659802  0.83463990  0.16740528  1
  I  I133  1  0.67017416  0.83472578  0.49802957  1
  I  I134  1  0.66367794  0.82837438  0.83384793  1
