# generated using pymatgen
data_Cs27Sn14Pb13I81
_symmetry_space_group_name_H-M   'P 1'
_cell_length_a   18.98238372
_cell_length_b   18.98242838
_cell_length_c   18.96396204
_cell_angle_alpha   89.99960262
_cell_angle_beta   89.99962396
_cell_angle_gamma   90.00086525
_symmetry_Int_Tables_number   1
_chemical_formula_structural   Cs27Sn14Pb13I81
_chemical_formula_sum   'Cs27 Sn14 Pb13 I81'
_cell_volume   6833.31743018
_cell_formula_units_Z   1
loop_
 _symmetry_equiv_pos_site_id
 _symmetry_equiv_pos_as_xyz
  1  'x, y, z'
loop_
 _atom_site_type_symbol
 _atom_site_label
 _atom_site_symmetry_multiplicity
 _atom_site_fract_x
 _atom_site_fract_y
 _atom_site_fract_z
 _atom_site_occupancy
  Cs  Cs0  1  -0.00080773  0.00157440  -0.00065157  1
  Cs  Cs1  1  0.00327861  -0.00209082  0.33900604  1
  Cs  Cs2  1  -0.00140331  -0.00039212  0.66255303  1
  Cs  Cs3  1  -0.00026532  0.33350705  -0.00088560  1
  Cs  Cs4  1  -0.00135390  0.33542843  0.33317554  1
  Cs  Cs5  1  0.00170791  0.33240110  0.66910814  1
  Cs  Cs6  1  0.00047762  0.66523914  0.00154420  1
  Cs  Cs7  1  0.00135729  0.66660917  0.33175011  1
  Cs  Cs8  1  -0.00324498  0.66637259  0.66776333  1
  Cs  Cs9  1  0.33160266  0.00368645  0.00072003  1
  Cs  Cs10  1  0.33338990  -0.00058602  0.34124419  1
  Cs  Cs11  1  0.33265784  -0.00080437  0.66015150  1
  Cs  Cs12  1  0.33238809  0.33276648  -0.00069647  1
  Cs  Cs13  1  0.33504387  0.33050897  0.33241227  1
  Cs  Cs14  1  0.33228285  0.33507117  0.66874559  1
  Cs  Cs15  1  0.33272654  0.66602304  0.00060211  1
  Cs  Cs16  1  0.33030693  0.67003363  0.33087341  1
  Cs  Cs17  1  0.34239346  0.66528374  0.66824108  1
  Cs  Cs18  1  0.66801431  0.00098356  0.00028183  1
  Cs  Cs19  1  0.66290018  0.00413724  0.33509310  1
  Cs  Cs20  1  0.66801959  -0.01145151  0.66275068  1
  Cs  Cs21  1  0.66919304  0.33144239  0.00157506  1
  Cs  Cs22  1  0.66549993  0.33211208  0.33674314  1
  Cs  Cs23  1  0.66624024  0.33672821  0.66018568  1
  Cs  Cs24  1  0.66651386  0.66820993  0.00021147  1
  Cs  Cs25  1  0.66769512  0.66444840  0.33369361  1
  Cs  Cs26  1  0.65817078  0.67418828  0.65989865  1
  Sn  Sn27  1  0.16597915  0.50033854  0.83339077  1
  Sn  Sn28  1  0.50014576  0.50060222  0.16590233  1
  Sn  Sn29  1  0.16676925  0.49895923  0.16657241  1
  Sn  Sn30  1  0.83313894  0.49973838  0.83380089  1
  Sn  Sn31  1  0.16658765  0.83330008  0.83371851  1
  Sn  Sn32  1  0.83307465  0.49973461  0.16562606  1
  Sn  Sn33  1  0.16651188  0.49993214  0.50021018  1
  Sn  Sn34  1  0.50055954  0.83306700  0.16573877  1
  Sn  Sn35  1  0.83289506  0.16742290  0.83355647  1
  Sn  Sn36  1  0.50081131  0.16679312  0.83332804  1
  Sn  Sn37  1  0.16655802  0.16631226  0.83423539  1
  Sn  Sn38  1  0.83454832  0.16652805  0.16627457  1
  Sn  Sn39  1  0.16571445  0.16724439  0.16617193  1
  Sn  Sn40  1  0.83267656  0.83372378  0.16615639  1
  Pb  Pb41  1  0.49711523  0.49981251  0.49658527  1
  Pb  Pb42  1  0.16646605  0.16899271  0.50002488  1
  Pb  Pb43  1  0.50098097  0.49841582  0.83540165  1
  Pb  Pb44  1  0.49759981  0.83593092  0.83588483  1
  Pb  Pb45  1  0.83366792  0.83301766  0.49625989  1
  Pb  Pb46  1  0.83527817  0.50000812  0.50060726  1
  Pb  Pb47  1  0.50005522  0.16696629  0.50417869  1
  Pb  Pb48  1  0.49989431  0.16667982  0.16550451  1
  Pb  Pb49  1  0.16651354  0.83398292  0.16528894  1
  Pb  Pb50  1  0.83353716  0.16691609  0.50048588  1
  Pb  Pb51  1  0.49978644  0.83314922  0.49634226  1
  Pb  Pb52  1  0.83495508  0.83296438  0.83517187  1
  Pb  Pb53  1  0.16650417  0.82990570  0.50378058  1
  I  I54  1  0.16410748  0.00302241  0.16020945  1
  I  I55  1  0.16767663  -0.00008972  0.49882187  1
  I  I56  1  0.16679860  0.00174674  0.84084921  1
  I  I57  1  0.16496940  0.33431480  0.16267934  1
  I  I58  1  0.16613610  0.33662618  0.50307560  1
  I  I59  1  0.16642182  0.33353628  0.83399514  1
  I  I60  1  0.16490102  0.66362163  0.16554927  1
  I  I61  1  0.16548994  0.66228830  0.49493918  1
  I  I62  1  0.16167563  0.66470260  0.83514610  1
  I  I63  1  0.50328459  -0.00198884  0.16348977  1
  I  I64  1  0.49828979  -0.00002627  0.49691201  1
  I  I65  1  0.50036565  0.00373285  0.83813501  1
  I  I66  1  0.50035127  0.33588720  0.16497911  1
  I  I67  1  0.49996690  0.33359246  0.49566043  1
  I  I68  1  0.49427566  0.33064864  0.83806430  1
  I  I69  1  0.50184896  0.66565941  0.16576938  1
  I  I70  1  0.49908222  0.66638836  0.50452386  1
  I  I71  1  0.49865029  0.66667652  0.83273088  1
  I  I72  1  0.83315270  0.00115276  0.16119772  1
  I  I73  1  0.83425364  0.00001905  0.50134209  1
  I  I74  1  0.83506278  0.00309760  0.83868925  1
  I  I75  1  0.83461916  0.33373726  0.16276664  1
  I  I76  1  0.83343771  0.33350295  0.49500403  1
  I  I77  1  0.83943754  0.33333952  0.84225235  1
  I  I78  1  0.83378408  0.66515521  0.16311590  1
  I  I79  1  0.83547346  0.66635469  0.50064054  1
  I  I80  1  0.84104316  0.66343449  0.83936330  1
  I  I81  1  0.16608681  0.17147125  -0.00055189  1
  I  I82  1  0.16255759  0.17074588  0.32968960  1
  I  I83  1  0.16628961  0.16742643  0.67068805  1
  I  I84  1  0.16609577  0.49902476  0.00018285  1
  I  I85  1  0.16659980  0.49565582  0.33101128  1
  I  I86  1  0.16126550  0.49885642  0.66877176  1
  I  I87  1  0.16671654  0.82930426  -0.00245371  1
  I  I88  1  0.16725194  0.83354869  0.33322528  1
  I  I89  1  0.16563617  0.83713685  0.67175240  1
  I  I90  1  0.49812862  0.16712534  -0.00229877  1
  I  I91  1  0.49930398  0.16575582  0.33306025  1
  I  I92  1  0.49689602  0.16873576  0.67227932  1
  I  I93  1  0.49466589  0.50322991  0.00367318  1
  I  I94  1  0.50165650  0.50243054  0.32802465  1
  I  I95  1  0.49937508  0.49772053  0.66688960  1
  I  I96  1  0.50388385  0.82821718  0.00356933  1
  I  I97  1  0.50221125  0.83030984  0.32822289  1
  I  I98  1  0.49864165  0.83481676  0.66695355  1
  I  I99  1  0.83512601  0.16795864  0.00038947  1
  I  I100  1  0.83773792  0.16756478  0.32905431  1
  I  I101  1  0.83581871  0.17283729  0.67118471  1
  I  I102  1  0.83882565  0.49894105  0.00114418  1
  I  I103  1  0.83423448  0.49979730  0.32936343  1
  I  I104  1  0.84023917  0.49296589  0.67067736  1
  I  I105  1  0.83049926  0.83283934  0.00354687  1
  I  I106  1  0.83141427  0.83225176  0.32751730  1
  I  I107  1  0.83527769  0.83370213  0.66703807  1
  I  I108  1  0.00009607  0.16983834  0.15916761  1
  I  I109  1  0.00014722  0.16662920  0.50272352  1
  I  I110  1  0.00052823  0.16828302  0.83798164  1
  I  I111  1  0.00030681  0.50001828  0.16635938  1
  I  I112  1  0.00318367  0.49922622  0.49527686  1
  I  I113  1  0.00115371  0.49603023  0.83788424  1
  I  I114  1  -0.00246460  0.83060876  0.16434144  1
  I  I115  1  0.00041234  0.83390743  0.49675164  1
  I  I116  1  0.00286019  0.83607093  0.83753414  1
  I  I117  1  0.33044215  0.17056330  0.16138947  1
  I  I118  1  0.33302306  0.16713454  0.49739613  1
  I  I119  1  0.33129712  0.16751952  0.83880068  1
  I  I120  1  0.33180506  0.50028433  0.16626539  1
  I  I121  1  0.32910983  0.49926047  0.50288075  1
  I  I122  1  0.33012463  0.49886571  0.83447968  1
  I  I123  1  0.33510818  0.82894912  0.16395776  1
  I  I124  1  0.33298967  0.83362659  0.49704630  1
  I  I125  1  0.32971339  0.83099263  0.83708793  1
  I  I126  1  0.66958241  0.16874053  0.16192789  1
  I  I127  1  0.66678604  0.16828691  0.49654975  1
  I  I128  1  0.66832376  0.17239183  0.84079342  1
  I  I129  1  0.66801437  0.50051497  0.16120778  1
  I  I130  1  0.66655272  0.50012956  0.50023835  1
  I  I131  1  0.67010699  0.49391848  0.84042521  1
  I  I132  1  0.66740284  0.82973567  0.16501754  1
  I  I133  1  0.66660884  0.83218811  0.50505642  1
  I  I134  1  0.66668342  0.83391254  0.83266271  1
