# generated using pymatgen
data_Cs27Sn14Pb13I81
_symmetry_space_group_name_H-M   'P 1'
_cell_length_a   18.97871509
_cell_length_b   18.96888500
_cell_length_c   18.97803302
_cell_angle_alpha   89.99947248
_cell_angle_beta   90.00107703
_cell_angle_gamma   89.99979749
_symmetry_Int_Tables_number   1
_chemical_formula_structural   Cs27Sn14Pb13I81
_chemical_formula_sum   'Cs27 Sn14 Pb13 I81'
_cell_volume   6832.18798759
_cell_formula_units_Z   1
loop_
 _symmetry_equiv_pos_site_id
 _symmetry_equiv_pos_as_xyz
  1  'x, y, z'
loop_
 _atom_site_type_symbol
 _atom_site_label
 _atom_site_symmetry_multiplicity
 _atom_site_fract_x
 _atom_site_fract_y
 _atom_site_fract_z
 _atom_site_occupancy
  Cs  Cs0  1  0.00036447  -0.00004945  -0.00175988  1
  Cs  Cs1  1  -0.00031083  -0.01069963  0.33296214  1
  Cs  Cs2  1  0.00055670  0.00229884  0.66864514  1
  Cs  Cs3  1  -0.00076663  0.33334136  -0.00004528  1
  Cs  Cs4  1  -0.00060151  0.33520717  0.33323062  1
  Cs  Cs5  1  0.00051254  0.33207878  0.66624115  1
  Cs  Cs6  1  -0.00089474  0.66762246  0.00188029  1
  Cs  Cs7  1  -0.00030477  0.67297465  0.33077370  1
  Cs  Cs8  1  0.00037854  0.66639848  0.66674486  1
  Cs  Cs9  1  0.33396379  0.00061493  0.00062304  1
  Cs  Cs10  1  0.33569329  -0.00091131  0.33948176  1
  Cs  Cs11  1  0.33318767  0.00063977  0.65995476  1
  Cs  Cs12  1  0.33117063  0.33263554  0.00308932  1
  Cs  Cs13  1  0.33577418  0.33480841  0.33179392  1
  Cs  Cs14  1  0.32830293  0.33355108  0.66469491  1
  Cs  Cs15  1  0.33432018  0.66768921  0.00005590  1
  Cs  Cs16  1  0.33082034  0.66349949  0.33091440  1
  Cs  Cs17  1  0.33825650  0.66628798  0.66898399  1
  Cs  Cs18  1  0.66537563  0.00389245  -0.00175288  1
  Cs  Cs19  1  0.66448826  0.00131039  0.33644696  1
  Cs  Cs20  1  0.66683792  -0.00368437  0.66778992  1
  Cs  Cs21  1  0.66878347  0.33244071  -0.00088080  1
  Cs  Cs22  1  0.66515949  0.33216859  0.33272311  1
  Cs  Cs23  1  0.66997598  0.33491514  0.66801374  1
  Cs  Cs24  1  0.66581734  0.66433839  -0.00228170  1
  Cs  Cs25  1  0.66931678  0.66785463  0.33252821  1
  Cs  Cs26  1  0.66179441  0.66886883  0.66997776  1
  Sn  Sn27  1  0.83259337  0.16606436  0.83320486  1
  Sn  Sn28  1  0.50026689  0.49973052  0.49930691  1
  Sn  Sn29  1  0.16684213  0.49935281  0.16663721  1
  Sn  Sn30  1  0.83378264  0.16705301  0.49975919  1
  Sn  Sn31  1  0.50005333  0.16709182  0.83295908  1
  Sn  Sn32  1  0.50003640  0.83264122  0.16664966  1
  Sn  Sn33  1  0.83398334  0.83370182  0.83363343  1
  Sn  Sn34  1  0.16633171  0.49999461  0.49964567  1
  Sn  Sn35  1  0.83332564  0.49967815  0.49995538  1
  Sn  Sn36  1  0.49975693  0.50089692  0.16703114  1
  Sn  Sn37  1  0.16637696  0.50088799  0.83370874  1
  Sn  Sn38  1  0.16570570  0.16682230  0.16710026  1
  Sn  Sn39  1  0.16631135  0.83272842  0.83338891  1
  Sn  Sn40  1  0.83460396  0.16676323  0.16705995  1
  Pb  Pb41  1  0.49760271  0.49776098  0.83378458  1
  Pb  Pb42  1  0.49961678  0.83549516  0.83495422  1
  Pb  Pb43  1  0.83330752  0.83327592  0.50256680  1
  Pb  Pb44  1  0.83332868  0.49841791  0.16869292  1
  Pb  Pb45  1  0.50231108  0.16922132  0.50265137  1
  Pb  Pb46  1  0.16411107  0.16852960  0.49674333  1
  Pb  Pb47  1  0.16634412  0.16667277  0.83474192  1
  Pb  Pb48  1  0.49987182  0.16724058  0.16568800  1
  Pb  Pb49  1  0.16675212  0.83042744  0.50290212  1
  Pb  Pb50  1  0.50003146  0.83047870  0.49725087  1
  Pb  Pb51  1  0.83081705  0.83624112  0.16410981  1
  Pb  Pb52  1  0.16830501  0.83330090  0.16475527  1
  Pb  Pb53  1  0.83554907  0.49978905  0.83134079  1
  I  I54  1  0.16388613  0.00256844  0.16205843  1
  I  I55  1  0.16527590  0.00014485  0.50030930  1
  I  I56  1  0.16520712  -0.00196525  0.83756512  1
  I  I57  1  0.16901527  0.33482743  0.16360125  1
  I  I58  1  0.16842716  0.33718055  0.50598400  1
  I  I59  1  0.16710784  0.33606802  0.83185730  1
  I  I60  1  0.16949741  0.66329089  0.16847948  1
  I  I61  1  0.16303743  0.66159051  0.49364243  1
  I  I62  1  0.16138105  0.66578560  0.83487089  1
  I  I63  1  0.50061938  -0.00142996  0.16123360  1
  I  I64  1  0.50163553  0.00027485  0.49901600  1
  I  I65  1  0.50051669  0.00321395  0.83769476  1
  I  I66  1  0.49793961  0.33624291  0.16971902  1
  I  I67  1  0.49725179  0.33724503  0.49268560  1
  I  I68  1  0.50661843  0.33034695  0.83602964  1
  I  I69  1  0.49355636  0.66470794  0.16905260  1
  I  I70  1  0.50234280  0.66191301  0.50164510  1
  I  I71  1  0.50239676  0.66635286  0.83176545  1
  I  I72  1  0.83815981  0.00448876  0.17092100  1
  I  I73  1  0.83293761  0.00328168  0.49844878  1
  I  I74  1  0.83550914  0.00133304  0.83203646  1
  I  I75  1  0.83235392  0.33017338  0.16077702  1
  I  I76  1  0.83347623  0.33338385  0.50291098  1
  I  I77  1  0.83099035  0.33035889  0.83477776  1
  I  I78  1  0.83525802  0.66674222  0.16686639  1
  I  I79  1  0.83395038  0.66327680  0.50120485  1
  I  I80  1  0.83584521  0.66880171  0.83138701  1
  I  I81  1  0.16213908  0.17312625  0.00253908  1
  I  I82  1  0.16414261  0.17281344  0.32874752  1
  I  I83  1  0.16652336  0.16792784  0.66647946  1
  I  I84  1  0.17171500  0.49920127  0.00075437  1
  I  I85  1  0.16856962  0.49356614  0.33283400  1
  I  I86  1  0.16637502  0.50422752  0.66647248  1
  I  I87  1  0.16319687  0.82751884  -0.00300795  1
  I  I88  1  0.16768269  0.83346725  0.33311916  1
  I  I89  1  0.16327993  0.82988046  0.67107739  1
  I  I90  1  0.50594819  0.16877428  -0.00208948  1
  I  I91  1  0.50093784  0.16473010  0.33352414  1
  I  I92  1  0.50416592  0.16721846  0.67038492  1
  I  I93  1  0.49480967  0.50188356  0.00287578  1
  I  I94  1  0.49483705  0.50256878  0.33287528  1
  I  I95  1  0.49928321  0.49682806  0.66424944  1
  I  I96  1  0.49974549  0.82619481  0.00254432  1
  I  I97  1  0.49934080  0.83452700  0.32937342  1
  I  I98  1  0.50049272  0.83282347  0.66683664  1
  I  I99  1  0.83293296  0.16255457  -0.00039656  1
  I  I100  1  0.83702450  0.17389405  0.33327450  1
  I  I101  1  0.82837443  0.16754452  0.66719016  1
  I  I102  1  0.83329289  0.49867774  -0.00006859  1
  I  I103  1  0.83664144  0.49384084  0.33678151  1
  I  I104  1  0.83342518  0.49444677  0.66331572  1
  I  I105  1  0.83731105  0.83824850  -0.00366423  1
  I  I106  1  0.83227801  0.83429234  0.33312419  1
  I  I107  1  0.83648066  0.83895109  0.67046164  1
  I  I108  1  -0.00018854  0.17373304  0.16308071  1
  I  I109  1  -0.00385479  0.17396116  0.50711507  1
  I  I110  1  -0.00284982  0.16601483  0.83195037  1
  I  I111  1  0.00294406  0.49674736  0.16652274  1
  I  I112  1  0.00024336  0.49462032  0.50169180  1
  I  I113  1  0.00367096  0.49844780  0.83447332  1
  I  I114  1  -0.00015185  0.83143039  0.16692228  1
  I  I115  1  -0.00004469  0.83028987  0.49698400  1
  I  I116  1  -0.00014607  0.83572973  0.83412568  1
  I  I117  1  0.33108852  0.16894998  0.16170212  1
  I  I118  1  0.33320414  0.16767938  0.50120633  1
  I  I119  1  0.33487112  0.16794828  0.83790922  1
  I  I120  1  0.33253472  0.49753571  0.17066849  1
  I  I121  1  0.33288537  0.50125210  0.49927830  1
  I  I122  1  0.32959147  0.50368378  0.82945958  1
  I  I123  1  0.33591277  0.83345994  0.16250251  1
  I  I124  1  0.33338603  0.83400625  0.50354078  1
  I  I125  1  0.33075020  0.82946910  0.83571772  1
  I  I126  1  0.66933906  0.16686429  0.16687698  1
  I  I127  1  0.67044953  0.17303491  0.49490500  1
  I  I128  1  0.66867667  0.16223855  0.83614829  1
  I  I129  1  0.66400087  0.50163500  0.17103330  1
  I  I130  1  0.66673167  0.49496063  0.49519256  1
  I  I131  1  0.66673544  0.50182443  0.83290761  1
  I  I132  1  0.66338041  0.82675852  0.16414759  1
  I  I133  1  0.66673344  0.83048361  0.50267178  1
  I  I134  1  0.66907501  0.83696307  0.83406588  1
