# generated using pymatgen
data_Cs27Sn14Pb13I81
_symmetry_space_group_name_H-M   'P 1'
_cell_length_a   18.98403161
_cell_length_b   18.96009037
_cell_length_c   18.98360795
_cell_angle_alpha   89.99860405
_cell_angle_beta   90.00032613
_cell_angle_gamma   89.99948776
_symmetry_Int_Tables_number   1
_chemical_formula_structural   Cs27Sn14Pb13I81
_chemical_formula_sum   'Cs27 Sn14 Pb13 I81'
_cell_volume   6832.94000481
_cell_formula_units_Z   1
loop_
 _symmetry_equiv_pos_site_id
 _symmetry_equiv_pos_as_xyz
  1  'x, y, z'
loop_
 _atom_site_type_symbol
 _atom_site_label
 _atom_site_symmetry_multiplicity
 _atom_site_fract_x
 _atom_site_fract_y
 _atom_site_fract_z
 _atom_site_occupancy
  Cs  Cs0  1  0.00249213  0.00012167  -0.00170045  1
  Cs  Cs1  1  0.00025053  -0.00177868  0.33389606  1
  Cs  Cs2  1  0.00077636  -0.00032111  0.66693724  1
  Cs  Cs3  1  -0.00467649  0.33706086  -0.00488631  1
  Cs  Cs4  1  0.00007528  0.33131993  0.33650624  1
  Cs  Cs5  1  -0.00097625  0.33449875  0.66797629  1
  Cs  Cs6  1  -0.00039848  0.66206910  0.00892410  1
  Cs  Cs7  1  -0.00238384  0.66990671  0.32402409  1
  Cs  Cs8  1  0.00176343  0.66995577  0.66570412  1
  Cs  Cs9  1  0.33372828  -0.00023937  -0.00057861  1
  Cs  Cs10  1  0.33386052  0.00165158  0.33329289  1
  Cs  Cs11  1  0.33274222  0.00008563  0.66713848  1
  Cs  Cs12  1  0.33239542  0.33359561  0.00136601  1
  Cs  Cs13  1  0.33499886  0.33358615  0.33588000  1
  Cs  Cs14  1  0.33065610  0.33583989  0.66305489  1
  Cs  Cs15  1  0.33414828  0.65990761  -0.00084064  1
  Cs  Cs16  1  0.33175529  0.65940167  0.33261176  1
  Cs  Cs17  1  0.33486779  0.66268195  0.66845411  1
  Cs  Cs18  1  0.66229203  0.00185959  -0.00225577  1
  Cs  Cs19  1  0.66580649  0.00044362  0.33456835  1
  Cs  Cs20  1  0.66623714  -0.00117173  0.66650282  1
  Cs  Cs21  1  0.67216475  0.33704535  -0.00019800  1
  Cs  Cs22  1  0.66523028  0.33213806  0.33431348  1
  Cs  Cs23  1  0.67071758  0.33339847  0.66597516  1
  Cs  Cs24  1  0.66486102  0.65707716  -0.00224857  1
  Cs  Cs25  1  0.67093722  0.66626168  0.33157508  1
  Cs  Cs26  1  0.66243493  0.67041120  0.66876427  1
  Sn  Sn27  1  0.49993250  0.16594554  0.50039282  1
  Sn  Sn28  1  0.49911125  0.16637166  0.83298223  1
  Sn  Sn29  1  0.16649919  0.16614560  0.16663164  1
  Sn  Sn30  1  0.83440697  0.83363558  0.83394797  1
  Sn  Sn31  1  0.16666761  0.16583722  0.50014574  1
  Sn  Sn32  1  0.16580500  0.83398386  0.83297889  1
  Sn  Sn33  1  0.49980573  0.83402639  0.16756495  1
  Sn  Sn34  1  0.50005961  0.16600431  0.16653452  1
  Sn  Sn35  1  0.49867062  0.83420297  0.49872200  1
  Sn  Sn36  1  0.83342542  0.16710381  0.49928547  1
  Sn  Sn37  1  0.83335648  0.16575152  0.16732596  1
  Sn  Sn38  1  0.16783250  0.83410887  0.50036539  1
  Sn  Sn39  1  0.16767553  0.16604897  0.83307679  1
  Sn  Sn40  1  0.83360518  0.49997366  0.50023975  1
  Pb  Pb41  1  0.16668379  0.49630181  0.16694136  1
  Pb  Pb42  1  0.83340013  0.83394234  0.50092919  1
  Pb  Pb43  1  0.50209114  0.50036583  0.49999744  1
  Pb  Pb44  1  0.83362596  0.16535148  0.83305870  1
  Pb  Pb45  1  0.49997819  0.49952511  0.16701872  1
  Pb  Pb46  1  0.83368370  0.50376599  0.83047203  1
  Pb  Pb47  1  0.16430158  0.50078743  0.49992194  1
  Pb  Pb48  1  0.49988351  0.49568401  0.83290043  1
  Pb  Pb49  1  0.83040706  0.83602394  0.16372278  1
  Pb  Pb50  1  0.83327372  0.49694592  0.16932209  1
  Pb  Pb51  1  0.49896315  0.83478007  0.83342575  1
  Pb  Pb52  1  0.16652762  0.50029374  0.83307245  1
  Pb  Pb53  1  0.16905685  0.83518628  0.16663016  1
  I  I54  1  0.16503491  0.00403757  0.16696484  1
  I  I55  1  0.16509703  0.00166774  0.50104314  1
  I  I56  1  0.16637754  0.00131423  0.83172194  1
  I  I57  1  0.17045410  0.32708189  0.16758249  1
  I  I58  1  0.16965500  0.32937739  0.49987383  1
  I  I59  1  0.17099444  0.32910202  0.83291341  1
  I  I60  1  0.16824596  0.66705824  0.16675787  1
  I  I61  1  0.17080827  0.67060396  0.50652671  1
  I  I62  1  0.16338657  0.67059078  0.82665448  1
  I  I63  1  0.50016103  0.00226849  0.16808894  1
  I  I64  1  0.50194578  0.00166102  0.49926569  1
  I  I65  1  0.49926090  0.00333189  0.83345605  1
  I  I66  1  0.49963122  0.32853249  0.16752437  1
  I  I67  1  0.49706451  0.32932627  0.49900060  1
  I  I68  1  0.49495829  0.32711561  0.83346615  1
  I  I69  1  0.49987748  0.66995252  0.17150293  1
  I  I70  1  0.49717137  0.67050496  0.49644564  1
  I  I71  1  0.50083931  0.66689806  0.83334503  1
  I  I72  1  0.83506731  0.00415549  0.17533994  1
  I  I73  1  0.83294142  0.00342933  0.49737162  1
  I  I74  1  0.83469039  -0.00204320  0.82968596  1
  I  I75  1  0.83034637  0.32828035  0.16554222  1
  I  I76  1  0.83274891  0.33018123  0.49674723  1
  I  I77  1  0.83232678  0.33315357  0.83586991  1
  I  I78  1  0.83183314  0.66695019  0.16723708  1
  I  I79  1  0.83238239  0.66505344  0.50471580  1
  I  I80  1  0.83795504  0.67158354  0.83074840  1
  I  I81  1  0.17008515  0.16245363  -0.00042133  1
  I  I82  1  0.16798029  0.16370757  0.33419389  1
  I  I83  1  0.16888368  0.16325733  0.66607110  1
  I  I84  1  0.16578421  0.50049304  -0.00006240  1
  I  I85  1  0.16612531  0.50025828  0.33364738  1
  I  I86  1  0.16595107  0.49421812  0.66642271  1
  I  I87  1  0.16410856  0.83956384  -0.00272377  1
  I  I88  1  0.16767651  0.83831531  0.33634121  1
  I  I89  1  0.16741263  0.84207983  0.66596200  1
  I  I90  1  0.49757672  0.16167132  0.00058182  1
  I  I91  1  0.49867000  0.16376689  0.33378605  1
  I  I92  1  0.49890433  0.16232195  0.66558427  1
  I  I93  1  0.50131379  0.50203655  0.00002704  1
  I  I94  1  0.50034119  0.49510171  0.33354442  1
  I  I95  1  0.50131922  0.50128807  0.66630456  1
  I  I96  1  0.50101307  0.84041766  0.00215678  1
  I  I97  1  0.49631407  0.84300391  0.33462177  1
  I  I98  1  0.50093402  0.83815967  0.66396189  1
  I  I99  1  0.83239148  0.16302477  0.00233190  1
  I  I100  1  0.83305239  0.17010267  0.33433003  1
  I  I101  1  0.83245791  0.16865951  0.66361489  1
  I  I102  1  0.83296005  0.49891317  0.00003784  1
  I  I103  1  0.83304026  0.49925489  0.33692020  1
  I  I104  1  0.83308734  0.48902374  0.66327235  1
  I  I105  1  0.83906981  0.83785464  -0.00362501  1
  I  I106  1  0.83553710  0.83070372  0.33313966  1
  I  I107  1  0.83217040  0.83665706  0.66863319  1
  I  I108  1  0.00031424  0.16731556  0.17019033  1
  I  I109  1  0.00053621  0.16680968  0.49753109  1
  I  I110  1  0.00298705  0.16446076  0.83330094  1
  I  I111  1  -0.00024507  0.50053011  0.16744017  1
  I  I112  1  -0.00315637  0.49261299  0.50094438  1
  I  I113  1  -0.00004985  0.49311323  0.83216138  1
  I  I114  1  0.00010624  0.83464691  0.16905316  1
  I  I115  1  0.00271828  0.83743019  0.50376968  1
  I  I116  1  0.00167162  0.84137613  0.82545794  1
  I  I117  1  0.33370036  0.16306731  0.16817020  1
  I  I118  1  0.33331162  0.16256133  0.49838234  1
  I  I119  1  0.33263085  0.16053308  0.83369123  1
  I  I120  1  0.33347540  0.49808185  0.16673300  1
  I  I121  1  0.33324940  0.49706824  0.49998936  1
  I  I122  1  0.33325168  0.50477897  0.83278785  1
  I  I123  1  0.33674774  0.84195759  0.16614048  1
  I  I124  1  0.33321471  0.84282873  0.50259300  1
  I  I125  1  0.33035276  0.83766370  0.83164609  1
  I  I126  1  0.66595583  0.16312459  0.16965244  1
  I  I127  1  0.66609007  0.16666209  0.49786655  1
  I  I128  1  0.66434975  0.16358006  0.83309824  1
  I  I129  1  0.66671989  0.49799285  0.16680835  1
  I  I130  1  0.66969144  0.49366591  0.49971842  1
  I  I131  1  0.66690359  0.50093526  0.83300235  1
  I  I132  1  0.66277645  0.84124644  0.17283753  1
  I  I133  1  0.66406268  0.83707443  0.49913281  1
  I  I134  1  0.66773052  0.83650313  0.83148975  1
