# generated using pymatgen
data_Cs27Sn13Pb14I81
_symmetry_space_group_name_H-M   'P 1'
_cell_length_a   18.99998539
_cell_length_b   18.99269543
_cell_length_c   18.98160357
_cell_angle_alpha   90.00238299
_cell_angle_beta   89.99981657
_cell_angle_gamma   90.00020064
_symmetry_Int_Tables_number   1
_chemical_formula_structural   Cs27Sn13Pb14I81
_chemical_formula_sum   'Cs27 Sn13 Pb14 I81'
_cell_volume   6849.71921976
_cell_formula_units_Z   1
loop_
 _symmetry_equiv_pos_site_id
 _symmetry_equiv_pos_as_xyz
  1  'x, y, z'
loop_
 _atom_site_type_symbol
 _atom_site_label
 _atom_site_symmetry_multiplicity
 _atom_site_fract_x
 _atom_site_fract_y
 _atom_site_fract_z
 _atom_site_occupancy
  Cs  Cs0  1  -0.00016346  0.00175385  0.00045211  1
  Cs  Cs1  1  0.00495808  -0.00210374  0.33747641  1
  Cs  Cs2  1  -0.00495726  0.00988471  0.66232635  1
  Cs  Cs3  1  -0.00018380  0.32739059  0.00041579  1
  Cs  Cs4  1  0.01155651  0.33716981  0.33158990  1
  Cs  Cs5  1  -0.00080442  0.32831727  0.66705014  1
  Cs  Cs6  1  -0.00312404  0.66906594  -0.00190900  1
  Cs  Cs7  1  0.00939751  0.66636442  0.33493843  1
  Cs  Cs8  1  -0.00172942  0.66574259  0.66820895  1
  Cs  Cs9  1  0.33505607  -0.00120455  0.00052153  1
  Cs  Cs10  1  0.32892237  -0.00067167  0.33919671  1
  Cs  Cs11  1  0.33715036  0.00212524  0.66121416  1
  Cs  Cs12  1  0.33625485  0.33034953  0.00098599  1
  Cs  Cs13  1  0.32425793  0.33550938  0.33488993  1
  Cs  Cs14  1  0.33374758  0.33451530  0.66565306  1
  Cs  Cs15  1  0.33572041  0.66910503  -0.00325546  1
  Cs  Cs16  1  0.32185072  0.66574291  0.33461072  1
  Cs  Cs17  1  0.33424175  0.66539740  0.66985195  1
  Cs  Cs18  1  0.66600073  -0.00125850  0.00121150  1
  Cs  Cs19  1  0.66654028  0.00031813  0.33592450  1
  Cs  Cs20  1  0.66750546  0.00151723  0.65858551  1
  Cs  Cs21  1  0.66570513  0.33240256  0.00261741  1
  Cs  Cs22  1  0.66620417  0.33423617  0.32904434  1
  Cs  Cs23  1  0.66718578  0.33418599  0.66673506  1
  Cs  Cs24  1  0.66685404  0.66760327  -0.00027399  1
  Cs  Cs25  1  0.66810635  0.66562470  0.33182272  1
  Cs  Cs26  1  0.66731061  0.66609778  0.66785314  1
  Sn  Sn27  1  0.50037344  0.49978662  0.83286240  1
  Sn  Sn28  1  0.83253485  0.16558465  0.16689035  1
  Sn  Sn29  1  0.16637184  0.50040261  0.83370091  1
  Sn  Sn30  1  0.50072588  0.83399502  0.16643924  1
  Sn  Sn31  1  0.50125227  0.50050000  0.50025924  1
  Sn  Sn32  1  0.50071865  0.16627123  0.83382496  1
  Sn  Sn33  1  0.83322241  0.83334750  0.83366270  1
  Sn  Sn34  1  0.16623140  0.83330561  0.83326232  1
  Sn  Sn35  1  0.50082002  0.16540630  0.16624713  1
  Sn  Sn36  1  0.83246652  0.83417959  0.16614104  1
  Sn  Sn37  1  0.83329174  0.50022643  0.83292965  1
  Sn  Sn38  1  0.83222665  0.50007631  0.50045397  1
  Sn  Sn39  1  0.50053195  0.83394698  0.83358027  1
  Pb  Pb40  1  0.16649161  0.83324746  0.50443353  1
  Pb  Pb41  1  0.16670519  0.50026583  0.16246226  1
  Pb  Pb42  1  0.83074775  0.16639691  0.83479177  1
  Pb  Pb43  1  0.16969637  0.16600150  0.83338583  1
  Pb  Pb44  1  0.83299673  0.17012435  0.49590854  1
  Pb  Pb45  1  0.83317498  0.83103733  0.49971723  1
  Pb  Pb46  1  0.50011432  0.83051848  0.49937186  1
  Pb  Pb47  1  0.16673072  0.83347743  0.16410750  1
  Pb  Pb48  1  0.49980437  0.50065467  0.16679416  1
  Pb  Pb49  1  0.16739527  0.16608893  0.16623786  1
  Pb  Pb50  1  0.16671389  0.16668394  0.50043431  1
  Pb  Pb51  1  0.83341029  0.50058079  0.16647739  1
  Pb  Pb52  1  0.16637925  0.50017871  0.50352997  1
  Pb  Pb53  1  0.50022480  0.16950305  0.49894534  1
  I  I54  1  0.16633947  -0.00029375  0.16258595  1
  I  I55  1  0.16715267  -0.00021243  0.50164914  1
  I  I56  1  0.16628238  -0.00349888  0.83558072  1
  I  I57  1  0.16627401  0.33315279  0.16588804  1
  I  I58  1  0.16741211  0.33409709  0.50108551  1
  I  I59  1  0.16629130  0.33635605  0.83230906  1
  I  I60  1  0.16694573  0.66701398  0.17000203  1
  I  I61  1  0.16720897  0.66631711  0.49546223  1
  I  I62  1  0.17143685  0.66644587  0.83390016  1
  I  I63  1  0.50456588  -0.00052913  0.15548657  1
  I  I64  1  0.49891333  -0.00006563  0.50381235  1
  I  I65  1  0.49864627  -0.00092228  0.83918166  1
  I  I66  1  0.50534183  0.33070594  0.16167455  1
  I  I67  1  0.50378917  0.33728695  0.50621919  1
  I  I68  1  0.49955970  0.33411727  0.83375040  1
  I  I69  1  0.50566368  0.67006758  0.16145318  1
  I  I70  1  0.50400249  0.66282688  0.50627474  1
  I  I71  1  0.49928016  0.66684022  0.83354425  1
  I  I72  1  0.82867124  -0.00115379  0.15831791  1
  I  I73  1  0.83453730  0.00015774  0.50365906  1
  I  I74  1  0.83469859  -0.00321190  0.83642303  1
  I  I75  1  0.82743573  0.33094577  0.16567446  1
  I  I76  1  0.82834094  0.33779310  0.50853652  1
  I  I77  1  0.83361289  0.33620693  0.83115515  1
  I  I78  1  0.82741126  0.66999136  0.16370282  1
  I  I79  1  0.82854577  0.66309434  0.50130732  1
  I  I80  1  0.82992509  0.66674953  0.83546565  1
  I  I81  1  0.16482445  0.17003080  -0.00037412  1
  I  I82  1  0.16877998  0.16856308  0.33303850  1
  I  I83  1  0.16767652  0.16680938  0.66749114  1
  I  I84  1  0.16756744  0.50418771  -0.00549248  1
  I  I85  1  0.16704842  0.49865111  0.33370044  1
  I  I86  1  0.16838796  0.50543098  0.67114600  1
  I  I87  1  0.16771678  0.82757727  -0.00396471  1
  I  I88  1  0.16699489  0.83342760  0.33328877  1
  I  I89  1  0.16874781  0.82623777  0.67253092  1
  I  I90  1  0.50289047  0.16943822  -0.00067197  1
  I  I91  1  0.50469525  0.16282804  0.32951011  1
  I  I92  1  0.49852602  0.16398092  0.66960194  1
  I  I93  1  0.50083118  0.50007852  -0.00368640  1
  I  I94  1  0.50698630  0.49946981  0.33613496  1
  I  I95  1  0.49974918  0.50009578  0.66942344  1
  I  I96  1  0.50011834  0.83123316  -0.00178117  1
  I  I97  1  0.50641607  0.83718138  0.32966918  1
  I  I98  1  0.49995413  0.83544139  0.67052021  1
  I  I99  1  0.83093785  0.16875845  0.00267104  1
  I  I100  1  0.82431461  0.16066060  0.32820360  1
  I  I101  1  0.83288022  0.16413731  0.66649484  1
  I  I102  1  0.83180328  0.50163008  -0.00359590  1
  I  I103  1  0.82572580  0.49891805  0.33600303  1
  I  I104  1  0.83228974  0.50601545  0.66904874  1
  I  I105  1  0.83248601  0.82999602  -0.00143992  1
  I  I106  1  0.82643370  0.83591749  0.32971344  1
  I  I107  1  0.83236972  0.82996834  0.67039568  1
  I  I108  1  -0.00313857  0.16391532  0.16572672  1
  I  I109  1  -0.00060315  0.16946259  0.50001096  1
  I  I110  1  -0.00031519  0.16779886  0.83491844  1
  I  I111  1  -0.00026186  0.49893105  0.16873308  1
  I  I112  1  -0.00306547  0.50011457  0.50312306  1
  I  I113  1  -0.00096940  0.50815726  0.83035699  1
  I  I114  1  -0.00345513  0.83631814  0.16181371  1
  I  I115  1  -0.00018942  0.82955087  0.49770038  1
  I  I116  1  -0.00108344  0.82313476  0.83830599  1
  I  I117  1  0.33739768  0.16360821  0.16105177  1
  I  I118  1  0.33398182  0.16959772  0.49892955  1
  I  I119  1  0.33803545  0.16811443  0.83977109  1
  I  I120  1  0.33362653  0.49905570  0.16842661  1
  I  I121  1  0.33606586  0.49940162  0.50383963  1
  I  I122  1  0.33463568  0.50280672  0.83040214  1
  I  I123  1  0.33686982  0.83664263  0.16150006  1
  I  I124  1  0.33350142  0.83068991  0.49852436  1
  I  I125  1  0.33475292  0.82905700  0.83752421  1
  I  I126  1  0.66568034  0.16351434  0.16163080  1
  I  I127  1  0.66664641  0.16620234  0.50292903  1
  I  I128  1  0.66281390  0.16891662  0.83575499  1
  I  I129  1  0.66658676  0.49927714  0.16301942  1
  I  I130  1  0.66639322  0.50049753  0.51025008  1
  I  I131  1  0.66638967  0.50285067  0.82927724  1
  I  I132  1  0.66639264  0.83684730  0.15697685  1
  I  I133  1  0.66657043  0.83313241  0.50509792  1
  I  I134  1  0.66638668  0.82849126  0.83813431  1
