# generated using pymatgen
data_Cs27Sn13Pb14I81
_symmetry_space_group_name_H-M   'P 1'
_cell_length_a   18.99357193
_cell_length_b   18.98153271
_cell_length_c   18.99835797
_cell_angle_alpha   89.99970813
_cell_angle_beta   89.99876182
_cell_angle_gamma   90.00155179
_symmetry_Int_Tables_number   1
_chemical_formula_structural   Cs27Sn13Pb14I81
_chemical_formula_sum   'Cs27 Sn13 Pb14 I81'
_cell_volume   6849.42303249
_cell_formula_units_Z   1
loop_
 _symmetry_equiv_pos_site_id
 _symmetry_equiv_pos_as_xyz
  1  'x, y, z'
loop_
 _atom_site_type_symbol
 _atom_site_label
 _atom_site_symmetry_multiplicity
 _atom_site_fract_x
 _atom_site_fract_y
 _atom_site_fract_z
 _atom_site_occupancy
  Cs  Cs0  1  0.00260724  0.00023688  -0.00532173  1
  Cs  Cs1  1  0.00303173  0.00060698  0.33539608  1
  Cs  Cs2  1  -0.00036012  -0.00293111  0.66980406  1
  Cs  Cs3  1  -0.00116633  0.33544689  -0.00070999  1
  Cs  Cs4  1  0.00090793  0.33607944  0.33420868  1
  Cs  Cs5  1  -0.00139168  0.33336049  0.66606077  1
  Cs  Cs6  1  -0.00047664  0.66375298  0.00234174  1
  Cs  Cs7  1  -0.00174454  0.66369537  0.32988074  1
  Cs  Cs8  1  -0.00108379  0.66985091  0.66930210  1
  Cs  Cs9  1  0.33110223  0.00040102  0.00218022  1
  Cs  Cs10  1  0.33124694  0.00211222  0.33195972  1
  Cs  Cs11  1  0.32880155  0.00040943  0.66807005  1
  Cs  Cs12  1  0.33495638  0.33194172  0.00053098  1
  Cs  Cs13  1  0.33160230  0.33322342  0.33429426  1
  Cs  Cs14  1  0.33378961  0.33501869  0.66424832  1
  Cs  Cs15  1  0.33464829  0.66966194  -0.00523858  1
  Cs  Cs16  1  0.33302286  0.66447989  0.33707314  1
  Cs  Cs17  1  0.34304987  0.66533095  0.66987428  1
  Cs  Cs18  1  0.66914098  -0.00078240  0.00033013  1
  Cs  Cs19  1  0.66585089  -0.00273203  0.33390733  1
  Cs  Cs20  1  0.67379325  -0.00251243  0.66438865  1
  Cs  Cs21  1  0.66563431  0.33125282  -0.00040474  1
  Cs  Cs22  1  0.66737123  0.33168963  0.33216684  1
  Cs  Cs23  1  0.66848569  0.33414462  0.66776021  1
  Cs  Cs24  1  0.66295869  0.67325866  0.00463399  1
  Cs  Cs25  1  0.66863035  0.67874251  0.33323996  1
  Cs  Cs26  1  0.65718304  0.66801591  0.66283102  1
  Sn  Sn27  1  0.16622329  0.16656815  0.16600103  1
  Sn  Sn28  1  0.16675941  0.83291034  0.49921154  1
  Sn  Sn29  1  0.83315431  0.49953163  0.50062793  1
  Sn  Sn30  1  0.50013230  0.16751862  0.16674499  1
  Sn  Sn31  1  0.16737667  0.16817164  0.83402455  1
  Sn  Sn32  1  0.83371801  0.16693759  0.16748573  1
  Sn  Sn33  1  0.49942387  0.16679843  0.83308982  1
  Sn  Sn34  1  0.83287258  0.16753537  0.49907401  1
  Sn  Sn35  1  0.16612993  0.49889506  0.83323485  1
  Sn  Sn36  1  0.83328440  0.49994607  0.83264617  1
  Sn  Sn37  1  0.50073224  0.16694502  0.50016514  1
  Sn  Sn38  1  0.16663386  0.83374517  0.16786301  1
  Sn  Sn39  1  0.50017633  0.49938249  0.16702900  1
  Pb  Pb40  1  0.49722276  0.83668284  0.49990439  1
  Pb  Pb41  1  0.83549849  0.83342778  0.50002173  1
  Pb  Pb42  1  0.16619005  0.16603998  0.50031331  1
  Pb  Pb43  1  0.50049822  0.49785393  0.83520688  1
  Pb  Pb44  1  0.16863598  0.49965929  0.16475313  1
  Pb  Pb45  1  0.83645591  0.83682711  0.16653102  1
  Pb  Pb46  1  0.49725084  0.83413877  0.16680827  1
  Pb  Pb47  1  0.83347840  0.16783626  0.83319336  1
  Pb  Pb48  1  0.83319395  0.82905641  0.83325696  1
  Pb  Pb49  1  0.50270866  0.49771181  0.49731666  1
  Pb  Pb50  1  0.50009289  0.83733168  0.83335785  1
  Pb  Pb51  1  0.16466758  0.50264846  0.50270392  1
  Pb  Pb52  1  0.83093321  0.49807037  0.16670255  1
  Pb  Pb53  1  0.16666594  0.83314033  0.83363555  1
  I  I54  1  0.16866942  0.00243055  0.16470516  1
  I  I55  1  0.16571343  -0.00163233  0.50014417  1
  I  I56  1  0.17126701  0.00321178  0.83479774  1
  I  I57  1  0.16580430  0.32974310  0.16404731  1
  I  I58  1  0.16807834  0.33338525  0.49819795  1
  I  I59  1  0.16668685  0.33183435  0.83932995  1
  I  I60  1  0.16880676  0.66895652  0.16890153  1
  I  I61  1  0.16366992  0.67017346  0.49252696  1
  I  I62  1  0.16074395  0.66373169  0.83413396  1
  I  I63  1  0.50153317  0.00428835  0.16639726  1
  I  I64  1  0.50713959  0.00508205  0.49675964  1
  I  I65  1  0.49220209  0.00590523  0.83752761  1
  I  I66  1  0.49742090  0.33028748  0.16592197  1
  I  I67  1  0.49925033  0.32929305  0.50147707  1
  I  I68  1  0.49796813  0.32954574  0.83289865  1
  I  I69  1  0.49936650  0.66418201  0.16495962  1
  I  I70  1  0.50089476  0.66654426  0.49847366  1
  I  I71  1  0.49893650  0.66624021  0.83565775  1
  I  I72  1  0.82655742  0.00536640  0.17235733  1
  I  I73  1  0.82929478  0.00350558  0.49552191  1
  I  I74  1  0.83381157  0.00043470  0.83292623  1
  I  I75  1  0.83829782  0.32955810  0.16790704  1
  I  I76  1  0.83093807  0.33198040  0.50009945  1
  I  I77  1  0.83547069  0.33548658  0.83220132  1
  I  I78  1  0.83244203  0.66659583  0.16649636  1
  I  I79  1  0.83632459  0.66366040  0.50500070  1
  I  I80  1  0.84265019  0.66087773  0.82802293  1
  I  I81  1  0.16934839  0.16389685  0.00068318  1
  I  I82  1  0.16908778  0.16365069  0.33066291  1
  I  I83  1  0.16992929  0.16780677  0.66940479  1
  I  I84  1  0.15996150  0.49955456  -0.00299044  1
  I  I85  1  0.16609634  0.49800948  0.33324890  1
  I  I86  1  0.16607680  0.49333627  0.67045668  1
  I  I87  1  0.16741336  0.83679384  0.00268860  1
  I  I88  1  0.16686843  0.84207858  0.33221786  1
  I  I89  1  0.16506921  0.83587464  0.66460272  1
  I  I90  1  0.49893886  0.17088404  0.00079987  1
  I  I91  1  0.49989053  0.17013898  0.33248617  1
  I  I92  1  0.49892593  0.16636885  0.66673909  1
  I  I93  1  0.50101131  0.49207333  0.00267992  1
  I  I94  1  0.49884956  0.49152782  0.32995230  1
  I  I95  1  0.49806466  0.49898746  0.66661692  1
  I  I96  1  0.49706949  0.83360708  0.00028998  1
  I  I97  1  0.50103913  0.83492942  0.33329410  1
  I  I98  1  0.49599459  0.83236447  0.66646606  1
  I  I99  1  0.83133833  0.16819423  0.00245158  1
  I  I100  1  0.83097537  0.17212980  0.33342044  1
  I  I101  1  0.83027244  0.16854006  0.66412705  1
  I  I102  1  0.83743260  0.49722605  -0.00236445  1
  I  I103  1  0.83242482  0.49622943  0.33578092  1
  I  I104  1  0.83833861  0.49151652  0.66649439  1
  I  I105  1  0.83587595  0.83450499  0.00012069  1
  I  I106  1  0.83297813  0.82833420  0.33320310  1
  I  I107  1  0.83883240  0.84108675  0.66643044  1
  I  I108  1  0.00053934  0.16202187  0.16660591  1
  I  I109  1  -0.00273645  0.16865166  0.49650048  1
  I  I110  1  0.00270588  0.16786960  0.83689646  1
  I  I111  1  -0.00010309  0.49952055  0.16739388  1
  I  I112  1  -0.00313879  0.49156248  0.49968905  1
  I  I113  1  0.00052253  0.49252380  0.83110615  1
  I  I114  1  0.00427279  0.83778848  0.17016897  1
  I  I115  1  0.00299123  0.83766309  0.49607388  1
  I  I116  1  0.00039138  0.84019231  0.83275222  1
  I  I117  1  0.33332405  0.16589003  0.16581751  1
  I  I118  1  0.33555755  0.16369240  0.49764189  1
  I  I119  1  0.33251076  0.17159705  0.83654873  1
  I  I120  1  0.33614498  0.49254200  0.16480178  1
  I  I121  1  0.33359439  0.49997981  0.50085989  1
  I  I122  1  0.33096099  0.49838692  0.83620825  1
  I  I123  1  0.32973807  0.84118774  0.16931596  1
  I  I124  1  0.32971260  0.83567942  0.49561557  1
  I  I125  1  0.33298312  0.82785271  0.83261773  1
  I  I126  1  0.66607121  0.17276933  0.16622697  1
  I  I127  1  0.66685400  0.17053201  0.49704973  1
  I  I128  1  0.66431858  0.16878514  0.83661777  1
  I  I129  1  0.66350748  0.49104778  0.16405536  1
  I  I130  1  0.67037968  0.49726707  0.50813193  1
  I  I131  1  0.66927597  0.49652947  0.83007703  1
  I  I132  1  0.66658611  0.83293638  0.16601471  1
  I  I133  1  0.66666153  0.83178716  0.50091889  1
  I  I134  1  0.66662888  0.83436412  0.83322674  1
