# generated using pymatgen
data_Cs27Sn14Pb13I81
_symmetry_space_group_name_H-M   'P 1'
_cell_length_a   18.97863346
_cell_length_b   18.97403636
_cell_length_c   18.97789640
_cell_angle_alpha   89.99928377
_cell_angle_beta   89.99972489
_cell_angle_gamma   89.99721592
_symmetry_Int_Tables_number   1
_chemical_formula_structural   Cs27Sn14Pb13I81
_chemical_formula_sum   'Cs27 Sn14 Pb13 I81'
_cell_volume   6833.96480405
_cell_formula_units_Z   1
loop_
 _symmetry_equiv_pos_site_id
 _symmetry_equiv_pos_as_xyz
  1  'x, y, z'
loop_
 _atom_site_type_symbol
 _atom_site_label
 _atom_site_symmetry_multiplicity
 _atom_site_fract_x
 _atom_site_fract_y
 _atom_site_fract_z
 _atom_site_occupancy
  Cs  Cs0  1  -0.00301333  0.00022756  -0.00000898  1
  Cs  Cs1  1  -0.00089243  0.00104387  0.33543920  1
  Cs  Cs2  1  -0.00172121  -0.00139602  0.66526762  1
  Cs  Cs3  1  0.00710955  0.34404171  0.00681129  1
  Cs  Cs4  1  0.00001823  0.33253178  0.32359836  1
  Cs  Cs5  1  0.00445197  0.33219618  0.67051229  1
  Cs  Cs6  1  0.00241110  0.66030498  0.00082134  1
  Cs  Cs7  1  0.00134426  0.66638060  0.33294214  1
  Cs  Cs8  1  -0.00084775  0.66828739  0.66673716  1
  Cs  Cs9  1  0.33508945  -0.00026774  0.00655757  1
  Cs  Cs10  1  0.33270754  0.00079010  0.32796171  1
  Cs  Cs11  1  0.33386779  0.00035062  0.66654759  1
  Cs  Cs12  1  0.32864847  0.33493085  -0.00016493  1
  Cs  Cs13  1  0.33214992  0.33014386  0.33454814  1
  Cs  Cs14  1  0.33289685  0.32970066  0.66701567  1
  Cs  Cs15  1  0.33376673  0.66682813  0.00352967  1
  Cs  Cs16  1  0.33278642  0.66752628  0.33366011  1
  Cs  Cs17  1  0.33500449  0.66783693  0.66464863  1
  Cs  Cs18  1  0.66638259  0.00072076  -0.00171250  1
  Cs  Cs19  1  0.66756948  0.00063886  0.33261659  1
  Cs  Cs20  1  0.66728136  -0.00085072  0.66768526  1
  Cs  Cs21  1  0.66731838  0.33129846  0.00204233  1
  Cs  Cs22  1  0.66882629  0.33495924  0.33245573  1
  Cs  Cs23  1  0.66471668  0.33273875  0.66581719  1
  Cs  Cs24  1  0.66489655  0.66765900  -0.00265848  1
  Cs  Cs25  1  0.66616802  0.66523999  0.33799426  1
  Cs  Cs26  1  0.66625101  0.66661257  0.66598232  1
  Sn  Sn27  1  0.50048441  0.50018019  0.16601389  1
  Sn  Sn28  1  0.50070330  0.16639655  0.83257608  1
  Sn  Sn29  1  0.50027453  0.49987116  0.83402916  1
  Sn  Sn30  1  0.83253577  0.16623510  0.50123661  1
  Sn  Sn31  1  0.83310001  0.16644827  0.83262794  1
  Sn  Sn32  1  0.50110494  0.16537882  0.50079498  1
  Sn  Sn33  1  0.83354769  0.83370809  0.83341480  1
  Sn  Sn34  1  0.49984778  0.83441785  0.50059478  1
  Sn  Sn35  1  0.16688034  0.83365105  0.83272128  1
  Sn  Sn36  1  0.16688551  0.83255755  0.50103738  1
  Sn  Sn37  1  0.16646625  0.50038099  0.50058810  1
  Sn  Sn38  1  0.49951709  0.83368999  0.83271649  1
  Sn  Sn39  1  0.83302544  0.83307808  0.16651475  1
  Sn  Sn40  1  0.83314003  0.83375540  0.50003483  1
  Pb  Pb41  1  0.83081639  0.50284608  0.16663032  1
  Pb  Pb42  1  0.83584398  0.49903746  0.50034949  1
  Pb  Pb43  1  0.16632471  0.16394487  0.83343493  1
  Pb  Pb44  1  0.16648247  0.16627515  0.16622855  1
  Pb  Pb45  1  0.83129134  0.49938105  0.83299236  1
  Pb  Pb46  1  0.50021167  0.16889261  0.16658196  1
  Pb  Pb47  1  0.16948209  0.50055772  0.16957147  1
  Pb  Pb48  1  0.83314504  0.16470178  0.16603425  1
  Pb  Pb49  1  0.49863645  0.49954494  0.50058417  1
  Pb  Pb50  1  0.50203513  0.83195614  0.16693695  1
  Pb  Pb51  1  0.16622664  0.16580480  0.50006362  1
  Pb  Pb52  1  0.16390899  0.83343042  0.16667638  1
  Pb  Pb53  1  0.16956801  0.50275338  0.83112694  1
  I  I54  1  0.16933984  -0.00083804  0.16964720  1
  I  I55  1  0.16617779  -0.00379167  0.50438229  1
  I  I56  1  0.17013137  -0.00434878  0.82492242  1
  I  I57  1  0.16599980  0.33396212  0.16894125  1
  I  I58  1  0.16957597  0.33531639  0.49864310  1
  I  I59  1  0.16672767  0.33354347  0.83222824  1
  I  I60  1  0.16598912  0.66698349  0.16533172  1
  I  I61  1  0.16796437  0.66932152  0.50325881  1
  I  I62  1  0.16468707  0.67098266  0.83118803  1
  I  I63  1  0.50038356  -0.00005947  0.16505155  1
  I  I64  1  0.49903599  -0.00114164  0.50710202  1
  I  I65  1  0.50099722  -0.00093069  0.82805470  1
  I  I66  1  0.49960995  0.33670810  0.16374180  1
  I  I67  1  0.50247279  0.33032316  0.50263686  1
  I  I68  1  0.50549960  0.33222820  0.83206477  1
  I  I69  1  0.50149543  0.66422548  0.16235751  1
  I  I70  1  0.50244017  0.66978895  0.50276758  1
  I  I71  1  0.50032941  0.66846748  0.83291048  1
  I  I72  1  0.83150253  -0.00340976  0.16710120  1
  I  I73  1  0.83455347  -0.00170321  0.50040095  1
  I  I74  1  0.82863211  -0.00164950  0.83251056  1
  I  I75  1  0.83361343  0.33331306  0.16797379  1
  I  I76  1  0.82797213  0.32940535  0.50502543  1
  I  I77  1  0.82701922  0.32949053  0.82650942  1
  I  I78  1  0.83330118  0.67097280  0.16699836  1
  I  I79  1  0.83001721  0.67038248  0.50102837  1
  I  I80  1  0.83229785  0.67047825  0.83198606  1
  I  I81  1  0.16754658  0.16447769  -0.00075852  1
  I  I82  1  0.16756984  0.16526316  0.33404158  1
  I  I83  1  0.16772064  0.17052391  0.66659408  1
  I  I84  1  0.16553255  0.50064011  -0.00019407  1
  I  I85  1  0.16905787  0.50776737  0.33715151  1
  I  I86  1  0.16918105  0.50286259  0.66363230  1
  I  I87  1  0.16816471  0.83481400  -0.00346122  1
  I  I88  1  0.16739461  0.82992348  0.33707416  1
  I  I89  1  0.16360642  0.82933328  0.66587629  1
  I  I90  1  0.50431486  0.16276769  -0.00386640  1
  I  I91  1  0.50305268  0.16342091  0.33694761  1
  I  I92  1  0.50363880  0.16778516  0.66695403  1
  I  I93  1  0.50083703  0.50191584  -0.00176985  1
  I  I94  1  0.49788572  0.50160046  0.33196928  1
  I  I95  1  0.49870689  0.50127471  0.66941066  1
  I  I96  1  0.49996289  0.83534479  -0.00350570  1
  I  I97  1  0.49982417  0.83511302  0.33690957  1
  I  I98  1  0.50318496  0.83107048  0.66701136  1
  I  I99  1  0.82673093  0.15967103  -0.00385847  1
  I  I100  1  0.82950432  0.16199605  0.33666529  1
  I  I101  1  0.82814592  0.15714073  0.66657525  1
  I  I102  1  0.83536879  0.50063472  -0.00022884  1
  I  I103  1  0.83029846  0.50070070  0.33355062  1
  I  I104  1  0.83022741  0.50587529  0.66663702  1
  I  I105  1  0.83195743  0.83737915  -0.00187542  1
  I  I106  1  0.83307265  0.83652300  0.33523087  1
  I  I107  1  0.83337385  0.83665229  0.66663658  1
  I  I108  1  -0.00067702  0.16629819  0.16852791  1
  I  I109  1  -0.00350190  0.16212874  0.50446982  1
  I  I110  1  -0.00373440  0.15959826  0.82696746  1
  I  I111  1  0.00020837  0.49939302  0.16749056  1
  I  I112  1  0.00344945  0.50678297  0.50058923  1
  I  I113  1  0.00038924  0.49987517  0.83275114  1
  I  I114  1  -0.00402589  0.83418156  0.16718778  1
  I  I115  1  -0.00078897  0.83303030  0.50244063  1
  I  I116  1  -0.00111381  0.83830523  0.82991657  1
  I  I117  1  0.33398868  0.16569157  0.16820971  1
  I  I118  1  0.33648462  0.16475542  0.50414391  1
  I  I119  1  0.33691613  0.16677937  0.82821203  1
  I  I120  1  0.33693668  0.50240984  0.16118618  1
  I  I121  1  0.33108546  0.50616169  0.50008570  1
  I  I122  1  0.33765467  0.49913992  0.83643699  1
  I  I123  1  0.33355323  0.83174712  0.16686989  1
  I  I124  1  0.33415065  0.83244655  0.50687665  1
  I  I125  1  0.33464939  0.83238276  0.82564013  1
  I  I126  1  0.66660318  0.16779126  0.16773564  1
  I  I127  1  0.66631098  0.15896776  0.50349355  1
  I  I128  1  0.66596051  0.16142366  0.82963527  1
  I  I129  1  0.66317110  0.49980602  0.16426182  1
  I  I130  1  0.66642417  0.50321125  0.49907649  1
  I  I131  1  0.66291815  0.50613127  0.83465939  1
  I  I132  1  0.66976708  0.83224238  0.16687917  1
  I  I133  1  0.66659852  0.83651930  0.50197586  1
  I  I134  1  0.66631899  0.83295693  0.83140674  1
