# generated using pymatgen
data_Cs27Sn13Pb14I81
_symmetry_space_group_name_H-M   'P 1'
_cell_length_a   19.05949228
_cell_length_b   19.06651902
_cell_length_c   19.06651894
_cell_angle_alpha   89.99808920
_cell_angle_beta   90.00037196
_cell_angle_gamma   90.00037163
_symmetry_Int_Tables_number   1
_chemical_formula_structural   Cs27Sn13Pb14I81
_chemical_formula_sum   'Cs27 Sn13 Pb14 I81'
_cell_volume   6928.73812457
_cell_formula_units_Z   1
loop_
 _symmetry_equiv_pos_site_id
 _symmetry_equiv_pos_as_xyz
  1  'x, y, z'
loop_
 _atom_site_type_symbol
 _atom_site_label
 _atom_site_symmetry_multiplicity
 _atom_site_fract_x
 _atom_site_fract_y
 _atom_site_fract_z
 _atom_site_occupancy
  Cs  Cs0  1  0.00144751  -0.00178773  -0.00452120  1
  Cs  Cs1  1  -0.00275624  0.00231109  0.33185697  1
  Cs  Cs2  1  0.00311277  0.00334468  0.67001129  1
  Cs  Cs3  1  0.00699953  0.33308314  -0.00025014  1
  Cs  Cs4  1  -0.00861405  0.33478190  0.33461158  1
  Cs  Cs5  1  0.00144736  0.32881229  0.66487895  1
  Cs  Cs6  1  -0.00861405  0.66794486  0.00144863  1
  Cs  Cs7  1  -0.00343133  0.66157339  0.32824042  1
  Cs  Cs8  1  -0.00275637  0.66518992  0.66897763  1
  Cs  Cs9  1  0.33350356  -0.00174030  -0.00017425  1
  Cs  Cs10  1  0.33287160  -0.00518371  0.33678088  1
  Cs  Cs11  1  0.33382786  -0.00195912  0.66470751  1
  Cs  Cs12  1  0.34193950  0.33631757  0.00298425  1
  Cs  Cs13  1  0.33277276  0.33638292  0.33538509  1
  Cs  Cs14  1  0.33350380  0.33315916  0.66492632  1
  Cs  Cs15  1  0.33277267  0.66871834  0.00304970  1
  Cs  Cs16  1  0.33547835  0.66939854  0.33606509  1
  Cs  Cs17  1  0.33287166  0.67011417  0.66148285  1
  Cs  Cs18  1  0.66646272  -0.00081349  0.00705172  1
  Cs  Cs19  1  0.67427888  0.00335364  0.32950487  1
  Cs  Cs20  1  0.66631250  -0.00152975  0.66513720  1
  Cs  Cs21  1  0.64317506  0.34051657  0.00718319  1
  Cs  Cs22  1  0.67978092  0.32941542  0.32937944  1
  Cs  Cs23  1  0.66646266  0.34038458  0.66585329  1
  Cs  Cs24  1  0.67978089  0.66271285  -0.00391799  1
  Cs  Cs25  1  0.67378899  0.66750445  0.33417092  1
  Cs  Cs26  1  0.67427890  0.66283838  0.67002060  1
  Sn  Sn27  1  0.16730941  0.50030105  0.83241182  1
  Sn  Sn28  1  0.16788690  0.83278837  0.83412514  1
  Sn  Sn29  1  0.16693901  0.16705812  0.83372472  1
  Sn  Sn30  1  0.49911277  0.83346592  0.83437347  1
  Sn  Sn31  1  0.49886453  0.83293143  0.16545358  1
  Sn  Sn32  1  0.16764248  0.83428768  0.16569754  1
  Sn  Sn33  1  0.16764251  0.49903083  0.50095430  1
  Sn  Sn34  1  0.83426770  0.83420112  0.50086782  1
  Sn  Sn35  1  0.83227084  0.16713080  0.83379752  1
  Sn  Sn36  1  0.16788692  0.16745856  0.49945509  1
  Sn  Sn37  1  0.49886456  0.49878691  0.49959806  1
  Sn  Sn38  1  0.49911278  0.16770681  0.50013254  1
  Sn  Sn39  1  0.16730941  0.16574518  0.16696771  1
  Pb  Pb40  1  0.50184797  0.83329108  0.49995780  1
  Pb  Pb41  1  0.49676284  0.50320106  0.83108535  1
  Pb  Pb42  1  0.49941154  0.50342126  0.17008793  1
  Pb  Pb43  1  0.16489405  0.83317905  0.49984581  1
  Pb  Pb44  1  0.83313886  0.49883605  0.16550271  1
  Pb  Pb45  1  0.83622624  0.16673801  0.16243757  1
  Pb  Pb46  1  0.83367074  0.16521584  0.50238516  1
  Pb  Pb47  1  0.16701960  0.50007945  0.16674616  1
  Pb  Pb48  1  0.83367082  0.83571852  0.83188250  1
  Pb  Pb49  1  0.49941918  0.16455267  0.83121937  1
  Pb  Pb50  1  0.83398854  0.50160526  0.50059070  1
  Pb  Pb51  1  0.83622622  0.49577088  0.83340471  1
  Pb  Pb52  1  0.83398867  0.83392404  0.16827195  1
  Pb  Pb53  1  0.49676285  0.16441866  0.16986775  1
  I  I54  1  0.17101136  -0.00033634  0.16359382  1
  I  I55  1  0.17059718  0.00266600  0.50360835  1
  I  I56  1  0.16551011  0.00008190  0.83277553  1
  I  I57  1  0.16356608  0.33039252  0.16278709  1
  I  I58  1  0.17095668  0.33255293  0.50487714  1
  I  I59  1  0.15659762  0.33268474  0.83122952  1
  I  I60  1  0.17074182  0.66982328  0.16431899  1
  I  I61  1  0.17038575  0.66422308  0.50399597  1
  I  I62  1  0.17484343  0.66720398  0.83113198  1
  I  I63  1  0.49836888  -0.00317890  0.16487667  1
  I  I64  1  0.49392170  0.00208944  0.50137657  1
  I  I65  1  0.49105518  -0.00281659  0.83250285  1
  I  I66  1  0.50047372  0.33354914  0.16280255  1
  I  I67  1  0.49250752  0.33294628  0.50326486  1
  I  I68  1  0.50293323  0.33358846  0.83507116  1
  I  I69  1  0.48764303  0.67100273  0.16615707  1
  I  I70  1  0.49375732  0.66450556  0.49962442  1
  I  I71  1  0.49263843  0.67070346  0.83384511  1
  I  I72  1  0.82893175  0.00005540  0.17038265  1
  I  I73  1  0.83210415  -0.00178611  0.50011253  1
  I  I74  1  0.84487649  0.00224484  0.83019813  1
  I  I75  1  0.83754063  0.33244391  0.17289471  1
  I  I76  1  0.83235395  0.33333335  0.49965154  1
  I  I77  1  0.84409198  0.32882128  0.82745823  1
  I  I78  1  0.83714819  0.66730886  0.16866536  1
  I  I79  1  0.83205224  0.66906803  0.50053414  1
  I  I80  1  0.83242314  0.66638960  0.83197291  1
  I  I81  1  0.15659781  0.16456288  -0.00064860  1
  I  I82  1  0.17484338  0.16446552  0.33387060  1
  I  I83  1  0.16550999  0.16610846  0.66674860  1
  I  I84  1  0.16356602  0.49612047  -0.00294079  1
  I  I85  1  0.17074179  0.49765234  0.33649000  1
  I  I86  1  0.17101123  0.49692712  0.66633032  1
  I  I87  1  0.17095699  0.83821048  -0.00078043  1
  I  I88  1  0.17038540  0.83732929  0.33088973  1
  I  I89  1  0.17059741  0.83694214  0.66933270  1
  I  I90  1  0.50293330  0.16840474  0.00025510  1
  I  I91  1  0.49263822  0.16717806  0.33737015  1
  I  I92  1  0.49105520  0.16583649  0.66385007  1
  I  I93  1  0.50047369  0.49613556  0.00021583  1
  I  I94  1  0.48764282  0.49949038  0.33766939  1
  I  I95  1  0.49836880  0.49821037  0.66348776  1
  I  I96  1  0.49250789  0.83659827  -0.00038702  1
  I  I97  1  0.49375716  0.83295798  0.33117220  1
  I  I98  1  0.49392162  0.83470945  0.66875609  1
  I  I99  1  0.84409147  0.16079054  -0.00451209  1
  I  I100  1  0.83242326  0.16530650  0.33305624  1
  I  I101  1  0.84487664  0.16353246  0.66891153  1
  I  I102  1  0.83754067  0.50622848  -0.00088943  1
  I  I103  1  0.83714828  0.50199888  0.33397555  1
  I  I104  1  0.82893198  0.50371535  0.66672211  1
  I  I105  1  0.83235343  0.83298542  0.00000003  1
  I  I106  1  0.83205267  0.83386726  0.33573470  1
  I  I107  1  0.83210367  0.83344564  0.66488058  1
  I  I108  1  0.00453803  0.15754622  0.17637929  1
  I  I109  1  0.00368095  0.17073913  0.49706120  1
  I  I110  1  0.00380234  0.16258183  0.82924872  1
  I  I111  1  0.00085979  0.50526510  0.17193182  1
  I  I112  1  0.00345490  0.49516487  0.50378601  1
  I  I113  1  0.00453801  0.50971292  0.82421284  1
  I  I114  1  0.00345493  0.83711941  0.16183082  1
  I  I115  1  -0.00223640  0.83446230  0.50112939  1
  I  I116  1  0.00368094  0.83039463  0.83740602  1
  I  I117  1  0.32937657  0.16527842  0.15700382  1
  I  I118  1  0.33139787  0.16952132  0.50383920  1
  I  I119  1  0.32906947  0.16875651  0.83542312  1
  I  I120  1  0.33287750  0.49657244  0.16323887  1
  I  I121  1  0.33194747  0.49625251  0.50518809  1
  I  I122  1  0.32937655  0.49033714  0.83194514  1
  I  I123  1  0.33194751  0.83852125  0.16291928  1
  I  I124  1  0.33290857  0.83298921  0.49965573  1
  I  I125  1  0.33139790  0.83717253  0.83618816  1
  I  I126  1  0.66653099  0.16463271  0.16875856  1
  I  I127  1  0.66405998  0.16867337  0.50378773  1
  I  I128  1  0.66884814  0.15875032  0.82541656  1
  I  I129  1  0.66598843  0.50261956  0.16928632  1
  I  I130  1  0.66398702  0.49677387  0.49846300  1
  I  I131  1  0.66653101  0.50209176  0.83129938  1
  I  I132  1  0.66398709  0.83179633  0.16344111  1
  I  I133  1  0.66903567  0.83419363  0.50085977  1
  I  I134  1  0.66406006  0.83712102  0.83533967  1
