# generated using pymatgen
data_Cs27Sn13Pb14I81
_symmetry_space_group_name_H-M   'P 1'
_cell_length_a   18.97007171
_cell_length_b   18.98583917
_cell_length_c   18.97617046
_cell_angle_alpha   90.00051077
_cell_angle_beta   89.99902643
_cell_angle_gamma   89.99984565
_symmetry_Int_Tables_number   1
_chemical_formula_structural   Cs27Sn13Pb14I81
_chemical_formula_sum   'Cs27 Sn13 Pb14 I81'
_cell_volume   6834.50936759
_cell_formula_units_Z   1
loop_
 _symmetry_equiv_pos_site_id
 _symmetry_equiv_pos_as_xyz
  1  'x, y, z'
loop_
 _atom_site_type_symbol
 _atom_site_label
 _atom_site_symmetry_multiplicity
 _atom_site_fract_x
 _atom_site_fract_y
 _atom_site_fract_z
 _atom_site_occupancy
  Cs  Cs0  1  -0.00201634  -0.00053090  -0.00111917  1
  Cs  Cs1  1  -0.00102192  -0.00284998  0.33309418  1
  Cs  Cs2  1  -0.00042735  0.00184262  0.66851487  1
  Cs  Cs3  1  0.00181606  0.32998306  0.00197968  1
  Cs  Cs4  1  -0.00477228  0.33850857  0.33489410  1
  Cs  Cs5  1  -0.00357494  0.32908129  0.66525054  1
  Cs  Cs6  1  -0.00589629  0.66945264  0.01021887  1
  Cs  Cs7  1  -0.00124345  0.66561770  0.32652179  1
  Cs  Cs8  1  0.00456055  0.66849467  0.66517861  1
  Cs  Cs9  1  0.33334348  0.00340161  0.00064280  1
  Cs  Cs10  1  0.33560357  0.00091787  0.33343860  1
  Cs  Cs11  1  0.33314717  -0.00202441  0.66569451  1
  Cs  Cs12  1  0.33353565  0.32947375  0.00141543  1
  Cs  Cs13  1  0.33421065  0.33303499  0.33229609  1
  Cs  Cs14  1  0.33280259  0.33555546  0.66688080  1
  Cs  Cs15  1  0.33399343  0.66595073  -0.00271455  1
  Cs  Cs16  1  0.33343483  0.66665905  0.33542881  1
  Cs  Cs17  1  0.33329733  0.66697161  0.66648232  1
  Cs  Cs18  1  0.66713108  -0.00097153  0.00132985  1
  Cs  Cs19  1  0.66348196  0.00241030  0.33390867  1
  Cs  Cs20  1  0.66759163  -0.00104292  0.66571021  1
  Cs  Cs21  1  0.66418106  0.33663836  -0.00242630  1
  Cs  Cs22  1  0.66830331  0.33097312  0.33381549  1
  Cs  Cs23  1  0.67183775  0.33516261  0.66814602  1
  Cs  Cs24  1  0.67086337  0.66543476  -0.00286239  1
  Cs  Cs25  1  0.66524766  0.66692242  0.33382340  1
  Cs  Cs26  1  0.66610343  0.66482643  0.67065413  1
  Sn  Sn27  1  0.16745939  0.83236543  0.83296917  1
  Sn  Sn28  1  0.49947807  0.50107536  0.16751227  1
  Sn  Sn29  1  0.49947599  0.83229938  0.16536804  1
  Sn  Sn30  1  0.16669952  0.50090788  0.83285185  1
  Sn  Sn31  1  0.83337573  0.16653037  0.16669015  1
  Sn  Sn32  1  0.16738630  0.16680453  0.49985410  1
  Sn  Sn33  1  0.49984297  0.16582570  0.83191496  1
  Sn  Sn34  1  0.49913053  0.83421792  0.83429228  1
  Sn  Sn35  1  0.16559721  0.83325169  0.50046763  1
  Sn  Sn36  1  0.83446776  0.83296585  0.50033756  1
  Sn  Sn37  1  0.49940559  0.49893434  0.49939547  1
  Sn  Sn38  1  0.16754329  0.49992280  0.50080688  1
  Sn  Sn39  1  0.49933148  0.16791799  0.50129193  1
  Pb  Pb40  1  0.83036029  0.16655259  0.83570376  1
  Pb  Pb41  1  0.83320096  0.16481315  0.49892248  1
  Pb  Pb42  1  0.16886405  0.50004518  0.16668613  1
  Pb  Pb43  1  0.83353538  0.50262953  0.50027578  1
  Pb  Pb44  1  0.83019399  0.49777214  0.16671442  1
  Pb  Pb45  1  0.49936285  0.83305751  0.50057705  1
  Pb  Pb46  1  0.16849347  0.16642295  0.83129176  1
  Pb  Pb47  1  0.83383741  0.83317730  0.83132506  1
  Pb  Pb48  1  0.49854531  0.50014313  0.83287509  1
  Pb  Pb49  1  0.83032177  0.83486796  0.16897411  1
  Pb  Pb50  1  0.50096513  0.16686342  0.16680419  1
  Pb  Pb51  1  0.16399113  0.16665553  0.16983106  1
  Pb  Pb52  1  0.83801909  0.50023870  0.83315682  1
  Pb  Pb53  1  0.16900704  0.83347338  0.16635832  1
  I  I54  1  0.17019724  -0.00003745  0.16783823  1
  I  I55  1  0.16751441  -0.00045283  0.50318243  1
  I  I56  1  0.16952504  -0.00302958  0.82837240  1
  I  I57  1  0.16986754  0.33337391  0.16476966  1
  I  I58  1  0.17257822  0.33378629  0.50333935  1
  I  I59  1  0.16920695  0.33577357  0.82920032  1
  I  I60  1  0.16536978  0.66679345  0.17137698  1
  I  I61  1  0.16837233  0.66662085  0.50454890  1
  I  I62  1  0.17483169  0.66774983  0.82284208  1
  I  I63  1  0.50169399  -0.00210989  0.16678804  1
  I  I64  1  0.49753460  0.00201593  0.49964572  1
  I  I65  1  0.49455328  -0.00092917  0.83343794  1
  I  I66  1  0.50142219  0.33558645  0.16814586  1
  I  I67  1  0.49271031  0.33324313  0.49863941  1
  I  I68  1  0.49836374  0.33131844  0.83348190  1
  I  I69  1  0.49909243  0.66670751  0.16873748  1
  I  I70  1  0.49731971  0.66438707  0.49845799  1
  I  I71  1  0.49764247  0.66929901  0.83346913  1
  I  I72  1  0.82955462  0.00224821  0.16858860  1
  I  I73  1  0.83608976  -0.00287512  0.49875207  1
  I  I74  1  0.83672840  -0.00012556  0.83310869  1
  I  I75  1  0.83092028  0.33032004  0.16990660  1
  I  I76  1  0.83512887  0.33330684  0.49790803  1
  I  I77  1  0.83151878  0.33321377  0.83280874  1
  I  I78  1  0.83402922  0.66678319  0.16762089  1
  I  I79  1  0.83558601  0.67039449  0.49939565  1
  I  I80  1  0.82578538  0.66694487  0.83277991  1
  I  I81  1  0.16784306  0.16702062  -0.00034617  1
  I  I82  1  0.17502351  0.16591348  0.33848704  1
  I  I83  1  0.16834162  0.16610202  0.66289294  1
  I  I84  1  0.16898559  0.50503951  -0.00319420  1
  I  I85  1  0.16892890  0.50053126  0.33707979  1
  I  I86  1  0.17419213  0.50193527  0.66496910  1
  I  I87  1  0.17001673  0.82867772  -0.00357001  1
  I  I88  1  0.16475828  0.83260243  0.33687354  1
  I  I89  1  0.16961519  0.83248855  0.66580197  1
  I  I90  1  0.50185191  0.16571520  -0.00226034  1
  I  I91  1  0.49792756  0.16632862  0.33624471  1
  I  I92  1  0.49621891  0.16540308  0.66556716  1
  I  I93  1  0.49872291  0.49994079  0.00180723  1
  I  I94  1  0.49455017  0.50031419  0.33472946  1
  I  I95  1  0.49720434  0.49966329  0.66374263  1
  I  I96  1  0.49478226  0.83458166  -0.00107200  1
  I  I97  1  0.50063949  0.83325235  0.33198623  1
  I  I98  1  0.49893269  0.83456304  0.66910880  1
  I  I99  1  0.83094643  0.16558862  0.00332957  1
  I  I100  1  0.82949736  0.16480098  0.33144392  1
  I  I101  1  0.83404613  0.16556013  0.66657020  1
  I  I102  1  0.83157275  0.50018641  0.00013282  1
  I  I103  1  0.83708567  0.50051389  0.33356366  1
  I  I104  1  0.82557556  0.49922018  0.66633788  1
  I  I105  1  0.83530848  0.83471933  0.00016163  1
  I  I106  1  0.83848555  0.83411354  0.33671118  1
  I  I107  1  0.83174466  0.83535027  0.66335385  1
  I  I108  1  -0.00343982  0.16568617  0.16809290  1
  I  I109  1  0.00312353  0.16891029  0.49809692  1
  I  I110  1  0.00033581  0.16662742  0.83295862  1
  I  I111  1  0.00000951  0.49880339  0.16701800  1
  I  I112  1  0.00383078  0.49652079  0.50473484  1
  I  I113  1  0.00605601  0.50530320  0.82497108  1
  I  I114  1  -0.00010252  0.83478815  0.16504989  1
  I  I115  1  0.00237182  0.83468391  0.50544998  1
  I  I116  1  0.00380422  0.82973819  0.82961082  1
  I  I117  1  0.33360451  0.16671280  0.16577501  1
  I  I118  1  0.33396847  0.16478893  0.50245162  1
  I  I119  1  0.33670393  0.16478603  0.83302485  1
  I  I120  1  0.33704385  0.50201409  0.16955303  1
  I  I121  1  0.33322084  0.50149714  0.49955505  1
  I  I122  1  0.33071972  0.50215432  0.83042549  1
  I  I123  1  0.33721732  0.83177099  0.16887197  1
  I  I124  1  0.33055947  0.83331364  0.50090802  1
  I  I125  1  0.33344047  0.83328183  0.83003596  1
  I  I126  1  0.66827804  0.16559662  0.16998613  1
  I  I127  1  0.66332114  0.16838933  0.50118478  1
  I  I128  1  0.66177304  0.16127183  0.82668236  1
  I  I129  1  0.66191115  0.50376233  0.17276551  1
  I  I130  1  0.66323203  0.49694713  0.49550155  1
  I  I131  1  0.66625235  0.49993192  0.83342523  1
  I  I132  1  0.66229878  0.83038647  0.16342932  1
  I  I133  1  0.66776541  0.83489491  0.49843893  1
  I  I134  1  0.66333938  0.83737886  0.83496087  1
