# generated using pymatgen
data_Cs27Sn13Pb14I81
_symmetry_space_group_name_H-M   'P 1'
_cell_length_a   18.97505291
_cell_length_b   18.98417151
_cell_length_c   18.97053314
_cell_angle_alpha   89.99835450
_cell_angle_beta   90.00220216
_cell_angle_gamma   90.00099734
_symmetry_Int_Tables_number   1
_chemical_formula_structural   Cs27Sn13Pb14I81
_chemical_formula_sum   'Cs27 Sn13 Pb14 I81'
_cell_volume   6833.67279153
_cell_formula_units_Z   1
loop_
 _symmetry_equiv_pos_site_id
 _symmetry_equiv_pos_as_xyz
  1  'x, y, z'
loop_
 _atom_site_type_symbol
 _atom_site_label
 _atom_site_symmetry_multiplicity
 _atom_site_fract_x
 _atom_site_fract_y
 _atom_site_fract_z
 _atom_site_occupancy
  Cs  Cs0  1  -0.00011906  -0.00162670  -0.00077533  1
  Cs  Cs1  1  -0.00010653  -0.00220928  0.33394845  1
  Cs  Cs2  1  0.00162893  0.00138293  0.66720171  1
  Cs  Cs3  1  0.00353859  0.33664162  0.00208610  1
  Cs  Cs4  1  0.00017930  0.33475098  0.33217070  1
  Cs  Cs5  1  -0.00064120  0.33098353  0.66581078  1
  Cs  Cs6  1  -0.00037899  0.66664459  -0.00015093  1
  Cs  Cs7  1  -0.00120426  0.66666046  0.33432880  1
  Cs  Cs8  1  -0.00014522  0.66768965  0.66403259  1
  Cs  Cs9  1  0.33474594  0.00095303  -0.00106959  1
  Cs  Cs10  1  0.34081424  -0.00175550  0.33278898  1
  Cs  Cs11  1  0.33006677  -0.00163022  0.66887294  1
  Cs  Cs12  1  0.32804902  0.33247255  0.00020474  1
  Cs  Cs13  1  0.33304825  0.33037760  0.33059239  1
  Cs  Cs14  1  0.33514391  0.33490434  0.66803219  1
  Cs  Cs15  1  0.33170312  0.66592721  -0.00174138  1
  Cs  Cs16  1  0.33637752  0.67119386  0.33791650  1
  Cs  Cs17  1  0.33553758  0.66639035  0.66492256  1
  Cs  Cs18  1  0.66480859  -0.00190456  -0.00104603  1
  Cs  Cs19  1  0.66197661  0.00220556  0.33271363  1
  Cs  Cs20  1  0.66929208  0.00734677  0.67020254  1
  Cs  Cs21  1  0.66909332  0.33714409  -0.00061986  1
  Cs  Cs22  1  0.66704113  0.33352359  0.33558049  1
  Cs  Cs23  1  0.66464017  0.33179836  0.66514337  1
  Cs  Cs24  1  0.66848881  0.66661605  0.00114738  1
  Cs  Cs25  1  0.66806577  0.66562709  0.33040175  1
  Cs  Cs26  1  0.66590276  0.66140938  0.66888438  1
  Sn  Sn27  1  0.49927296  0.16619933  0.83367283  1
  Sn  Sn28  1  0.49942850  0.83376046  0.83326675  1
  Sn  Sn29  1  0.16729948  0.16601732  0.83275178  1
  Sn  Sn30  1  0.16727961  0.83381401  0.83417548  1
  Sn  Sn31  1  0.83356710  0.16640688  0.16653430  1
  Sn  Sn32  1  0.50005586  0.50005227  0.16670935  1
  Sn  Sn33  1  0.16667671  0.16725635  0.50010090  1
  Sn  Sn34  1  0.83402802  0.83379668  0.16760878  1
  Sn  Sn35  1  0.83295174  0.83309072  0.49945240  1
  Sn  Sn36  1  0.83425030  0.50071161  0.49928497  1
  Sn  Sn37  1  0.16612858  0.49906251  0.49982348  1
  Sn  Sn38  1  0.16637056  0.83344438  0.16627097  1
  Sn  Sn39  1  0.83277032  0.49998122  0.16749967  1
  Pb  Pb40  1  0.83362082  0.49990424  0.83286200  1
  Pb  Pb41  1  0.49695159  0.16656643  0.50242740  1
  Pb  Pb42  1  0.50029843  0.83179089  0.16482561  1
  Pb  Pb43  1  0.16536210  0.83356796  0.50016285  1
  Pb  Pb44  1  0.83512976  0.16671936  0.49789579  1
  Pb  Pb45  1  0.50231420  0.16892380  0.16415650  1
  Pb  Pb46  1  0.50029021  0.49994974  0.49760940  1
  Pb  Pb47  1  0.49978032  0.49977955  0.83571510  1
  Pb  Pb48  1  0.50397314  0.83343715  0.50324026  1
  Pb  Pb49  1  0.16515095  0.16422198  0.16665916  1
  Pb  Pb50  1  0.83358016  0.83323291  0.83312539  1
  Pb  Pb51  1  0.16653806  0.50023398  0.83061802  1
  Pb  Pb52  1  0.16645306  0.50267291  0.16911247  1
  Pb  Pb53  1  0.83407324  0.16681174  0.83583960  1
  I  I54  1  0.16032894  -0.00360206  0.16685891  1
  I  I55  1  0.16364443  0.00206424  0.50249514  1
  I  I56  1  0.16996151  -0.00014796  0.83120946  1
  I  I57  1  0.16531068  0.33341968  0.16418609  1
  I  I58  1  0.16050251  0.33331342  0.50492297  1
  I  I59  1  0.17079183  0.33016906  0.83189719  1
  I  I60  1  0.16114853  0.67033828  0.16164849  1
  I  I61  1  0.16335226  0.66470479  0.49919817  1
  I  I62  1  0.16999436  0.67004551  0.83640843  1
  I  I63  1  0.50130944  -0.00001246  0.16704251  1
  I  I64  1  0.50046040  -0.00009443  0.49557041  1
  I  I65  1  0.49582515  -0.00020347  0.83479597  1
  I  I66  1  0.50538230  0.33667199  0.16517185  1
  I  I67  1  0.50446719  0.33332765  0.50281291  1
  I  I68  1  0.49549495  0.33025690  0.83460475  1
  I  I69  1  0.50614392  0.66415789  0.16434871  1
  I  I70  1  0.49442728  0.66671113  0.50327842  1
  I  I71  1  0.49608225  0.66952197  0.83435902  1
  I  I72  1  0.83892028  -0.00138904  0.16960186  1
  I  I73  1  0.83547584  -0.00248445  0.49605281  1
  I  I74  1  0.83286621  -0.00008085  0.83317976  1
  I  I75  1  0.82891307  0.33446761  0.16945925  1
  I  I76  1  0.83592127  0.33619805  0.49534925  1
  I  I77  1  0.83253812  0.33312700  0.83433946  1
  I  I78  1  0.83306764  0.66683377  0.17040615  1
  I  I79  1  0.84019800  0.66605513  0.49224724  1
  I  I80  1  0.83284419  0.66691206  0.83707750  1
  I  I81  1  0.16907770  0.16390990  -0.00281400  1
  I  I82  1  0.16216546  0.16994036  0.33567280  1
  I  I83  1  0.16865218  0.16435045  0.66748428  1
  I  I84  1  0.16589493  0.49808465  0.00037070  1
  I  I85  1  0.16405877  0.49522143  0.33677746  1
  I  I86  1  0.16022429  0.50109342  0.66269019  1
  I  I87  1  0.16393873  0.83783220  -0.00045398  1
  I  I88  1  0.16243658  0.83240437  0.33110607  1
  I  I89  1  0.16838053  0.83451044  0.66933115  1
  I  I90  1  0.49306946  0.16258533  -0.00361468  1
  I  I91  1  0.49923073  0.16783722  0.33299110  1
  I  I92  1  0.50117149  0.16347549  0.67068938  1
  I  I93  1  0.50802057  0.50086212  0.00342020  1
  I  I94  1  0.50284682  0.50127273  0.32982512  1
  I  I95  1  0.50123747  0.50006709  0.66669992  1
  I  I96  1  0.50041695  0.83645412  -0.00306190  1
  I  I97  1  0.49667389  0.83159424  0.33319396  1
  I  I98  1  0.49291566  0.83578244  0.67112412  1
  I  I99  1  0.83490887  0.16612595  0.00393759  1
  I  I100  1  0.83594259  0.16671566  0.32994861  1
  I  I101  1  0.83167081  0.16666148  0.66657975  1
  I  I102  1  0.82919042  0.50136462  0.00377679  1
  I  I103  1  0.83367491  0.50137726  0.33262129  1
  I  I104  1  0.83743189  0.50573991  0.66261678  1
  I  I105  1  0.83447633  0.83209442  0.00320568  1
  I  I106  1  0.84029765  0.83169553  0.33184477  1
  I  I107  1  0.83414894  0.82765955  0.66374796  1
  I  I108  1  -0.00289850  0.17126490  0.16474175  1
  I  I109  1  0.00299165  0.16754761  0.50695840  1
  I  I110  1  0.00360547  0.16156493  0.82999687  1
  I  I111  1  -0.00313516  0.49887508  0.16872881  1
  I  I112  1  -0.00099437  0.50036848  0.49441024  1
  I  I113  1  0.00026872  0.49996237  0.83857305  1
  I  I114  1  -0.00104467  0.83138445  0.16388636  1
  I  I115  1  -0.00266695  0.83158801  0.49976957  1
  I  I116  1  0.00305193  0.83800226  0.83471250  1
  I  I117  1  0.33321323  0.16744308  0.16848137  1
  I  I118  1  0.32863418  0.17210889  0.49981981  1
  I  I119  1  0.33224361  0.16189406  0.83002517  1
  I  I120  1  0.33521464  0.50175609  0.16657911  1
  I  I121  1  0.33044904  0.49652443  0.49954526  1
  I  I122  1  0.33310632  0.50070051  0.83429047  1
  I  I123  1  0.33083871  0.83141573  0.16455837  1
  I  I124  1  0.33329379  0.83265748  0.49709221  1
  I  I125  1  0.33197800  0.83744525  0.83911511  1
  I  I126  1  0.67042904  0.16164981  0.16580824  1
  I  I127  1  0.66688415  0.16740715  0.50157257  1
  I  I128  1  0.66409105  0.16166845  0.83596380  1
  I  I129  1  0.66901162  0.50204171  0.17073656  1
  I  I130  1  0.67022203  0.50472393  0.49789264  1
  I  I131  1  0.66656609  0.50015452  0.83008491  1
  I  I132  1  0.67002027  0.83375086  0.16848129  1
  I  I133  1  0.67182749  0.82651808  0.49335479  1
  I  I134  1  0.66412848  0.83766436  0.83360587  1
