# generated using pymatgen
data_Cs27Sn14Pb13I81
_symmetry_space_group_name_H-M   'P 1'
_cell_length_a   18.96231989
_cell_length_b   18.95637264
_cell_length_c   18.96338762
_cell_angle_alpha   90.00075003
_cell_angle_beta   89.99852450
_cell_angle_gamma   90.00167467
_symmetry_Int_Tables_number   1
_chemical_formula_structural   Cs27Sn14Pb13I81
_chemical_formula_sum   'Cs27 Sn14 Pb13 I81'
_cell_volume   6816.51866236
_cell_formula_units_Z   1
loop_
 _symmetry_equiv_pos_site_id
 _symmetry_equiv_pos_as_xyz
  1  'x, y, z'
loop_
 _atom_site_type_symbol
 _atom_site_label
 _atom_site_symmetry_multiplicity
 _atom_site_fract_x
 _atom_site_fract_y
 _atom_site_fract_z
 _atom_site_occupancy
  Cs  Cs0  1  0.00075572  0.00425432  -0.00101881  1
  Cs  Cs1  1  0.00385048  0.00274938  0.33063319  1
  Cs  Cs2  1  -0.00071293  -0.00671980  0.66949229  1
  Cs  Cs3  1  0.00091217  0.33252892  0.00041565  1
  Cs  Cs4  1  0.00072063  0.33157308  0.33189468  1
  Cs  Cs5  1  0.00195348  0.33581416  0.66730019  1
  Cs  Cs6  1  -0.00023888  0.66485550  -0.00162044  1
  Cs  Cs7  1  -0.00405186  0.66569409  0.33660688  1
  Cs  Cs8  1  0.00022577  0.66749885  0.66538154  1
  Cs  Cs9  1  0.33404471  -0.01120413  0.00142021  1
  Cs  Cs10  1  0.32625091  0.00176672  0.33136847  1
  Cs  Cs11  1  0.33379462  0.00404647  0.66743711  1
  Cs  Cs12  1  0.33239250  0.33514422  -0.00060920  1
  Cs  Cs13  1  0.33392175  0.33168836  0.33470288  1
  Cs  Cs14  1  0.33343419  0.33170279  0.66616595  1
  Cs  Cs15  1  0.33506856  0.66883007  0.00117217  1
  Cs  Cs16  1  0.33397317  0.66805475  0.33238796  1
  Cs  Cs17  1  0.32978968  0.66609085  0.66553467  1
  Cs  Cs18  1  0.66589173  0.00104755  -0.00766443  1
  Cs  Cs19  1  0.66754125  -0.00275975  0.33534073  1
  Cs  Cs20  1  0.66525041  0.00239813  0.66988757  1
  Cs  Cs21  1  0.66705151  0.33384778  0.00125161  1
  Cs  Cs22  1  0.66659860  0.33405771  0.33299877  1
  Cs  Cs23  1  0.66502959  0.33274080  0.66571331  1
  Cs  Cs24  1  0.66490371  0.66551445  0.00227271  1
  Cs  Cs25  1  0.66779982  0.66590078  0.33414456  1
  Cs  Cs26  1  0.66909008  0.66514783  0.66287444  1
  Sn  Sn27  1  0.83322149  0.49990754  0.83341472  1
  Sn  Sn28  1  0.50064552  0.50075355  0.49989705  1
  Sn  Sn29  1  0.16693942  0.16731474  0.83349507  1
  Sn  Sn30  1  0.83352702  0.16665806  0.50008496  1
  Sn  Sn31  1  0.83305466  0.83297548  0.16690235  1
  Sn  Sn32  1  0.49990887  0.49995221  0.83312099  1
  Sn  Sn33  1  0.83350727  0.50056861  0.16668666  1
  Sn  Sn34  1  0.16664626  0.50006060  0.16618679  1
  Sn  Sn35  1  0.83231065  0.83358150  0.49890346  1
  Sn  Sn36  1  0.16682825  0.49940667  0.83432468  1
  Sn  Sn37  1  0.83256749  0.49967628  0.49994058  1
  Sn  Sn38  1  0.50030703  0.16684558  0.16659121  1
  Sn  Sn39  1  0.50047173  0.83278138  0.49979806  1
  Sn  Sn40  1  0.49982596  0.49915724  0.16690768  1
  Pb  Pb41  1  0.16923658  0.16887555  0.16453140  1
  Pb  Pb42  1  0.16328542  0.83034660  0.16677167  1
  Pb  Pb43  1  0.83162626  0.16664865  0.16808620  1
  Pb  Pb44  1  0.16696522  0.49994488  0.49983898  1
  Pb  Pb45  1  0.50221699  0.83300511  0.16871771  1
  Pb  Pb46  1  0.83494126  0.16930502  0.83099481  1
  Pb  Pb47  1  0.16671536  0.83275403  0.83343602  1
  Pb  Pb48  1  0.50019703  0.83049510  0.83011286  1
  Pb  Pb49  1  0.16379599  0.16676593  0.50241928  1
  Pb  Pb50  1  0.83312021  0.83100136  0.83343750  1
  Pb  Pb51  1  0.49795464  0.16882016  0.83585950  1
  Pb  Pb52  1  0.16660869  0.83333813  0.49982809  1
  Pb  Pb53  1  0.50156771  0.16667302  0.49823218  1
  I  I54  1  0.16728434  0.00007015  0.16504686  1
  I  I55  1  0.16727337  0.00009222  0.50234124  1
  I  I56  1  0.16556406  0.00281401  0.83134333  1
  I  I57  1  0.16130724  0.33754395  0.16490795  1
  I  I58  1  0.16583449  0.33378130  0.49854870  1
  I  I59  1  0.16578898  0.33617738  0.83656336  1
  I  I60  1  0.17199851  0.66180596  0.16038479  1
  I  I61  1  0.16274276  0.66618286  0.50267571  1
  I  I62  1  0.16617459  0.66217240  0.83631867  1
  I  I63  1  0.50204429  0.00202398  0.16914410  1
  I  I64  1  0.50563181  -0.00259404  0.49778716  1
  I  I65  1  0.49743272  0.00011751  0.83394726  1
  I  I66  1  0.50235574  0.33669394  0.16877053  1
  I  I67  1  0.50433055  0.33690303  0.50124458  1
  I  I68  1  0.50244877  0.33790253  0.82846448  1
  I  I69  1  0.49850788  0.66280529  0.16459745  1
  I  I70  1  0.50763708  0.66451744  0.49881229  1
  I  I71  1  0.49811403  0.66148818  0.83932396  1
  I  I72  1  0.83101292  -0.00258272  0.17312840  1
  I  I73  1  0.82977203  -0.00113450  0.49497299  1
  I  I74  1  0.83659388  0.00019541  0.83317536  1
  I  I75  1  0.83445204  0.33715447  0.16752567  1
  I  I76  1  0.82980416  0.33541191  0.50012897  1
  I  I77  1  0.83135826  0.33816131  0.83423715  1
  I  I78  1  0.83204626  0.66412431  0.17093144  1
  I  I79  1  0.83000486  0.66526704  0.49937289  1
  I  I80  1  0.83584717  0.66188628  0.82930898  1
  I  I81  1  0.16444369  0.17204979  -0.00313114  1
  I  I82  1  0.16683553  0.16766534  0.33301214  1
  I  I83  1  0.16761574  0.17597835  0.67015579  1
  I  I84  1  0.16557929  0.49665255  -0.00024648  1
  I  I85  1  0.16609411  0.50081177  0.33025415  1
  I  I86  1  0.16621740  0.49706484  0.66980503  1
  I  I87  1  0.16565044  0.83405987  0.00023230  1
  I  I88  1  0.16818621  0.83180672  0.33312946  1
  I  I89  1  0.16379369  0.82995542  0.66665886  1
  I  I90  1  0.50203114  0.17387419  0.00358831  1
  I  I91  1  0.50089523  0.17491731  0.33059321  1
  I  I92  1  0.49972173  0.16736657  0.66671154  1
  I  I93  1  0.50250011  0.49540000  0.00052811  1
  I  I94  1  0.50282731  0.49994995  0.33320931  1
  I  I95  1  0.50287681  0.50416119  0.66626997  1
  I  I96  1  0.50084392  0.83294309  0.00026020  1
  I  I97  1  0.50368438  0.82607119  0.33662530  1
  I  I98  1  0.50730755  0.82869309  0.66202701  1
  I  I99  1  0.83348283  0.16651461  -0.00012205  1
  I  I100  1  0.83211422  0.17216624  0.33621068  1
  I  I101  1  0.83238121  0.16686300  0.66285586  1
  I  I102  1  0.83157812  0.50419395  0.00072046  1
  I  I103  1  0.83127761  0.50091890  0.33356771  1
  I  I104  1  0.83151688  0.49986148  0.66586911  1
  I  I105  1  0.83388726  0.82698216  0.00299198  1
  I  I106  1  0.82982236  0.82652642  0.33432554  1
  I  I107  1  0.83077181  0.83194856  0.66307692  1
  I  I108  1  0.00001558  0.16725560  0.16733591  1
  I  I109  1  -0.00451412  0.16898955  0.49809523  1
  I  I110  1  0.00275625  0.17435921  0.83352689  1
  I  I111  1  -0.00107804  0.50414600  0.16440905  1
  I  I112  1  -0.00353479  0.50138230  0.50027669  1
  I  I113  1  -0.00038237  0.49699790  0.83547528  1
  I  I114  1  -0.00479988  0.82823568  0.17376173  1
  I  I115  1  -0.00417478  0.83078204  0.49767130  1
  I  I116  1  -0.00027805  0.82972893  0.83029630  1
  I  I117  1  0.33697758  0.17361755  0.16864615  1
  I  I118  1  0.33348706  0.16708105  0.49978822  1
  I  I119  1  0.33029924  0.17523545  0.83212751  1
  I  I120  1  0.33422707  0.49550770  0.16430471  1
  I  I121  1  0.33691249  0.50410732  0.49999876  1
  I  I122  1  0.33351295  0.49671983  0.83548434  1
  I  I123  1  0.33358808  0.83280693  0.16809983  1
  I  I124  1  0.33678669  0.82602965  0.50064372  1
  I  I125  1  0.33355698  0.83036642  0.83195713  1
  I  I126  1  0.66397780  0.17509479  0.16734312  1
  I  I127  1  0.66971522  0.16875774  0.49988274  1
  I  I128  1  0.66653736  0.16777717  0.83317877  1
  I  I129  1  0.66688252  0.50007900  0.16509876  1
  I  I130  1  0.66741964  0.50063281  0.50031584  1
  I  I131  1  0.66678039  0.50128630  0.83482254  1
  I  I132  1  0.67012900  0.82568718  0.16979326  1
  I  I133  1  0.66794717  0.82997876  0.49606505  1
  I  I134  1  0.66671922  0.83310212  0.83541251  1
