# generated using pymatgen
data_Cs27Sn14Pb13I81
_symmetry_space_group_name_H-M   'P 1'
_cell_length_a   18.96542843
_cell_length_b   18.95236132
_cell_length_c   18.96483986
_cell_angle_alpha   90.00169820
_cell_angle_beta   89.99880819
_cell_angle_gamma   90.00022210
_symmetry_Int_Tables_number   1
_chemical_formula_structural   Cs27Sn14Pb13I81
_chemical_formula_sum   'Cs27 Sn14 Pb13 I81'
_cell_volume   6816.71544056
_cell_formula_units_Z   1
loop_
 _symmetry_equiv_pos_site_id
 _symmetry_equiv_pos_as_xyz
  1  'x, y, z'
loop_
 _atom_site_type_symbol
 _atom_site_label
 _atom_site_symmetry_multiplicity
 _atom_site_fract_x
 _atom_site_fract_y
 _atom_site_fract_z
 _atom_site_occupancy
  Cs  Cs0  1  0.00213422  -0.00072516  -0.00243118  1
  Cs  Cs1  1  -0.00006090  0.00098796  0.33438612  1
  Cs  Cs2  1  -0.00157560  -0.00089429  0.66786196  1
  Cs  Cs3  1  0.00180159  0.33273051  0.00082848  1
  Cs  Cs4  1  0.00110616  0.33207596  0.33250177  1
  Cs  Cs5  1  0.00079242  0.33144821  0.66768182  1
  Cs  Cs6  1  -0.00051453  0.66745033  -0.00053571  1
  Cs  Cs7  1  0.00027350  0.66779160  0.33680285  1
  Cs  Cs8  1  -0.00883004  0.67260336  0.66182437  1
  Cs  Cs9  1  0.33432092  -0.00108376  -0.00130058  1
  Cs  Cs10  1  0.33495892  -0.00101163  0.33429499  1
  Cs  Cs11  1  0.33389401  0.00121880  0.66680917  1
  Cs  Cs12  1  0.33187576  0.33281677  -0.00169562  1
  Cs  Cs13  1  0.33114743  0.33470525  0.33368395  1
  Cs  Cs14  1  0.33343950  0.33404803  0.66817142  1
  Cs  Cs15  1  0.33294534  0.66833472  0.00302755  1
  Cs  Cs16  1  0.33332733  0.66633222  0.33264425  1
  Cs  Cs17  1  0.33389074  0.66491764  0.66211339  1
  Cs  Cs18  1  0.66381242  0.00160889  0.00253992  1
  Cs  Cs19  1  0.66550131  0.00070421  0.33247907  1
  Cs  Cs20  1  0.66650088  -0.00052192  0.66535332  1
  Cs  Cs21  1  0.66507799  0.33232957  0.00000957  1
  Cs  Cs22  1  0.66818860  0.33212047  0.33056638  1
  Cs  Cs23  1  0.66618433  0.33931486  0.66949198  1
  Cs  Cs24  1  0.66765996  0.66618704  0.00089357  1
  Cs  Cs25  1  0.66550135  0.66714214  0.33162937  1
  Cs  Cs26  1  0.67267975  0.66082314  0.66853961  1
  Sn  Sn27  1  0.50076515  0.83257401  0.16662621  1
  Sn  Sn28  1  0.83294310  0.83284201  0.16657601  1
  Sn  Sn29  1  0.50019768  0.16664476  0.50002845  1
  Sn  Sn30  1  0.83355089  0.16671829  0.83280908  1
  Sn  Sn31  1  0.16704347  0.16698225  0.16646863  1
  Sn  Sn32  1  0.16629569  0.50025495  0.83360807  1
  Sn  Sn33  1  0.83378538  0.50077192  0.16660382  1
  Sn  Sn34  1  0.16640728  0.49928133  0.16583667  1
  Sn  Sn35  1  0.16605513  0.16721552  0.83333655  1
  Sn  Sn36  1  0.49996330  0.83286689  0.83300021  1
  Sn  Sn37  1  0.49985304  0.50043876  0.16659430  1
  Sn  Sn38  1  0.83298548  0.16678825  0.50107604  1
  Sn  Sn39  1  0.50018273  0.83354231  0.50048800  1
  Sn  Sn40  1  0.16679775  0.16669640  0.50023058  1
  Pb  Pb41  1  0.49984608  0.16541392  0.83097918  1
  Pb  Pb42  1  0.83105451  0.83562247  0.83562016  1
  Pb  Pb43  1  0.83340839  0.49739297  0.49754679  1
  Pb  Pb44  1  0.83080882  0.83552801  0.49773459  1
  Pb  Pb45  1  0.83590046  0.49785634  0.83566087  1
  Pb  Pb46  1  0.16831750  0.83277626  0.83308011  1
  Pb  Pb47  1  0.16876321  0.83574119  0.50023075  1
  Pb  Pb48  1  0.83535591  0.16644579  0.16640102  1
  Pb  Pb49  1  0.50011785  0.50003734  0.49784208  1
  Pb  Pb50  1  0.49742828  0.16655281  0.16846571  1
  Pb  Pb51  1  0.16641199  0.49826849  0.50035073  1
  Pb  Pb52  1  0.16661539  0.83282690  0.16669858  1
  Pb  Pb53  1  0.49765222  0.50254074  0.83573542  1
  I  I54  1  0.16655882  0.00295843  0.16663993  1
  I  I55  1  0.16497867  0.00481453  0.49881835  1
  I  I56  1  0.16457884  0.00359187  0.83423181  1
  I  I57  1  0.16667328  0.33341808  0.16683657  1
  I  I58  1  0.16980130  0.32909276  0.49850581  1
  I  I59  1  0.16442083  0.33175565  0.83511948  1
  I  I60  1  0.16746483  0.66326935  0.16131166  1
  I  I61  1  0.16961702  0.66666192  0.49869081  1
  I  I62  1  0.17047220  0.66345975  0.84266117  1
  I  I63  1  0.50331656  -0.00284890  0.16615386  1
  I  I64  1  0.49891004  0.00029478  0.49655577  1
  I  I65  1  0.49811406  -0.00264212  0.83919587  1
  I  I66  1  0.50206426  0.33583689  0.16876420  1
  I  I67  1  0.49872448  0.33005406  0.49796953  1
  I  I68  1  0.50127189  0.33346770  0.83364081  1
  I  I69  1  0.49813448  0.66725920  0.16863467  1
  I  I70  1  0.49897632  0.66982000  0.49980415  1
  I  I71  1  0.49809232  0.67055715  0.82954355  1
  I  I72  1  0.82850640  -0.00210740  0.16733351  1
  I  I73  1  0.83609133  0.00394030  0.50010665  1
  I  I74  1  0.84026909  0.00372469  0.83206007  1
  I  I75  1  0.83129499  0.33570897  0.16737695  1
  I  I76  1  0.83134524  0.32871953  0.50049340  1
  I  I77  1  0.83393739  0.32956406  0.83171542  1
  I  I78  1  0.83372374  0.66632194  0.16609468  1
  I  I79  1  0.83196982  0.66688750  0.50062655  1
  I  I80  1  0.83434723  0.66664029  0.83299216  1
  I  I81  1  0.16210647  0.17036156  -0.00022854  1
  I  I82  1  0.16674174  0.16996883  0.33327037  1
  I  I83  1  0.16680272  0.16992041  0.66696516  1
  I  I84  1  0.16738801  0.49091760  0.00150866  1
  I  I85  1  0.16739333  0.49567661  0.32978295  1
  I  I86  1  0.16928608  0.49416531  0.66980633  1
  I  I87  1  0.17020181  0.83961218  0.00016875  1
  I  I88  1  0.16908416  0.83462679  0.33313774  1
  I  I89  1  0.16966076  0.83323081  0.66670613  1
  I  I90  1  0.50009133  0.16499111  0.00010115  1
  I  I91  1  0.50053006  0.16179027  0.33650411  1
  I  I92  1  0.49552073  0.16046891  0.66290413  1
  I  I93  1  0.50138791  0.50404684  0.00418236  1
  I  I94  1  0.49676605  0.50428610  0.32920194  1
  I  I95  1  0.49741986  0.50072761  0.66693688  1
  I  I96  1  0.50265294  0.82978977  0.00136105  1
  I  I97  1  0.50319165  0.83442189  0.33257699  1
  I  I98  1  0.49645820  0.84150016  0.66590427  1
  I  I99  1  0.83852497  0.16644013  -0.00209869  1
  I  I100  1  0.83424568  0.16650514  0.33547571  1
  I  I101  1  0.83851983  0.16537862  0.66631388  1
  I  I102  1  0.83116272  0.50082571  0.00402020  1
  I  I103  1  0.83548634  0.50104605  0.32887152  1
  I  I104  1  0.83453449  0.50048988  0.66700348  1
  I  I105  1  0.82770077  0.83254153  0.00366432  1
  I  I106  1  0.82819154  0.83229739  0.32967732  1
  I  I107  1  0.83206891  0.83340784  0.66662559  1
  I  I108  1  0.00332242  0.16995908  0.17045686  1
  I  I109  1  0.00051435  0.16871715  0.49941562  1
  I  I110  1  0.00127126  0.16932796  0.82978767  1
  I  I111  1  0.00070487  0.49851773  0.16322498  1
  I  I112  1  0.00000620  0.49817999  0.49612084  1
  I  I113  1  0.00390521  0.49679933  0.84058799  1
  I  I114  1  -0.00259612  0.83185771  0.16634709  1
  I  I115  1  -0.00053617  0.83456721  0.49767440  1
  I  I116  1  -0.00032334  0.83331692  0.83623204  1
  I  I117  1  0.32935506  0.16969999  0.16596829  1
  I  I118  1  0.33298468  0.16243035  0.49872655  1
  I  I119  1  0.33028367  0.16856789  0.83338252  1
  I  I120  1  0.33290081  0.50003022  0.16406126  1
  I  I121  1  0.33332638  0.49773689  0.49690037  1
  I  I122  1  0.32983922  0.49177050  0.83971555  1
  I  I123  1  0.33659738  0.83143744  0.16736918  1
  I  I124  1  0.33739780  0.83892200  0.49597019  1
  I  I125  1  0.33664437  0.83668154  0.83744149  1
  I  I126  1  0.66659796  0.16896857  0.16714717  1
  I  I127  1  0.66652752  0.16169975  0.50238130  1
  I  I128  1  0.66896897  0.16386706  0.83015858  1
  I  I129  1  0.66650436  0.50462036  0.16869312  1
  I  I130  1  0.66662799  0.49604012  0.49807415  1
  I  I131  1  0.66677043  0.49849353  0.83497120  1
  I  I132  1  0.66538875  0.82701930  0.16699090  1
  I  I133  1  0.66271173  0.84093860  0.49974347  1
  I  I134  1  0.66298972  0.83610099  0.83243564  1
