# generated using pymatgen
data_Cs27Sn14Pb13I81
_symmetry_space_group_name_H-M   'P 1'
_cell_length_a   18.98612102
_cell_length_b   18.97519638
_cell_length_c   18.97024793
_cell_angle_alpha   90.00102907
_cell_angle_beta   90.00060339
_cell_angle_gamma   89.99981846
_symmetry_Int_Tables_number   1
_chemical_formula_structural   Cs27Sn14Pb13I81
_chemical_formula_sum   'Cs27 Sn14 Pb13 I81'
_cell_volume   6834.32347874
_cell_formula_units_Z   1
loop_
 _symmetry_equiv_pos_site_id
 _symmetry_equiv_pos_as_xyz
  1  'x, y, z'
loop_
 _atom_site_type_symbol
 _atom_site_label
 _atom_site_symmetry_multiplicity
 _atom_site_fract_x
 _atom_site_fract_y
 _atom_site_fract_z
 _atom_site_occupancy
  Cs  Cs0  1  0.00048934  -0.00006295  -0.00316515  1
  Cs  Cs1  1  0.00074255  -0.00161106  0.33347537  1
  Cs  Cs2  1  -0.00097847  0.00032137  0.66788628  1
  Cs  Cs3  1  0.00070525  0.33401729  -0.00192283  1
  Cs  Cs4  1  0.00093942  0.33566750  0.33368073  1
  Cs  Cs5  1  0.00021151  0.33572702  0.66757251  1
  Cs  Cs6  1  -0.00196569  0.66804394  0.00087460  1
  Cs  Cs7  1  -0.00129397  0.66706036  0.33226273  1
  Cs  Cs8  1  -0.00100439  0.66356207  0.66620006  1
  Cs  Cs9  1  0.33231819  -0.00190031  -0.00103061  1
  Cs  Cs10  1  0.33182265  0.00004157  0.33512568  1
  Cs  Cs11  1  0.33324615  0.00130049  0.66569280  1
  Cs  Cs12  1  0.33223960  0.33453746  0.00125312  1
  Cs  Cs13  1  0.33230960  0.33265484  0.33397349  1
  Cs  Cs14  1  0.33136180  0.33110800  0.66596320  1
  Cs  Cs15  1  0.34252265  0.66718462  0.00023499  1
  Cs  Cs16  1  0.33133718  0.66896624  0.33409944  1
  Cs  Cs17  1  0.33425688  0.66579128  0.66777666  1
  Cs  Cs18  1  0.66702685  -0.00029707  0.00378468  1
  Cs  Cs19  1  0.66861956  0.00171859  0.33317379  1
  Cs  Cs20  1  0.66844220  -0.00017741  0.66620934  1
  Cs  Cs21  1  0.66635212  0.33929311  0.01028127  1
  Cs  Cs22  1  0.66664821  0.33398792  0.32728709  1
  Cs  Cs23  1  0.66853443  0.33069427  0.66606933  1
  Cs  Cs24  1  0.65629121  0.65797004  0.00595408  1
  Cs  Cs25  1  0.66953038  0.66352892  0.33002294  1
  Cs  Cs26  1  0.66674879  0.66824536  0.66827563  1
  Sn  Sn27  1  0.16611226  0.16611966  0.50012613  1
  Sn  Sn28  1  0.16606588  0.83387721  0.83210532  1
  Sn  Sn29  1  0.50025999  0.83347146  0.50031683  1
  Sn  Sn30  1  0.50028132  0.16663302  0.50077633  1
  Sn  Sn31  1  0.16647951  0.16725379  0.16663207  1
  Sn  Sn32  1  0.83283269  0.16617070  0.83269947  1
  Sn  Sn33  1  0.16629520  0.83410092  0.50136023  1
  Sn  Sn34  1  0.50053864  0.16671281  0.83279732  1
  Sn  Sn35  1  0.16665424  0.16606737  0.83317635  1
  Sn  Sn36  1  0.16656341  0.49972731  0.16662475  1
  Sn  Sn37  1  0.83362707  0.16606232  0.50069018  1
  Sn  Sn38  1  0.50000825  0.49968277  0.50065392  1
  Sn  Sn39  1  0.83351136  0.83388400  0.83279706  1
  Sn  Sn40  1  0.83358629  0.83434142  0.50095148  1
  Pb  Pb41  1  0.83631421  0.49997137  0.16668244  1
  Pb  Pb42  1  0.50046510  0.83555445  0.83141709  1
  Pb  Pb43  1  0.49720401  0.49971794  0.16968712  1
  Pb  Pb44  1  0.50004467  0.83388153  0.16987076  1
  Pb  Pb45  1  0.83325959  0.50027567  0.83313512  1
  Pb  Pb46  1  0.83619991  0.16643804  0.16643638  1
  Pb  Pb47  1  0.16658097  0.83367627  0.16607159  1
  Pb  Pb48  1  0.83337122  0.83360616  0.16578877  1
  Pb  Pb49  1  0.16672795  0.50081697  0.83530230  1
  Pb  Pb50  1  0.49741297  0.16627873  0.16683648  1
  Pb  Pb51  1  0.16817982  0.50035074  0.49885801  1
  Pb  Pb52  1  0.83089916  0.49987913  0.50021968  1
  Pb  Pb53  1  0.49999010  0.49649918  0.83067118  1
  I  I54  1  0.16687723  0.00302864  0.16781393  1
  I  I55  1  0.17068701  0.00100229  0.49787683  1
  I  I56  1  0.16627596  0.00148359  0.83447590  1
  I  I57  1  0.16738866  0.33131809  0.16785169  1
  I  I58  1  0.16717711  0.32975334  0.50220469  1
  I  I59  1  0.16618109  0.32950140  0.83017373  1
  I  I60  1  0.16689613  0.66455290  0.16933213  1
  I  I61  1  0.16721178  0.67028371  0.50173862  1
  I  I62  1  0.16133188  0.67063104  0.82896583  1
  I  I63  1  0.49681511  0.00043591  0.16911653  1
  I  I64  1  0.49868739  0.00082719  0.50331281  1
  I  I65  1  0.49783065  0.00373214  0.82674592  1
  I  I66  1  0.50081332  0.33298264  0.16889873  1
  I  I67  1  0.49828342  0.33138319  0.50359706  1
  I  I68  1  0.49799256  0.32808667  0.82665070  1
  I  I69  1  0.49657387  0.66653243  0.16691149  1
  I  I70  1  0.49825763  0.66775742  0.49813696  1
  I  I71  1  0.49896618  0.66694009  0.83234197  1
  I  I72  1  0.83579051  0.00021663  0.16863753  1
  I  I73  1  0.83028669  0.00057005  0.50295139  1
  I  I74  1  0.83576218  0.00099356  0.82806690  1
  I  I75  1  0.83188690  0.33285235  0.16746549  1
  I  I76  1  0.83463991  0.32940685  0.50427595  1
  I  I77  1  0.83562875  0.32913505  0.82776645  1
  I  I78  1  0.83686366  0.66684354  0.16868134  1
  I  I79  1  0.83438835  0.67046318  0.50356737  1
  I  I80  1  0.84103848  0.67085346  0.82692904  1
  I  I81  1  0.16687538  0.16667075  -0.00147085  1
  I  I82  1  0.16768084  0.16649070  0.33515284  1
  I  I83  1  0.16781146  0.16256761  0.66624166  1
  I  I84  1  0.16631740  0.49341817  0.00312290  1
  I  I85  1  0.16898624  0.49437118  0.33101604  1
  I  I86  1  0.16794558  0.49740968  0.66664352  1
  I  I87  1  0.16088951  0.83763204  -0.00366098  1
  I  I88  1  0.16730302  0.83642067  0.33673062  1
  I  I89  1  0.16684874  0.84119071  0.66567089  1
  I  I90  1  0.49971135  0.16578729  -0.00331397  1
  I  I91  1  0.49998911  0.16645993  0.33746331  1
  I  I92  1  0.49504760  0.16676866  0.66509750  1
  I  I93  1  0.50001605  0.49966924  0.00014738  1
  I  I94  1  0.49973332  0.49694471  0.33746474  1
  I  I95  1  0.49748875  0.50254402  0.66275353  1
  I  I96  1  0.49864559  0.83425097  -0.00059334  1
  I  I97  1  0.49782336  0.83720621  0.33927243  1
  I  I98  1  0.49885761  0.83183973  0.66265242  1
  I  I99  1  0.83362474  0.16182502  -0.00379577  1
  I  I100  1  0.83213438  0.16269996  0.33706540  1
  I  I101  1  0.83670871  0.16328637  0.66587662  1
  I  I102  1  0.83285288  0.49941193  -0.00008427  1
  I  I103  1  0.83222310  0.50009063  0.33376782  1
  I  I104  1  0.83530354  0.49904612  0.66640295  1
  I  I105  1  0.84230179  0.84017534  -0.00430365  1
  I  I106  1  0.83408540  0.83744598  0.33731385  1
  I  I107  1  0.83440581  0.83820534  0.66554873  1
  I  I108  1  0.00426369  0.17010241  0.16805493  1
  I  I109  1  0.00059844  0.16081673  0.50104848  1
  I  I110  1  0.00060005  0.16330153  0.83147556  1
  I  I111  1  0.00409867  0.49474102  0.16927176  1
  I  I112  1  0.00002921  0.49971445  0.49721675  1
  I  I113  1  0.00019519  0.49505198  0.83358859  1
  I  I114  1  0.00027628  0.83216545  0.17290813  1
  I  I115  1  0.00040366  0.84031439  0.50218988  1
  I  I116  1  0.00064015  0.84198248  0.82558646  1
  I  I117  1  0.32925961  0.16991083  0.16797950  1
  I  I118  1  0.33290691  0.16484054  0.50145598  1
  I  I119  1  0.33226568  0.16380638  0.83032216  1
  I  I120  1  0.32997453  0.49433440  0.16683761  1
  I  I121  1  0.33611578  0.49893310  0.49847082  1
  I  I122  1  0.33332112  0.50047244  0.83387517  1
  I  I123  1  0.33291170  0.83313130  0.16666183  1
  I  I124  1  0.33262654  0.83620556  0.50225381  1
  I  I125  1  0.33059564  0.83763788  0.83001190  1
  I  I126  1  0.66676974  0.16731300  0.16723794  1
  I  I127  1  0.66662306  0.16405746  0.50693422  1
  I  I128  1  0.66727273  0.16231342  0.82298702  1
  I  I129  1  0.66624237  0.50083770  0.16684326  1
  I  I130  1  0.66292366  0.49920511  0.50013599  1
  I  I131  1  0.66651010  0.50122375  0.83327762  1
  I  I132  1  0.66674614  0.83241925  0.16629818  1
  I  I133  1  0.66711929  0.83650241  0.50353189  1
  I  I134  1  0.66964657  0.83884432  0.82717971  1
