# generated using pymatgen
data_AgSbTe2
_symmetry_space_group_name_H-M   'P 1'
_cell_length_a   12.22085887
_cell_length_b   12.21154994
_cell_length_c   12.21336028
_cell_angle_alpha   90.00823334
_cell_angle_beta   89.99331862
_cell_angle_gamma   89.99574334
_symmetry_Int_Tables_number   1
_chemical_formula_structural   AgSbTe2
_chemical_formula_sum   'Ag16 Sb16 Te32'
_cell_volume   1822.66845912
_cell_formula_units_Z   16
loop_
 _symmetry_equiv_pos_site_id
 _symmetry_equiv_pos_as_xyz
  1  'x, y, z'
loop_
 _atom_site_type_symbol
 _atom_site_label
 _atom_site_symmetry_multiplicity
 _atom_site_fract_x
 _atom_site_fract_y
 _atom_site_fract_z
 _atom_site_occupancy
  Ag  Ag0  1  0.25297255  0.75222758  0.50024164  1
  Ag  Ag1  1  0.24882468  0.24804653  0.50179587  1
  Ag  Ag2  1  0.24927248  -0.00184232  0.74625292  1
  Ag  Ag3  1  0.74739153  0.75162402  0.49403970  1
  Ag  Ag4  1  0.74969569  -0.00675810  0.25199102  1
  Ag  Ag5  1  0.50295294  0.75052011  0.25775324  1
  Ag  Ag6  1  0.49722602  0.75316989  0.74201765  1
  Ag  Ag7  1  0.75295752  0.50647019  0.24868448  1
  Ag  Ag8  1  0.00425575  0.25008318  0.75291804  1
  Ag  Ag9  1  0.00298993  0.75018927  0.74691051  1
  Ag  Ag10  1  0.00046299  0.49827072  0.00292679  1
  Ag  Ag11  1  -0.00266099  0.74663465  0.25265949  1
  Ag  Ag12  1  0.75463477  0.25162390  0.00126469  1
  Ag  Ag13  1  0.24534095  0.25144875  -0.00149673  1
  Ag  Ag14  1  0.49756204  -0.00712155  0.49963977  1
  Ag  Ag15  1  0.24718970  0.50380397  0.25022116  1
  Sb  Sb16  1  0.49903844  0.50016814  0.00285320  1
  Sb  Sb17  1  0.00034407  0.00286715  0.00022552  1
  Sb  Sb18  1  0.74978876  -0.00297388  0.74867658  1
  Sb  Sb19  1  0.75239570  0.74878909  0.00738802  1
  Sb  Sb20  1  0.75317297  0.50215523  0.75172857  1
  Sb  Sb21  1  0.00278713  -0.00252546  0.50005637  1
  Sb  Sb22  1  0.49577868  0.24632955  0.74783965  1
  Sb  Sb23  1  0.75165668  0.24855686  0.49938453  1
  Sb  Sb24  1  0.24774307  0.74871175  -0.00029875  1
  Sb  Sb25  1  0.24711120  0.50104357  0.74970418  1
  Sb  Sb26  1  0.49927930  0.24919730  0.25199207  1
  Sb  Sb27  1  0.00078061  0.50326091  0.49570063  1
  Sb  Sb28  1  0.25064261  -0.00391562  0.25305703  1
  Sb  Sb29  1  0.49938267  -0.00100626  0.00099466  1
  Sb  Sb30  1  0.00129769  0.25350562  0.24763615  1
  Sb  Sb31  1  0.49917667  0.50824036  0.49829987  1
  Te  Te32  1  0.24921277  0.25242976  0.25101195  1
  Te  Te33  1  0.24803839  0.24982233  0.74883095  1
  Te  Te34  1  0.24905710  0.74930616  0.25148371  1
  Te  Te35  1  0.24735319  0.75106256  0.74844196  1
  Te  Te36  1  0.75044773  0.25121028  0.24798084  1
  Te  Te37  1  0.75452043  0.24990948  0.75316058  1
  Te  Te38  1  0.75070669  0.74936955  0.25097090  1
  Te  Te39  1  0.75258349  0.75101970  0.74444645  1
  Te  Te40  1  0.25043178  0.00817027  -0.00549555  1
  Te  Te41  1  0.25300453  -0.00200455  0.50200652  1
  Te  Te42  1  0.24646015  0.49472614  0.00532912  1
  Te  Te43  1  0.25034010  0.50042994  0.49373428  1
  Te  Te44  1  0.74958980  0.00689687  0.00564841  1
  Te  Te45  1  0.74457472  -0.00281503  0.49615780  1
  Te  Te46  1  0.75394219  0.49533872  0.00534114  1
  Te  Te47  1  0.74948388  0.50339535  0.49213383  1
  Te  Te48  1  0.00151993  0.25225823  -0.00246314  1
  Te  Te49  1  0.00546481  0.25020618  0.50665314  1
  Te  Te50  1  -0.00047450  0.74507372  -0.00159388  1
  Te  Te51  1  0.00110360  0.74951225  0.50141997  1
  Te  Te52  1  0.49920533  0.25019188  -0.00082653  1
  Te  Te53  1  0.49438087  0.24200212  0.50125302  1
  Te  Te54  1  0.50043123  0.75017801  -0.00076853  1
  Te  Te55  1  0.49847977  0.75204194  0.49916811  1
  Te  Te56  1  -0.00505082  -0.00805035  0.24926166  1
  Te  Te57  1  0.00459007  -0.00295737  0.75046761  1
  Te  Te58  1  0.00052506  0.50347465  0.24643033  1
  Te  Te59  1  -0.00016381  0.50189763  0.75712017  1
  Te  Te60  1  0.50246613  -0.00569824  0.25360428  1
  Te  Te61  1  0.49604271  -0.00515820  0.74605824  1
  Te  Te62  1  0.49964500  0.50633970  0.24937792  1
  Te  Te63  1  0.50064285  0.50962522  0.75059620  1
