# generated using pymatgen
data_AgSbTe2
_symmetry_space_group_name_H-M   'P 1'
_cell_length_a   12.23683406
_cell_length_b   12.25095301
_cell_length_c   12.23580779
_cell_angle_alpha   90.00660064
_cell_angle_beta   89.98494504
_cell_angle_gamma   90.00522069
_symmetry_Int_Tables_number   1
_chemical_formula_structural   AgSbTe2
_chemical_formula_sum   'Ag16 Sb16 Te32'
_cell_volume   1834.30509006
_cell_formula_units_Z   16
loop_
 _symmetry_equiv_pos_site_id
 _symmetry_equiv_pos_as_xyz
  1  'x, y, z'
loop_
 _atom_site_type_symbol
 _atom_site_label
 _atom_site_symmetry_multiplicity
 _atom_site_fract_x
 _atom_site_fract_y
 _atom_site_fract_z
 _atom_site_occupancy
  Ag  Ag0  1  0.25849848  0.24877609  0.50680896  1
  Ag  Ag1  1  0.01623193  0.74936505  0.75446329  1
  Ag  Ag2  1  0.74406177  0.00136893  0.24853123  1
  Ag  Ag3  1  0.49365923  0.24836980  0.74446871  1
  Ag  Ag4  1  0.49555405  -0.00145078  -0.00729938  1
  Ag  Ag5  1  0.25554490  0.75090485  0.51538952  1
  Ag  Ag6  1  0.49818207  0.24511413  0.25533142  1
  Ag  Ag7  1  0.00431943  0.50686063  -0.00727246  1
  Ag  Ag8  1  0.48563927  0.75216142  0.74722365  1
  Ag  Ag9  1  0.49455793  0.49729850  0.50869539  1
  Ag  Ag10  1  0.49413655  0.00376525  0.50716669  1
  Ag  Ag11  1  0.25767457  -0.01446315  0.75094346  1
  Ag  Ag12  1  0.00591668  -0.00506939  -0.00487232  1
  Ag  Ag13  1  0.74365565  0.50238284  0.74949345  1
  Ag  Ag14  1  0.25472262  0.51537223  0.74803756  1
  Ag  Ag15  1  0.24895011  0.75342479  -0.01503099  1
  Sb  Sb16  1  0.00206805  0.24740302  0.24949269  1
  Sb  Sb17  1  0.74789111  0.24919303  -0.00220202  1
  Sb  Sb18  1  0.00457394  0.50301357  0.50585839  1
  Sb  Sb19  1  0.25280595  0.00084709  0.24907902  1
  Sb  Sb20  1  0.00308684  0.75189892  0.24649290  1
  Sb  Sb21  1  0.74379414  -0.00029736  0.74964056  1
  Sb  Sb22  1  0.75013618  0.75111065  -0.00411724  1
  Sb  Sb23  1  0.49793185  0.75235239  0.25143369  1
  Sb  Sb24  1  0.00456963  -0.00290979  0.50319925  1
  Sb  Sb25  1  0.74117995  0.24958593  0.50206451  1
  Sb  Sb26  1  0.25197059  0.49861286  0.25077230  1
  Sb  Sb27  1  0.25292008  0.24812179  -0.00619752  1
  Sb  Sb28  1  0.74435324  0.75018107  0.50435779  1
  Sb  Sb29  1  0.49748664  0.50145239  -0.00804920  1
  Sb  Sb30  1  0.00442541  0.25039662  0.75018594  1
  Sb  Sb31  1  0.74616621  0.49837835  0.24953535  1
  Te  Te32  1  0.25587449  0.25053094  0.25827056  1
  Te  Te33  1  0.25387765  0.24831978  0.74717238  1
  Te  Te34  1  0.24931528  0.74942588  0.24987680  1
  Te  Te35  1  0.25157519  0.75191554  0.75145145  1
  Te  Te36  1  0.74439528  0.24572844  0.25097924  1
  Te  Te37  1  0.74348712  0.25625186  0.74907578  1
  Te  Te38  1  0.75121434  0.75665259  0.25169403  1
  Te  Te39  1  0.74931403  0.74472892  0.74915702  1
  Te  Te40  1  0.25190114  -0.00143595  -0.00132337  1
  Te  Te41  1  0.25202008  -0.00235046  0.50122807  1
  Te  Te42  1  0.24776242  0.50295892  -0.00284412  1
  Te  Te43  1  0.25234795  0.50280447  0.50180363  1
  Te  Te44  1  0.74716709  0.00026748  0.00151398  1
  Te  Te45  1  0.74627951  0.00003963  0.49709818  1
  Te  Te46  1  0.75448850  0.49973922  -0.00416081  1
  Te  Te47  1  0.74670576  0.50012210  0.50416648  1
  Te  Te48  1  0.00018087  0.24588662  0.00140631  1
  Te  Te49  1  0.01036353  0.25015694  0.49836480  1
  Te  Te50  1  0.00216358  0.75224233  -0.00331714  1
  Te  Te51  1  0.00792673  0.74999745  0.50557761  1
  Te  Te52  1  0.49889377  0.24571468  -0.00141094  1
  Te  Te53  1  0.49791521  0.24772196  0.50425349  1
  Te  Te54  1  0.49642468  0.75322370  -0.00175806  1
  Te  Te55  1  0.49645394  0.75090753  0.50144234  1
  Te  Te56  1  -0.00605497  0.00049518  0.24409707  1
  Te  Te57  1  0.00016277  -0.00113664  0.75368786  1
  Te  Te58  1  -0.00243715  0.49945755  0.24027235  1
  Te  Te59  1  0.00336771  0.49988140  0.75290701  1
  Te  Te60  1  0.50181501  0.00208393  0.24980040  1
  Te  Te61  1  0.49986129  -0.00171724  0.74981074  1
  Te  Te62  1  0.50201300  0.49422397  0.25617780  1
  Te  Te63  1  0.49655915  0.50163957  0.74990449  1
