# generated using pymatgen
data_AgSbTe2
_symmetry_space_group_name_H-M   'P 1'
_cell_length_a   12.21368320
_cell_length_b   12.22157825
_cell_length_c   12.21489088
_cell_angle_alpha   89.99866472
_cell_angle_beta   89.99610366
_cell_angle_gamma   90.00388897
_symmetry_Int_Tables_number   1
_chemical_formula_structural   AgSbTe2
_chemical_formula_sum   'Ag16 Sb16 Te32'
_cell_volume   1823.32267549
_cell_formula_units_Z   16
loop_
 _symmetry_equiv_pos_site_id
 _symmetry_equiv_pos_as_xyz
  1  'x, y, z'
loop_
 _atom_site_type_symbol
 _atom_site_label
 _atom_site_symmetry_multiplicity
 _atom_site_fract_x
 _atom_site_fract_y
 _atom_site_fract_z
 _atom_site_occupancy
  Ag  Ag0  1  0.00149384  0.50120614  0.00074287  1
  Ag  Ag1  1  0.50237173  -0.00412972  0.00199279  1
  Ag  Ag2  1  0.75398859  0.25070854  0.00229772  1
  Ag  Ag3  1  0.75030417  0.74948088  0.00403516  1
  Ag  Ag4  1  0.75010048  -0.00302875  0.24369732  1
  Ag  Ag5  1  0.24668503  0.50356755  0.75197675  1
  Ag  Ag6  1  0.25041341  0.74547515  0.50014076  1
  Ag  Ag7  1  0.00061717  0.74568782  0.24435367  1
  Ag  Ag8  1  0.49931198  0.74575338  0.24509248  1
  Ag  Ag9  1  0.24959682  0.50497162  0.24789006  1
  Ag  Ag10  1  0.49843811  0.50446914  0.00315200  1
  Ag  Ag11  1  0.00168671  0.25346028  0.75628259  1
  Ag  Ag12  1  0.24798664  -0.00360044  0.75247422  1
  Ag  Ag13  1  -0.00117849  0.25396718  0.24337328  1
  Ag  Ag14  1  0.49422226  0.50408791  0.49696978  1
  Ag  Ag15  1  0.00463312  0.74641174  0.75503458  1
  Sb  Sb16  1  0.00187352  -0.00146146  0.50007150  1
  Sb  Sb17  1  0.24445299  0.25279837  -0.00010853  1
  Sb  Sb18  1  -0.00199502  -0.00175569  0.00045857  1
  Sb  Sb19  1  0.25006436  -0.00505198  0.24742752  1
  Sb  Sb20  1  0.50065868  0.25430291  0.24594057  1
  Sb  Sb21  1  0.24970401  0.25459991  0.49978112  1
  Sb  Sb22  1  0.75153535  0.25114092  0.49711537  1
  Sb  Sb23  1  0.49940145  0.25220433  0.75378778  1
  Sb  Sb24  1  0.49521250  0.74779717  0.75581614  1
  Sb  Sb25  1  0.74913161  0.74933439  0.49712896  1
  Sb  Sb26  1  0.75054672  -0.00128651  0.75596477  1
  Sb  Sb27  1  0.00453870  0.50241597  0.49874804  1
  Sb  Sb28  1  0.49740471  -0.00401929  0.49816424  1
  Sb  Sb29  1  0.75477057  0.50056196  0.75429615  1
  Sb  Sb30  1  0.24769105  0.74701283  -0.00032787  1
  Sb  Sb31  1  0.75188870  0.50263248  0.24536548  1
  Te  Te32  1  0.24286491  0.25406180  0.25121691  1
  Te  Te33  1  0.24326940  0.25209676  0.74960856  1
  Te  Te34  1  0.24826386  0.74832304  0.25248548  1
  Te  Te35  1  0.24652689  0.74694504  0.74774706  1
  Te  Te36  1  0.75526474  0.24592369  0.24627406  1
  Te  Te37  1  0.75820525  0.24854184  0.75517720  1
  Te  Te38  1  0.75187630  0.75212737  0.24682706  1
  Te  Te39  1  0.75880861  0.75185211  0.75443640  1
  Te  Te40  1  0.25792633  0.00208350  -0.00520224  1
  Te  Te41  1  0.25172622  -0.00708613  0.50670457  1
  Te  Te42  1  0.24978272  0.49883817  0.00046681  1
  Te  Te43  1  0.25375001  0.50377468  0.49968325  1
  Te  Te44  1  0.74649055  -0.00148470  0.00337694  1
  Te  Te45  1  0.74778602  0.00026206  0.49083262  1
  Te  Te46  1  0.74977821  0.50091864  -0.00017687  1
  Te  Te47  1  0.73807687  0.50045611  0.50162950  1
  Te  Te48  1  -0.00400841  0.25165006  0.00096167  1
  Te  Te49  1  -0.00093848  0.25026502  0.50004363  1
  Te  Te50  1  -0.00275541  0.74854648  0.00207868  1
  Te  Te51  1  0.00327224  0.74882293  0.49900824  1
  Te  Te52  1  0.50852586  0.25258140  0.00048603  1
  Te  Te53  1  0.50069067  0.25769322  0.50008662  1
  Te  Te54  1  0.50429861  0.74665391  0.00261673  1
  Te  Te55  1  0.49789898  0.74562190  0.49480117  1
  Te  Te56  1  -0.00114004  -0.00159577  0.24955181  1
  Te  Te57  1  0.00440494  -0.00075066  0.75034356  1
  Te  Te58  1  0.00227916  0.50244348  0.24832178  1
  Te  Te59  1  0.00420389  0.50128356  0.75171205  1
  Te  Te60  1  0.50062452  -0.00337874  0.24587444  1
  Te  Te61  1  0.49546334  0.00015268  0.75479416  1
  Te  Te62  1  0.49668782  0.50245271  0.24422451  1
  Te  Te63  1  0.49254397  0.50020911  0.75487181  1
