# generated using pymatgen
data_AgSbTe2
_symmetry_space_group_name_H-M   'P 1'
_cell_length_a   12.20115219
_cell_length_b   12.20560482
_cell_length_c   12.20607971
_cell_angle_alpha   90.00253452
_cell_angle_beta   89.99947220
_cell_angle_gamma   90.00284741
_symmetry_Int_Tables_number   1
_chemical_formula_structural   AgSbTe2
_chemical_formula_sum   'Ag16 Sb16 Te32'
_cell_volume   1817.75919326
_cell_formula_units_Z   16
loop_
 _symmetry_equiv_pos_site_id
 _symmetry_equiv_pos_as_xyz
  1  'x, y, z'
loop_
 _atom_site_type_symbol
 _atom_site_label
 _atom_site_symmetry_multiplicity
 _atom_site_fract_x
 _atom_site_fract_y
 _atom_site_fract_z
 _atom_site_occupancy
  Ag  Ag0  1  0.49522605  0.00501761  0.00042232  1
  Ag  Ag1  1  -0.00094254  0.75058648  0.75468077  1
  Ag  Ag2  1  0.25019159  0.24978520  0.49788416  1
  Ag  Ag3  1  0.00030696  0.74737476  0.24523116  1
  Ag  Ag4  1  0.49587356  0.25011528  0.24301817  1
  Ag  Ag5  1  0.49780324  0.49471292  0.00188868  1
  Ag  Ag6  1  0.00213200  0.50521986  0.00330290  1
  Ag  Ag7  1  0.25510183  0.24678035  0.00272759  1
  Ag  Ag8  1  -0.00070868  0.50268575  0.49725683  1
  Ag  Ag9  1  0.75298647  0.50129042  0.24846363  1
  Ag  Ag10  1  0.24960268  0.00242049  0.24325736  1
  Ag  Ag11  1  0.75428073  0.74872056  0.49932096  1
  Ag  Ag12  1  0.49838502  0.24880253  0.75727897  1
  Ag  Ag13  1  0.75053410  -0.00133029  0.75265018  1
  Ag  Ag14  1  0.00483378  -0.00443575  0.00061107  1
  Ag  Ag15  1  0.24423079  0.75292035  0.00188178  1
  Sb  Sb16  1  0.50006982  0.49767137  0.49744737  1
  Sb  Sb17  1  0.00082018  0.24837921  0.75375158  1
  Sb  Sb18  1  0.75103106  0.50195278  0.75159508  1
  Sb  Sb19  1  0.24725133  0.49733840  0.24609649  1
  Sb  Sb20  1  0.00108456  -0.00222503  0.49979631  1
  Sb  Sb21  1  0.74243822  0.25015983  0.00045028  1
  Sb  Sb22  1  0.49921734  0.74905053  0.24557367  1
  Sb  Sb23  1  0.75193532  0.25177122  0.49950716  1
  Sb  Sb24  1  0.24495372  0.74963243  0.49774451  1
  Sb  Sb25  1  0.49855734  0.00176684  0.50013469  1
  Sb  Sb26  1  0.24941020  0.49942189  0.75393785  1
  Sb  Sb27  1  0.00421008  0.25213527  0.24711851  1
  Sb  Sb28  1  0.24984312  0.00076037  0.75967838  1
  Sb  Sb29  1  0.75017652  -0.00133352  0.24781897  1
  Sb  Sb30  1  0.75941886  0.74989441  0.00065060  1
  Sb  Sb31  1  0.50180574  0.75178900  0.75504073  1
  Te  Te32  1  0.25362548  0.24649614  0.24710843  1
  Te  Te33  1  0.25540567  0.24905739  0.75085398  1
  Te  Te34  1  0.24582539  0.75560483  0.24640222  1
  Te  Te35  1  0.24361039  0.75080834  0.75440501  1
  Te  Te36  1  0.74270730  0.25424731  0.25227547  1
  Te  Te37  1  0.74382915  0.24360221  0.74755831  1
  Te  Te38  1  0.75465851  0.74723642  0.25471828  1
  Te  Te39  1  0.75388086  0.75351634  0.74515349  1
  Te  Te40  1  0.24961570  0.00092843  0.00167259  1
  Te  Te41  1  0.24943476  0.00494207  0.49122344  1
  Te  Te42  1  0.24887415  0.49957761  0.00132603  1
  Te  Te43  1  0.24464586  0.49574108  0.49871371  1
  Te  Te44  1  0.75036706  -0.00030296  -0.00324949  1
  Te  Te45  1  0.75073782  -0.00499387  0.50415294  1
  Te  Te46  1  0.75158041  0.50031441  0.00442331  1
  Te  Te47  1  0.75441622  0.50308722  0.49581918  1
  Te  Te48  1  0.00756554  0.25055785  -0.00093911  1
  Te  Te49  1  0.00566839  0.25610555  0.50061424  1
  Te  Te50  1  0.00141272  0.74880072  0.00073721  1
  Te  Te51  1  -0.00094285  0.74642328  0.49961466  1
  Te  Te52  1  0.49767068  0.25026446  0.00046136  1
  Te  Te53  1  0.49373224  0.25167450  0.49971217  1
  Te  Te54  1  0.49245248  0.74967704  -0.00067629  1
  Te  Te55  1  0.50533578  0.74856886  0.50085723  1
  Te  Te56  1  0.00124307  -0.00323641  0.24519944  1
  Te  Te57  1  -0.00431254  -0.00327657  0.75443808  1
  Te  Te58  1  -0.00300718  0.50232033  0.24725307  1
  Te  Te59  1  -0.00179141  0.50477931  0.75207005  1
  Te  Te60  1  0.49867188  0.00379972  0.24425124  1
  Te  Te61  1  0.50417475  0.00327699  0.75549147  1
  Te  Te62  1  0.50471248  0.49699892  0.24548411  1
  Te  Te63  1  0.50213826  0.49457097  0.75665542  1
