# generated using pymatgen
data_AgSbTe2
_symmetry_space_group_name_H-M   'P 1'
_cell_length_a   12.22988132
_cell_length_b   12.22304423
_cell_length_c   12.22584377
_cell_angle_alpha   90.00697004
_cell_angle_beta   90.00422459
_cell_angle_gamma   90.00053424
_symmetry_Int_Tables_number   1
_chemical_formula_structural   AgSbTe2
_chemical_formula_sum   'Ag16 Sb16 Te32'
_cell_volume   1827.59711168
_cell_formula_units_Z   16
loop_
 _symmetry_equiv_pos_site_id
 _symmetry_equiv_pos_as_xyz
  1  'x, y, z'
loop_
 _atom_site_type_symbol
 _atom_site_label
 _atom_site_symmetry_multiplicity
 _atom_site_fract_x
 _atom_site_fract_y
 _atom_site_fract_z
 _atom_site_occupancy
  Ag  Ag0  1  0.25142854  0.24740196  -0.00300711  1
  Ag  Ag1  1  0.00140477  0.75095769  0.24836562  1
  Ag  Ag2  1  0.74857927  0.49255316  0.75436443  1
  Ag  Ag3  1  0.49927667  0.76429540  0.74983903  1
  Ag  Ag4  1  0.25437282  0.75431730  0.50073685  1
  Ag  Ag5  1  0.49991215  0.00603700  -0.01318414  1
  Ag  Ag6  1  -0.00405012  0.24876571  0.75889427  1
  Ag  Ag7  1  0.49801870  0.75568281  0.25048658  1
  Ag  Ag8  1  0.49830681  -0.00153776  0.51336958  1
  Ag  Ag9  1  0.00001401  0.24974948  0.24106316  1
  Ag  Ag10  1  0.73605055  0.00608928  0.75283349  1
  Ag  Ag11  1  0.74909328  0.24897285  -0.00601220  1
  Ag  Ag12  1  0.50004831  0.24386077  0.24190319  1
  Ag  Ag13  1  -0.00169596  0.49331660  -0.00091436  1
  Ag  Ag14  1  0.26382186  0.00262905  0.75103780  1
  Ag  Ag15  1  0.50361340  0.23660426  0.75772830  1
  Sb  Sb16  1  0.74825547  0.24745507  0.50765379  1
  Sb  Sb17  1  0.00010910  0.00693212  -0.00190493  1
  Sb  Sb18  1  0.49984572  0.50173905  0.50199127  1
  Sb  Sb19  1  0.25172033  0.49659956  0.75288715  1
  Sb  Sb20  1  0.25378050  0.00103416  0.24796378  1
  Sb  Sb21  1  0.74616756  0.75287683  0.50089394  1
  Sb  Sb22  1  0.25210571  0.75405811  -0.00057558  1
  Sb  Sb23  1  0.00212021  -0.00063209  0.50226691  1
  Sb  Sb24  1  0.50241096  0.49289663  -0.00244749  1
  Sb  Sb25  1  0.74618006  0.00290126  0.24601617  1
  Sb  Sb26  1  0.75088408  0.49690339  0.24479894  1
  Sb  Sb27  1  0.24966937  0.49944027  0.24700023  1
  Sb  Sb28  1  -0.00015361  0.49949941  0.50131972  1
  Sb  Sb29  1  0.00040751  0.75062392  0.75215598  1
  Sb  Sb30  1  0.74849568  0.75228739  -0.00177989  1
  Sb  Sb31  1  0.25290878  0.24575988  0.50306217  1
  Te  Te32  1  0.25061651  0.24944045  0.24721672  1
  Te  Te33  1  0.25086786  0.24794340  0.75117446  1
  Te  Te34  1  0.25306684  0.75037897  0.25116587  1
  Te  Te35  1  0.25330606  0.75320261  0.74916616  1
  Te  Te36  1  0.74963464  0.25071755  0.24382590  1
  Te  Te37  1  0.74935788  0.24841999  0.75147568  1
  Te  Te38  1  0.74867208  0.74918456  0.25000636  1
  Te  Te39  1  0.74667684  0.75216296  0.75084063  1
  Te  Te40  1  0.25421314  0.00516388  -0.00476914  1
  Te  Te41  1  0.25434760  -0.00410500  0.50585658  1
  Te  Te42  1  0.24213176  0.49058814  -0.00081611  1
  Te  Te43  1  0.24993606  0.51137008  0.50103696  1
  Te  Te44  1  0.74552795  0.00462212  -0.00486178  1
  Te  Te45  1  0.74266008  -0.00001491  0.50912076  1
  Te  Te46  1  0.75404368  0.49403184  -0.00517413  1
  Te  Te47  1  0.75022947  0.50078894  0.51204970  1
  Te  Te48  1  -0.00037790  0.24910597  0.00030648  1
  Te  Te49  1  0.00115857  0.25000787  0.49627105  1
  Te  Te50  1  0.00029816  0.74449422  0.00647845  1
  Te  Te51  1  0.00562846  0.75034051  0.49210156  1
  Te  Te52  1  0.49987517  0.24959398  0.00029666  1
  Te  Te53  1  0.49855805  0.24599937  0.49750470  1
  Te  Te54  1  0.49940907  0.75404606  0.00145856  1
  Te  Te55  1  0.49759048  0.75208323  0.49848552  1
  Te  Te56  1  -0.00095469  0.00088639  0.25019599  1
  Te  Te57  1  -0.00030449  0.00424665  0.74991918  1
  Te  Te58  1  -0.00068310  0.49715320  0.24666042  1
  Te  Te59  1  -0.00317442  0.49669982  0.75247129  1
  Te  Te60  1  0.50025962  0.00036178  0.24934440  1
  Te  Te61  1  0.49952253  0.00023298  0.75167021  1
  Te  Te62  1  0.50094261  0.50103135  0.25005608  1
  Te  Te63  1  0.50386092  0.49975053  0.75065821  1
