# generated using pymatgen
data_AgSbTe2
_symmetry_space_group_name_H-M   'P 1'
_cell_length_a   12.21236754
_cell_length_b   12.21735267
_cell_length_c   12.21830341
_cell_angle_alpha   90.00237322
_cell_angle_beta   89.99995155
_cell_angle_gamma   89.99318261
_symmetry_Int_Tables_number   1
_chemical_formula_structural   AgSbTe2
_chemical_formula_sum   'Ag16 Sb16 Te32'
_cell_volume   1823.00507856
_cell_formula_units_Z   16
loop_
 _symmetry_equiv_pos_site_id
 _symmetry_equiv_pos_as_xyz
  1  'x, y, z'
loop_
 _atom_site_type_symbol
 _atom_site_label
 _atom_site_symmetry_multiplicity
 _atom_site_fract_x
 _atom_site_fract_y
 _atom_site_fract_z
 _atom_site_occupancy
  Ag  Ag0  1  0.50218630  0.50367561  0.49880390  1
  Ag  Ag1  1  0.50002798  0.74464686  0.74181801  1
  Ag  Ag2  1  0.00088052  -0.00223801  0.49742865  1
  Ag  Ag3  1  0.74461435  0.74718324  0.49963762  1
  Ag  Ag4  1  0.74251927  0.50049673  0.74465951  1
  Ag  Ag5  1  0.49981799  0.25755977  0.25585135  1
  Ag  Ag6  1  0.25118499  -0.00175579  0.74672968  1
  Ag  Ag7  1  0.49996989  0.50053306  0.00166815  1
  Ag  Ag8  1  -0.00013208  0.24866625  0.25366332  1
  Ag  Ag9  1  0.49738972  0.74233316  0.25873135  1
  Ag  Ag10  1  0.74554182  0.25278504  0.49957413  1
  Ag  Ag11  1  0.50157633  0.25567265  0.74443065  1
  Ag  Ag12  1  0.25639363  0.50273867  0.25298330  1
  Ag  Ag13  1  0.00191658  -0.00060740  0.00274031  1
  Ag  Ag14  1  0.00193827  0.75127046  0.25524147  1
  Ag  Ag15  1  0.25481756  0.74923723  0.49722010  1
  Sb  Sb16  1  -0.00198142  0.24858109  0.74601070  1
  Sb  Sb17  1  0.25850828  0.50162228  0.74656384  1
  Sb  Sb18  1  0.25022423  0.25006080  0.00092166  1
  Sb  Sb19  1  0.74865143  0.25219041  0.00041374  1
  Sb  Sb20  1  0.74123100  0.50031281  0.25545433  1
  Sb  Sb21  1  0.74884479  0.74768835  0.00035136  1
  Sb  Sb22  1  0.25416346  0.25088992  0.49839216  1
  Sb  Sb23  1  0.75218265  -0.00023541  0.25312511  1
  Sb  Sb24  1  0.25040646  0.74965170  0.00293785  1
  Sb  Sb25  1  0.24697629  -0.00282151  0.25312431  1
  Sb  Sb26  1  0.49810238  -0.00059816  -0.00038205  1
  Sb  Sb27  1  -0.00049051  0.50054029  0.00451125  1
  Sb  Sb28  1  0.74770890  -0.00118131  0.74608110  1
  Sb  Sb29  1  0.49819110  -0.00401939  0.50027945  1
  Sb  Sb30  1  0.00076863  0.75103717  0.74413455  1
  Sb  Sb31  1  -0.00213349  0.50106811  0.49716284  1
  Te  Te32  1  0.25177418  0.25342845  0.25138324  1
  Te  Te33  1  0.25548080  0.24736945  0.74919085  1
  Te  Te34  1  0.25147999  0.74823566  0.25343724  1
  Te  Te35  1  0.25306991  0.75134621  0.74503878  1
  Te  Te36  1  0.74884432  0.25028821  0.25635838  1
  Te  Te37  1  0.74576257  0.25249803  0.74412232  1
  Te  Te38  1  0.74952662  0.74961033  0.25644854  1
  Te  Te39  1  0.74595192  0.74779434  0.74424418  1
  Te  Te40  1  0.24434869  -0.00030709  -0.00737613  1
  Te  Te41  1  0.24476019  -0.00501557  0.50363604  1
  Te  Te42  1  0.25653457  0.50013688  0.00557849  1
  Te  Te43  1  0.25461903  0.50519806  0.49634223  1
  Te  Te44  1  0.75940883  -0.00012724  -0.00151205  1
  Te  Te45  1  0.75732753  -0.00071759  0.50099260  1
  Te  Te46  1  0.74311950  0.50027719  -0.00969682  1
  Te  Te47  1  0.74677478  0.50072240  0.50348279  1
  Te  Te48  1  -0.00079585  0.24616958  0.00772761  1
  Te  Te49  1  -0.00318521  0.24826128  0.49519369  1
  Te  Te50  1  -0.00065178  0.75349171  0.00820349  1
  Te  Te51  1  -0.00069583  0.75107857  0.49626919  1
  Te  Te52  1  0.50101064  0.25335200  0.00167630  1
  Te  Te53  1  0.50197453  0.24901858  0.49837433  1
  Te  Te54  1  0.50073283  0.74704813  0.00112307  1
  Te  Te55  1  0.50106856  0.75238226  0.49858164  1
  Te  Te56  1  0.00123537  -0.00001574  0.25215878  1
  Te  Te57  1  0.00492227  0.00060751  0.74864887  1
  Te  Te58  1  0.00586914  0.49993281  0.24838112  1
  Te  Te59  1  -0.00601607  0.49907927  0.75257209  1
  Te  Te60  1  0.49866761  0.00127655  0.24725060  1
  Te  Te61  1  0.49570666  -0.00024225  0.75211046  1
  Te  Te62  1  0.49966454  0.50030087  0.25278299  1
  Te  Te63  1  0.49971187  0.50053649  0.74701139  1
