# generated using pymatgen
data_AgSbTe2
_symmetry_space_group_name_H-M   'P 1'
_cell_length_a   12.26462311
_cell_length_b   12.26472244
_cell_length_c   12.27468903
_cell_angle_alpha   90.00449607
_cell_angle_beta   90.00020910
_cell_angle_gamma   90.00605100
_symmetry_Int_Tables_number   1
_chemical_formula_structural   AgSbTe2
_chemical_formula_sum   'Ag16 Sb16 Te32'
_cell_volume   1846.38569143
_cell_formula_units_Z   16
loop_
 _symmetry_equiv_pos_site_id
 _symmetry_equiv_pos_as_xyz
  1  'x, y, z'
loop_
 _atom_site_type_symbol
 _atom_site_label
 _atom_site_symmetry_multiplicity
 _atom_site_fract_x
 _atom_site_fract_y
 _atom_site_fract_z
 _atom_site_occupancy
  Ag  Ag0  1  0.01038988  0.49883429  0.50938143  1
  Ag  Ag1  1  0.00758000  0.75225565  0.74734135  1
  Ag  Ag2  1  0.49097097  0.24629562  0.25080596  1
  Ag  Ag3  1  0.25305893  0.00155165  0.74832412  1
  Ag  Ag4  1  0.49236957  0.49637973  -0.01390605  1
  Ag  Ag5  1  0.01663072  0.00145525  0.50794794  1
  Ag  Ag6  1  0.25826209  0.50012647  0.74460771  1
  Ag  Ag7  1  0.25644428  0.24124881  -0.00223901  1
  Ag  Ag8  1  0.01593454  0.00101386  -0.00802914  1
  Ag  Ag9  1  0.25512058  0.24336999  0.50216471  1
  Ag  Ag10  1  0.74058682  0.50313924  0.74827129  1
  Ag  Ag11  1  0.25439335  0.00744383  0.25178277  1
  Ag  Ag12  1  0.48977711  0.49588562  0.51401708  1
  Ag  Ag13  1  0.49340665  0.74557345  0.74923240  1
  Ag  Ag14  1  0.48508903  0.00581305  -0.00615478  1
  Ag  Ag15  1  0.48343802  0.00600595  0.50622682  1
  Sb  Sb16  1  0.01025163  0.24888935  0.25108072  1
  Sb  Sb17  1  0.49384226  0.25611616  0.74838841  1
  Sb  Sb18  1  0.74948487  0.74751592  -0.00361959  1
  Sb  Sb19  1  0.74178567  0.25131119  0.50197304  1
  Sb  Sb20  1  0.49612926  0.75375259  0.25204764  1
  Sb  Sb21  1  0.25065973  0.76214976  -0.00542222  1
  Sb  Sb22  1  0.74943853  0.74811183  0.50354663  1
  Sb  Sb23  1  0.74768151  0.49726236  0.25132842  1
  Sb  Sb24  1  0.25081012  0.75868152  0.50516202  1
  Sb  Sb25  1  0.74061905  0.25159864  -0.00172166  1
  Sb  Sb26  1  0.25192609  0.49162575  0.25735256  1
  Sb  Sb27  1  0.00505044  0.75193751  0.25314138  1
  Sb  Sb28  1  0.74488575  0.00294564  0.25062389  1
  Sb  Sb29  1  0.00431748  0.24358931  0.74843057  1
  Sb  Sb30  1  0.01396782  0.49871809  -0.01496011  1
  Sb  Sb31  1  0.74567691  -0.00167994  0.74960242  1
  Te  Te32  1  0.25734283  0.24304746  0.25125396  1
  Te  Te33  1  0.25044269  0.24708052  0.74857074  1
  Te  Te34  1  0.25059146  0.76667845  0.24766516  1
  Te  Te35  1  0.25184401  0.74836883  0.74967890  1
  Te  Te36  1  0.73317865  0.25033853  0.24935392  1
  Te  Te37  1  0.75453850  0.26503640  0.74993307  1
  Te  Te38  1  0.74994019  0.74950378  0.24868620  1
  Te  Te39  1  0.74760131  0.73984656  0.74908569  1
  Te  Te40  1  0.25324204  0.00452232  -0.00768283  1
  Te  Te41  1  0.25124816  0.00295645  0.50773812  1
  Te  Te42  1  0.25241573  0.48925196  -0.00229035  1
  Te  Te43  1  0.25292183  0.49303823  0.49997192  1
  Te  Te44  1  0.74835870  0.00296157  -0.00079467  1
  Te  Te45  1  0.75147845  0.00282007  0.50079610  1
  Te  Te46  1  0.74050625  0.49731541  -0.00653538  1
  Te  Te47  1  0.74832882  0.49759152  0.50639165  1
  Te  Te48  1  0.01018634  0.24264310  0.00292853  1
  Te  Te49  1  0.00925554  0.24744547  0.49819720  1
  Te  Te50  1  -0.00079899  0.75730829  -0.00839856  1
  Te  Te51  1  -0.00047909  0.75128107  0.50735576  1
  Te  Te52  1  0.49405395  0.24671115  0.00217209  1
  Te  Te53  1  0.49432652  0.24838334  0.49911348  1
  Te  Te54  1  0.49952143  0.74942632  -0.00638712  1
  Te  Te55  1  0.50007914  0.74825014  0.50576000  1
  Te  Te56  1  0.00567969  -0.00204127  0.25337228  1
  Te  Te57  1  -0.00350928  -0.00320796  0.74674934  1
  Te  Te58  1  -0.00101291  0.50201900  0.26437836  1
  Te  Te59  1  0.00788563  0.50709173  0.74688173  1
  Te  Te60  1  0.49616552  0.00001932  0.25086492  1
  Te  Te61  1  0.50347374  -0.00348164  0.74905281  1
  Te  Te62  1  0.49932595  0.49916137  0.25177481  1
  Te  Te63  1  0.49188755  0.49971436  0.74763347  1
