# generated using pymatgen
data_AgSbTe2
_symmetry_space_group_name_H-M   'P 1'
_cell_length_a   12.21899293
_cell_length_b   12.21930722
_cell_length_c   12.21492548
_cell_angle_alpha   89.99887657
_cell_angle_beta   89.99954773
_cell_angle_gamma   89.99760193
_symmetry_Int_Tables_number   1
_chemical_formula_structural   AgSbTe2
_chemical_formula_sum   'Ag16 Sb16 Te32'
_cell_volume   1823.78155444
_cell_formula_units_Z   16
loop_
 _symmetry_equiv_pos_site_id
 _symmetry_equiv_pos_as_xyz
  1  'x, y, z'
loop_
 _atom_site_type_symbol
 _atom_site_label
 _atom_site_symmetry_multiplicity
 _atom_site_fract_x
 _atom_site_fract_y
 _atom_site_fract_z
 _atom_site_occupancy
  Ag  Ag0  1  0.75308133  0.24790242  -0.00481252  1
  Ag  Ag1  1  0.50221082  0.50142284  0.50153649  1
  Ag  Ag2  1  0.24431142  -0.00080595  0.74727651  1
  Ag  Ag3  1  0.75564078  0.00229762  0.74630597  1
  Ag  Ag4  1  0.24725262  0.75353607  0.00170187  1
  Ag  Ag5  1  0.75387723  0.25237880  0.50475401  1
  Ag  Ag6  1  0.49783599  0.75058659  0.25352693  1
  Ag  Ag7  1  0.24526688  -0.00437968  0.25212969  1
  Ag  Ag8  1  -0.00293585  0.50094915  0.50247878  1
  Ag  Ag9  1  0.00232654  0.75404199  0.25382589  1
  Ag  Ag10  1  0.75183857  0.49812578  0.74199080  1
  Ag  Ag11  1  0.00153714  -0.00206398  -0.00119454  1
  Ag  Ag12  1  0.24781854  0.50051024  0.74455420  1
  Ag  Ag13  1  0.00039614  -0.00118007  0.50120235  1
  Ag  Ag14  1  0.24671283  0.24930546  0.50252645  1
  Ag  Ag15  1  0.75369991  0.74744364  0.50117986  1
  Sb  Sb16  1  0.24606990  0.75076408  0.49870051  1
  Sb  Sb17  1  0.75079000  0.50092367  0.25960540  1
  Sb  Sb18  1  0.49968453  -0.00233362  0.49893194  1
  Sb  Sb19  1  0.00081824  0.24603727  0.25360208  1
  Sb  Sb20  1  0.24716469  0.24643238  -0.00302580  1
  Sb  Sb21  1  0.75294415  0.75172212  -0.00140079  1
  Sb  Sb22  1  0.49852717  0.24939487  0.25429603  1
  Sb  Sb23  1  -0.00079456  0.50225494  -0.00239068  1
  Sb  Sb24  1  0.75477445  -0.00162435  0.25383082  1
  Sb  Sb25  1  -0.00239815  0.24772071  0.74692969  1
  Sb  Sb26  1  0.49949510  -0.00214105  0.00101862  1
  Sb  Sb27  1  0.24847628  0.50369780  0.25570060  1
  Sb  Sb28  1  0.50188760  0.25086571  0.74734573  1
  Sb  Sb29  1  0.00044862  0.75232339  0.74538609  1
  Sb  Sb30  1  0.49910115  0.74870386  0.74554919  1
  Sb  Sb31  1  0.50081836  0.50272016  -0.00034148  1
  Te  Te32  1  0.25098470  0.24356046  0.25414237  1
  Te  Te33  1  0.25150707  0.24892450  0.74577030  1
  Te  Te34  1  0.24836866  0.75298150  0.24866069  1
  Te  Te35  1  0.25127666  0.75186060  0.75436733  1
  Te  Te36  1  0.74928739  0.24991552  0.25251337  1
  Te  Te37  1  0.74918260  0.24887706  0.74550436  1
  Te  Te38  1  0.75056453  0.75064660  0.25305483  1
  Te  Te39  1  0.74864746  0.75045088  0.74593073  1
  Te  Te40  1  0.24606278  0.00024208  -0.00345959  1
  Te  Te41  1  0.24851056  0.00094574  0.50371376  1
  Te  Te42  1  0.24901481  0.50079758  -0.00869520  1
  Te  Te43  1  0.24767693  0.49894953  0.50392736  1
  Te  Te44  1  0.75444160  0.00151964  -0.00529503  1
  Te  Te45  1  0.75181832  0.00152519  0.50300205  1
  Te  Te46  1  0.75109793  0.49638784  -0.01046688  1
  Te  Te47  1  0.75302471  0.49866406  0.50307079  1
  Te  Te48  1  -0.00573525  0.24467662  0.00374509  1
  Te  Te49  1  -0.00085525  0.24924437  0.49797616  1
  Te  Te50  1  0.00315344  0.75354753  0.00801207  1
  Te  Te51  1  -0.00285966  0.75193387  0.49561009  1
  Te  Te52  1  0.50929505  0.25063148  0.00304504  1
  Te  Te53  1  0.50068596  0.25707796  0.49773888  1
  Te  Te54  1  0.49496921  0.74898254  0.00911477  1
  Te  Te55  1  0.50537138  0.74568994  0.49539190  1
  Te  Te56  1  0.00359207  -0.00383871  0.25244194  1
  Te  Te57  1  0.00104566  -0.00107964  0.74781998  1
  Te  Te58  1  0.00097055  0.50826603  0.25543454  1
  Te  Te59  1  0.00072770  0.50130857  0.74513653  1
  Te  Te60  1  0.49181551  -0.00690764  0.25020033  1
  Te  Te61  1  0.49866346  -0.00131515  0.75010647  1
  Te  Te62  1  0.49948270  0.50686792  0.25554483  1
  Te  Te63  1  0.49953233  0.50113270  0.74421944  1
