# generated using pymatgen
data_AgSbTe2
_symmetry_space_group_name_H-M   'P 1'
_cell_length_a   12.20558199
_cell_length_b   12.20198908
_cell_length_c   12.20556817
_cell_angle_alpha   89.99644244
_cell_angle_beta   89.99945452
_cell_angle_gamma   90.00047852
_symmetry_Int_Tables_number   1
_chemical_formula_structural   AgSbTe2
_chemical_formula_sum   'Ag16 Sb16 Te32'
_cell_volume   1817.80429053
_cell_formula_units_Z   16
loop_
 _symmetry_equiv_pos_site_id
 _symmetry_equiv_pos_as_xyz
  1  'x, y, z'
loop_
 _atom_site_type_symbol
 _atom_site_label
 _atom_site_symmetry_multiplicity
 _atom_site_fract_x
 _atom_site_fract_y
 _atom_site_fract_z
 _atom_site_occupancy
  Ag  Ag0  1  0.74947561  0.74650327  0.50650166  1
  Ag  Ag1  1  0.50369035  0.74368586  0.74944111  1
  Ag  Ag2  1  0.00027438  0.00010421  0.50049216  1
  Ag  Ag3  1  0.50311800  0.49985850  -0.00317681  1
  Ag  Ag4  1  0.74813407  0.25435460  0.00031277  1
  Ag  Ag5  1  0.74526050  0.50488258  0.74964692  1
  Ag  Ag6  1  0.24940017  -0.00192317  0.74784481  1
  Ag  Ag7  1  -0.00328552  0.74925532  0.74820750  1
  Ag  Ag8  1  0.50236275  0.49985669  0.50321864  1
  Ag  Ag9  1  0.74943138  0.25315095  0.49933045  1
  Ag  Ag10  1  0.25584665  0.50242956  0.74893455  1
  Ag  Ag11  1  0.25318542  0.49715174  0.25097284  1
  Ag  Ag12  1  0.74813855  0.74522489  -0.00671302  1
  Ag  Ag13  1  0.24915920  0.00269785  0.25209395  1
  Ag  Ag14  1  0.50002921  0.25366872  0.25054662  1
  Ag  Ag15  1  -0.00009859  0.24995495  0.25181161  1
  Sb  Sb16  1  0.25274997  0.25266040  0.00242611  1
  Sb  Sb17  1  -0.00505239  0.49978217  -0.00045388  1
  Sb  Sb18  1  0.49970216  0.00062657  0.50105485  1
  Sb  Sb19  1  0.50055112  0.00053516  -0.00101735  1
  Sb  Sb20  1  0.75081772  0.00345937  0.25176964  1
  Sb  Sb21  1  0.74573290  0.49668338  0.25035355  1
  Sb  Sb22  1  -0.00037451  0.75071167  0.25227981  1
  Sb  Sb23  1  0.25085063  0.25086776  0.49752250  1
  Sb  Sb24  1  -0.00382606  0.49986469  0.50084371  1
  Sb  Sb25  1  0.75058153  -0.00734701  0.74804236  1
  Sb  Sb26  1  -0.00266411  0.24924408  0.74742457  1
  Sb  Sb27  1  0.50212026  0.25820773  0.74928420  1
  Sb  Sb28  1  0.25258472  0.74744394  -0.00370556  1
  Sb  Sb29  1  0.25074693  0.74922274  0.50375027  1
  Sb  Sb30  1  0.00029911  0.00019604  -0.00091584  1
  Sb  Sb31  1  0.50027052  0.74586119  0.25085752  1
  Te  Te32  1  0.25012189  0.25087307  0.25004099  1
  Te  Te33  1  0.24945073  0.25101948  0.75045387  1
  Te  Te34  1  0.24914808  0.74999976  0.24932091  1
  Te  Te35  1  0.24988931  0.74764251  0.75007094  1
  Te  Te36  1  0.74994806  0.25039890  0.25056432  1
  Te  Te37  1  0.75061738  0.25497643  0.74990423  1
  Te  Te38  1  0.75071229  0.75038564  0.25004950  1
  Te  Te39  1  0.74930878  0.74926533  0.74951462  1
  Te  Te40  1  0.24998963  0.00004458  -0.00012998  1
  Te  Te41  1  0.24581333  0.00005956  0.50033388  1
  Te  Te42  1  0.25694947  0.49999634  -0.00149627  1
  Te  Te43  1  0.25549934  0.49999586  0.50161328  1
  Te  Te44  1  0.74938015  0.00084959  -0.00020368  1
  Te  Te45  1  0.75423861  0.00078776  0.50072922  1
  Te  Te46  1  0.74639616  0.49997439  -0.00175382  1
  Te  Te47  1  0.74738164  0.49994766  0.50166506  1
  Te  Te48  1  -0.00903522  0.24951430  0.00688854  1
  Te  Te49  1  -0.00629717  0.24624844  0.49599450  1
  Te  Te50  1  -0.00890117  0.75031283  -0.00580646  1
  Te  Te51  1  -0.00626064  0.75365303  0.50369784  1
  Te  Te52  1  0.50621938  0.25488981  0.00460175  1
  Te  Te53  1  0.50604741  0.25382761  0.49585187  1
  Te  Te54  1  0.50620553  0.74481277  -0.00340860  1
  Te  Te55  1  0.50601870  0.74572884  0.50293195  1
  Te  Te56  1  0.00643775  0.00299915  0.25445613  1
  Te  Te57  1  0.00593756  -0.00348522  0.74584222  1
  Te  Te58  1  0.00988346  0.49517401  0.25033087  1
  Te  Te59  1  0.00113770  0.50461039  0.74922522  1
  Te  Te60  1  0.49152137  0.00594988  0.25059147  1
  Te  Te61  1  0.49192455  -0.00773403  0.74922137  1
  Te  Te62  1  0.49559005  0.49730933  0.25049304  1
  Te  Te63  1  0.49951327  0.50109554  0.74942899  1
