# generated using pymatgen
data_AgSbTe2
_symmetry_space_group_name_H-M   'P 1'
_cell_length_a   12.28043129
_cell_length_b   12.31067836
_cell_length_c   12.31109593
_cell_angle_alpha   89.98410690
_cell_angle_beta   89.99248461
_cell_angle_gamma   89.98968834
_symmetry_Int_Tables_number   1
_chemical_formula_structural   AgSbTe2
_chemical_formula_sum   'Ag16 Sb16 Te32'
_cell_volume   1861.19677733
_cell_formula_units_Z   16
loop_
 _symmetry_equiv_pos_site_id
 _symmetry_equiv_pos_as_xyz
  1  'x, y, z'
loop_
 _atom_site_type_symbol
 _atom_site_label
 _atom_site_symmetry_multiplicity
 _atom_site_fract_x
 _atom_site_fract_y
 _atom_site_fract_z
 _atom_site_occupancy
  Ag  Ag0  1  0.24841797  0.23766129  0.50058805  1
  Ag  Ag1  1  0.74625495  0.49851531  0.25122057  1
  Ag  Ag2  1  0.48508968  0.75769870  0.73940145  1
  Ag  Ag3  1  0.49500653  0.50961914  0.49279039  1
  Ag  Ag4  1  0.24973326  -0.00900814  0.74145622  1
  Ag  Ag5  1  0.48753282  -0.00778407  0.49962053  1
  Ag  Ag6  1  0.25500994  0.75489622  -0.01215798  1
  Ag  Ag7  1  0.49094787  -0.00891088  0.00129445  1
  Ag  Ag8  1  0.01487344  0.00339643  0.50788897  1
  Ag  Ag9  1  0.49633599  0.24913869  0.25896109  1
  Ag  Ag10  1  0.25733245  0.76147462  0.50959513  1
  Ag  Ag11  1  0.49556082  0.75265342  0.26198874  1
  Ag  Ag12  1  0.00269132  0.50090524  0.00061569  1
  Ag  Ag13  1  0.00546258  0.25101168  0.25716575  1
  Ag  Ag14  1  0.00962098  0.24352634  0.73857407  1
  Ag  Ag15  1  0.01375191  0.75579350  0.74421845  1
  Sb  Sb16  1  0.74974123  0.50060959  0.74824919  1
  Sb  Sb17  1  0.00395893  0.75158185  0.25360880  1
  Sb  Sb18  1  0.75129239  0.24915470  0.49988491  1
  Sb  Sb19  1  0.49128362  0.24570581  0.74098555  1
  Sb  Sb20  1  0.00524002  0.50062503  0.50160871  1
  Sb  Sb21  1  0.74945275  0.24963132  0.00134772  1
  Sb  Sb22  1  0.49800575  0.50253394  0.00108864  1
  Sb  Sb23  1  0.74637912  -0.00007167  0.25113940  1
  Sb  Sb24  1  0.25028634  0.49968729  0.25086651  1
  Sb  Sb25  1  0.25160217  -0.00006447  0.25547624  1
  Sb  Sb26  1  0.74990315  0.00005829  0.74939145  1
  Sb  Sb27  1  0.25128397  0.24511617  -0.00108634  1
  Sb  Sb28  1  0.74313011  0.75025563  0.50030012  1
  Sb  Sb29  1  0.74729103  0.75050537  -0.00036279  1
  Sb  Sb30  1  0.25034416  0.50535740  0.74906927  1
  Sb  Sb31  1  0.00687515  0.00002682  -0.00108935  1
  Te  Te32  1  0.24982339  0.24901414  0.25270599  1
  Te  Te33  1  0.24537925  0.24393800  0.74766195  1
  Te  Te34  1  0.25512018  0.75153855  0.25276026  1
  Te  Te35  1  0.24994916  0.75130462  0.74731042  1
  Te  Te36  1  0.74788208  0.25211577  0.24962462  1
  Te  Te37  1  0.77091963  0.25157672  0.75095332  1
  Te  Te38  1  0.74102597  0.74616240  0.25039174  1
  Te  Te39  1  0.75696611  0.74815869  0.74960482  1
  Te  Te40  1  0.25588648  -0.00488907  -0.01059150  1
  Te  Te41  1  0.24728563  0.00056807  0.50220298  1
  Te  Te42  1  0.24277880  0.50757634  -0.00082298  1
  Te  Te43  1  0.25670351  0.49876601  0.50144351  1
  Te  Te44  1  0.73002012  0.00054580  0.00080252  1
  Te  Te45  1  0.75204184  -0.00054656  0.49907291  1
  Te  Te46  1  0.75880045  0.49938891  0.00292520  1
  Te  Te47  1  0.73747871  0.49999953  0.49727795  1
  Te  Te48  1  0.00102631  0.24918535  0.00785274  1
  Te  Te49  1  0.00181133  0.25160945  0.49799748  1
  Te  Te50  1  0.00332887  0.75088095  0.00410424  1
  Te  Te51  1  0.00553160  0.74967980  0.49889873  1
  Te  Te52  1  0.49897652  0.25170949  0.00583255  1
  Te  Te53  1  0.49794530  0.24471932  0.49955122  1
  Te  Te54  1  0.49751430  0.74990127  -0.00220188  1
  Te  Te55  1  0.49936267  0.75257263  0.50057932  1
  Te  Te56  1  -0.00065972  0.00404056  0.25264375  1
  Te  Te57  1  -0.00179308  -0.00451217  0.74793594  1
  Te  Te58  1  -0.00016928  0.49926141  0.24941426  1
  Te  Te59  1  0.00088590  0.50422512  0.75108885  1
  Te  Te60  1  0.49789759  0.00127793  0.25645483  1
  Te  Te61  1  0.50156515  -0.00021634  0.74289086  1
  Te  Te62  1  0.49881293  0.49661018  0.25050398  1
  Te  Te63  1  0.50020991  0.50253657  0.74942983  1
