# generated using pymatgen
data_AgSbTe2
_symmetry_space_group_name_H-M   'P 1'
_cell_length_a   12.31379481
_cell_length_b   12.30560106
_cell_length_c   12.29611995
_cell_angle_alpha   90.00092843
_cell_angle_beta   90.00322932
_cell_angle_gamma   90.01123024
_symmetry_Int_Tables_number   1
_chemical_formula_structural   AgSbTe2
_chemical_formula_sum   'Ag16 Sb16 Te32'
_cell_volume   1863.21437346
_cell_formula_units_Z   16
loop_
 _symmetry_equiv_pos_site_id
 _symmetry_equiv_pos_as_xyz
  1  'x, y, z'
loop_
 _atom_site_type_symbol
 _atom_site_label
 _atom_site_symmetry_multiplicity
 _atom_site_fract_x
 _atom_site_fract_y
 _atom_site_fract_z
 _atom_site_occupancy
  Ag  Ag0  1  0.49872419  0.25844264  0.73987347  1
  Ag  Ag1  1  0.00072095  -0.00177237  0.49946856  1
  Ag  Ag2  1  0.24899268  0.25535752  -0.00046811  1
  Ag  Ag3  1  0.00314829  0.25437425  0.73808021  1
  Ag  Ag4  1  0.75050687  0.50539222  0.26231101  1
  Ag  Ag5  1  0.50463195  0.51073197  0.50126825  1
  Ag  Ag6  1  0.50661384  0.74105726  0.26813773  1
  Ag  Ag7  1  0.51025186  0.74105378  0.73448615  1
  Ag  Ag8  1  0.00463707  0.25844711  0.26542564  1
  Ag  Ag9  1  0.24545456  0.25394378  0.50054204  1
  Ag  Ag10  1  0.49981654  -0.00903519  0.50104395  1
  Ag  Ag11  1  -0.00796172  0.74386589  0.73388403  1
  Ag  Ag12  1  -0.00466161  0.74158718  0.26590876  1
  Ag  Ag13  1  0.74563830  0.50383794  0.73627798  1
  Ag  Ag14  1  0.24526873  0.49681161  0.25762365  1
  Ag  Ag15  1  0.74317833  0.74411644  0.50051443  1
  Sb  Sb16  1  0.00202352  0.00078943  0.00005020  1
  Sb  Sb17  1  0.49748806  0.00071144  -0.00029730  1
  Sb  Sb18  1  0.00044290  0.49970020  0.00105003  1
  Sb  Sb19  1  0.74896035  0.25501357  -0.00142410  1
  Sb  Sb20  1  0.24952838  0.00142868  0.25482747  1
  Sb  Sb21  1  0.25042507  0.74406955  0.00313602  1
  Sb  Sb22  1  0.75052183  0.25471080  0.50056834  1
  Sb  Sb23  1  0.25015733  0.74480467  0.49845835  1
  Sb  Sb24  1  0.25009000  0.00062836  0.74578604  1
  Sb  Sb25  1  0.49920056  0.49871590  -0.00157240  1
  Sb  Sb26  1  0.49837228  0.25752023  0.26004531  1
  Sb  Sb27  1  0.75057346  -0.00419426  0.25635724  1
  Sb  Sb28  1  0.25016722  0.49726395  0.74342362  1
  Sb  Sb29  1  -0.00261671  0.50015869  0.49897721  1
  Sb  Sb30  1  0.74996495  -0.00320911  0.74547159  1
  Sb  Sb31  1  0.74976034  0.74647466  0.00039176  1
  Te  Te32  1  0.24858488  0.25114202  0.25906619  1
  Te  Te33  1  0.24472616  0.25056260  0.74152135  1
  Te  Te34  1  0.24474537  0.74523161  0.24812695  1
  Te  Te35  1  0.24439000  0.74937012  0.75315967  1
  Te  Te36  1  0.75627994  0.25816238  0.24899742  1
  Te  Te37  1  0.75268914  0.25764250  0.74938579  1
  Te  Te38  1  0.75275601  0.74730233  0.24877063  1
  Te  Te39  1  0.75099424  0.74642393  0.75019685  1
  Te  Te40  1  0.25003533  0.01431677  0.00037061  1
  Te  Te41  1  0.24848413  0.01245147  0.50076646  1
  Te  Te42  1  0.24935993  0.49496016  0.01632794  1
  Te  Te43  1  0.26020185  0.49354409  0.49496518  1
  Te  Te44  1  0.74953588  0.00126207  0.00063911  1
  Te  Te45  1  0.75035103  -0.01657272  0.50075124  1
  Te  Te46  1  0.75088405  0.50053875  0.00190683  1
  Te  Te47  1  0.74640637  0.50781390  0.50153278  1
  Te  Te48  1  0.00192867  0.24918080  -0.00631299  1
  Te  Te49  1  -0.00522991  0.25416647  0.50044150  1
  Te  Te50  1  0.00169979  0.75139562  -0.00266372  1
  Te  Te51  1  0.00835053  0.74890075  0.50084793  1
  Te  Te52  1  0.49847116  0.24777901  -0.01442332  1
  Te  Te53  1  0.50801506  0.24778262  0.50303083  1
  Te  Te54  1  0.49757311  0.75259651  -0.00602840  1
  Te  Te55  1  0.49363301  0.74876120  0.50051055  1
  Te  Te56  1  -0.00055473  -0.00237535  0.25620202  1
  Te  Te57  1  0.00004642  0.00011902  0.74327875  1
  Te  Te58  1  -0.00257371  0.50162261  0.24909791  1
  Te  Te59  1  0.00065484  0.50201302  0.75080506  1
  Te  Te60  1  0.50127383  -0.00910026  0.25520196  1
  Te  Te61  1  0.50012025  -0.00292457  0.74467061  1
  Te  Te62  1  0.50698227  0.50134064  0.24969086  1
  Te  Te63  1  0.49916475  0.50179112  0.74953831  1
