# generated using pymatgen
data_AgSbTe2
_symmetry_space_group_name_H-M   'P 1'
_cell_length_a   12.21525217
_cell_length_b   12.22955523
_cell_length_c   12.23444223
_cell_angle_alpha   90.00008068
_cell_angle_beta   89.99683539
_cell_angle_gamma   90.00217235
_symmetry_Int_Tables_number   1
_chemical_formula_structural   AgSbTe2
_chemical_formula_sum   'Ag16 Sb16 Te32'
_cell_volume   1827.66785429
_cell_formula_units_Z   16
loop_
 _symmetry_equiv_pos_site_id
 _symmetry_equiv_pos_as_xyz
  1  'x, y, z'
loop_
 _atom_site_type_symbol
 _atom_site_label
 _atom_site_symmetry_multiplicity
 _atom_site_fract_x
 _atom_site_fract_y
 _atom_site_fract_z
 _atom_site_occupancy
  Ag  Ag0  1  0.75511979  0.00104645  0.24320719  1
  Ag  Ag1  1  -0.00002970  0.75465317  0.75111521  1
  Ag  Ag2  1  0.75777375  0.24403113  0.00272772  1
  Ag  Ag3  1  0.50182406  0.50393497  0.49616969  1
  Ag  Ag4  1  0.24474714  0.74891152  0.49901014  1
  Ag  Ag5  1  0.24449287  0.75210726  0.00095380  1
  Ag  Ag6  1  0.75506918  0.49960462  0.24890431  1
  Ag  Ag7  1  -0.00747868  0.00167153  -0.00239988  1
  Ag  Ag8  1  0.50151829  0.75045224  0.24935901  1
  Ag  Ag9  1  -0.00267603  -0.00237847  0.50269893  1
  Ag  Ag10  1  -0.00473917  0.24509054  0.75394253  1
  Ag  Ag11  1  0.50706128  -0.00224995  0.00243505  1
  Ag  Ag12  1  -0.00359929  0.49872122  0.00229887  1
  Ag  Ag13  1  0.75811897  0.00107972  0.75687636  1
  Ag  Ag14  1  -0.00140693  0.50226402  0.49806142  1
  Ag  Ag15  1  -0.00638834  0.24935349  0.24571104  1
  Sb  Sb16  1  -0.00206147  0.75035741  0.24975382  1
  Sb  Sb17  1  0.75531236  0.75708135  0.00073621  1
  Sb  Sb18  1  0.24032601  -0.00216958  0.75087083  1
  Sb  Sb19  1  0.50382833  0.50290452  0.00334394  1
  Sb  Sb20  1  0.50589915  0.24710252  0.75254895  1
  Sb  Sb21  1  0.75511248  0.74962657  0.49920246  1
  Sb  Sb22  1  0.50677081  0.24972849  0.24774955  1
  Sb  Sb23  1  0.75429018  0.24993086  0.49762303  1
  Sb  Sb24  1  0.75553476  0.49902363  0.75263056  1
  Sb  Sb25  1  0.24464193  0.50288225  0.25027796  1
  Sb  Sb26  1  0.24148368  0.24834367  0.00051306  1
  Sb  Sb27  1  0.24404383  -0.00290589  0.24862559  1
  Sb  Sb28  1  0.24448614  0.25003213  0.49956965  1
  Sb  Sb29  1  0.50207285  -0.00369379  0.49806853  1
  Sb  Sb30  1  0.50075883  0.75260344  0.75023790  1
  Sb  Sb31  1  0.24617350  0.50209993  0.74987296  1
  Te  Te32  1  0.24007158  0.25007987  0.24966966  1
  Te  Te33  1  0.24084421  0.24999455  0.75050784  1
  Te  Te34  1  0.25823689  0.75005973  0.24979975  1
  Te  Te35  1  0.24423933  0.75047145  0.75030339  1
  Te  Te36  1  0.75502922  0.24902254  0.24700415  1
  Te  Te37  1  0.75577339  0.24506219  0.75525078  1
  Te  Te38  1  0.74320414  0.74963934  0.25002463  1
  Te  Te39  1  0.75682843  0.75601699  0.74977732  1
  Te  Te40  1  0.24976667  -0.00377022  0.00018833  1
  Te  Te41  1  0.24533260  -0.00597698  0.50011836  1
  Te  Te42  1  0.24543997  0.50510473  -0.00020201  1
  Te  Te43  1  0.24561031  0.50522642  0.50009293  1
  Te  Te44  1  0.75369136  0.00005513  0.00247929  1
  Te  Te45  1  0.75498714  0.00007375  0.49737383  1
  Te  Te46  1  0.75381601  0.49512094  0.00336502  1
  Te  Te47  1  0.75428113  0.49984384  0.49544585  1
  Te  Te48  1  -0.00146809  0.24934550  0.00038220  1
  Te  Te49  1  0.00135117  0.25109173  0.50051689  1
  Te  Te50  1  0.00322689  0.75007062  -0.00035536  1
  Te  Te51  1  0.00325355  0.74909478  0.49948844  1
  Te  Te52  1  0.50407901  0.24555273  -0.00063902  1
  Te  Te53  1  0.49687765  0.25711550  0.50053065  1
  Te  Te54  1  0.49355377  0.75218464  0.00119616  1
  Te  Te55  1  0.49406365  0.74761510  0.49930588  1
  Te  Te56  1  -0.00434885  0.00009534  0.24956744  1
  Te  Te57  1  -0.00338092  -0.00101461  0.75030281  1
  Te  Te58  1  -0.00438609  0.50055938  0.25055244  1
  Te  Te59  1  -0.00273020  0.50112723  0.74874013  1
  Te  Te60  1  0.50670029  -0.00137306  0.24792683  1
  Te  Te61  1  0.50975735  0.00068976  0.75345677  1
  Te  Te62  1  0.50602735  0.50103075  0.25275583  1
  Te  Te63  1  0.50219053  0.49954938  0.74237639  1
