# generated using pymatgen
data_AgSbTe2
_symmetry_space_group_name_H-M   'P 1'
_cell_length_a   12.21691007
_cell_length_b   12.21601482
_cell_length_c   12.21551103
_cell_angle_alpha   90.00181283
_cell_angle_beta   90.00226240
_cell_angle_gamma   89.99162162
_symmetry_Int_Tables_number   1
_chemical_formula_structural   AgSbTe2
_chemical_formula_sum   'Ag16 Sb16 Te32'
_cell_volume   1823.06671928
_cell_formula_units_Z   16
loop_
 _symmetry_equiv_pos_site_id
 _symmetry_equiv_pos_as_xyz
  1  'x, y, z'
loop_
 _atom_site_type_symbol
 _atom_site_label
 _atom_site_symmetry_multiplicity
 _atom_site_fract_x
 _atom_site_fract_y
 _atom_site_fract_z
 _atom_site_occupancy
  Ag  Ag0  1  0.00266772  0.74584184  0.74989314  1
  Ag  Ag1  1  0.50635109  0.25596025  0.75014668  1
  Ag  Ag2  1  0.24789117  0.74771949  -0.00722016  1
  Ag  Ag3  1  0.00109496  0.49971400  0.50866260  1
  Ag  Ag4  1  0.75177046  0.00675290  0.75190324  1
  Ag  Ag5  1  -0.00368219  0.00326294  -0.00402003  1
  Ag  Ag6  1  0.49842581  0.49913276  0.50983561  1
  Ag  Ag7  1  0.75229821  0.00459853  0.24856490  1
  Ag  Ag8  1  -0.00740175  0.25369836  0.75240674  1
  Ag  Ag9  1  0.74954789  0.49338212  0.75018652  1
  Ag  Ag10  1  0.75303291  0.24846638  -0.00709055  1
  Ag  Ag11  1  0.24910993  0.74588563  0.50684376  1
  Ag  Ag12  1  0.50165851  0.00048324  0.50493471  1
  Ag  Ag13  1  0.50044024  0.49793012  -0.01060967  1
  Ag  Ag14  1  -0.00466058  0.24917709  0.24775068  1
  Ag  Ag15  1  0.24993049  0.50259240  0.74782439  1
  Sb  Sb16  1  -0.00023074  0.49783967  -0.00926890  1
  Sb  Sb17  1  0.49618371  0.74258438  0.74951882  1
  Sb  Sb18  1  -0.00137963  0.00007402  0.50386727  1
  Sb  Sb19  1  0.50315107  0.00114209  -0.00567715  1
  Sb  Sb20  1  0.24791684  0.25215876  -0.00421869  1
  Sb  Sb21  1  0.75257179  0.49488422  0.24863458  1
  Sb  Sb22  1  0.24965044  0.25417265  0.50429842  1
  Sb  Sb23  1  0.24890864  -0.00312498  0.74960025  1
  Sb  Sb24  1  0.75073982  0.74898473  0.50435633  1
  Sb  Sb25  1  0.75192760  0.75061463  -0.00452623  1
  Sb  Sb26  1  0.75039178  0.25035023  0.50906289  1
  Sb  Sb27  1  0.24811678  0.00062095  0.25046959  1
  Sb  Sb28  1  0.00001519  0.75040540  0.24957717  1
  Sb  Sb29  1  0.24888323  0.49996945  0.25169591  1
  Sb  Sb30  1  0.50004893  0.75055840  0.25048221  1
  Sb  Sb31  1  0.50517547  0.24907332  0.24974793  1
  Te  Te32  1  0.23982656  0.24947265  0.24860177  1
  Te  Te33  1  0.25018888  0.25652383  0.75070020  1
  Te  Te34  1  0.24952577  0.75009611  0.24971723  1
  Te  Te35  1  0.24604378  0.74629004  0.74966706  1
  Te  Te36  1  0.75507411  0.24569690  0.24140357  1
  Te  Te37  1  0.75087837  0.25095317  0.75246916  1
  Te  Te38  1  0.75090068  0.75973316  0.24869939  1
  Te  Te39  1  0.75814494  0.74994456  0.75058348  1
  Te  Te40  1  0.24604949  -0.00617025  0.00027947  1
  Te  Te41  1  0.25608013  -0.00755103  0.49980430  1
  Te  Te42  1  0.25342479  0.50378638  -0.00341309  1
  Te  Te43  1  0.25137231  0.50336132  0.50251421  1
  Te  Te44  1  0.75199022  0.00163735  -0.00421344  1
  Te  Te45  1  0.74574517  -0.00109990  0.50258481  1
  Te  Te46  1  0.74629525  0.49757365  -0.00285118  1
  Te  Te47  1  0.74847463  0.50120761  0.50394456  1
  Te  Te48  1  -0.00209403  0.24789676  -0.00436546  1
  Te  Te49  1  0.00097559  0.25296176  0.50320282  1
  Te  Te50  1  0.00371478  0.75252109  -0.00251946  1
  Te  Te51  1  0.00455882  0.74730774  0.50315836  1
  Te  Te52  1  0.50242028  0.25331427  -0.00302839  1
  Te  Te53  1  0.49875214  0.25236599  0.50335352  1
  Te  Te54  1  0.49359773  0.74510931  0.00030155  1
  Te  Te55  1  0.49470606  0.74777574  0.50028228  1
  Te  Te56  1  -0.00391076  0.00340394  0.24832977  1
  Te  Te57  1  -0.00211847  0.00225407  0.75103776  1
  Te  Te58  1  -0.00199743  0.49521250  0.25856587  1
  Te  Te59  1  -0.00080634  0.49853469  0.74877500  1
  Te  Te60  1  0.50577766  0.00186408  0.25565409  1
  Te  Te61  1  0.50337349  0.00479026  0.74739647  1
  Te  Te62  1  0.50131211  0.49854266  0.25355357  1
  Te  Te63  1  0.50117750  0.49978363  0.74817778  1
