# generated using pymatgen
data_AgSbTe2
_symmetry_space_group_name_H-M   'P 1'
_cell_length_a   12.29372783
_cell_length_b   12.28780779
_cell_length_c   12.31405462
_cell_angle_alpha   89.99562791
_cell_angle_beta   90.00233857
_cell_angle_gamma   90.00606045
_symmetry_Int_Tables_number   1
_chemical_formula_structural   AgSbTe2
_chemical_formula_sum   'Ag16 Sb16 Te32'
_cell_volume   1860.19758035
_cell_formula_units_Z   16
loop_
 _symmetry_equiv_pos_site_id
 _symmetry_equiv_pos_as_xyz
  1  'x, y, z'
loop_
 _atom_site_type_symbol
 _atom_site_label
 _atom_site_symmetry_multiplicity
 _atom_site_fract_x
 _atom_site_fract_y
 _atom_site_fract_z
 _atom_site_occupancy
  Ag  Ag0  1  -0.01481498  -0.00082648  0.49084598  1
  Ag  Ag1  1  0.50907786  -0.00635173  0.00909085  1
  Ag  Ag2  1  0.51052671  0.76067179  0.75965953  1
  Ag  Ag3  1  0.51245827  -0.00416889  0.49040234  1
  Ag  Ag4  1  0.74174592  0.24280506  0.00187958  1
  Ag  Ag5  1  -0.01584080  0.24590039  0.75273039  1
  Ag  Ag6  1  0.74217215  -0.00687112  0.25018742  1
  Ag  Ag7  1  0.26394976  0.75551196  0.00270622  1
  Ag  Ag8  1  0.74429933  0.75975331  0.48937844  1
  Ag  Ag9  1  -0.01670854  0.76437969  0.24958565  1
  Ag  Ag10  1  0.74158325  0.76047824  0.00819674  1
  Ag  Ag11  1  0.51245150  0.24133919  0.75739339  1
  Ag  Ag12  1  0.74741058  0.49704297  0.75251788  1
  Ag  Ag13  1  0.51641153  0.23298501  0.24196453  1
  Ag  Ag14  1  -0.01511882  0.23726057  0.24891109  1
  Ag  Ag15  1  0.51568634  0.76644674  0.24019748  1
  Sb  Sb16  1  0.25386123  0.75375858  0.49870311  1
  Sb  Sb17  1  0.25031072  0.50197427  0.24811733  1
  Sb  Sb18  1  0.74985854  0.50113020  0.24806465  1
  Sb  Sb19  1  -0.00286168  0.49897032  -0.00071428  1
  Sb  Sb20  1  0.74797308  0.00126379  0.75166904  1
  Sb  Sb21  1  0.25091420  0.24667627  0.49996883  1
  Sb  Sb22  1  0.25105461  0.50189620  0.75191514  1
  Sb  Sb23  1  -0.01138089  0.75676757  0.75043859  1
  Sb  Sb24  1  0.25631517  -0.00010789  0.24948341  1
  Sb  Sb25  1  0.74838937  0.24184613  0.49773630  1
  Sb  Sb26  1  0.50186402  0.50641642  -0.00014982  1
  Sb  Sb27  1  -0.01100874  0.00075795  0.00880837  1
  Sb  Sb28  1  -0.00744701  0.50071394  0.50067441  1
  Sb  Sb29  1  0.25126301  -0.00135528  0.75048862  1
  Sb  Sb30  1  0.50605639  0.50497733  0.50063428  1
  Sb  Sb31  1  0.25834988  0.24305154  -0.00029984  1
  Te  Te32  1  0.24681800  0.25083239  0.24900538  1
  Te  Te33  1  0.25357971  0.25172318  0.75102090  1
  Te  Te34  1  0.25007421  0.74921044  0.24648215  1
  Te  Te35  1  0.25998694  0.74834945  0.75440376  1
  Te  Te36  1  0.74820005  0.25685236  0.25163989  1
  Te  Te37  1  0.74709251  0.24652795  0.74796625  1
  Te  Te38  1  0.74895826  0.74622353  0.24634614  1
  Te  Te39  1  0.74824355  0.75412036  0.75756084  1
  Te  Te40  1  0.26638213  -0.00672537  -0.00007701  1
  Te  Te41  1  0.25140209  0.00099930  0.50011619  1
  Te  Te42  1  0.24817280  0.51669201  0.00090684  1
  Te  Te43  1  0.24853389  0.49923371  0.49926477  1
  Te  Te44  1  0.74528347  0.00215348  0.00756230  1
  Te  Te45  1  0.74738372  -0.00431226  0.49152582  1
  Te  Te46  1  0.74947803  0.49451610  -0.00682825  1
  Te  Te47  1  0.74961970  0.51935587  0.51145240  1
  Te  Te48  1  -0.00136108  0.24695979  0.00264180  1
  Te  Te49  1  0.00052556  0.24448329  0.49409411  1
  Te  Te50  1  -0.01010070  0.75319584  0.00173465  1
  Te  Te51  1  0.00177648  0.75466062  0.49902671  1
  Te  Te52  1  0.50205928  0.24804812  0.00102635  1
  Te  Te53  1  0.50043329  0.24213575  0.49964105  1
  Te  Te54  1  0.50760686  0.75092403  0.00129771  1
  Te  Te55  1  0.50022669  0.75348114  0.49865033  1
  Te  Te56  1  -0.00410965  -0.00008970  0.25086088  1
  Te  Te57  1  0.00089614  0.00601372  0.74146728  1
  Te  Te58  1  0.00025066  0.49444397  0.25040324  1
  Te  Te59  1  -0.00411333  0.48783399  0.74916129  1
  Te  Te60  1  0.50289041  -0.00015782  0.25155031  1
  Te  Te61  1  0.50068858  0.00031902  0.74762790  1
  Te  Te62  1  0.50044382  0.49331565  0.25143909  1
  Te  Te63  1  0.50387599  0.49358608  0.74984328  1
