# generated using pymatgen
data_AgSbTe2
_symmetry_space_group_name_H-M   'P 1'
_cell_length_a   12.21835366
_cell_length_b   12.22138995
_cell_length_c   12.21906943
_cell_angle_alpha   90.00175741
_cell_angle_beta   89.99390060
_cell_angle_gamma   89.99811685
_symmetry_Int_Tables_number   1
_chemical_formula_structural   AgSbTe2
_chemical_formula_sum   'Ag16 Sb16 Te32'
_cell_volume   1824.61576373
_cell_formula_units_Z   16
loop_
 _symmetry_equiv_pos_site_id
 _symmetry_equiv_pos_as_xyz
  1  'x, y, z'
loop_
 _atom_site_type_symbol
 _atom_site_label
 _atom_site_symmetry_multiplicity
 _atom_site_fract_x
 _atom_site_fract_y
 _atom_site_fract_z
 _atom_site_occupancy
  Ag  Ag0  1  0.24510057  0.75391687  -0.00409802  1
  Ag  Ag1  1  0.24779659  -0.00673856  0.74564085  1
  Ag  Ag2  1  0.75558215  0.24808492  0.49279537  1
  Ag  Ag3  1  0.75668942  0.75175073  0.49711635  1
  Ag  Ag4  1  0.75533809  0.00240117  0.25394270  1
  Ag  Ag5  1  0.75577353  0.49768684  0.25441941  1
  Ag  Ag6  1  -0.00669169  0.24830430  0.25498302  1
  Ag  Ag7  1  0.50008508  -0.00334246  0.50097033  1
  Ag  Ag8  1  0.75440573  0.24701015  0.00777329  1
  Ag  Ag9  1  0.49549527  0.75399463  0.74547301  1
  Ag  Ag10  1  -0.00289121  0.50417101  0.49646473  1
  Ag  Ag11  1  -0.00075996  -0.00275075  0.00264196  1
  Ag  Ag12  1  0.24377878  0.75424393  0.50456668  1
  Ag  Ag13  1  -0.00245904  0.75152195  0.25623944  1
  Ag  Ag14  1  0.00440417  0.75313171  0.74379214  1
  Ag  Ag15  1  0.24521611  0.24596936  0.49906322  1
  Sb  Sb16  1  0.50207680  0.75260931  0.25445402  1
  Sb  Sb17  1  0.24698494  0.50850566  0.74765698  1
  Sb  Sb18  1  0.75517754  0.75322885  0.00380869  1
  Sb  Sb19  1  0.24419780  -0.00152407  0.25504863  1
  Sb  Sb20  1  0.50820956  0.24768753  0.25229048  1
  Sb  Sb21  1  0.24370521  0.50117612  0.25313119  1
  Sb  Sb22  1  0.50115570  -0.00266285  -0.00099053  1
  Sb  Sb23  1  0.50260335  0.50278284  0.49975089  1
  Sb  Sb24  1  0.75291213  -0.00211380  0.74520423  1
  Sb  Sb25  1  -0.00083899  -0.00583524  0.49663658  1
  Sb  Sb26  1  0.00082076  0.24559396  0.74316069  1
  Sb  Sb27  1  0.50223056  0.50238491  0.00030258  1
  Sb  Sb28  1  0.24388830  0.24458481  0.00110852  1
  Sb  Sb29  1  -0.00217931  0.50173907  0.00366774  1
  Sb  Sb30  1  0.49893722  0.24481492  0.74645772  1
  Sb  Sb31  1  0.75296226  0.50154506  0.74546592  1
  Te  Te32  1  0.24263940  0.25016536  0.25481498  1
  Te  Te33  1  0.25027387  0.24321977  0.74514742  1
  Te  Te34  1  0.24523304  0.75045633  0.25224850  1
  Te  Te35  1  0.24668594  0.75203904  0.74619688  1
  Te  Te36  1  0.75262867  0.24776641  0.25365518  1
  Te  Te37  1  0.74999578  0.25027174  0.74732545  1
  Te  Te38  1  0.75310635  0.75195337  0.25199245  1
  Te  Te39  1  0.75251616  0.75051551  0.74604608  1
  Te  Te40  1  0.24773671  -0.00272660  -0.00326061  1
  Te  Te41  1  0.25191481  -0.00181463  0.50109133  1
  Te  Te42  1  0.25054127  0.50617955  0.00076640  1
  Te  Te43  1  0.24602764  0.50000470  0.49933967  1
  Te  Te44  1  0.75233999  0.00291331  0.00375078  1
  Te  Te45  1  0.74877364  -0.00039476  0.49859437  1
  Te  Te46  1  0.75061697  0.49340745  0.00689218  1
  Te  Te47  1  0.75287256  0.50028851  0.49701361  1
  Te  Te48  1  -0.00193970  0.24781791  0.00354388  1
  Te  Te49  1  -0.00172806  0.25192201  0.49862144  1
  Te  Te50  1  0.00167263  0.75223299  0.00138853  1
  Te  Te51  1  -0.00038803  0.75172193  0.49828158  1
  Te  Te52  1  0.50607400  0.25036572  -0.00097684  1
  Te  Te53  1  0.49959260  0.24603458  0.50090099  1
  Te  Te54  1  0.49331180  0.75065229  -0.00649728  1
  Te  Te55  1  0.49932943  0.75264733  0.50214146  1
  Te  Te56  1  -0.00361867  -0.00088181  0.24676992  1
  Te  Te57  1  0.00296717  -0.00467144  0.75697344  1
  Te  Te58  1  -0.00451652  0.50087622  0.25393117  1
  Te  Te59  1  -0.00023137  0.50817976  0.74288130  1
  Te  Te60  1  0.50868639  -0.00034017  0.25545359  1
  Te  Te61  1  0.49562563  -0.00500996  0.74591483  1
  Te  Te62  1  0.51100239  0.50011252  0.25026269  1
  Te  Te63  1  0.50055014  0.51022218  0.74985580  1
