# generated using pymatgen
data_AgSbTe2
_symmetry_space_group_name_H-M   'P 1'
_cell_length_a   12.21325336
_cell_length_b   12.21896573
_cell_length_c   12.21343453
_cell_angle_alpha   90.00008419
_cell_angle_beta   90.00009634
_cell_angle_gamma   90.00621516
_symmetry_Int_Tables_number   1
_chemical_formula_structural   AgSbTe2
_chemical_formula_sum   'Ag16 Sb16 Te32'
_cell_volume   1822.65142572
_cell_formula_units_Z   16
loop_
 _symmetry_equiv_pos_site_id
 _symmetry_equiv_pos_as_xyz
  1  'x, y, z'
loop_
 _atom_site_type_symbol
 _atom_site_label
 _atom_site_symmetry_multiplicity
 _atom_site_fract_x
 _atom_site_fract_y
 _atom_site_fract_z
 _atom_site_occupancy
  Ag  Ag0  1  -0.00031977  0.24954517  0.74754429  1
  Ag  Ag1  1  0.75183979  0.50023611  0.74666918  1
  Ag  Ag2  1  0.75054588  0.74755613  0.50270090  1
  Ag  Ag3  1  0.50012765  0.25034957  0.25744949  1
  Ag  Ag4  1  0.49724080  0.00464653  0.50249628  1
  Ag  Ag5  1  0.24910161  0.75247367  0.50290407  1
  Ag  Ag6  1  0.00246917  -0.00279891  -0.00532306  1
  Ag  Ag7  1  0.00225065  -0.00119137  0.50572461  1
  Ag  Ag8  1  0.74874056  0.49999418  0.25421698  1
  Ag  Ag9  1  0.25494654  0.24826713  0.50263085  1
  Ag  Ag10  1  0.24624228  0.75191531  -0.00370556  1
  Ag  Ag11  1  0.00025930  0.75069058  0.74907449  1
  Ag  Ag12  1  0.49798377  0.00063570  -0.00264002  1
  Ag  Ag13  1  0.49986586  0.24963739  0.74287241  1
  Ag  Ag14  1  -0.00042809  0.50227175  -0.00473700  1
  Ag  Ag15  1  0.50218272  0.49596618  0.50171765  1
  Sb  Sb16  1  0.50024332  0.75034610  0.74686949  1
  Sb  Sb17  1  0.24833511  0.50028362  0.74896002  1
  Sb  Sb18  1  -0.00023126  0.25148298  0.25388215  1
  Sb  Sb19  1  0.49990071  0.49960212  -0.00171403  1
  Sb  Sb20  1  0.24792451  -0.00074780  0.74758520  1
  Sb  Sb21  1  -0.00087991  0.74904920  0.25171943  1
  Sb  Sb22  1  0.50137223  0.74912028  0.25209081  1
  Sb  Sb23  1  0.75066990  0.25073119  -0.00116844  1
  Sb  Sb24  1  0.24944049  0.24725787  -0.00331875  1
  Sb  Sb25  1  0.74382696  0.25375980  0.50144137  1
  Sb  Sb26  1  0.75225793  -0.00034388  0.74724876  1
  Sb  Sb27  1  0.75372317  0.74910050  -0.00356139  1
  Sb  Sb28  1  0.25170318  0.00067123  0.25209636  1
  Sb  Sb29  1  0.74794581  0.00028075  0.25311318  1
  Sb  Sb30  1  -0.00298497  0.50064245  0.50552274  1
  Sb  Sb31  1  0.25104824  0.49907917  0.25200097  1
  Te  Te32  1  0.25621298  0.25124553  0.25825183  1
  Te  Te33  1  0.25004695  0.25123909  0.74468865  1
  Te  Te34  1  0.25026804  0.74872235  0.25314091  1
  Te  Te35  1  0.24436412  0.74906932  0.74761745  1
  Te  Te36  1  0.74427797  0.25699753  0.25011057  1
  Te  Te37  1  0.75143124  0.25660747  0.74957361  1
  Te  Te38  1  0.74922066  0.74236857  0.25777184  1
  Te  Te39  1  0.75457679  0.74434775  0.74560069  1
  Te  Te40  1  0.24848273  -0.00463872  0.00131781  1
  Te  Te41  1  0.25110368  -0.00252745  0.49927360  1
  Te  Te42  1  0.24482768  0.50648250  0.00093938  1
  Te  Te43  1  0.25580767  0.50206226  0.49916958  1
  Te  Te44  1  0.75042856  -0.00170734  0.00129999  1
  Te  Te45  1  0.74991635  -0.00775727  0.49925199  1
  Te  Te46  1  0.75370030  0.50130415  -0.00175098  1
  Te  Te47  1  0.74760915  0.50354520  0.50145625  1
  Te  Te48  1  0.00205010  0.24685069  -0.00504213  1
  Te  Te49  1  0.00435410  0.24689475  0.50353192  1
  Te  Te50  1  0.00231625  0.75323413  -0.00284544  1
  Te  Te51  1  0.00305009  0.75182492  0.50211210  1
  Te  Te52  1  0.49772634  0.24498508  -0.00305498  1
  Te  Te53  1  0.49975913  0.24798714  0.50285872  1
  Te  Te54  1  0.49436258  0.75628906  -0.00069007  1
  Te  Te55  1  0.49699612  0.75184517  0.50162018  1
  Te  Te56  1  -0.00241794  0.00213076  0.24818684  1
  Te  Te57  1  -0.00245990  0.00123138  0.74997488  1
  Te  Te58  1  -0.00656329  0.49751610  0.24213337  1
  Te  Te59  1  -0.00331202  0.49861398  0.75201985  1
  Te  Te60  1  0.50211103  0.00633487  0.25090441  1
  Te  Te61  1  0.50279781  0.00446773  0.74871327  1
  Te  Te62  1  0.50458036  0.49540919  0.25168736  1
  Te  Te63  1  0.50503024  0.49651337  0.74781313  1
