# generated using pymatgen
data_AgSbTe2
_symmetry_space_group_name_H-M   'P 1'
_cell_length_a   12.31313391
_cell_length_b   12.31243716
_cell_length_c   12.29126797
_cell_angle_alpha   90.00019255
_cell_angle_beta   89.99718918
_cell_angle_gamma   90.00405587
_symmetry_Int_Tables_number   1
_chemical_formula_structural   AgSbTe2
_chemical_formula_sum   'Ag16 Sb16 Te32'
_cell_volume   1863.41383230
_cell_formula_units_Z   16
loop_
 _symmetry_equiv_pos_site_id
 _symmetry_equiv_pos_as_xyz
  1  'x, y, z'
loop_
 _atom_site_type_symbol
 _atom_site_label
 _atom_site_symmetry_multiplicity
 _atom_site_fract_x
 _atom_site_fract_y
 _atom_site_fract_z
 _atom_site_occupancy
  Ag  Ag0  1  0.25184307  0.49193452  0.73841879  1
  Ag  Ag1  1  0.50548986  0.75813347  0.74415294  1
  Ag  Ag2  1  0.74502422  0.76602157  0.49526955  1
  Ag  Ag3  1  0.74200718  0.00472176  0.73497516  1
  Ag  Ag4  1  0.50851710  0.00519569  0.49397478  1
  Ag  Ag5  1  0.75072449  0.48771595  0.25667504  1
  Ag  Ag6  1  0.74233746  0.00994779  0.26242928  1
  Ag  Ag7  1  0.24853839  0.48591651  0.25576635  1
  Ag  Ag8  1  0.50198159  0.00163863  0.01127557  1
  Ag  Ag9  1  0.24978169  0.24633516  0.48927271  1
  Ag  Ag10  1  -0.00529177  0.75521509  0.25528763  1
  Ag  Ag11  1  -0.00139489  0.24763899  0.26000795  1
  Ag  Ag12  1  0.50188263  0.23939219  0.25697623  1
  Ag  Ag13  1  -0.00091210  0.24683386  0.73641463  1
  Ag  Ag14  1  0.25850254  0.01556263  0.25656683  1
  Ag  Ag15  1  0.74846205  0.23947762  0.49042179  1
  Sb  Sb16  1  0.74984852  0.49601472  0.74219395  1
  Sb  Sb17  1  0.25420973  0.75519258  0.49723662  1
  Sb  Sb18  1  0.50094898  0.24878497  0.74541197  1
  Sb  Sb19  1  0.25251378  0.75166624  0.00326954  1
  Sb  Sb20  1  0.49923386  0.49778321  0.00324601  1
  Sb  Sb21  1  0.00154694  0.49844075  0.49789985  1
  Sb  Sb22  1  0.49968013  0.49665511  0.49732408  1
  Sb  Sb23  1  0.74822675  0.75348539  0.00581591  1
  Sb  Sb24  1  0.50184807  0.75418346  0.25290514  1
  Sb  Sb25  1  0.75007096  0.24810653  0.00989520  1
  Sb  Sb26  1  0.25084686  0.00523098  0.74332751  1
  Sb  Sb27  1  0.00033099  0.49904002  0.00319505  1
  Sb  Sb28  1  -0.00247676  0.75120565  0.74501497  1
  Sb  Sb29  1  -0.00517011  0.00085491  0.49693130  1
  Sb  Sb30  1  0.24973703  0.24884812  0.00901998  1
  Sb  Sb31  1  -0.00041556  0.00139631  0.00539137  1
  Te  Te32  1  0.24568734  0.24839520  0.25132218  1
  Te  Te33  1  0.25052827  0.25217056  0.74396091  1
  Te  Te34  1  0.24642825  0.74527517  0.25128590  1
  Te  Te35  1  0.24438669  0.74524558  0.74870629  1
  Te  Te36  1  0.75324456  0.24682580  0.25102198  1
  Te  Te37  1  0.75013492  0.25257818  0.74328610  1
  Te  Te38  1  0.74948760  0.75439718  0.25366700  1
  Te  Te39  1  0.75302456  0.74569703  0.74351598  1
  Te  Te40  1  0.25758555  -0.00013897  0.00952187  1
  Te  Te41  1  0.25707330  0.00322325  0.49570163  1
  Te  Te42  1  0.25075106  0.49987919  0.00524309  1
  Te  Te43  1  0.25002573  0.49570114  0.49742472  1
  Te  Te44  1  0.74556174  0.00068546  -0.00242222  1
  Te  Te45  1  0.74942791  0.00275338  0.50093288  1
  Te  Te46  1  0.74906260  0.49991642  0.01538344  1
  Te  Te47  1  0.74997020  0.49495839  0.49333115  1
  Te  Te48  1  0.00003839  0.24981014  -0.00330160  1
  Te  Te49  1  0.00100371  0.24927237  0.49998504  1
  Te  Te50  1  0.00046019  0.74991164  0.01376238  1
  Te  Te51  1  -0.00860559  0.75086372  0.49197517  1
  Te  Te52  1  0.50023452  0.24693787  0.00992996  1
  Te  Te53  1  0.50191514  0.25022558  0.49520644  1
  Te  Te54  1  0.50034614  0.75599644  -0.01195718  1
  Te  Te55  1  0.50325285  0.75469108  0.50424023  1
  Te  Te56  1  -0.00058397  0.00615425  0.25049404  1
  Te  Te57  1  -0.00328210  0.00517974  0.75221961  1
  Te  Te58  1  0.00258957  0.49054267  0.25152737  1
  Te  Te59  1  0.00468428  0.49441143  0.75030853  1
  Te  Te60  1  0.50165694  0.00059601  0.25415662  1
  Te  Te61  1  0.50232892  0.00024488  0.74305377  1
  Te  Te62  1  0.49681474  0.49623317  0.24932899  1
  Te  Te63  1  0.49629232  0.50279566  0.75122403  1
