# generated using pymatgen
data_AgSbTe2
_symmetry_space_group_name_H-M   'P 1'
_cell_length_a   12.22011089
_cell_length_b   12.22398940
_cell_length_c   12.21533801
_cell_angle_alpha   90.00416144
_cell_angle_beta   89.99114381
_cell_angle_gamma   90.00450408
_symmetry_Int_Tables_number   1
_chemical_formula_structural   AgSbTe2
_chemical_formula_sum   'Ag16 Sb16 Te32'
_cell_volume   1824.70890904
_cell_formula_units_Z   16
loop_
 _symmetry_equiv_pos_site_id
 _symmetry_equiv_pos_as_xyz
  1  'x, y, z'
loop_
 _atom_site_type_symbol
 _atom_site_label
 _atom_site_symmetry_multiplicity
 _atom_site_fract_x
 _atom_site_fract_y
 _atom_site_fract_z
 _atom_site_occupancy
  Ag  Ag0  1  0.75493382  0.50096324  0.25344853  1
  Ag  Ag1  1  0.24542343  0.50419530  0.25757172  1
  Ag  Ag2  1  0.75414988  0.24964661  0.00974235  1
  Ag  Ag3  1  0.50446070  0.74694376  0.25457093  1
  Ag  Ag4  1  -0.00509138  0.74491687  0.25107784  1
  Ag  Ag5  1  -0.00734517  0.25484165  0.25101179  1
  Ag  Ag6  1  0.75288789  -0.00103635  0.24956168  1
  Ag  Ag7  1  0.00016428  0.74682352  0.74826693  1
  Ag  Ag8  1  0.24671287  0.50393619  0.74208638  1
  Ag  Ag9  1  0.50268500  -0.00319603  0.49523117  1
  Ag  Ag10  1  0.24864328  0.74328467  0.49636586  1
  Ag  Ag11  1  0.49810422  0.50319752  0.49469221  1
  Ag  Ag12  1  0.75440706  0.75046167  0.00781258  1
  Ag  Ag13  1  -0.00517587  -0.00276649  0.00490713  1
  Ag  Ag14  1  0.00217178  0.50368537  0.49321435  1
  Ag  Ag15  1  0.75173802  0.25297364  0.49089085  1
  Sb  Sb16  1  0.24823898  -0.00389235  0.25258555  1
  Sb  Sb17  1  0.50086571  0.25235134  0.74769488  1
  Sb  Sb18  1  0.24456976  0.25164725  0.00450822  1
  Sb  Sb19  1  0.75150427  -0.00220762  0.74903877  1
  Sb  Sb20  1  0.24543722  0.74876596  0.00372338  1
  Sb  Sb21  1  0.24692788  -0.00504336  0.74648813  1
  Sb  Sb22  1  0.50054969  0.74715672  0.74436492  1
  Sb  Sb23  1  0.75324729  0.50255560  0.74484119  1
  Sb  Sb24  1  -0.00297598  0.50262819  0.00843268  1
  Sb  Sb25  1  0.75087554  0.74715929  0.49044010  1
  Sb  Sb26  1  0.50299877  0.50186312  0.00597136  1
  Sb  Sb27  1  0.24769146  0.25778574  0.49647840  1
  Sb  Sb28  1  -0.00363104  -0.00325616  0.49470738  1
  Sb  Sb29  1  0.50691986  -0.00306864  0.00683728  1
  Sb  Sb30  1  0.50888816  0.25397459  0.25250292  1
  Sb  Sb31  1  -0.00105968  0.25365753  0.74906667  1
  Te  Te32  1  0.24103646  0.25714714  0.24937627  1
  Te  Te33  1  0.24930789  0.25912642  0.75133935  1
  Te  Te34  1  0.24858579  0.74617732  0.25228704  1
  Te  Te35  1  0.24601682  0.74516144  0.74713439  1
  Te  Te36  1  0.75218258  0.25091352  0.25041481  1
  Te  Te37  1  0.75102893  0.25041555  0.75116911  1
  Te  Te38  1  0.75239034  0.74907742  0.24982797  1
  Te  Te39  1  0.75560319  0.74910232  0.76059315  1
  Te  Te40  1  0.24342199  0.00105490  -0.00098892  1
  Te  Te41  1  0.25634834  -0.00638136  0.49995204  1
  Te  Te42  1  0.25143284  0.49971570  0.00083335  1
  Te  Te43  1  0.24869916  0.50145959  0.49649652  1
  Te  Te44  1  0.75267420  -0.00030249  0.00357634  1
  Te  Te45  1  0.74760735  0.00416697  0.49605715  1
  Te  Te46  1  0.74921295  0.49942059  0.00491155  1
  Te  Te47  1  0.75077275  0.49805126  0.49691134  1
  Te  Te48  1  -0.00536302  0.24616252  0.00282806  1
  Te  Te49  1  -0.00346060  0.25186522  0.49741506  1
  Te  Te50  1  -0.00286029  0.75146700  0.00354729  1
  Te  Te51  1  0.00041075  0.74880366  0.49709168  1
  Te  Te52  1  0.50937681  0.24895059  -0.00039962  1
  Te  Te53  1  0.50497789  0.25152267  0.49913626  1
  Te  Te54  1  0.50629804  0.75127873  0.00629003  1
  Te  Te55  1  0.49923734  0.74712038  0.49681821  1
  Te  Te56  1  -0.00281646  -0.00161757  0.24863052  1
  Te  Te57  1  0.00079964  -0.00640160  0.75558075  1
  Te  Te58  1  -0.00223941  0.50207277  0.25143947  1
  Te  Te59  1  0.00292075  0.50437792  0.74327672  1
  Te  Te60  1  0.50274206  -0.00472624  0.25428273  1
  Te  Te61  1  0.49881550  -0.00013659  0.74068984  1
  Te  Te62  1  0.50092931  0.50273668  0.25430070  1
  Te  Te63  1  0.49399244  0.50126924  0.74104671  1
