# generated using pymatgen
data_AgSbTe2
_symmetry_space_group_name_H-M   'P 1'
_cell_length_a   12.22630240
_cell_length_b   12.22104156
_cell_length_c   12.22313561
_cell_angle_alpha   90.00792033
_cell_angle_beta   89.99611976
_cell_angle_gamma   90.00458969
_symmetry_Int_Tables_number   1
_chemical_formula_structural   AgSbTe2
_chemical_formula_sum   'Ag16 Sb16 Te32'
_cell_volume   1826.35827984
_cell_formula_units_Z   16
loop_
 _symmetry_equiv_pos_site_id
 _symmetry_equiv_pos_as_xyz
  1  'x, y, z'
loop_
 _atom_site_type_symbol
 _atom_site_label
 _atom_site_symmetry_multiplicity
 _atom_site_fract_x
 _atom_site_fract_y
 _atom_site_fract_z
 _atom_site_occupancy
  Ag  Ag0  1  0.49710317  0.50156053  0.49520532  1
  Ag  Ag1  1  0.74572742  0.75649188  0.50075517  1
  Ag  Ag2  1  0.49873085  -0.00331950  0.00501217  1
  Ag  Ag3  1  0.74589098  -0.00529797  0.74122791  1
  Ag  Ag4  1  0.49891937  0.75302505  0.74610055  1
  Ag  Ag5  1  0.74109965  -0.00175225  0.25758650  1
  Ag  Ag6  1  0.25938770  0.00036965  0.25458046  1
  Ag  Ag7  1  0.25366407  0.50479576  0.74567335  1
  Ag  Ag8  1  0.25726871  0.49971054  0.25529080  1
  Ag  Ag9  1  -0.00276033  -0.00319440  0.49987975  1
  Ag  Ag10  1  0.00141339  0.75243572  0.74615943  1
  Ag  Ag11  1  0.25490313  0.24898411  0.49649094  1
  Ag  Ag12  1  0.74198193  0.50156135  0.25568344  1
  Ag  Ag13  1  0.25351362  0.75145965  -0.00098012  1
  Ag  Ag14  1  0.50281754  -0.00203467  0.49490759  1
  Ag  Ag15  1  0.49724143  0.24614204  0.25461543  1
  Sb  Sb16  1  0.74601286  0.24820097  0.00223142  1
  Sb  Sb17  1  0.00179606  0.50354273  0.50078587  1
  Sb  Sb18  1  0.25441190  0.74981166  0.50045857  1
  Sb  Sb19  1  0.74521232  0.24368484  0.49787948  1
  Sb  Sb20  1  0.00241293  0.24705350  0.74511402  1
  Sb  Sb21  1  0.00159382  0.50386485  -0.00043190  1
  Sb  Sb22  1  0.49761379  0.50460324  0.00504068  1
  Sb  Sb23  1  0.25408564  0.24860892  0.00262009  1
  Sb  Sb24  1  0.49969095  0.75494062  0.25465120  1
  Sb  Sb25  1  0.25387229  -0.00482749  0.74557994  1
  Sb  Sb26  1  0.00076666  0.75192515  0.25436555  1
  Sb  Sb27  1  0.00293417  0.24829330  0.25328200  1
  Sb  Sb28  1  0.74613728  0.75276773  -0.00053572  1
  Sb  Sb29  1  0.49762423  0.24804173  0.74542213  1
  Sb  Sb30  1  0.00143060  -0.00386672  -0.00065389  1
  Sb  Sb31  1  0.74568127  0.50577859  0.74288240  1
  Te  Te32  1  0.25285628  0.25012822  0.25279769  1
  Te  Te33  1  0.25027611  0.25903780  0.74601996  1
  Te  Te34  1  0.24887245  0.74920559  0.24658514  1
  Te  Te35  1  0.25206062  0.74779564  0.75058578  1
  Te  Te36  1  0.74521582  0.24948361  0.25113320  1
  Te  Te37  1  0.75037491  0.24272389  0.75049575  1
  Te  Te38  1  0.75109982  0.75129379  0.25256835  1
  Te  Te39  1  0.74777661  0.75265311  0.74839618  1
  Te  Te40  1  0.25294603  -0.00285656  0.00450120  1
  Te  Te41  1  0.25333679  -0.00058193  0.49793754  1
  Te  Te42  1  0.25083732  0.50343970  0.00206438  1
  Te  Te43  1  0.25220564  0.50130189  0.49667308  1
  Te  Te44  1  0.74620736  -0.00096006  0.00390209  1
  Te  Te45  1  0.74649398  -0.00037783  0.49799638  1
  Te  Te46  1  0.75004609  0.49974759  0.01031816  1
  Te  Te47  1  0.74752633  0.50268968  0.49636443  1
  Te  Te48  1  0.00014802  0.24995275  -0.00106386  1
  Te  Te49  1  0.00947276  0.24178789  0.50041889  1
  Te  Te50  1  0.00773603  0.75057081  -0.00961631  1
  Te  Te51  1  -0.00632113  0.75493442  0.50456877  1
  Te  Te52  1  0.49973832  0.24095408  0.00784621  1
  Te  Te53  1  0.49581401  0.25013105  0.49600601  1
  Te  Te54  1  0.49565918  0.75486178  -0.00883238  1
  Te  Te55  1  0.50347929  0.75051124  0.50422679  1
  Te  Te56  1  -0.00080050  -0.00044163  0.25403188  1
  Te  Te57  1  -0.00300898  -0.00381469  0.74738707  1
  Te  Te58  1  0.00149906  0.50014983  0.25055865  1
  Te  Te59  1  0.00366806  0.50545013  0.74935740  1
  Te  Te60  1  0.49940784  -0.00218335  0.25377409  1
  Te  Te61  1  0.50104680  -0.00154325  0.74683516  1
  Te  Te62  1  0.49803543  0.49934563  0.25218568  1
  Te  Te63  1  0.49811423  0.50124803  0.74709615  1
