# generated using pymatgen
data_AgSbTe2
_symmetry_space_group_name_H-M   'P 1'
_cell_length_a   12.21948650
_cell_length_b   12.22026594
_cell_length_c   12.21625644
_cell_angle_alpha   89.99464000
_cell_angle_beta   89.99929065
_cell_angle_gamma   90.00548967
_symmetry_Int_Tables_number   1
_chemical_formula_structural   AgSbTe2
_chemical_formula_sum   'Ag16 Sb16 Te32'
_cell_volume   1824.19705402
_cell_formula_units_Z   16
loop_
 _symmetry_equiv_pos_site_id
 _symmetry_equiv_pos_as_xyz
  1  'x, y, z'
loop_
 _atom_site_type_symbol
 _atom_site_label
 _atom_site_symmetry_multiplicity
 _atom_site_fract_x
 _atom_site_fract_y
 _atom_site_fract_z
 _atom_site_occupancy
  Ag  Ag0  1  0.74556797  0.25481192  0.00034159  1
  Ag  Ag1  1  -0.00552050  0.75475695  0.75281560  1
  Ag  Ag2  1  0.50533538  0.00202022  0.50501084  1
  Ag  Ag3  1  0.74949225  0.75356420  0.50478018  1
  Ag  Ag4  1  -0.00850663  0.49961108  -0.00157456  1
  Ag  Ag5  1  -0.00477665  -0.00111591  0.50499109  1
  Ag  Ag6  1  -0.00266477  -0.00005929  -0.00576394  1
  Ag  Ag7  1  0.50748789  0.49477550  -0.00073227  1
  Ag  Ag8  1  0.25388995  0.24875381  -0.00255035  1
  Ag  Ag9  1  0.50481698  0.25062996  0.24518897  1
  Ag  Ag10  1  0.50502288  0.75324707  0.75144140  1
  Ag  Ag11  1  0.74652902  0.24649440  0.49998963  1
  Ag  Ag12  1  0.50244256  0.24732892  0.75431294  1
  Ag  Ag13  1  0.25025293  0.00125395  0.75169327  1
  Ag  Ag14  1  0.74823166  0.49704079  0.24378337  1
  Ag  Ag15  1  0.75073089  0.74618354  -0.00431068  1
  Sb  Sb16  1  -0.00548790  0.25109220  0.24763236  1
  Sb  Sb17  1  0.74861403  0.00453747  0.25087927  1
  Sb  Sb18  1  0.50345737  0.00510609  -0.00698027  1
  Sb  Sb19  1  0.25048518  0.49654731  0.75326562  1
  Sb  Sb20  1  0.25382252  0.24601000  0.50335529  1
  Sb  Sb21  1  -0.00707113  0.50207031  0.50384001  1
  Sb  Sb22  1  -0.00446266  0.74964566  0.24689786  1
  Sb  Sb23  1  0.25253328  0.49636495  0.24534338  1
  Sb  Sb24  1  0.50539655  0.49905283  0.50138646  1
  Sb  Sb25  1  0.25093066  0.75313425  0.50403390  1
  Sb  Sb26  1  0.25179279  0.00318900  0.24643352  1
  Sb  Sb27  1  0.74926674  0.50107736  0.75930680  1
  Sb  Sb28  1  0.24969561  0.75262409  -0.00365940  1
  Sb  Sb29  1  -0.00353346  0.24387748  0.75283699  1
  Sb  Sb30  1  0.74974643  -0.00152138  0.74842831  1
  Sb  Sb31  1  0.50493984  0.74993752  0.24812155  1
  Te  Te32  1  0.25922479  0.25008278  0.24304534  1
  Te  Te33  1  0.25559624  0.24607624  0.75438711  1
  Te  Te34  1  0.25086326  0.74973516  0.25069716  1
  Te  Te35  1  0.25229716  0.75616821  0.75026924  1
  Te  Te36  1  0.74560225  0.25313898  0.24860769  1
  Te  Te37  1  0.74529059  0.25105697  0.75025141  1
  Te  Te38  1  0.74900446  0.74329023  0.24884365  1
  Te  Te39  1  0.74881764  0.74935881  0.75059359  1
  Te  Te40  1  0.24415441  0.00413152  -0.00384739  1
  Te  Te41  1  0.24782423  0.00120190  0.50524733  1
  Te  Te42  1  0.25033802  0.49327405  0.00046826  1
  Te  Te43  1  0.24798607  0.49935584  0.49860992  1
  Te  Te44  1  0.75469564  -0.00051387  0.00189001  1
  Te  Te45  1  0.75037190  0.00025535  0.49848730  1
  Te  Te46  1  0.74961144  0.49883234  0.00165886  1
  Te  Te47  1  0.75104137  0.49916318  0.49088653  1
  Te  Te48  1  -0.00342057  0.24948579  -0.00118595  1
  Te  Te49  1  -0.00585123  0.24506565  0.50041686  1
  Te  Te50  1  -0.00216448  0.75133204  -0.00282935  1
  Te  Te51  1  -0.00521254  0.75336892  0.50433203  1
  Te  Te52  1  0.50414259  0.24801314  -0.00250743  1
  Te  Te53  1  0.50358170  0.24838583  0.50308232  1
  Te  Te54  1  0.50332084  0.74864979  -0.00343254  1
  Te  Te55  1  0.50488529  0.75200403  0.50403258  1
  Te  Te56  1  0.00111671  0.00025011  0.25152082  1
  Te  Te57  1  0.00366290  -0.00220510  0.75070189  1
  Te  Te58  1  -0.00468489  0.49946094  0.24198439  1
  Te  Te59  1  0.00254724  0.50851405  0.75619913  1
  Te  Te60  1  0.49875542  0.00510236  0.25961031  1
  Te  Te61  1  0.49655262  -0.00045688  0.74775315  1
  Te  Te62  1  0.50329035  0.49587357  0.24484944  1
  Te  Te63  1  0.49830091  0.50050580  0.75483766  1
