# generated using pymatgen
data_AgSbTe2
_symmetry_space_group_name_H-M   'P 1'
_cell_length_a   12.21154104
_cell_length_b   12.22937949
_cell_length_c   12.22527395
_cell_angle_alpha   90.00190195
_cell_angle_beta   90.00067783
_cell_angle_gamma   89.99809847
_symmetry_Int_Tables_number   1
_chemical_formula_structural   AgSbTe2
_chemical_formula_sum   'Ag16 Sb16 Te32'
_cell_volume   1825.71714688
_cell_formula_units_Z   16
loop_
 _symmetry_equiv_pos_site_id
 _symmetry_equiv_pos_as_xyz
  1  'x, y, z'
loop_
 _atom_site_type_symbol
 _atom_site_label
 _atom_site_symmetry_multiplicity
 _atom_site_fract_x
 _atom_site_fract_y
 _atom_site_fract_z
 _atom_site_occupancy
  Ag  Ag0  1  0.49915230  0.74912732  0.25086458  1
  Ag  Ag1  1  0.00164047  0.74708540  0.25469842  1
  Ag  Ag2  1  0.75466612  0.50301705  0.25084263  1
  Ag  Ag3  1  0.00428252  0.74698846  0.74491675  1
  Ag  Ag4  1  0.24212376  0.74698593  0.49863831  1
  Ag  Ag5  1  0.24451191  0.74456936  0.00123958  1
  Ag  Ag6  1  0.00454035  0.25275437  0.74706318  1
  Ag  Ag7  1  0.75742754  -0.00078005  0.74638211  1
  Ag  Ag8  1  0.24259225  0.50044797  0.74961056  1
  Ag  Ag9  1  0.00024720  -0.00391856  0.50163025  1
  Ag  Ag10  1  0.24463540  0.25341155  0.50072010  1
  Ag  Ag11  1  0.24623668  0.25499729  -0.00065627  1
  Ag  Ag12  1  0.00478489  0.50442915  0.50154646  1
  Ag  Ag13  1  0.75302531  -0.00240000  0.25213773  1
  Ag  Ag14  1  0.49870500  0.25098191  0.25066327  1
  Ag  Ag15  1  0.00496883  0.50296027  -0.00111418  1
  Sb  Sb16  1  0.00094674  0.25138473  0.25136410  1
  Sb  Sb17  1  0.75586662  0.25004812  0.49918849  1
  Sb  Sb18  1  0.75914035  0.75019666  0.49720748  1
  Sb  Sb19  1  0.00032387  -0.00245268  -0.00080582  1
  Sb  Sb20  1  0.75996822  0.50088106  0.74862730  1
  Sb  Sb21  1  0.24590972  -0.00198652  0.25133618  1
  Sb  Sb22  1  0.49388431  0.50068144  0.00321208  1
  Sb  Sb23  1  0.75432268  0.25172808  0.00120599  1
  Sb  Sb24  1  0.49993126  -0.00094756  0.49709868  1
  Sb  Sb25  1  0.49583717  0.75019355  0.74910985  1
  Sb  Sb26  1  0.49953808  -0.00042040  0.00236375  1
  Sb  Sb27  1  0.24364594  -0.00058277  0.74788423  1
  Sb  Sb28  1  0.75572688  0.74866114  0.00261456  1
  Sb  Sb29  1  0.49436702  0.50085730  0.49693710  1
  Sb  Sb30  1  0.49547307  0.24968748  0.74919738  1
  Sb  Sb31  1  0.24431899  0.50199827  0.25065682  1
  Te  Te32  1  0.25319059  0.24894391  0.24988089  1
  Te  Te33  1  0.24709702  0.25083709  0.74963505  1
  Te  Te34  1  0.24742672  0.75058588  0.25021296  1
  Te  Te35  1  0.24753071  0.74924179  0.74981209  1
  Te  Te36  1  0.74594954  0.24837981  0.24965690  1
  Te  Te37  1  0.75402460  0.24750281  0.75044551  1
  Te  Te38  1  0.75055762  0.75041274  0.24945803  1
  Te  Te39  1  0.75320213  0.75277911  0.75111036  1
  Te  Te40  1  0.24966303  0.00103173  -0.00014935  1
  Te  Te41  1  0.24345631  -0.00011709  0.50001794  1
  Te  Te42  1  0.24502498  0.50044848  -0.00121624  1
  Te  Te43  1  0.24534841  0.50029227  0.50097056  1
  Te  Te44  1  0.74989245  0.00054655  0.00296929  1
  Te  Te45  1  0.75617576  0.00027402  0.49861300  1
  Te  Te46  1  0.75853148  0.49938780  0.00398832  1
  Te  Te47  1  0.75782095  0.49955566  0.49631945  1
  Te  Te48  1  0.00543929  0.25320939  -0.00214060  1
  Te  Te49  1  0.00434102  0.25040140  0.50166466  1
  Te  Te50  1  0.00474431  0.74781594  0.00084442  1
  Te  Te51  1  0.00306793  0.74909897  0.49960513  1
  Te  Te52  1  0.49116372  0.24992385  0.00453056  1
  Te  Te53  1  0.48999852  0.24996016  0.49578753  1
  Te  Te54  1  0.48939592  0.74977019  0.00577019  1
  Te  Te55  1  0.48829539  0.74983322  0.49455547  1
  Te  Te56  1  -0.00464461  -0.00283185  0.25318249  1
  Te  Te57  1  -0.00340463  -0.00091050  0.74779673  1
  Te  Te58  1  -0.00280548  0.50198849  0.25072866  1
  Te  Te59  1  0.00195868  0.50139506  0.74866444  1
  Te  Te60  1  0.50837883  -0.00161780  0.25116320  1
  Te  Te61  1  0.51358463  -0.00038732  0.74948909  1
  Te  Te62  1  0.50924267  0.50139370  0.25011873  1
  Te  Te63  1  0.49361006  0.50026923  0.75013291  1
