# generated using pymatgen
data_AgSbTe2
_symmetry_space_group_name_H-M   'P 1'
_cell_length_a   12.21300598
_cell_length_b   12.22166732
_cell_length_c   12.21960451
_cell_angle_alpha   90.00511370
_cell_angle_beta   90.00931707
_cell_angle_gamma   89.99389403
_symmetry_Int_Tables_number   1
_chemical_formula_structural   AgSbTe2
_chemical_formula_sum   'Ag16 Sb16 Te32'
_cell_volume   1823.93840385
_cell_formula_units_Z   16
loop_
 _symmetry_equiv_pos_site_id
 _symmetry_equiv_pos_as_xyz
  1  'x, y, z'
loop_
 _atom_site_type_symbol
 _atom_site_label
 _atom_site_symmetry_multiplicity
 _atom_site_fract_x
 _atom_site_fract_y
 _atom_site_fract_z
 _atom_site_occupancy
  Ag  Ag0  1  0.75111253  0.25788149  0.50496672  1
  Ag  Ag1  1  0.24989051  0.25495062  0.50346111  1
  Ag  Ag2  1  -0.00506471  0.25202095  0.25192880  1
  Ag  Ag3  1  0.50555204  0.74434194  0.75120800  1
  Ag  Ag4  1  0.25708521  0.49634345  0.74766070  1
  Ag  Ag5  1  0.50624899  0.00211925  -0.00435444  1
  Ag  Ag6  1  0.74559750  0.00508245  0.75355909  1
  Ag  Ag7  1  0.74752293  0.74258708  0.50299041  1
  Ag  Ag8  1  -0.00749280  0.00442419  -0.00125685  1
  Ag  Ag9  1  0.50518698  0.74656422  0.24925587  1
  Ag  Ag10  1  0.74324442  0.49502494  0.74618531  1
  Ag  Ag11  1  0.74761764  0.49729137  0.25451351  1
  Ag  Ag12  1  0.74682893  0.25010986  -0.00544662  1
  Ag  Ag13  1  0.50535326  0.49856822  -0.00656551  1
  Ag  Ag14  1  -0.00714069  0.49541825  0.50085475  1
  Ag  Ag15  1  0.50716573  0.25538638  0.75219187  1
  Sb  Sb16  1  0.25171325  0.00201095  0.24935851  1
  Sb  Sb17  1  0.50910370  0.49881418  0.50865170  1
  Sb  Sb18  1  0.25328781  0.49740955  0.25282528  1
  Sb  Sb19  1  -0.00675752  0.49572404  -0.00017173  1
  Sb  Sb20  1  -0.00653219  0.74841672  0.74891813  1
  Sb  Sb21  1  0.74822078  0.00234333  0.24579895  1
  Sb  Sb22  1  0.25234149  0.25212880  -0.00341618  1
  Sb  Sb23  1  0.74575036  0.74969610  -0.00316499  1
  Sb  Sb24  1  0.25237480  0.74386359  0.50299362  1
  Sb  Sb25  1  -0.00490555  0.00457641  0.50054748  1
  Sb  Sb26  1  0.25317401  0.74809245  -0.00195692  1
  Sb  Sb27  1  0.50370724  0.00099227  0.50443713  1
  Sb  Sb28  1  -0.00842786  0.25061003  0.74837025  1
  Sb  Sb29  1  0.50510775  0.25377367  0.24817898  1
  Sb  Sb30  1  -0.00634379  0.74814896  0.25146307  1
  Sb  Sb31  1  0.25377221  0.00311434  0.75051869  1
  Te  Te32  1  0.24401938  0.25129161  0.25702649  1
  Te  Te33  1  0.25627283  0.25416062  0.74617026  1
  Te  Te34  1  0.25937535  0.74970521  0.25195351  1
  Te  Te35  1  0.25921879  0.74426888  0.74809219  1
  Te  Te36  1  0.75162689  0.25302770  0.25121902  1
  Te  Te37  1  0.74837545  0.25173449  0.75003360  1
  Te  Te38  1  0.74592501  0.74562847  0.25518161  1
  Te  Te39  1  0.74530201  0.74840249  0.74702668  1
  Te  Te40  1  0.25178669  0.00061739  -0.00112377  1
  Te  Te41  1  0.24816912  0.00850468  0.50105868  1
  Te  Te42  1  0.25547976  0.49925932  -0.00595559  1
  Te  Te43  1  0.24248955  0.49569610  0.50355610  1
  Te  Te44  1  0.74722022  0.00236059  -0.00329530  1
  Te  Te45  1  0.75106164  0.00148217  0.50616712  1
  Te  Te46  1  0.74779616  0.49747265  -0.00153551  1
  Te  Te47  1  0.75053478  0.49746771  0.50122772  1
  Te  Te48  1  -0.00336924  0.24731894  0.00375272  1
  Te  Te49  1  -0.00473881  0.25287479  0.49803155  1
  Te  Te50  1  0.00146882  0.75839026  0.00125361  1
  Te  Te51  1  -0.00547149  0.74481061  0.49890863  1
  Te  Te52  1  0.50271617  0.25012239  -0.00159140  1
  Te  Te53  1  0.50263014  0.24873771  0.50211351  1
  Te  Te54  1  0.50119278  0.74959855  -0.00239445  1
  Te  Te55  1  0.50459769  0.75154307  0.50086200  1
  Te  Te56  1  0.00045636  0.00415554  0.24448049  1
  Te  Te57  1  -0.00422163  -0.00090271  0.75581024  1
  Te  Te58  1  -0.00357732  0.49689418  0.25111537  1
  Te  Te59  1  -0.00155266  0.50115039  0.74813358  1
  Te  Te60  1  0.50054745  -0.00525525  0.24112215  1
  Te  Te61  1  0.50317072  0.00081062  0.75386457  1
  Te  Te62  1  0.50363970  0.50210813  0.24239790  1
  Te  Te63  1  0.50356275  0.49873263  0.75083201  1
