# generated using pymatgen
data_AgSbTe2
_symmetry_space_group_name_H-M   'P 1'
_cell_length_a   12.22725347
_cell_length_b   12.23050891
_cell_length_c   12.23695536
_cell_angle_alpha   90.00049245
_cell_angle_beta   89.99347376
_cell_angle_gamma   89.99927801
_symmetry_Int_Tables_number   1
_chemical_formula_structural   AgSbTe2
_chemical_formula_sum   'Ag16 Sb16 Te32'
_cell_volume   1829.98199430
_cell_formula_units_Z   16
loop_
 _symmetry_equiv_pos_site_id
 _symmetry_equiv_pos_as_xyz
  1  'x, y, z'
loop_
 _atom_site_type_symbol
 _atom_site_label
 _atom_site_symmetry_multiplicity
 _atom_site_fract_x
 _atom_site_fract_y
 _atom_site_fract_z
 _atom_site_occupancy
  Ag  Ag0  1  0.74155551  0.25439655  0.49722384  1
  Ag  Ag1  1  0.49284359  0.25143334  0.75182975  1
  Ag  Ag2  1  0.25317281  0.74338883  0.50128346  1
  Ag  Ag3  1  0.00877616  0.00501413  -0.00205737  1
  Ag  Ag4  1  0.25258681  0.00711352  0.75689790  1
  Ag  Ag5  1  0.25506728  0.25123969  -0.00367716  1
  Ag  Ag6  1  0.49782988  0.25425513  0.24865729  1
  Ag  Ag7  1  0.49314438  0.49250250  0.49795970  1
  Ag  Ag8  1  0.25256131  0.49301702  0.75221606  1
  Ag  Ag9  1  0.25290287  0.49492780  0.24792745  1
  Ag  Ag10  1  0.25844119  0.25699096  0.50342884  1
  Ag  Ag11  1  0.25090242  0.74771929  -0.00148765  1
  Ag  Ag12  1  0.49178770  0.00799778  -0.00172637  1
  Ag  Ag13  1  0.00781843  0.49564348  0.00093260  1
  Ag  Ag14  1  0.74424722  0.25268136  0.00281954  1
  Ag  Ag15  1  0.74590575  0.49285525  0.24837379  1
  Sb  Sb16  1  0.74566214  0.74334830  0.49794666  1
  Sb  Sb17  1  0.00352867  0.25230613  0.24633071  1
  Sb  Sb18  1  0.74675445  0.00631932  0.75273860  1
  Sb  Sb19  1  0.00424469  0.74786623  0.24816722  1
  Sb  Sb20  1  0.74814728  0.74637958  0.00185951  1
  Sb  Sb21  1  0.00728017  0.49793195  0.50018974  1
  Sb  Sb22  1  0.00511194  0.74938074  0.75210007  1
  Sb  Sb23  1  0.49598828  0.00886243  0.50170039  1
  Sb  Sb24  1  0.00998627  0.25017466  0.75431254  1
  Sb  Sb25  1  0.49109566  0.49060332  0.00262849  1
  Sb  Sb26  1  0.74675014  0.00920937  0.24787493  1
  Sb  Sb27  1  0.25239031  0.00699203  0.24247762  1
  Sb  Sb28  1  0.74608768  0.49401558  0.75200469  1
  Sb  Sb29  1  0.49498690  0.74708557  0.75137843  1
  Sb  Sb30  1  0.49584168  0.74416792  0.24824362  1
  Sb  Sb31  1  0.00547085  0.00357108  0.50223743  1
  Te  Te32  1  0.25312290  0.25340442  0.24944379  1
  Te  Te33  1  0.25305726  0.25137902  0.75139543  1
  Te  Te34  1  0.25122783  0.74175827  0.24940174  1
  Te  Te35  1  0.25150641  0.74849002  0.75172999  1
  Te  Te36  1  0.74591354  0.25436834  0.24875451  1
  Te  Te37  1  0.74040671  0.25045855  0.75033595  1
  Te  Te38  1  0.74881226  0.73883515  0.25145301  1
  Te  Te39  1  0.74946777  0.75067792  0.74794093  1
  Te  Te40  1  0.25010632  0.00245591  -0.00037822  1
  Te  Te41  1  0.24874785  0.00037761  0.50540795  1
  Te  Te42  1  0.25129585  0.49824117  -0.00005025  1
  Te  Te43  1  0.24954986  0.49695850  0.50005596  1
  Te  Te44  1  0.75111908  0.00381937  -0.00022101  1
  Te  Te45  1  0.75208272  0.00486986  0.50003390  1
  Te  Te46  1  0.75479987  0.49752566  0.00194828  1
  Te  Te47  1  0.74859719  0.49661835  0.49826544  1
  Te  Te48  1  0.00046227  0.25078270  -0.00022443  1
  Te  Te49  1  -0.00168287  0.24932451  0.49968217  1
  Te  Te50  1  0.00512778  0.74937402  0.00016378  1
  Te  Te51  1  0.00730997  0.75120669  0.49979157  1
  Te  Te52  1  0.49859859  0.25035840  -0.00011201  1
  Te  Te53  1  0.49765396  0.25136066  0.49937210  1
  Te  Te54  1  0.49554202  0.76083253  0.00000900  1
  Te  Te55  1  0.49470901  0.74390863  0.49952423  1
  Te  Te56  1  -0.00100835  -0.00148319  0.24067834  1
  Te  Te57  1  0.00657108  -0.00058072  0.75691134  1
  Te  Te58  1  0.00237310  0.50004553  0.24484331  1
  Te  Te59  1  0.00709235  0.50049761  0.75624887  1
  Te  Te60  1  0.50014015  0.00841855  0.24493224  1
  Te  Te61  1  0.49542115  0.00553984  0.75325916  1
  Te  Te62  1  0.49760758  0.49526784  0.25159255  1
  Te  Te63  1  0.49539840  0.49551743  0.74501807  1
