# generated using pymatgen
data_AgSbTe2
_symmetry_space_group_name_H-M   'P 1'
_cell_length_a   12.30422618
_cell_length_b   12.30603415
_cell_length_c   12.28855032
_cell_angle_alpha   89.99383142
_cell_angle_beta   90.00324622
_cell_angle_gamma   90.00047724
_symmetry_Int_Tables_number   1
_chemical_formula_structural   AgSbTe2
_chemical_formula_sum   'Ag16 Sb16 Te32'
_cell_volume   1860.68591741
_cell_formula_units_Z   16
loop_
 _symmetry_equiv_pos_site_id
 _symmetry_equiv_pos_as_xyz
  1  'x, y, z'
loop_
 _atom_site_type_symbol
 _atom_site_label
 _atom_site_symmetry_multiplicity
 _atom_site_fract_x
 _atom_site_fract_y
 _atom_site_fract_z
 _atom_site_occupancy
  Ag  Ag0  1  0.00036126  0.01107281  0.01592217  1
  Ag  Ag1  1  0.50177301  0.00714705  0.49086070  1
  Ag  Ag2  1  0.24337453  0.24413676  0.47974122  1
  Ag  Ag3  1  0.00449478  0.48739057  0.00915210  1
  Ag  Ag4  1  0.47780604  0.24608098  0.25376434  1
  Ag  Ag5  1  0.75645326  0.75882121  0.48995346  1
  Ag  Ag6  1  0.01666309  0.24140873  0.24307408  1
  Ag  Ag7  1  0.76074755  0.75335200  0.01100558  1
  Ag  Ag8  1  0.23404376  0.25267246  0.02118298  1
  Ag  Ag9  1  0.23987427  0.01788152  0.25351084  1
  Ag  Ag10  1  0.24497500  0.49240964  0.75249178  1
  Ag  Ag11  1  0.76631660  0.24786099  0.01568735  1
  Ag  Ag12  1  -0.00108013  0.75960157  0.24699503  1
  Ag  Ag13  1  0.75670139  0.24163736  0.48512415  1
  Ag  Ag14  1  0.24146031  0.47827999  0.24722038  1
  Ag  Ag15  1  0.00006957  0.00894551  0.48494213  1
  Sb  Sb16  1  0.49855191  0.24950348  0.74575434  1
  Sb  Sb17  1  0.50239846  0.75468452  0.25226202  1
  Sb  Sb18  1  0.49893088  0.49584419  0.49517896  1
  Sb  Sb19  1  -0.00003365  0.75014319  0.74953646  1
  Sb  Sb20  1  0.49600054  0.49937146  0.00339725  1
  Sb  Sb21  1  0.49992907  0.75032174  0.74803387  1
  Sb  Sb22  1  0.50000989  0.00385161  0.01076406  1
  Sb  Sb23  1  0.23978425  0.74905032  0.00457035  1
  Sb  Sb24  1  0.00183723  0.49192393  0.49208188  1
  Sb  Sb25  1  0.76040596  0.00569494  0.25042169  1
  Sb  Sb26  1  0.24192257  0.75583346  0.49622719  1
  Sb  Sb27  1  0.75119581  0.00033672  0.74916927  1
  Sb  Sb28  1  0.24828785  0.00506241  0.75000079  1
  Sb  Sb29  1  0.75499928  0.49868222  0.75295188  1
  Sb  Sb30  1  0.00116339  0.25007901  0.75448755  1
  Sb  Sb31  1  0.75658605  0.49596683  0.24850369  1
  Te  Te32  1  0.24888956  0.24749158  0.25004314  1
  Te  Te33  1  0.25026756  0.25420356  0.75043414  1
  Te  Te34  1  0.24467370  0.75207257  0.25051141  1
  Te  Te35  1  0.25210304  0.73839687  0.74976057  1
  Te  Te36  1  0.75472918  0.25050524  0.25007932  1
  Te  Te37  1  0.74927825  0.25138645  0.74896381  1
  Te  Te38  1  0.75436949  0.74581680  0.25039450  1
  Te  Te39  1  0.74909085  0.74894063  0.74732765  1
  Te  Te40  1  0.24847469  0.00031704  -0.00219953  1
  Te  Te41  1  0.23973976  0.00278630  0.50206600  1
  Te  Te42  1  0.24771932  0.50025428  0.00804988  1
  Te  Te43  1  0.24842247  0.49523685  0.49416505  1
  Te  Te44  1  0.75322414  0.00572845  0.00139991  1
  Te  Te45  1  0.75829147  0.00569418  0.49847790  1
  Te  Te46  1  0.75533698  0.49400555  -0.00047765  1
  Te  Te47  1  0.75075373  0.49687872  0.50149323  1
  Te  Te48  1  -0.00068376  0.24610058  0.00069520  1
  Te  Te49  1  -0.00263431  0.24996476  0.49843781  1
  Te  Te50  1  -0.00275297  0.75647937  0.00307377  1
  Te  Te51  1  -0.00339948  0.75290506  0.49662236  1
  Te  Te52  1  0.50471142  0.24804873  0.00691287  1
  Te  Te53  1  0.50434143  0.24872481  0.49548045  1
  Te  Te54  1  0.51993743  0.75145365  -0.00040947  1
  Te  Te55  1  0.51266191  0.75651488  0.49943637  1
  Te  Te56  1  0.00161742  0.00209793  0.24937521  1
  Te  Te57  1  0.00007378  -0.00006353  0.74904993  1
  Te  Te58  1  0.00260174  0.49745787  0.24611537  1
  Te  Te59  1  0.00516155  0.50031168  0.76400506  1
  Te  Te60  1  0.48549797  0.00263790  0.25441333  1
  Te  Te61  1  0.49854921  -0.00191741  0.73218308  1
  Te  Te62  1  0.48560778  0.49344702  0.24990566  1
  Te  Te63  1  0.48734086  0.50107244  0.75024418  1
