# generated using pymatgen
data_AgSbTe2
_symmetry_space_group_name_H-M   'P 1'
_cell_length_a   12.20532446
_cell_length_b   12.21381544
_cell_length_c   12.20686520
_cell_angle_alpha   90.00264599
_cell_angle_beta   89.99630029
_cell_angle_gamma   89.99971789
_symmetry_Int_Tables_number   1
_chemical_formula_structural   AgSbTe2
_chemical_formula_sum   'Ag16 Sb16 Te32'
_cell_volume   1819.72109331
_cell_formula_units_Z   16
loop_
 _symmetry_equiv_pos_site_id
 _symmetry_equiv_pos_as_xyz
  1  'x, y, z'
loop_
 _atom_site_type_symbol
 _atom_site_label
 _atom_site_symmetry_multiplicity
 _atom_site_fract_x
 _atom_site_fract_y
 _atom_site_fract_z
 _atom_site_occupancy
  Ag  Ag0  1  -0.00177591  0.00296500  0.49641843  1
  Ag  Ag1  1  0.75117117  0.00085511  0.25376722  1
  Ag  Ag2  1  0.25182803  0.24666142  0.00001195  1
  Ag  Ag3  1  0.49792745  0.49900616  0.50319284  1
  Ag  Ag4  1  0.25389050  0.49664391  0.74619125  1
  Ag  Ag5  1  0.74873363  0.75194581  0.50000428  1
  Ag  Ag6  1  0.74603758  0.75322188  -0.00004230  1
  Ag  Ag7  1  0.49987604  0.75071482  0.74899509  1
  Ag  Ag8  1  0.25419954  0.00371119  0.75068588  1
  Ag  Ag9  1  0.00315124  0.24722354  0.25475328  1
  Ag  Ag10  1  0.49527362  0.24919074  0.74844530  1
  Ag  Ag11  1  0.00184106  0.49685271  0.49847645  1
  Ag  Ag12  1  0.24830246  0.00492028  0.24982838  1
  Ag  Ag13  1  0.49737225  0.00033099  -0.00266183  1
  Ag  Ag14  1  0.75171768  0.24807141  0.49863975  1
  Ag  Ag15  1  0.24914025  0.49554107  0.25392966  1
  Sb  Sb16  1  -0.00086248  0.75278651  0.25306116  1
  Sb  Sb17  1  0.74757940  0.24617884  0.00114225  1
  Sb  Sb18  1  0.50189130  0.75062500  0.25133389  1
  Sb  Sb19  1  0.75140780  0.49780333  0.25471385  1
  Sb  Sb20  1  0.00310497  0.49797054  0.00168142  1
  Sb  Sb21  1  0.24854549  0.25115928  0.49962064  1
  Sb  Sb22  1  0.00436191  0.24958614  0.74475919  1
  Sb  Sb23  1  0.00235338  0.00206574  0.00301158  1
  Sb  Sb24  1  0.00019350  0.75021871  0.74678044  1
  Sb  Sb25  1  0.74669212  -0.00053615  0.74720124  1
  Sb  Sb26  1  0.25290025  0.74807178  0.50117812  1
  Sb  Sb27  1  0.50086212  0.00114037  0.50245469  1
  Sb  Sb28  1  0.25367635  0.75359505  -0.00193922  1
  Sb  Sb29  1  0.74568653  0.50005102  0.74588085  1
  Sb  Sb30  1  0.49751060  0.49960075  -0.00286380  1
  Sb  Sb31  1  0.49641626  0.24894050  0.25240223  1
  Te  Te32  1  0.24837564  0.24773875  0.24795910  1
  Te  Te33  1  0.25294691  0.24920297  0.75228240  1
  Te  Te34  1  0.25042626  0.75136548  0.24864037  1
  Te  Te35  1  0.25683155  0.75023725  0.75135038  1
  Te  Te36  1  0.75330817  0.24589746  0.25344083  1
  Te  Te37  1  0.74436583  0.24990566  0.74625518  1
  Te  Te38  1  0.74912941  0.75570505  0.25216663  1
  Te  Te39  1  0.74368907  0.75034333  0.74824491  1
  Te  Te40  1  0.25258649  0.00248376  0.00094014  1
  Te  Te41  1  0.24723775  -0.00165359  0.49788371  1
  Te  Te42  1  0.24996428  0.49637920  0.00026032  1
  Te  Te43  1  0.24987787  0.50166194  0.49998375  1
  Te  Te44  1  0.74688449  -0.00204938  0.00381064  1
  Te  Te45  1  0.75148566  -0.00007514  0.49713022  1
  Te  Te46  1  0.75011542  0.50671336  0.00116465  1
  Te  Te47  1  0.75097866  0.50035578  0.49853254  1
  Te  Te48  1  0.00485494  0.25040450  0.00707161  1
  Te  Te49  1  -0.00458993  0.24997776  0.49676683  1
  Te  Te50  1  -0.01067485  0.74985752  -0.00107420  1
  Te  Te51  1  -0.00877617  0.74964660  0.50096890  1
  Te  Te52  1  0.49637481  0.24612392  -0.00549930  1
  Te  Te53  1  0.50617658  0.25336065  0.50425742  1
  Te  Te54  1  0.50453592  0.75414608  -0.00531183  1
  Te  Te55  1  0.50604720  0.74616877  0.50515079  1
  Te  Te56  1  0.00228497  0.00261482  0.25370981  1
  Te  Te57  1  0.00833329  0.00082419  0.74365989  1
  Te  Te58  1  0.00544300  0.49575489  0.25554237  1
  Te  Te59  1  0.00894503  0.49929099  0.74280335  1
  Te  Te60  1  0.49781857  0.00047380  0.24625471  1
  Te  Te61  1  0.49572373  0.00049932  0.75183494  1
  Te  Te62  1  0.49257802  0.49996442  0.25620969  1
  Te  Te63  1  0.49571536  0.49956647  0.74655509  1
