# generated using pymatgen
data_AgSbTe2
_symmetry_space_group_name_H-M   'P 1'
_cell_length_a   12.29334674
_cell_length_b   12.31574520
_cell_length_c   12.28039598
_cell_angle_alpha   89.99388446
_cell_angle_beta   89.99611443
_cell_angle_gamma   89.99863912
_symmetry_Int_Tables_number   1
_chemical_formula_structural   AgSbTe2
_chemical_formula_sum   'Ag16 Sb16 Te32'
_cell_volume   1859.27313223
_cell_formula_units_Z   16
loop_
 _symmetry_equiv_pos_site_id
 _symmetry_equiv_pos_as_xyz
  1  'x, y, z'
loop_
 _atom_site_type_symbol
 _atom_site_label
 _atom_site_symmetry_multiplicity
 _atom_site_fract_x
 _atom_site_fract_y
 _atom_site_fract_z
 _atom_site_occupancy
  Ag  Ag0  1  0.50593157  0.49847571  0.50613218  1
  Ag  Ag1  1  0.74641208  0.49334533  0.74043473  1
  Ag  Ag2  1  0.74281049  0.25694033  0.51066764  1
  Ag  Ag3  1  0.25141468  0.76490300  -0.01572972  1
  Ag  Ag4  1  0.01492198  0.00348229  -0.01091773  1
  Ag  Ag5  1  0.25799547  0.75274322  0.51180058  1
  Ag  Ag6  1  0.49629179  0.00139699  0.51151917  1
  Ag  Ag7  1  0.24883893  0.23537531  -0.01848335  1
  Ag  Ag8  1  0.25276630  0.00989777  0.75498872  1
  Ag  Ag9  1  0.74594098  0.00682710  0.74264009  1
  Ag  Ag10  1  0.25569193  0.24772865  0.51441660  1
  Ag  Ag11  1  0.74616411  0.49864735  0.26904084  1
  Ag  Ag12  1  0.48783293  0.00142259  -0.01544520  1
  Ag  Ag13  1  0.74053490  0.74231963  0.50636620  1
  Ag  Ag14  1  0.00710498  0.24569711  0.74939334  1
  Ag  Ag15  1  0.25116620  0.48971216  0.74161105  1
  Sb  Sb16  1  -0.00457738  0.50003924  0.50329357  1
  Sb  Sb17  1  0.74877684  0.24703845  -0.01355757  1
  Sb  Sb18  1  0.50039784  0.75024344  0.25186607  1
  Sb  Sb19  1  0.74606078  0.75458668  -0.00748094  1
  Sb  Sb20  1  0.00188839  0.75457007  0.75108126  1
  Sb  Sb21  1  0.49281327  0.24803603  0.74786113  1
  Sb  Sb22  1  0.25398430  0.49894907  0.26177510  1
  Sb  Sb23  1  0.50217002  0.24960623  0.25220087  1
  Sb  Sb24  1  0.49507667  0.49784302  -0.00750176  1
  Sb  Sb25  1  0.00556967  0.00161835  0.50668511  1
  Sb  Sb26  1  -0.00097245  0.75070848  0.24943692  1
  Sb  Sb27  1  0.00350122  0.49693110  -0.00504351  1
  Sb  Sb28  1  0.25048876  0.00055262  0.24933572  1
  Sb  Sb29  1  0.74986003  0.00113682  0.26209887  1
  Sb  Sb30  1  0.49595435  0.75180659  0.74863936  1
  Sb  Sb31  1  -0.00150566  0.24920462  0.24996131  1
  Te  Te32  1  0.24709313  0.25206052  0.25609610  1
  Te  Te33  1  0.24972417  0.24779790  0.74724131  1
  Te  Te34  1  0.24863345  0.74803975  0.25689814  1
  Te  Te35  1  0.24880804  0.75083509  0.74678787  1
  Te  Te36  1  0.75189487  0.25307842  0.26382417  1
  Te  Te37  1  0.75389627  0.24820717  0.74718745  1
  Te  Te38  1  0.75144502  0.74624716  0.26115358  1
  Te  Te39  1  0.75377786  0.74935876  0.74518099  1
  Te  Te40  1  0.25545160  0.00070275  0.00089661  1
  Te  Te41  1  0.25032310  0.00039141  0.49874993  1
  Te  Te42  1  0.25474412  0.50034732  -0.00681400  1
  Te  Te43  1  0.25094143  0.49984351  0.50445767  1
  Te  Te44  1  0.74043743  -0.00245535  -0.00809965  1
  Te  Te45  1  0.74948320  0.00081396  0.50492514  1
  Te  Te46  1  0.74606353  0.50227283  -0.01202141  1
  Te  Te47  1  0.75022035  0.49959859  0.50672128  1
  Te  Te48  1  0.00372551  0.24853388  -0.00305351  1
  Te  Te49  1  0.00487677  0.24982459  0.50344843  1
  Te  Te50  1  0.00906648  0.75591120  -0.00017380  1
  Te  Te51  1  0.00615410  0.75098267  0.49949852  1
  Te  Te52  1  0.49370591  0.24521164  0.00264299  1
  Te  Te53  1  0.49866501  0.24670480  0.50053919  1
  Te  Te54  1  0.49340486  0.75613301  0.00058301  1
  Te  Te55  1  0.49772223  0.75355119  0.50138774  1
  Te  Te56  1  -0.00233572  -0.00044709  0.22861355  1
  Te  Te57  1  0.00326471  0.00435706  0.75248528  1
  Te  Te58  1  -0.01317682  0.50051857  0.24699021  1
  Te  Te59  1  0.00305148  0.48923038  0.74955370  1
  Te  Te60  1  0.50098179  0.00056208  0.25377707  1
  Te  Te61  1  0.49885275  -0.00053148  0.74638388  1
  Te  Te62  1  0.50671262  0.49945102  0.26108674  1
  Te  Te63  1  0.50108478  0.50108133  0.74396518  1
