# generated using pymatgen
data_AgSbTe2
_symmetry_space_group_name_H-M   'P 1'
_cell_length_a   12.23474151
_cell_length_b   12.22837600
_cell_length_c   12.22159373
_cell_angle_alpha   90.00608727
_cell_angle_beta   89.99557478
_cell_angle_gamma   90.00748788
_symmetry_Int_Tables_number   1
_chemical_formula_structural   AgSbTe2
_chemical_formula_sum   'Ag16 Sb16 Te32'
_cell_volume   1828.48506625
_cell_formula_units_Z   16
loop_
 _symmetry_equiv_pos_site_id
 _symmetry_equiv_pos_as_xyz
  1  'x, y, z'
loop_
 _atom_site_type_symbol
 _atom_site_label
 _atom_site_symmetry_multiplicity
 _atom_site_fract_x
 _atom_site_fract_y
 _atom_site_fract_z
 _atom_site_occupancy
  Ag  Ag0  1  0.50120848  0.23476143  0.75300350  1
  Ag  Ag1  1  0.50182278  0.76483732  0.75400498  1
  Ag  Ag2  1  0.25024533  0.50240275  0.75619121  1
  Ag  Ag3  1  0.74882297  0.24960346  -0.00590122  1
  Ag  Ag4  1  0.25245018  0.74697036  -0.00648715  1
  Ag  Ag5  1  0.24911300  0.50280457  0.24375391  1
  Ag  Ag6  1  0.74760674  0.75444773  0.50728934  1
  Ag  Ag7  1  0.75130768  0.50186491  0.24449836  1
  Ag  Ag8  1  0.50255675  -0.00306026  -0.01464474  1
  Ag  Ag9  1  0.50327567  -0.00244536  0.51555027  1
  Ag  Ag10  1  -0.00112525  0.24652438  0.75254868  1
  Ag  Ag11  1  -0.00344257  -0.00063496  0.50858569  1
  Ag  Ag12  1  0.26560952  -0.00136098  0.75230990  1
  Ag  Ag13  1  0.74664438  0.75069437  -0.00563588  1
  Ag  Ag14  1  0.00020707  0.50081017  -0.00280166  1
  Ag  Ag15  1  0.73607241  -0.00187320  0.75141146  1
  Sb  Sb16  1  -0.00117060  0.75306239  0.75099797  1
  Sb  Sb17  1  0.75056770  0.50057363  0.75408212  1
  Sb  Sb18  1  0.50067562  0.75010308  0.24633919  1
  Sb  Sb19  1  -0.00192615  0.49998246  0.50320768  1
  Sb  Sb20  1  0.50162268  0.50163984  0.50428246  1
  Sb  Sb21  1  -0.00048023  0.74865297  0.24916127  1
  Sb  Sb22  1  -0.00183865  0.00052275  -0.00669535  1
  Sb  Sb23  1  0.25064497  0.24916086  0.50351095  1
  Sb  Sb24  1  -0.00239726  0.25222745  0.24711536  1
  Sb  Sb25  1  0.25248052  0.75141904  0.50605664  1
  Sb  Sb26  1  0.49946087  0.50280566  -0.00334268  1
  Sb  Sb27  1  0.74901817  0.24715273  0.50509783  1
  Sb  Sb28  1  0.74948128  -0.00146623  0.24923082  1
  Sb  Sb29  1  0.50252865  0.24980324  0.24687466  1
  Sb  Sb30  1  0.25152702  0.25215065  -0.00454401  1
  Sb  Sb31  1  0.25083217  -0.00274506  0.24649447  1
  Te  Te32  1  0.24998632  0.25857975  0.24939440  1
  Te  Te33  1  0.25128498  0.24831542  0.75126412  1
  Te  Te34  1  0.25002892  0.74477727  0.24212758  1
  Te  Te35  1  0.25114284  0.75042334  0.75320306  1
  Te  Te36  1  0.74997626  0.25597917  0.24196868  1
  Te  Te37  1  0.74889002  0.25038315  0.75330923  1
  Te  Te38  1  0.74981493  0.74626335  0.24513718  1
  Te  Te39  1  0.74873825  0.75059332  0.75253245  1
  Te  Te40  1  0.25081769  -0.00360220  -0.00274533  1
  Te  Te41  1  0.25185902  -0.00132994  0.50300643  1
  Te  Te42  1  0.24954688  0.50214585  -0.00316513  1
  Te  Te43  1  0.24921645  0.50133605  0.50001690  1
  Te  Te44  1  0.75007064  -0.00312608  -0.00102678  1
  Te  Te45  1  0.74791045  -0.00270523  0.49981244  1
  Te  Te46  1  0.75064647  0.50313869  0.00095837  1
  Te  Te47  1  0.75137869  0.50585187  0.49319475  1
  Te  Te48  1  -0.00459328  0.25249357  -0.00420867  1
  Te  Te49  1  -0.00064538  0.24604730  0.50708962  1
  Te  Te50  1  -0.00134856  0.74614638  0.00016979  1
  Te  Te51  1  -0.00622056  0.75415685  0.49955835  1
  Te  Te52  1  0.50421202  0.24483902  -0.00406775  1
  Te  Te53  1  0.50115287  0.24378861  0.50648653  1
  Te  Te54  1  0.50199142  0.75278546  -0.00293635  1
  Te  Te55  1  0.50404562  0.75343300  0.50456226  1
  Te  Te56  1  0.00214537  0.00146130  0.26207517  1
  Te  Te57  1  -0.00102163  0.00337543  0.74732480  1
  Te  Te58  1  0.00078508  0.49887273  0.24579094  1
  Te  Te59  1  0.00368620  0.49557299  0.75358433  1
  Te  Te60  1  0.49786257  0.00125460  0.25146086  1
  Te  Te61  1  0.50064775  -0.00092622  0.75162434  1
  Te  Te62  1  0.49841018  0.49897039  0.25225242  1
  Te  Te63  1  0.49417964  0.49931261  0.74869902  1
