# generated using pymatgen
data_AgSbTe2
_symmetry_space_group_name_H-M   'P 1'
_cell_length_a   12.21816367
_cell_length_b   12.23020993
_cell_length_c   12.21937215
_cell_angle_alpha   89.99897636
_cell_angle_beta   89.99912649
_cell_angle_gamma   90.00072901
_symmetry_Int_Tables_number   1
_chemical_formula_structural   AgSbTe2
_chemical_formula_sum   'Ag16 Sb16 Te32'
_cell_volume   1825.94941461
_cell_formula_units_Z   16
loop_
 _symmetry_equiv_pos_site_id
 _symmetry_equiv_pos_as_xyz
  1  'x, y, z'
loop_
 _atom_site_type_symbol
 _atom_site_label
 _atom_site_symmetry_multiplicity
 _atom_site_fract_x
 _atom_site_fract_y
 _atom_site_fract_z
 _atom_site_occupancy
  Ag  Ag0  1  0.75687947  -0.00361149  0.75276065  1
  Ag  Ag1  1  0.74948624  0.50179290  0.24644517  1
  Ag  Ag2  1  0.50913700  0.74691902  0.75383375  1
  Ag  Ag3  1  -0.00361020  0.25154257  0.75359010  1
  Ag  Ag4  1  0.75223383  0.74644753  -0.00610050  1
  Ag  Ag5  1  0.50368795  0.74410799  0.24653981  1
  Ag  Ag6  1  -0.00911300  0.74836114  0.75358371  1
  Ag  Ag7  1  -0.00295190  0.00008532  -0.00892446  1
  Ag  Ag8  1  0.75629722  0.50414587  0.75348175  1
  Ag  Ag9  1  0.25081190  0.49849763  0.24688297  1
  Ag  Ag10  1  -0.00214439  0.50001051  0.50614608  1
  Ag  Ag11  1  0.50370492  0.25290006  0.75387260  1
  Ag  Ag12  1  0.49988411  0.25585257  0.24593264  1
  Ag  Ag13  1  -0.00348837  0.49987280  -0.00584317  1
  Ag  Ag14  1  -0.00267062  -0.00001886  0.50917730  1
  Ag  Ag15  1  0.24764073  0.25279033  -0.00076803  1
  Sb  Sb16  1  0.75072455  -0.00182627  0.24683658  1
  Sb  Sb17  1  0.24975442  0.00119000  0.24697953  1
  Sb  Sb18  1  0.75252066  0.25062427  0.50244998  1
  Sb  Sb19  1  -0.00044183  0.25349367  0.24576110  1
  Sb  Sb20  1  0.50215525  0.50004273  0.50015426  1
  Sb  Sb21  1  -0.00469829  0.74648679  0.24692641  1
  Sb  Sb22  1  0.24754859  0.74713424  0.00075840  1
  Sb  Sb23  1  0.50243584  0.00006845  0.50406777  1
  Sb  Sb24  1  0.24759612  0.74741904  0.49956091  1
  Sb  Sb25  1  0.50345501  0.00036930  -0.00304177  1
  Sb  Sb26  1  0.75237664  0.25375332  -0.00285894  1
  Sb  Sb27  1  0.50409000  0.49982940  0.00000174  1
  Sb  Sb28  1  0.24332383  0.49858184  0.75354304  1
  Sb  Sb29  1  0.24183967  0.00088190  0.75184495  1
  Sb  Sb30  1  0.24726715  0.25251739  0.49998682  1
  Sb  Sb31  1  0.75204930  0.74927384  0.50713260  1
  Te  Te32  1  0.25448516  0.25294952  0.24574335  1
  Te  Te33  1  0.25285097  0.25069420  0.75507783  1
  Te  Te34  1  0.25914485  0.74539936  0.24887369  1
  Te  Te35  1  0.25498132  0.74978362  0.75080992  1
  Te  Te36  1  0.74352644  0.25445126  0.24840873  1
  Te  Te37  1  0.74926377  0.25217193  0.75161230  1
  Te  Te38  1  0.74566285  0.74711542  0.24382758  1
  Te  Te39  1  0.75015407  0.74719101  0.75225470  1
  Te  Te40  1  0.24078253  0.00651699  0.00076944  1
  Te  Te41  1  0.23902587  0.00025197  0.49900472  1
  Te  Te42  1  0.24279915  0.49631917  0.00415419  1
  Te  Te43  1  0.24137542  0.49952072  0.49098686  1
  Te  Te44  1  0.75519340  -0.00547060  -0.00376558  1
  Te  Te45  1  0.75753195  0.00044445  0.50565197  1
  Te  Te46  1  0.75358670  0.50313471  -0.00157279  1
  Te  Te47  1  0.75632847  0.49992953  0.49991437  1
  Te  Te48  1  0.00168984  0.25131768  -0.00280696  1
  Te  Te49  1  0.00082827  0.25087671  0.50661293  1
  Te  Te50  1  -0.00175222  0.74879634  -0.00319719  1
  Te  Te51  1  0.00075350  0.74910469  0.50585204  1
  Te  Te52  1  0.49534723  0.24942917  -0.00271330  1
  Te  Te53  1  0.49874758  0.24892089  0.50275987  1
  Te  Te54  1  0.50254869  0.75050664  -0.00306701  1
  Te  Te55  1  0.49890396  0.75111072  0.50167913  1
  Te  Te56  1  -0.00137488  0.00009384  0.25025140  1
  Te  Te57  1  -0.00217750  0.00026696  0.75188858  1
  Te  Te58  1  -0.00336034  0.49989472  0.24929313  1
  Te  Te59  1  -0.00006630  0.49976287  0.75141914  1
  Te  Te60  1  0.50128892  0.00039658  0.25134367  1
  Te  Te61  1  0.50707221  0.00058502  0.74878986  1
  Te  Te62  1  0.50293561  0.49962301  0.25103827  1
  Te  Te63  1  0.50414075  0.49937508  0.74839140  1
