# generated using pymatgen
data_AgSbTe2
_symmetry_space_group_name_H-M   'P 1'
_cell_length_a   12.21337461
_cell_length_b   12.21216944
_cell_length_c   12.20759592
_cell_angle_alpha   90.00016364
_cell_angle_beta   89.99953404
_cell_angle_gamma   89.99762902
_symmetry_Int_Tables_number   1
_chemical_formula_structural   AgSbTe2
_chemical_formula_sum   'Ag16 Sb16 Te32'
_cell_volume   1820.78490634
_cell_formula_units_Z   16
loop_
 _symmetry_equiv_pos_site_id
 _symmetry_equiv_pos_as_xyz
  1  'x, y, z'
loop_
 _atom_site_type_symbol
 _atom_site_label
 _atom_site_symmetry_multiplicity
 _atom_site_fract_x
 _atom_site_fract_y
 _atom_site_fract_z
 _atom_site_occupancy
  Ag  Ag0  1  0.50092670  0.50126170  0.50380116  1
  Ag  Ag1  1  0.24970876  0.24549867  -0.00213523  1
  Ag  Ag2  1  0.25102022  0.50038007  0.74907183  1
  Ag  Ag3  1  0.00074974  0.24506814  0.25088609  1
  Ag  Ag4  1  0.74955233  0.24905926  0.50064301  1
  Ag  Ag5  1  0.74769658  -0.00010177  0.25218116  1
  Ag  Ag6  1  0.00257802  0.24992597  0.74923472  1
  Ag  Ag7  1  0.25307448  -0.00026827  0.24858917  1
  Ag  Ag8  1  0.49982096  -0.00171090  0.49768484  1
  Ag  Ag9  1  0.00326620  0.75005672  0.74855001  1
  Ag  Ag10  1  0.00116546  0.75533189  0.25143451  1
  Ag  Ag11  1  0.25231403  0.00011212  0.75161708  1
  Ag  Ag12  1  0.49889366  0.75720771  0.25270403  1
  Ag  Ag13  1  0.49579202  -0.00079838  0.00161794  1
  Ag  Ag14  1  0.49711348  0.75102039  0.74705785  1
  Ag  Ag15  1  0.74888705  0.49974061  0.74641559  1
  Sb  Sb16  1  0.74757195  0.49890707  0.25423243  1
  Sb  Sb17  1  0.00229175  0.49899218  -0.00258236  1
  Sb  Sb18  1  0.74762004  0.00040988  0.74730461  1
  Sb  Sb19  1  0.25305276  0.75163963  0.50212353  1
  Sb  Sb20  1  0.25153532  0.75518108  -0.00213645  1
  Sb  Sb21  1  0.74620665  0.75134037  0.50007807  1
  Sb  Sb22  1  0.74876470  0.75291531  -0.00006283  1
  Sb  Sb23  1  0.24977020  0.24791209  0.50195152  1
  Sb  Sb24  1  -0.00109369  0.49905323  0.50339178  1
  Sb  Sb25  1  0.49653402  0.24887322  0.74864297  1
  Sb  Sb26  1  0.49768767  0.50109324  -0.00370120  1
  Sb  Sb27  1  0.49909336  0.24036249  0.25159343  1
  Sb  Sb28  1  0.75028720  0.24719030  -0.00071613  1
  Sb  Sb29  1  -0.00056424  0.00085795  0.49837004  1
  Sb  Sb30  1  0.00527309  0.00141427  0.00110261  1
  Sb  Sb31  1  0.25212448  0.49982680  0.25098489  1
  Te  Te32  1  0.24455369  0.24775683  0.24809736  1
  Te  Te33  1  0.24614993  0.24768800  0.75063382  1
  Te  Te34  1  0.24792950  0.75326899  0.24853045  1
  Te  Te35  1  0.24858788  0.75137628  0.75120799  1
  Te  Te36  1  0.75588611  0.24840076  0.25180435  1
  Te  Te37  1  0.75660108  0.25121182  0.74828833  1
  Te  Te38  1  0.75204869  0.75319410  0.24978754  1
  Te  Te39  1  0.75179426  0.74752926  0.75016395  1
  Te  Te40  1  0.25424476  0.00446425  -0.00057635  1
  Te  Te41  1  0.25741025  0.00172889  0.49995814  1
  Te  Te42  1  0.25150585  0.49010757  -0.00747125  1
  Te  Te43  1  0.25830863  0.49789250  0.50727736  1
  Te  Te44  1  0.74020811  0.00149368  0.00797268  1
  Te  Te45  1  0.74382344  0.00576008  0.49537767  1
  Te  Te46  1  0.74830022  0.49797485  -0.00998971  1
  Te  Te47  1  0.74408600  0.49354383  0.50501984  1
  Te  Te48  1  0.00452762  0.24958188  -0.00066041  1
  Te  Te49  1  -0.00517642  0.24986821  0.50038607  1
  Te  Te50  1  -0.00027297  0.74996691  0.00008412  1
  Te  Te51  1  -0.00151359  0.74984577  0.50011135  1
  Te  Te52  1  0.49441094  0.24444013  0.00056776  1
  Te  Te53  1  0.50541701  0.24964225  0.49944718  1
  Te  Te54  1  0.49992039  0.75508579  0.00005676  1
  Te  Te55  1  0.50116960  0.75151391  0.50075977  1
  Te  Te56  1  0.00158517  -0.00201407  0.25069659  1
  Te  Te57  1  0.00317727  -0.00199063  0.74956219  1
  Te  Te58  1  0.00009303  0.50265098  0.25140661  1
  Te  Te59  1  0.00179403  0.50202055  0.74816641  1
  Te  Te60  1  0.49757160  -0.00224588  0.25202912  1
  Te  Te61  1  0.49851673  -0.00308499  0.74875615  1
  Te  Te62  1  0.49998858  0.50988700  0.25460573  1
  Te  Te63  1  0.49863765  0.50368746  0.74801173  1
