# generated using pymatgen
data_AgSbTe2
_symmetry_space_group_name_H-M   'P 1'
_cell_length_a   12.22950736
_cell_length_b   12.22760069
_cell_length_c   12.23005392
_cell_angle_alpha   89.99898272
_cell_angle_beta   90.00297553
_cell_angle_gamma   89.99336873
_symmetry_Int_Tables_number   1
_chemical_formula_structural   AgSbTe2
_chemical_formula_sum   'Ag16 Sb16 Te32'
_cell_volume   1828.85207300
_cell_formula_units_Z   16
loop_
 _symmetry_equiv_pos_site_id
 _symmetry_equiv_pos_as_xyz
  1  'x, y, z'
loop_
 _atom_site_type_symbol
 _atom_site_label
 _atom_site_symmetry_multiplicity
 _atom_site_fract_x
 _atom_site_fract_y
 _atom_site_fract_z
 _atom_site_occupancy
  Ag  Ag0  1  0.49618280  0.49125853  -0.00786511  1
  Ag  Ag1  1  0.49603775  0.00960123  -0.00553740  1
  Ag  Ag2  1  0.00355246  0.49273388  -0.00901473  1
  Ag  Ag3  1  0.25460529  0.25297474  -0.01549427  1
  Ag  Ag4  1  0.24440794  0.25119497  0.51579122  1
  Ag  Ag5  1  0.25153015  0.01677728  0.75005766  1
  Ag  Ag6  1  0.00124091  0.49153266  0.50836166  1
  Ag  Ag7  1  0.49519875  0.25143384  0.24386286  1
  Ag  Ag8  1  0.75021548  0.49790199  0.74915439  1
  Ag  Ag9  1  0.00262904  0.00876941  0.50429564  1
  Ag  Ag10  1  0.01557796  0.25661769  0.74617968  1
  Ag  Ag11  1  0.24943940  0.48419661  0.75207472  1
  Ag  Ag12  1  0.75076557  0.74709829  0.50564302  1
  Ag  Ag13  1  0.48424244  0.25422076  0.75638570  1
  Ag  Ag14  1  0.49978255  0.74538229  0.75083926  1
  Ag  Ag15  1  0.00498633  0.25209606  0.25380102  1
  Sb  Sb16  1  0.24973546  0.74729186  0.50684707  1
  Sb  Sb17  1  0.74984975  0.00332190  0.25221924  1
  Sb  Sb18  1  0.00663163  0.01377054  -0.00696816  1
  Sb  Sb19  1  0.74887736  0.00246325  0.74773374  1
  Sb  Sb20  1  0.00005238  0.74724817  0.25276609  1
  Sb  Sb21  1  0.74798262  0.74557444  -0.00757782  1
  Sb  Sb22  1  0.25024508  0.00846661  0.25015484  1
  Sb  Sb23  1  0.24995002  0.49237015  0.24718327  1
  Sb  Sb24  1  0.74235078  0.25284005  -0.00449109  1
  Sb  Sb25  1  0.49797911  0.49552011  0.51288635  1
  Sb  Sb26  1  0.50047643  0.74750667  0.24917219  1
  Sb  Sb27  1  0.25117334  0.74464589  -0.00668300  1
  Sb  Sb28  1  0.49544283  0.00474513  0.50719034  1
  Sb  Sb29  1  0.74969280  0.49758662  0.25275417  1
  Sb  Sb30  1  -0.00166583  0.74061533  0.74806387  1
  Sb  Sb31  1  0.75952444  0.25401125  0.50462150  1
  Te  Te32  1  0.25000285  0.25024293  0.25027545  1
  Te  Te33  1  0.24979747  0.25072872  0.75015091  1
  Te  Te34  1  0.25146319  0.75144960  0.25145293  1
  Te  Te35  1  0.25893762  0.75008004  0.74934407  1
  Te  Te36  1  0.74927902  0.25085920  0.25163118  1
  Te  Te37  1  0.74971340  0.25623297  0.74897881  1
  Te  Te38  1  0.74860560  0.74974142  0.26228263  1
  Te  Te39  1  0.74352693  0.74386145  0.74467112  1
  Te  Te40  1  0.25428702  0.00594228  -0.00690330  1
  Te  Te41  1  0.24461560  0.00455784  0.50661826  1
  Te  Te42  1  0.24999881  0.49603905  -0.00423514  1
  Te  Te43  1  0.24410880  0.49605533  0.50616713  1
  Te  Te44  1  0.73985771  -0.00328172  -0.00029763  1
  Te  Te45  1  0.75947886  -0.00794918  0.50150785  1
  Te  Te46  1  0.75081172  0.50124802  -0.00778740  1
  Te  Te47  1  0.75698266  0.50363130  0.50562931  1
  Te  Te48  1  0.00452187  0.25252603  -0.00090404  1
  Te  Te49  1  0.00125542  0.25152368  0.50154902  1
  Te  Te50  1  -0.00045463  0.73853933  0.00238975  1
  Te  Te51  1  -0.00386903  0.74916148  0.49883390  1
  Te  Te52  1  0.49926188  0.25208825  -0.00195563  1
  Te  Te53  1  0.49259305  0.24911321  0.49948003  1
  Te  Te54  1  0.50004959  0.74786546  -0.00437836  1
  Te  Te55  1  0.50473232  0.75123091  0.50401893  1
  Te  Te56  1  0.00024355  0.00865058  0.25646742  1
  Te  Te57  1  0.00291149  0.00486601  0.74772670  1
  Te  Te58  1  -0.00018058  0.49276131  0.24992198  1
  Te  Te59  1  0.00122226  0.49972530  0.75020779  1
  Te  Te60  1  0.49964654  0.00697323  0.24066208  1
  Te  Te61  1  0.49831016  0.00280776  0.75312485  1
  Te  Te62  1  0.50071177  0.49376951  0.23777974  1
  Te  Te63  1  0.49888408  0.49719053  0.75118173  1
