# generated using pymatgen
data_AgSbTe2
_symmetry_space_group_name_H-M   'P 1'
_cell_length_a   12.21652859
_cell_length_b   12.22000642
_cell_length_c   12.23666896
_cell_angle_alpha   90.00130323
_cell_angle_beta   90.00047056
_cell_angle_gamma   90.01295574
_symmetry_Int_Tables_number   1
_chemical_formula_structural   AgSbTe2
_chemical_formula_sum   'Ag16 Sb16 Te32'
_cell_volume   1826.76402346
_cell_formula_units_Z   16
loop_
 _symmetry_equiv_pos_site_id
 _symmetry_equiv_pos_as_xyz
  1  'x, y, z'
loop_
 _atom_site_type_symbol
 _atom_site_label
 _atom_site_symmetry_multiplicity
 _atom_site_fract_x
 _atom_site_fract_y
 _atom_site_fract_z
 _atom_site_occupancy
  Ag  Ag0  1  -0.00798227  0.75651355  0.25203339  1
  Ag  Ag1  1  -0.00182404  -0.00261160  0.50489859  1
  Ag  Ag2  1  0.24853379  0.24296006  -0.00282040  1
  Ag  Ag3  1  0.75272145  0.75519290  -0.00046554  1
  Ag  Ag4  1  0.24697157  0.24443682  0.50303262  1
  Ag  Ag5  1  0.24561700  -0.00017723  0.25001788  1
  Ag  Ag6  1  0.50103533  -0.00047857  -0.00065640  1
  Ag  Ag7  1  0.50548573  0.50083976  0.50062270  1
  Ag  Ag8  1  0.75169633  0.50881743  0.25362829  1
  Ag  Ag9  1  0.24158548  0.00319923  0.74950292  1
  Ag  Ag10  1  0.75440378  0.75190885  0.50041453  1
  Ag  Ag11  1  0.75566738  -0.00875783  0.25080983  1
  Ag  Ag12  1  0.75898343  -0.00727447  0.74869596  1
  Ag  Ag13  1  0.75254302  0.50750150  0.74656736  1
  Ag  Ag14  1  -0.00769551  0.75867948  0.74764996  1
  Ag  Ag15  1  0.00194866  0.24015297  0.74762936  1
  Sb  Sb16  1  0.50390192  0.50008226  -0.00057335  1
  Sb  Sb17  1  0.24760062  0.50214203  0.25245891  1
  Sb  Sb18  1  0.75234677  0.24871283  0.50213708  1
  Sb  Sb19  1  0.24739703  0.49890832  0.74764283  1
  Sb  Sb20  1  0.00046887  0.24255079  0.25246796  1
  Sb  Sb21  1  -0.00111743  -0.00049291  -0.00528989  1
  Sb  Sb22  1  0.49982790  0.24921470  0.25045712  1
  Sb  Sb23  1  0.50168494  -0.00055756  0.50019632  1
  Sb  Sb24  1  0.24612542  0.75483941  0.50108812  1
  Sb  Sb25  1  0.49767957  0.24818302  0.74926344  1
  Sb  Sb26  1  -0.00244819  0.50063699  -0.00032978  1
  Sb  Sb27  1  0.50883777  0.75121697  0.25052899  1
  Sb  Sb28  1  0.50891524  0.75132858  0.74928209  1
  Sb  Sb29  1  -0.00414617  0.50297120  0.50046191  1
  Sb  Sb30  1  0.24844173  0.75669369  -0.00105676  1
  Sb  Sb31  1  0.75081914  0.24471951  -0.00281135  1
  Te  Te32  1  0.24855913  0.24507802  0.25026989  1
  Te  Te33  1  0.24612219  0.24808567  0.74881470  1
  Te  Te34  1  0.24055147  0.75520324  0.24940371  1
  Te  Te35  1  0.24030934  0.75360824  0.75073117  1
  Te  Te36  1  0.75166538  0.24886692  0.24916935  1
  Te  Te37  1  0.75619593  0.24830495  0.75105742  1
  Te  Te38  1  0.75304203  0.75288741  0.25086090  1
  Te  Te39  1  0.75294015  0.75232749  0.74900269  1
  Te  Te40  1  0.25351445  0.00157377  -0.00012095  1
  Te  Te41  1  0.25037448  0.00160358  0.50075983  1
  Te  Te42  1  0.25346549  0.49192672  0.00127894  1
  Te  Te43  1  0.25595388  0.49453778  0.49901026  1
  Te  Te44  1  0.74715177  -0.00203077  0.00048464  1
  Te  Te45  1  0.75048245  -0.00108114  0.50030210  1
  Te  Te46  1  0.74790039  0.50404206  -0.00033974  1
  Te  Te47  1  0.74814560  0.49999635  0.50049087  1
  Te  Te48  1  0.00574604  0.25100493  -0.00649271  1
  Te  Te49  1  0.00409076  0.24482173  0.50405549  1
  Te  Te50  1  -0.00532035  0.74910549  -0.00082185  1
  Te  Te51  1  -0.00401014  0.75337063  0.50133704  1
  Te  Te52  1  0.49422345  0.24369254  0.00002902  1
  Te  Te53  1  0.49302685  0.25430259  0.50025656  1
  Te  Te54  1  0.50523291  0.75571912  -0.00015481  1
  Te  Te55  1  0.50648008  0.74481700  0.50033427  1
  Te  Te56  1  -0.00198239  -0.00188116  0.25423989  1
  Te  Te57  1  -0.00116954  -0.00067451  0.74800876  1
  Te  Te58  1  -0.00579063  0.50656911  0.25025706  1
  Te  Te59  1  -0.00458690  0.50203666  0.74987566  1
  Te  Te60  1  0.49967208  -0.00047011  0.24725978  1
  Te  Te61  1  0.49966038  0.00013544  0.75276803  1
  Te  Te62  1  0.50627224  0.50033545  0.25384859  1
  Te  Te63  1  0.50605476  0.50013208  0.74653877  1
