# generated using pymatgen
data_AgSbTe2
_symmetry_space_group_name_H-M   'P 1'
_cell_length_a   12.21028288
_cell_length_b   12.21276216
_cell_length_c   12.21281967
_cell_angle_alpha   90.00432377
_cell_angle_beta   90.00928928
_cell_angle_gamma   90.00010519
_symmetry_Int_Tables_number   1
_chemical_formula_structural   AgSbTe2
_chemical_formula_sum   'Ag16 Sb16 Te32'
_cell_volume   1821.19128182
_cell_formula_units_Z   16
loop_
 _symmetry_equiv_pos_site_id
 _symmetry_equiv_pos_as_xyz
  1  'x, y, z'
loop_
 _atom_site_type_symbol
 _atom_site_label
 _atom_site_symmetry_multiplicity
 _atom_site_fract_x
 _atom_site_fract_y
 _atom_site_fract_z
 _atom_site_occupancy
  Ag  Ag0  1  0.25437053  0.50220398  0.24735732  1
  Ag  Ag1  1  0.49312963  0.50057655  0.00194366  1
  Ag  Ag2  1  0.49925214  0.50301813  0.49737235  1
  Ag  Ag3  1  0.00077354  0.50285858  0.50300520  1
  Ag  Ag4  1  0.24976466  0.74348686  -0.00085151  1
  Ag  Ag5  1  0.25008055  0.49840364  0.75270671  1
  Ag  Ag6  1  0.00312619  -0.00067720  -0.00413061  1
  Ag  Ag7  1  0.49880821  0.74303894  0.25271461  1
  Ag  Ag8  1  0.25001623  0.25654093  -0.00451208  1
  Ag  Ag9  1  0.00299173  0.74853143  0.74709382  1
  Ag  Ag10  1  0.49467106  0.25488610  0.74949018  1
  Ag  Ag11  1  0.74605189  0.50345419  0.25355027  1
  Ag  Ag12  1  0.74997240  0.74626257  0.49914804  1
  Ag  Ag13  1  0.00513825  0.25200241  0.74975022  1
  Ag  Ag14  1  0.00016625  -0.00296180  0.50406881  1
  Ag  Ag15  1  0.49977650  -0.00263426  0.50070630  1
  Sb  Sb16  1  0.75064913  0.50181374  0.74654368  1
  Sb  Sb17  1  0.75084306  0.74632247  0.00088712  1
  Sb  Sb18  1  0.24990249  0.25483553  0.50544965  1
  Sb  Sb19  1  0.24777216  0.00188563  0.75035660  1
  Sb  Sb20  1  0.75012008  0.25440586  0.50046674  1
  Sb  Sb21  1  0.75123455  0.25319281  -0.00121066  1
  Sb  Sb22  1  0.00839099  0.50065931  -0.00511786  1
  Sb  Sb23  1  0.00313048  0.25236152  0.24981066  1
  Sb  Sb24  1  0.25165431  -0.00289042  0.25016943  1
  Sb  Sb25  1  0.24924336  0.74550643  0.50140679  1
  Sb  Sb26  1  0.75163491  -0.00170286  0.74784713  1
  Sb  Sb27  1  0.74841409  -0.00425164  0.25339570  1
  Sb  Sb28  1  0.49757615  -0.00016461  -0.00120437  1
  Sb  Sb29  1  0.49576111  0.74508355  0.74724397  1
  Sb  Sb30  1  0.49688255  0.25858882  0.25044076  1
  Sb  Sb31  1  0.00193669  0.74719790  0.25237584  1
  Te  Te32  1  0.25028022  0.25781414  0.24001220  1
  Te  Te33  1  0.24888030  0.25435680  0.75395010  1
  Te  Te34  1  0.25408600  0.74464580  0.24391170  1
  Te  Te35  1  0.24551251  0.74384616  0.75531269  1
  Te  Te36  1  0.74990552  0.25984512  0.24967176  1
  Te  Te37  1  0.75126957  0.25034571  0.75049822  1
  Te  Te38  1  0.74507209  0.74442592  0.25433805  1
  Te  Te39  1  0.75815179  0.74916658  0.74420646  1
  Te  Te40  1  0.24526822  -0.00073726  0.00065268  1
  Te  Te41  1  0.24848697  0.00023130  0.49860175  1
  Te  Te42  1  0.25110565  0.50074756  -0.00092864  1
  Te  Te43  1  0.25057316  0.49995198  0.50044386  1
  Te  Te44  1  0.75795521  -0.00022728  0.00199758  1
  Te  Te45  1  0.75160974  -0.00634418  0.49808389  1
  Te  Te46  1  0.74121398  0.50095316  0.00731476  1
  Te  Te47  1  0.74927710  0.50372592  0.49692869  1
  Te  Te48  1  0.00313804  0.24720279  -0.00561168  1
  Te  Te49  1  0.00015000  0.24895896  0.50617257  1
  Te  Te50  1  0.00229359  0.75242169  -0.00306456  1
  Te  Te51  1  -0.00022279  0.74992149  0.50203551  1
  Te  Te52  1  0.49594597  0.25119113  -0.00474759  1
  Te  Te53  1  0.49978004  0.25052567  0.50488508  1
  Te  Te54  1  0.49749014  0.74868452  0.00095786  1
  Te  Te55  1  0.50077249  0.74784545  0.50025198  1
  Te  Te56  1  0.00012535  0.00024408  0.25389673  1
  Te  Te57  1  0.00094745  0.00047829  0.74642144  1
  Te  Te58  1  0.00180721  0.50034001  0.25707798  1
  Te  Te59  1  0.00171922  0.49909156  0.74705347  1
  Te  Te60  1  0.50004486  -0.00659740  0.25621232  1
  Te  Te61  1  0.49952683  0.00537845  0.74433798  1
  Te  Te62  1  0.49678700  0.50121459  0.25239269  1
  Te  Te63  1  0.49781069  0.49851620  0.74845803  1
