# generated using pymatgen
data_AgSbTe2
_symmetry_space_group_name_H-M   'P 1'
_cell_length_a   12.21468896
_cell_length_b   12.22559917
_cell_length_c   12.21758529
_cell_angle_alpha   90.00506615
_cell_angle_beta   90.00714684
_cell_angle_gamma   90.00342436
_symmetry_Int_Tables_number   1
_chemical_formula_structural   AgSbTe2
_chemical_formula_sum   'Ag16 Sb16 Te32'
_cell_volume   1824.47509267
_cell_formula_units_Z   16
loop_
 _symmetry_equiv_pos_site_id
 _symmetry_equiv_pos_as_xyz
  1  'x, y, z'
loop_
 _atom_site_type_symbol
 _atom_site_label
 _atom_site_symmetry_multiplicity
 _atom_site_fract_x
 _atom_site_fract_y
 _atom_site_fract_z
 _atom_site_occupancy
  Ag  Ag0  1  0.50394341  0.50240545  -0.01377291  1
  Ag  Ag1  1  -0.00109130  0.74686080  0.75127965  1
  Ag  Ag2  1  -0.00373628  -0.00439348  0.00313527  1
  Ag  Ag3  1  0.49798718  0.50140781  0.51418241  1
  Ag  Ag4  1  0.26352538  0.50312800  0.74616237  1
  Ag  Ag5  1  0.49941562  0.26413096  0.74627071  1
  Ag  Ag6  1  0.75346496  -0.00380732  0.24874517  1
  Ag  Ag7  1  0.25359398  0.74671915  0.50380945  1
  Ag  Ag8  1  0.49950899  -0.00177096  0.50222908  1
  Ag  Ag9  1  -0.00463835  0.75110646  0.24838473  1
  Ag  Ag10  1  0.75163465  0.74672616  0.00011760  1
  Ag  Ag11  1  0.73576368  0.50452140  0.75083497  1
  Ag  Ag12  1  -0.00198655  0.24967749  0.25052914  1
  Ag  Ag13  1  0.25412085  0.25338373  0.50208842  1
  Ag  Ag14  1  0.50037546  0.73572481  0.74695088  1
  Ag  Ag15  1  0.74931767  0.50366124  0.24871395  1
  Sb  Sb16  1  -0.00376820  0.50373979  -0.00022918  1
  Sb  Sb17  1  0.24899693  0.74738605  -0.00270460  1
  Sb  Sb18  1  0.74703257  0.74816320  0.50047429  1
  Sb  Sb19  1  0.00059533  0.25228565  0.74989692  1
  Sb  Sb20  1  0.74942327  0.25411983  0.00049223  1
  Sb  Sb21  1  0.25038355  0.25295844  -0.00196031  1
  Sb  Sb22  1  -0.00131019  -0.00220146  0.49815257  1
  Sb  Sb23  1  0.25095504  0.50168168  0.25299368  1
  Sb  Sb24  1  0.74624235  0.25147405  0.50020490  1
  Sb  Sb25  1  0.50325589  -0.00227924  -0.00104994  1
  Sb  Sb26  1  0.25111529  -0.00363610  0.74771742  1
  Sb  Sb27  1  0.74851574  -0.00535945  0.75087379  1
  Sb  Sb28  1  0.00195371  0.50113430  0.50043080  1
  Sb  Sb29  1  0.50032117  0.25223484  0.25340314  1
  Sb  Sb30  1  0.24746538  -0.00106796  0.25231505  1
  Sb  Sb31  1  0.50406436  0.74794723  0.25253384  1
  Te  Te32  1  0.24484974  0.25067729  0.25522902  1
  Te  Te33  1  0.25124751  0.25467931  0.74600115  1
  Te  Te34  1  0.24213463  0.74884477  0.25537847  1
  Te  Te35  1  0.25002502  0.74724261  0.74715211  1
  Te  Te36  1  0.75463909  0.25201784  0.25029357  1
  Te  Te37  1  0.74767347  0.25736392  0.74974100  1
  Te  Te38  1  0.75285723  0.74777627  0.24915872  1
  Te  Te39  1  0.75094130  0.74700373  0.75090912  1
  Te  Te40  1  0.24397713  0.00048951  0.00017044  1
  Te  Te41  1  0.25653234  -0.00071699  0.49983695  1
  Te  Te42  1  0.25789829  0.50010385  -0.00572242  1
  Te  Te43  1  0.25271326  0.50138600  0.50218504  1
  Te  Te44  1  0.75273805  -0.00573774  0.00411709  1
  Te  Te45  1  0.74431483  0.00024813  0.49466988  1
  Te  Te46  1  0.74687588  0.50388681  0.00053208  1
  Te  Te47  1  0.74497534  0.49990767  0.49974777  1
  Te  Te48  1  0.00041921  0.24394032  0.00412292  1
  Te  Te49  1  0.00736464  0.24934325  0.49652717  1
  Te  Te50  1  -0.00159511  0.75153530  0.00000254  1
  Te  Te51  1  0.00567843  0.75078223  0.50145727  1
  Te  Te52  1  0.49915078  0.25271966  -0.00621571  1
  Te  Te53  1  0.49651472  0.25152613  0.50264130  1
  Te  Te54  1  0.50226288  0.74823729  -0.00333183  1
  Te  Te55  1  0.49688933  0.74852442  0.50217995  1
  Te  Te56  1  -0.00368783  -0.00277634  0.24889053  1
  Te  Te57  1  -0.00139367  -0.00466769  0.75355841  1
  Te  Te58  1  -0.00482885  0.50138413  0.24967576  1
  Te  Te59  1  -0.00152136  0.50456669  0.75082605  1
  Te  Te60  1  0.50607725  0.00049938  0.25285951  1
  Te  Te61  1  0.50149725  -0.00052702  0.74635240  1
  Te  Te62  1  0.50483526  0.49956187  0.24975016  1
  Te  Te63  1  0.50150241  0.50211480  0.74809811  1
