# generated using pymatgen
data_AgSbTe2
_symmetry_space_group_name_H-M   'P 1'
_cell_length_a   12.21795628
_cell_length_b   12.21732692
_cell_length_c   12.21402642
_cell_angle_alpha   89.99677634
_cell_angle_beta   89.99551233
_cell_angle_gamma   90.00312684
_symmetry_Int_Tables_number   1
_chemical_formula_structural   AgSbTe2
_chemical_formula_sum   'Ag16 Sb16 Te32'
_cell_volume   1823.19706851
_cell_formula_units_Z   16
loop_
 _symmetry_equiv_pos_site_id
 _symmetry_equiv_pos_as_xyz
  1  'x, y, z'
loop_
 _atom_site_type_symbol
 _atom_site_label
 _atom_site_symmetry_multiplicity
 _atom_site_fract_x
 _atom_site_fract_y
 _atom_site_fract_z
 _atom_site_occupancy
  Ag  Ag0  1  0.25244660  0.24963725  0.50684100  1
  Ag  Ag1  1  0.49939279  -0.00018730  0.50684505  1
  Ag  Ag2  1  0.74793142  0.75315207  0.49672847  1
  Ag  Ag3  1  0.25103664  0.50019592  0.25626968  1
  Ag  Ag4  1  0.49823103  0.75520331  0.74497124  1
  Ag  Ag5  1  0.75191482  -0.00405339  0.25450803  1
  Ag  Ag6  1  0.25333506  0.49420614  0.74327704  1
  Ag  Ag7  1  0.49176920  0.24493127  0.74491233  1
  Ag  Ag8  1  0.00808458  0.24481617  0.74653621  1
  Ag  Ag9  1  0.49668497  0.49981246  0.50232112  1
  Ag  Ag10  1  0.00017234  0.00005427  -0.00136441  1
  Ag  Ag11  1  0.25402729  0.00506918  0.74549304  1
  Ag  Ag12  1  -0.00296545  0.75297372  0.25319241  1
  Ag  Ag13  1  0.74967776  0.50363065  0.25531392  1
  Ag  Ag14  1  0.49941004  0.00003195  -0.00665900  1
  Ag  Ag15  1  -0.00003532  -0.00023130  0.50125371  1
  Sb  Sb16  1  0.00220053  0.24695689  0.25284516  1
  Sb  Sb17  1  0.25284310  0.74984869  0.50080728  1
  Sb  Sb18  1  0.24937805  -0.00021440  0.25484447  1
  Sb  Sb19  1  0.74433793  -0.00060294  0.74545392  1
  Sb  Sb20  1  0.00073872  0.49965165  -0.00026490  1
  Sb  Sb21  1  0.74914902  0.75299896  0.00372637  1
  Sb  Sb22  1  0.74742773  0.50132393  0.74397612  1
  Sb  Sb23  1  0.00277433  0.50000570  0.49944724  1
  Sb  Sb24  1  0.25018604  0.24761514  -0.00807832  1
  Sb  Sb25  1  0.74750298  0.24743223  0.49984930  1
  Sb  Sb26  1  0.74949448  0.24713404  -0.00014053  1
  Sb  Sb27  1  0.50245018  0.75060690  0.25489079  1
  Sb  Sb28  1  0.00154926  0.75553085  0.74727595  1
  Sb  Sb29  1  0.25082027  0.75232962  -0.00014267  1
  Sb  Sb30  1  0.49777215  0.24954173  0.25451214  1
  Sb  Sb31  1  0.49926230  0.49978465  -0.00305341  1
  Te  Te32  1  0.24978925  0.25702654  0.25931651  1
  Te  Te33  1  0.25073375  0.24852459  0.74643583  1
  Te  Te34  1  0.24443663  0.74376522  0.24990655  1
  Te  Te35  1  0.25376949  0.75050010  0.75028313  1
  Te  Te36  1  0.75007829  0.25125835  0.25020312  1
  Te  Te37  1  0.75119779  0.25216780  0.74973218  1
  Te  Te38  1  0.75205697  0.75125473  0.25394364  1
  Te  Te39  1  0.74529744  0.74767788  0.74261040  1
  Te  Te40  1  0.25061998  0.00054885  -0.00362183  1
  Te  Te41  1  0.25176974  0.00160967  0.50148756  1
  Te  Te42  1  0.25056537  0.49929093  0.00123761  1
  Te  Te43  1  0.25263193  0.49878691  0.50175238  1
  Te  Te44  1  0.75046067  -0.00068477  0.00852076  1
  Te  Te45  1  0.74902991  -0.00222103  0.49577589  1
  Te  Te46  1  0.74947359  0.50054366  0.01162391  1
  Te  Te47  1  0.74641566  0.50314183  0.49525850  1
  Te  Te48  1  -0.00043453  0.24220330  -0.00667051  1
  Te  Te49  1  0.00358156  0.24526623  0.50427660  1
  Te  Te50  1  -0.00064513  0.75739572  0.00422099  1
  Te  Te51  1  -0.00523844  0.75460801  0.49733659  1
  Te  Te52  1  0.50025958  0.24319689  -0.00852861  1
  Te  Te53  1  0.49747840  0.24913694  0.50384772  1
  Te  Te54  1  0.50076688  0.75669402  -0.00798148  1
  Te  Te55  1  0.50269996  0.75143301  0.50268786  1
  Te  Te56  1  -0.00094035  -0.00153001  0.25178092  1
  Te  Te57  1  0.00186589  0.00035005  0.74829169  1
  Te  Te58  1  -0.00028802  0.50291754  0.24915089  1
  Te  Te59  1  0.00541923  0.49662704  0.75165235  1
  Te  Te60  1  0.50150193  -0.00072468  0.25122741  1
  Te  Te61  1  0.50074799  0.00076101  0.74717857  1
  Te  Te62  1  0.49886199  0.50041085  0.25296717  1
  Te  Te63  1  0.49703577  0.49887684  0.74770694  1
