# generated using pymatgen
data_AgSbTe2
_symmetry_space_group_name_H-M   'P 1'
_cell_length_a   12.21870496
_cell_length_b   12.21316680
_cell_length_c   12.21296496
_cell_angle_alpha   89.99457686
_cell_angle_beta   90.00555717
_cell_angle_gamma   90.00152147
_symmetry_Int_Tables_number   1
_chemical_formula_structural   AgSbTe2
_chemical_formula_sum   'Ag16 Sb16 Te32'
_cell_volume   1822.52953019
_cell_formula_units_Z   16
loop_
 _symmetry_equiv_pos_site_id
 _symmetry_equiv_pos_as_xyz
  1  'x, y, z'
loop_
 _atom_site_type_symbol
 _atom_site_label
 _atom_site_symmetry_multiplicity
 _atom_site_fract_x
 _atom_site_fract_y
 _atom_site_fract_z
 _atom_site_occupancy
  Ag  Ag0  1  0.24787709  0.24490107  -0.00436916  1
  Ag  Ag1  1  0.50047230  0.75441337  0.74940154  1
  Ag  Ag2  1  0.00148304  0.25201021  0.74680362  1
  Ag  Ag3  1  0.00318950  0.00010468  -0.00380700  1
  Ag  Ag4  1  -0.00054090  0.74850569  0.74900730  1
  Ag  Ag5  1  0.75288356  0.24874645  0.50646039  1
  Ag  Ag6  1  0.25124064  -0.00085663  0.24832077  1
  Ag  Ag7  1  0.49765960  0.75607572  0.25068430  1
  Ag  Ag8  1  0.24435605  0.49747735  0.74759087  1
  Ag  Ag9  1  0.24722871  0.24860271  0.50486073  1
  Ag  Ag10  1  0.49680629  -0.00127691  -0.00212803  1
  Ag  Ag11  1  0.00077148  0.49775965  0.50748068  1
  Ag  Ag12  1  0.49884862  -0.00054516  0.50228008  1
  Ag  Ag13  1  0.75049817  0.00040286  0.74850499  1
  Ag  Ag14  1  0.00224897  0.75297767  0.25065878  1
  Ag  Ag15  1  0.75589779  0.49911699  0.74624904  1
  Sb  Sb16  1  0.24973526  0.75268798  0.50181254  1
  Sb  Sb17  1  0.00202943  0.24669644  0.25192450  1
  Sb  Sb18  1  0.75016755  0.75214095  -0.00381364  1
  Sb  Sb19  1  0.75293113  0.50090144  0.25467178  1
  Sb  Sb20  1  0.24956755  0.75534476  -0.00109501  1
  Sb  Sb21  1  0.49857836  0.24482966  0.74909103  1
  Sb  Sb22  1  0.49906306  0.50007364  0.50303198  1
  Sb  Sb23  1  0.24735646  0.50118792  0.25190618  1
  Sb  Sb24  1  0.75021581  0.75130381  0.50446311  1
  Sb  Sb25  1  0.49784264  0.24449773  0.25036793  1
  Sb  Sb26  1  0.75245806  0.24653346  -0.00721426  1
  Sb  Sb27  1  0.00110052  0.00158572  0.50380331  1
  Sb  Sb28  1  0.24966308  0.00240448  0.75166990  1
  Sb  Sb29  1  0.00245388  0.50011790  -0.00790384  1
  Sb  Sb30  1  0.74928697  -0.00101966  0.25252247  1
  Sb  Sb31  1  0.49730809  0.50054609  -0.00322902  1
  Te  Te32  1  0.24963023  0.24601376  0.25104880  1
  Te  Te33  1  0.24848443  0.25190437  0.74795126  1
  Te  Te34  1  0.24936938  0.75374354  0.24996711  1
  Te  Te35  1  0.24849592  0.74468840  0.74992413  1
  Te  Te36  1  0.74970593  0.25163764  0.25989137  1
  Te  Te37  1  0.75220458  0.24878757  0.74643618  1
  Te  Te38  1  0.75096023  0.74919992  0.25055366  1
  Te  Te39  1  0.75152408  0.75135819  0.74907290  1
  Te  Te40  1  0.25011199  0.00405700  0.00172007  1
  Te  Te41  1  0.25299575  0.00464960  0.49631016  1
  Te  Te42  1  0.25008096  0.48956084  -0.00465084  1
  Te  Te43  1  0.24748731  0.49319279  0.50332016  1
  Te  Te44  1  0.74961030  0.00189493  -0.00601168  1
  Te  Te45  1  0.74646407  0.00510380  0.50461559  1
  Te  Te46  1  0.74955904  0.49700471  -0.00918006  1
  Te  Te47  1  0.75308637  0.49385172  0.50555340  1
  Te  Te48  1  0.00339275  0.24547830  -0.00285446  1
  Te  Te49  1  0.00196315  0.25121903  0.50273077  1
  Te  Te50  1  0.00066215  0.75509216  -0.00182217  1
  Te  Te51  1  0.00060849  0.74717694  0.50278821  1
  Te  Te52  1  0.49503674  0.24313307  0.00072514  1
  Te  Te53  1  0.49789366  0.24547953  0.50007782  1
  Te  Te54  1  0.49944434  0.75652782  -0.00128783  1
  Te  Te55  1  0.49953495  0.75558165  0.50149246  1
  Te  Te56  1  0.00142587  -0.00523993  0.24703001  1
  Te  Te57  1  -0.00060330  -0.00183308  0.75098221  1
  Te  Te58  1  -0.00003303  0.50866540  0.25595799  1
  Te  Te59  1  0.00003711  0.50144393  0.74869110  1
  Te  Te60  1  0.49908701  -0.00478077  0.24948580  1
  Te  Te61  1  0.50019973  -0.00386031  0.75000662  1
  Te  Te62  1  0.50038621  0.51206348  0.24927188  1
  Te  Te63  1  0.50051486  0.50895597  0.75019437  1
