# generated using pymatgen
data_AgSbTe2
_symmetry_space_group_name_H-M   'P 1'
_cell_length_a   12.32273318
_cell_length_b   12.33636636
_cell_length_c   12.31220933
_cell_angle_alpha   90.00246467
_cell_angle_beta   89.99112258
_cell_angle_gamma   90.00551627
_symmetry_Int_Tables_number   1
_chemical_formula_structural   AgSbTe2
_chemical_formula_sum   'Ag16 Sb16 Te32'
_cell_volume   1871.67433949
_cell_formula_units_Z   16
loop_
 _symmetry_equiv_pos_site_id
 _symmetry_equiv_pos_as_xyz
  1  'x, y, z'
loop_
 _atom_site_type_symbol
 _atom_site_label
 _atom_site_symmetry_multiplicity
 _atom_site_fract_x
 _atom_site_fract_y
 _atom_site_fract_z
 _atom_site_occupancy
  Ag  Ag0  1  0.74108938  0.25156039  0.47915511  1
  Ag  Ag1  1  0.49431959  0.24839386  0.76298930  1
  Ag  Ag2  1  0.74607175  0.75778613  0.00911433  1
  Ag  Ag3  1  0.73550466  0.24191372  0.01086733  1
  Ag  Ag4  1  0.74676438  0.48083475  0.24706655  1
  Ag  Ag5  1  0.26412121  0.23639815  0.00853061  1
  Ag  Ag6  1  0.25792592  0.00706439  0.76882613  1
  Ag  Ag7  1  0.25532644  0.01378117  0.24081280  1
  Ag  Ag8  1  0.25563108  0.76542777  0.00375056  1
  Ag  Ag9  1  0.25814436  0.48825388  0.75677433  1
  Ag  Ag10  1  0.51464458  0.24467835  0.23886893  1
  Ag  Ag11  1  0.50207148  0.48893753  0.49437351  1
  Ag  Ag12  1  0.49223459  0.00692136  0.00704911  1
  Ag  Ag13  1  -0.00613279  0.75802070  0.24595324  1
  Ag  Ag14  1  -0.01690889  0.24594622  0.24568101  1
  Ag  Ag15  1  0.74634934  0.01394787  0.24131072  1
  Sb  Sb16  1  0.00086272  0.49658700  0.49523067  1
  Sb  Sb17  1  0.00007310  0.49892699  0.00174831  1
  Sb  Sb18  1  0.00091932  0.24978217  0.75380243  1
  Sb  Sb19  1  0.50068793  0.75264127  0.24686053  1
  Sb  Sb20  1  0.25080585  0.24876787  0.49650316  1
  Sb  Sb21  1  0.74923152  0.75182253  0.48858992  1
  Sb  Sb22  1  0.00316746  0.00144809  0.00192507  1
  Sb  Sb23  1  0.50041133  0.00303852  0.49767000  1
  Sb  Sb24  1  0.00389336  0.75060767  0.75489201  1
  Sb  Sb25  1  0.49765318  0.75086369  0.75536042  1
  Sb  Sb26  1  0.49921232  0.49595188  0.00109522  1
  Sb  Sb27  1  0.74740512  0.49786436  0.75259898  1
  Sb  Sb28  1  0.25041913  0.75081079  0.49621429  1
  Sb  Sb29  1  0.00039705  0.00278345  0.49344227  1
  Sb  Sb30  1  0.74495738  0.00353980  0.76073656  1
  Sb  Sb31  1  0.24935172  0.49526570  0.24801288  1
  Te  Te32  1  0.25328278  0.24990899  0.24926347  1
  Te  Te33  1  0.24975521  0.24789708  0.74614411  1
  Te  Te34  1  0.25128490  0.74582728  0.24517707  1
  Te  Te35  1  0.24943729  0.75764611  0.75519470  1
  Te  Te36  1  0.74971323  0.25038811  0.24941924  1
  Te  Te37  1  0.75147350  0.24888511  0.75956634  1
  Te  Te38  1  0.74958005  0.75570252  0.24535668  1
  Te  Te39  1  0.75354348  0.75111748  0.76191363  1
  Te  Te40  1  0.24986923  0.00326228  0.00568274  1
  Te  Te41  1  0.25026137  -0.00363427  0.49109554  1
  Te  Te42  1  0.24980113  0.49956426  -0.00300922  1
  Te  Te43  1  0.25381607  0.50224980  0.50433802  1
  Te  Te44  1  0.74939612  0.00278115  0.00294883  1
  Te  Te45  1  0.75057141  -0.00095955  0.49432069  1
  Te  Te46  1  0.75046694  0.49945589  0.00184340  1
  Te  Te47  1  0.74756161  0.50084193  0.50121866  1
  Te  Te48  1  -0.00165069  0.25021861  0.00166354  1
  Te  Te49  1  -0.00967577  0.25032279  0.49407571  1
  Te  Te50  1  -0.00178855  0.75017104  0.00499906  1
  Te  Te51  1  0.00067932  0.74949711  0.48816493  1
  Te  Te52  1  0.49748011  0.24802072  0.00038319  1
  Te  Te53  1  0.50082656  0.25064170  0.49795061  1
  Te  Te54  1  0.49769902  0.76031033  -0.00162076  1
  Te  Te55  1  0.49928420  0.73713426  0.50345209  1
  Te  Te56  1  0.00049676  0.00249935  0.24783693  1
  Te  Te57  1  0.01448808  -0.00169689  0.74768772  1
  Te  Te58  1  -0.00401357  0.49455002  0.24938732  1
  Te  Te59  1  0.01429396  0.50196790  0.74923302  1
  Te  Te60  1  0.49703327  0.00152581  0.24967329  1
  Te  Te61  1  0.49757054  0.00277712  0.74875559  1
  Te  Te62  1  0.50354127  0.49560102  0.24923175  1
  Te  Te63  1  0.49731560  0.49495691  0.75284581  1
