# generated using pymatgen
data_AgSbTe2
_symmetry_space_group_name_H-M   'P 1'
_cell_length_a   12.21756929
_cell_length_b   12.21758465
_cell_length_c   12.21783921
_cell_angle_alpha   89.99533156
_cell_angle_beta   89.99577550
_cell_angle_gamma   90.00266590
_symmetry_Int_Tables_number   1
_chemical_formula_structural   AgSbTe2
_chemical_formula_sum   'Ag16 Sb16 Te32'
_cell_volume   1823.74691390
_cell_formula_units_Z   16
loop_
 _symmetry_equiv_pos_site_id
 _symmetry_equiv_pos_as_xyz
  1  'x, y, z'
loop_
 _atom_site_type_symbol
 _atom_site_label
 _atom_site_symmetry_multiplicity
 _atom_site_fract_x
 _atom_site_fract_y
 _atom_site_fract_z
 _atom_site_occupancy
  Ag  Ag0  1  0.74253160  0.00686591  0.25000007  1
  Ag  Ag1  1  -0.00226149  0.49804003  0.49210875  1
  Ag  Ag2  1  0.50425463  0.24907007  0.74980635  1
  Ag  Ag3  1  -0.00074985  0.49936859  0.00778635  1
  Ag  Ag4  1  -0.00633780  0.25499918  0.25112204  1
  Ag  Ag5  1  0.74657822  0.25217334  0.49319285  1
  Ag  Ag6  1  0.50222917  0.49775385  0.49060812  1
  Ag  Ag7  1  0.25812567  -0.00266490  0.24884449  1
  Ag  Ag8  1  0.50077559  0.00050428  0.00730270  1
  Ag  Ag9  1  0.74494179  0.00428118  0.74996429  1
  Ag  Ag10  1  0.25346038  0.74857065  0.49290976  1
  Ag  Ag11  1  0.50059748  0.49977799  0.00948359  1
  Ag  Ag12  1  0.49737280  0.74907794  0.24826711  1
  Ag  Ag13  1  0.50638626  0.25167977  0.25036397  1
  Ag  Ag14  1  0.74565110  0.49351855  0.25199621  1
  Ag  Ag15  1  0.25467894  0.74961108  0.00703680  1
  Sb  Sb16  1  0.74667009  0.49518989  0.74813529  1
  Sb  Sb17  1  0.00348196  0.74316221  0.25009910  1
  Sb  Sb18  1  0.25322596  0.25077606  0.00490893  1
  Sb  Sb19  1  0.74714580  0.25047136  0.00899673  1
  Sb  Sb20  1  0.50061862  0.00271556  0.49097922  1
  Sb  Sb21  1  0.25740624  0.50407455  0.24988876  1
  Sb  Sb22  1  0.25633396  0.00018506  0.75171536  1
  Sb  Sb23  1  -0.00037119  0.00030138  0.00487826  1
  Sb  Sb24  1  -0.00593296  0.25064737  0.74855884  1
  Sb  Sb25  1  0.74516499  0.74902998  0.00389517  1
  Sb  Sb26  1  0.25334639  0.25218476  0.49533530  1
  Sb  Sb27  1  -0.00028685  0.74934420  0.75001103  1
  Sb  Sb28  1  -0.00114880  0.00183045  0.49575986  1
  Sb  Sb29  1  0.50010193  0.75156475  0.75117014  1
  Sb  Sb30  1  0.74684938  0.74715677  0.49619826  1
  Sb  Sb31  1  0.25210876  0.49992094  0.75021847  1
  Te  Te32  1  0.25122814  0.24089030  0.25120651  1
  Te  Te33  1  0.25917680  0.24843809  0.74807140  1
  Te  Te34  1  0.25367853  0.75391663  0.24979899  1
  Te  Te35  1  0.24982442  0.75113698  0.74919905  1
  Te  Te36  1  0.74763090  0.25095514  0.25189419  1
  Te  Te37  1  0.74510484  0.24563540  0.74187269  1
  Te  Te38  1  0.74326617  0.75063757  0.25088578  1
  Te  Te39  1  0.74957998  0.76092181  0.74840092  1
  Te  Te40  1  0.25337633  -0.00485172  0.00304034  1
  Te  Te41  1  0.24957856  -0.00689370  0.49573970  1
  Te  Te42  1  0.25215791  0.50530118  -0.00027858  1
  Te  Te43  1  0.25045632  0.50388619  0.50030570  1
  Te  Te44  1  0.74631714  -0.00082096  0.00399078  1
  Te  Te45  1  0.75034199  0.00346752  0.49592694  1
  Te  Te46  1  0.74832062  0.50111854  0.00351077  1
  Te  Te47  1  0.74868360  0.49804416  0.49774057  1
  Te  Te48  1  0.00253860  0.25712002  0.00414217  1
  Te  Te49  1  -0.00275991  0.25551938  0.49712744  1
  Te  Te50  1  0.00799506  0.74335923  -0.00012142  1
  Te  Te51  1  0.00613885  0.74191234  0.50009557  1
  Te  Te52  1  0.49893398  0.25157641  0.00278139  1
  Te  Te53  1  0.50195917  0.25328485  0.49654371  1
  Te  Te54  1  0.49687884  0.74826002  0.00172894  1
  Te  Te55  1  0.49655000  0.74396546  0.49754455  1
  Te  Te56  1  -0.00348574  0.00670714  0.24871130  1
  Te  Te57  1  -0.00867997  0.00145565  0.75117407  1
  Te  Te58  1  -0.00325921  0.49757211  0.25014092  1
  Te  Te59  1  -0.00129958  0.49866744  0.75100129  1
  Te  Te60  1  0.50181373  0.00076178  0.24893000  1
  Te  Te61  1  0.50358430  0.00317548  0.75664346  1
  Te  Te62  1  0.49951557  0.49873594  0.24878192  1
  Te  Te63  1  0.50190528  0.49496082  0.75192677  1
