# generated using pymatgen
data_AgSbTe2
_symmetry_space_group_name_H-M   'P 1'
_cell_length_a   12.22610338
_cell_length_b   12.22964294
_cell_length_c   12.21397506
_cell_angle_alpha   89.99151562
_cell_angle_beta   89.99811017
_cell_angle_gamma   90.00571494
_symmetry_Int_Tables_number   1
_chemical_formula_structural   AgSbTe2
_chemical_formula_sum   'Ag16 Sb16 Te32'
_cell_volume   1826.24425628
_cell_formula_units_Z   16
loop_
 _symmetry_equiv_pos_site_id
 _symmetry_equiv_pos_as_xyz
  1  'x, y, z'
loop_
 _atom_site_type_symbol
 _atom_site_label
 _atom_site_symmetry_multiplicity
 _atom_site_fract_x
 _atom_site_fract_y
 _atom_site_fract_z
 _atom_site_occupancy
  Ag  Ag0  1  0.49611054  0.74802595  0.25152700  1
  Ag  Ag1  1  0.24832813  0.75037586  0.00506049  1
  Ag  Ag2  1  0.24261382  0.50014723  0.25185003  1
  Ag  Ag3  1  0.24225144  0.25191890  0.49615339  1
  Ag  Ag4  1  0.49476974  -0.00125000  0.00033923  1
  Ag  Ag5  1  0.00364779  0.74371701  0.25313538  1
  Ag  Ag6  1  0.75390716  0.75076899  0.49780995  1
  Ag  Ag7  1  0.24621225  0.24970852  0.00361023  1
  Ag  Ag8  1  0.75227241  -0.00011681  0.74491189  1
  Ag  Ag9  1  0.00584513  0.49964873  0.01085791  1
  Ag  Ag10  1  0.24909904  0.00098258  0.75048771  1
  Ag  Ag11  1  0.49825687  0.50068016  0.49456342  1
  Ag  Ag12  1  0.00522173  0.25620077  0.25650385  1
  Ag  Ag13  1  -0.00070130  0.00411384  0.49847034  1
  Ag  Ag14  1  0.00254823  0.49560551  0.49035327  1
  Ag  Ag15  1  0.75853858  0.24894550  0.49875582  1
  Sb  Sb16  1  0.00087131  0.24872611  0.74205532  1
  Sb  Sb17  1  0.00097099  0.75169699  0.74597488  1
  Sb  Sb18  1  0.49869751  0.75222355  0.74829491  1
  Sb  Sb19  1  0.49902247  0.24820493  0.74886733  1
  Sb  Sb20  1  0.75167851  0.75224653  0.00194537  1
  Sb  Sb21  1  0.24723329  0.74875979  0.49526060  1
  Sb  Sb22  1  0.00414421  0.00029143  0.00122715  1
  Sb  Sb23  1  0.75775241  0.50028977  0.25309392  1
  Sb  Sb24  1  0.49466120  0.50110671  0.00598276  1
  Sb  Sb25  1  0.24916526  0.00044676  0.25014634  1
  Sb  Sb26  1  0.50023757  -0.00036291  0.49916527  1
  Sb  Sb27  1  0.24872712  0.49960489  0.74874164  1
  Sb  Sb28  1  0.49512179  0.25283307  0.25188224  1
  Sb  Sb29  1  0.75129315  -0.00021850  0.25463377  1
  Sb  Sb30  1  0.75166644  0.49996441  0.74421283  1
  Sb  Sb31  1  0.75472675  0.24764902  0.00154903  1
  Te  Te32  1  0.24685918  0.25233919  0.25127894  1
  Te  Te33  1  0.25018880  0.24450498  0.75060327  1
  Te  Te34  1  0.24796428  0.74761111  0.24737791  1
  Te  Te35  1  0.25050467  0.75641545  0.75921018  1
  Te  Te36  1  0.75673605  0.24951394  0.25568934  1
  Te  Te37  1  0.74952233  0.24324147  0.74372975  1
  Te  Te38  1  0.75161454  0.74986656  0.25419781  1
  Te  Te39  1  0.74957535  0.75617517  0.74408799  1
  Te  Te40  1  0.25101266  0.00123038  -0.00216908  1
  Te  Te41  1  0.24836040  0.00251932  0.50335472  1
  Te  Te42  1  0.24701196  0.49885834  0.00025513  1
  Te  Te43  1  0.24647491  0.49866973  0.49894159  1
  Te  Te44  1  0.74509717  0.00097612  -0.00818769  1
  Te  Te45  1  0.75045672  0.00059441  0.50306250  1
  Te  Te46  1  0.75690537  0.49855044  -0.00316540  1
  Te  Te47  1  0.75219862  0.49948580  0.50140692  1
  Te  Te48  1  0.00356414  0.25191392  0.00700217  1
  Te  Te49  1  0.00153247  0.25078188  0.49745982  1
  Te  Te50  1  0.00245213  0.74866722  0.00650231  1
  Te  Te51  1  -0.00110596  0.74924835  0.49608429  1
  Te  Te52  1  0.49513414  0.24762325  0.00215922  1
  Te  Te53  1  0.49859751  0.25377527  0.49806925  1
  Te  Te54  1  0.49827322  0.75097676  0.00549013  1
  Te  Te55  1  0.50182599  0.74722513  0.49497655  1
  Te  Te56  1  -0.00064376  -0.00141165  0.25559335  1
  Te  Te57  1  0.00100486  -0.00078314  0.74465895  1
  Te  Te58  1  0.00303368  0.50066418  0.25213021  1
  Te  Te59  1  0.00011182  0.50052349  0.74920569  1
  Te  Te60  1  0.50089210  -0.00649963  0.24481551  1
  Te  Te61  1  0.49690827  -0.00059347  0.75435021  1
  Te  Te62  1  0.49294465  0.50404682  0.25429330  1
  Te  Te63  1  0.50010017  0.50035391  0.74011191  1
