# generated using pymatgen
data_AgSbTe2
_symmetry_space_group_name_H-M   'P 1'
_cell_length_a   12.32644779
_cell_length_b   12.30295072
_cell_length_c   12.32537985
_cell_angle_alpha   89.99002991
_cell_angle_beta   89.99507401
_cell_angle_gamma   90.00091545
_symmetry_Int_Tables_number   1
_chemical_formula_structural   AgSbTe2
_chemical_formula_sum   'Ag16 Sb16 Te32'
_cell_volume   1869.16452108
_cell_formula_units_Z   16
loop_
 _symmetry_equiv_pos_site_id
 _symmetry_equiv_pos_as_xyz
  1  'x, y, z'
loop_
 _atom_site_type_symbol
 _atom_site_label
 _atom_site_symmetry_multiplicity
 _atom_site_fract_x
 _atom_site_fract_y
 _atom_site_fract_z
 _atom_site_occupancy
  Ag  Ag0  1  0.02065682  0.24767582  0.25563016  1
  Ag  Ag1  1  0.25024495  0.75875932  0.49179833  1
  Ag  Ag2  1  0.48104617  0.24369243  0.74401788  1
  Ag  Ag3  1  0.24501578  0.01418935  0.75002345  1
  Ag  Ag4  1  0.75625631  0.00576323  0.75014620  1
  Ag  Ag5  1  0.01354298  0.76300969  0.75215445  1
  Ag  Ag6  1  0.48427332  0.24836898  0.25382300  1
  Ag  Ag7  1  0.25030229  0.75846680  0.00626943  1
  Ag  Ag8  1  0.75060945  0.24575079  0.50396348  1
  Ag  Ag9  1  0.01439732  0.23967679  0.74551452  1
  Ag  Ag10  1  0.24996406  0.24262295  0.01850632  1
  Ag  Ag11  1  0.75228661  0.75512698  -0.00301611  1
  Ag  Ag12  1  0.48572421  0.75371345  0.24809164  1
  Ag  Ag13  1  0.25003111  0.24295280  0.48249457  1
  Ag  Ag14  1  0.25207675  0.01331033  0.24994495  1
  Ag  Ag15  1  0.25150479  0.47831518  0.24992582  1
  Sb  Sb16  1  0.74975950  0.75429845  0.50198129  1
  Sb  Sb17  1  0.74895591  0.49815721  0.24938608  1
  Sb  Sb18  1  0.00254114  0.49756556  0.49967395  1
  Sb  Sb19  1  0.74852351  0.00198501  0.24931875  1
  Sb  Sb20  1  0.00310631  0.00061829  -0.00233968  1
  Sb  Sb21  1  0.49778405  0.49970351  0.00013490  1
  Sb  Sb22  1  0.75201294  0.49760432  0.75021143  1
  Sb  Sb23  1  0.01067375  0.75373657  0.24865807  1
  Sb  Sb24  1  0.24910595  0.49238465  0.75031707  1
  Sb  Sb25  1  0.49140371  0.75656695  0.75096980  1
  Sb  Sb26  1  0.00237344  0.49924282  -0.00012329  1
  Sb  Sb27  1  0.00246471  0.00217994  0.50178520  1
  Sb  Sb28  1  0.49755474  0.49758258  0.49959947  1
  Sb  Sb29  1  0.74989727  0.24678550  -0.00159199  1
  Sb  Sb30  1  0.49765692  0.00237010  0.49982522  1
  Sb  Sb31  1  0.49699128  0.00065241  0.00020422  1
  Te  Te32  1  0.24958742  0.24689355  0.24837207  1
  Te  Te33  1  0.24829556  0.25153904  0.74962611  1
  Te  Te34  1  0.24749682  0.76116614  0.25013771  1
  Te  Te35  1  0.25278513  0.74487291  0.75149491  1
  Te  Te36  1  0.74520484  0.24687015  0.24690551  1
  Te  Te37  1  0.75624221  0.24776463  0.75393191  1
  Te  Te38  1  0.74923432  0.75207375  0.25329442  1
  Te  Te39  1  0.74389972  0.75084051  0.74578609  1
  Te  Te40  1  0.25027411  0.00186811  -0.00456808  1
  Te  Te41  1  0.25029236  -0.00025046  0.50448825  1
  Te  Te42  1  0.25033663  0.49966689  0.00490419  1
  Te  Te43  1  0.25027449  0.50129572  0.49510456  1
  Te  Te44  1  0.74979212  -0.00929435  -0.00649099  1
  Te  Te45  1  0.75004015  0.00811486  0.50736504  1
  Te  Te46  1  0.74994790  0.51957275  0.00031403  1
  Te  Te47  1  0.75018211  0.48506749  0.49937191  1
  Te  Te48  1  0.00092373  0.25090624  -0.00494200  1
  Te  Te49  1  0.00643994  0.25037519  0.50412371  1
  Te  Te50  1  0.00694091  0.74907458  -0.00349682  1
  Te  Te51  1  0.00313864  0.74816826  0.50649358  1
  Te  Te52  1  0.49917485  0.25081950  0.00538821  1
  Te  Te53  1  0.49289188  0.25033521  0.49715053  1
  Te  Te54  1  0.48981426  0.74913011  0.00220824  1
  Te  Te55  1  0.49522361  0.74805115  0.49543571  1
  Te  Te56  1  0.00270704  0.00653606  0.24967581  1
  Te  Te57  1  0.00702025  -0.00055487  0.75034306  1
  Te  Te58  1  0.00193902  0.49015637  0.24949783  1
  Te  Te59  1  -0.00083309  0.49980033  0.75076090  1
  Te  Te60  1  0.49857063  0.00065622  0.24974851  1
  Te  Te61  1  0.49338730  0.00694604  0.75043570  1
  Te  Te62  1  0.49836787  0.49756751  0.24938533  1
  Te  Te63  1  0.50166923  0.48114167  0.75045549  1
