# generated using pymatgen
data_AgSbTe2
_symmetry_space_group_name_H-M   'P 1'
_cell_length_a   12.29691683
_cell_length_b   12.31566085
_cell_length_c   12.31117507
_cell_angle_alpha   90.00242719
_cell_angle_beta   89.99357254
_cell_angle_gamma   89.99125760
_symmetry_Int_Tables_number   1
_chemical_formula_structural   AgSbTe2
_chemical_formula_sum   'Ag16 Sb16 Te32'
_cell_volume   1864.46165335
_cell_formula_units_Z   16
loop_
 _symmetry_equiv_pos_site_id
 _symmetry_equiv_pos_as_xyz
  1  'x, y, z'
loop_
 _atom_site_type_symbol
 _atom_site_label
 _atom_site_symmetry_multiplicity
 _atom_site_fract_x
 _atom_site_fract_y
 _atom_site_fract_z
 _atom_site_occupancy
  Ag  Ag0  1  -0.01810327  0.75247717  0.24506311  1
  Ag  Ag1  1  0.74446933  -0.00725316  0.74594482  1
  Ag  Ag2  1  0.74429110  -0.01522366  0.25388435  1
  Ag  Ag3  1  0.26046580  0.75223231  0.00416039  1
  Ag  Ag4  1  -0.01185339  0.24479502  0.24657288  1
  Ag  Ag5  1  0.50466696  0.51053043  0.00293733  1
  Ag  Ag6  1  0.25921571  0.24598186  0.00249562  1
  Ag  Ag7  1  0.74033890  0.75657348  0.01850906  1
  Ag  Ag8  1  0.74740329  0.52104531  0.24779295  1
  Ag  Ag9  1  0.50711867  -0.00677497  0.00310699  1
  Ag  Ag10  1  0.50975637  -0.00301765  0.49680298  1
  Ag  Ag11  1  0.50759602  0.24327559  0.75631281  1
  Ag  Ag12  1  0.51723186  0.75632004  0.23707057  1
  Ag  Ag13  1  0.74591604  0.76213333  0.48081540  1
  Ag  Ag14  1  0.74464099  0.23487670  0.49096153  1
  Ag  Ag15  1  -0.01120644  0.75434388  0.75973049  1
  Sb  Sb16  1  0.25449167  0.50243575  0.75616917  1
  Sb  Sb17  1  0.50603431  0.24749749  0.24986503  1
  Sb  Sb18  1  0.74754948  0.24632829  0.00321529  1
  Sb  Sb19  1  0.25073897  0.75299749  0.49690680  1
  Sb  Sb20  1  0.50689080  0.50156964  0.49758794  1
  Sb  Sb21  1  0.50688060  0.75406213  0.75557710  1
  Sb  Sb22  1  0.74708654  0.50328383  0.75224878  1
  Sb  Sb23  1  -0.00490106  0.50192529  0.00311662  1
  Sb  Sb24  1  -0.00560431  0.50179408  0.49728596  1
  Sb  Sb25  1  -0.00736181  -0.00238975  0.00132980  1
  Sb  Sb26  1  0.25439792  -0.00170572  0.24707296  1
  Sb  Sb27  1  0.25262363  0.24545783  0.49785613  1
  Sb  Sb28  1  -0.00336413  0.24716873  0.75191780  1
  Sb  Sb29  1  0.25342355  0.50099883  0.24574052  1
  Sb  Sb30  1  -0.01009791  -0.00129592  0.49821264  1
  Sb  Sb31  1  0.25574229  -0.00203538  0.75439673  1
  Te  Te32  1  0.23778715  0.24998635  0.24629001  1
  Te  Te33  1  0.24739107  0.25074076  0.75332169  1
  Te  Te34  1  0.24650080  0.75037175  0.24643375  1
  Te  Te35  1  0.23938991  0.75043985  0.75419570  1
  Te  Te36  1  0.75335104  0.24406853  0.25037182  1
  Te  Te37  1  0.74943668  0.24984502  0.74921351  1
  Te  Te38  1  0.74692853  0.75025511  0.25051316  1
  Te  Te39  1  0.75118640  0.75127580  0.74912570  1
  Te  Te40  1  0.26196490  -0.00200454  0.00012391  1
  Te  Te41  1  0.27228924  0.00057501  0.50174707  1
  Te  Te42  1  0.26134433  0.50396145  0.00047765  1
  Te  Te43  1  0.24947962  0.49926390  0.50198342  1
  Te  Te44  1  0.74738160  -0.00091029  0.00160073  1
  Te  Te45  1  0.74731122  -0.00119523  0.49787484  1
  Te  Te46  1  0.74509929  0.50278401  0.00367526  1
  Te  Te47  1  0.75018147  0.50262016  0.49358281  1
  Te  Te48  1  0.00704228  0.24936393  0.00339585  1
  Te  Te49  1  -0.00168579  0.24869177  0.49724161  1
  Te  Te50  1  -0.00245570  0.75114077  0.00507297  1
  Te  Te51  1  0.00090092  0.75116704  0.49065890  1
  Te  Te52  1  0.50024567  0.24440539  0.00204047  1
  Te  Te53  1  0.50334483  0.25084967  0.49894710  1
  Te  Te54  1  0.50203132  0.75231753  -0.00026865  1
  Te  Te55  1  0.50072005  0.75009951  0.50052584  1
  Te  Te56  1  -0.00673747  -0.00162210  0.24997028  1
  Te  Te57  1  -0.01051219  -0.00597928  0.74856101  1
  Te  Te58  1  -0.00693921  0.50436275  0.24970539  1
  Te  Te59  1  0.00028145  0.50959866  0.74866685  1
  Te  Te60  1  0.50281227  -0.00099902  0.24572874  1
  Te  Te61  1  0.50423711  0.00323756  0.75500668  1
  Te  Te62  1  0.50324503  0.50284216  0.24650444  1
  Te  Te63  1  0.49996769  0.48803777  0.75705094  1
