# generated using pymatgen
data_AgSbTe2
_symmetry_space_group_name_H-M   'P 1'
_cell_length_a   12.21722541
_cell_length_b   12.23160008
_cell_length_c   12.21530392
_cell_angle_alpha   90.00211587
_cell_angle_beta   90.00068607
_cell_angle_gamma   90.00019102
_symmetry_Int_Tables_number   1
_chemical_formula_structural   AgSbTe2
_chemical_formula_sum   'Ag16 Sb16 Te32'
_cell_volume   1825.40878476
_cell_formula_units_Z   16
loop_
 _symmetry_equiv_pos_site_id
 _symmetry_equiv_pos_as_xyz
  1  'x, y, z'
loop_
 _atom_site_type_symbol
 _atom_site_label
 _atom_site_symmetry_multiplicity
 _atom_site_fract_x
 _atom_site_fract_y
 _atom_site_fract_z
 _atom_site_occupancy
  Ag  Ag0  1  -0.00387964  0.00179266  0.00653913  1
  Ag  Ag1  1  0.50324482  0.00105665  -0.00182718  1
  Ag  Ag2  1  -0.00512282  0.00502229  0.49320418  1
  Ag  Ag3  1  -0.00280172  0.24690511  0.25570392  1
  Ag  Ag4  1  0.74755652  0.49919367  0.74771022  1
  Ag  Ag5  1  0.75758827  0.00072854  0.25206777  1
  Ag  Ag6  1  0.50139073  0.25627827  0.75030205  1
  Ag  Ag7  1  -0.00361925  0.49482729  0.50082318  1
  Ag  Ag8  1  0.50195606  0.49904148  -0.00895248  1
  Ag  Ag9  1  0.25188982  0.49757659  0.74907390  1
  Ag  Ag10  1  0.75732548  0.25118641  0.50060062  1
  Ag  Ag11  1  -0.00216052  0.49835606  -0.00123139  1
  Ag  Ag12  1  0.50307412  0.74357137  0.75107397  1
  Ag  Ag13  1  0.75493103  0.74899224  0.50065381  1
  Ag  Ag14  1  -0.00429953  0.75304598  0.25283155  1
  Ag  Ag15  1  0.24277474  0.25237220  0.50249013  1
  Sb  Sb16  1  -0.00299349  0.74626148  0.74843436  1
  Sb  Sb17  1  0.24706151  0.49779388  0.25233644  1
  Sb  Sb18  1  0.24832852  0.25209145  -0.00315998  1
  Sb  Sb19  1  0.50404308  0.00106617  0.50016984  1
  Sb  Sb20  1  -0.00182119  0.25346925  0.74333548  1
  Sb  Sb21  1  0.24920603  0.74879592  -0.00231087  1
  Sb  Sb22  1  0.50343360  0.49876586  0.50859009  1
  Sb  Sb23  1  0.50234489  0.24906010  0.24999995  1
  Sb  Sb24  1  0.75095090  0.74965708  -0.00107143  1
  Sb  Sb25  1  0.75352662  0.49929841  0.25284346  1
  Sb  Sb26  1  0.75170085  0.25043722  -0.00170192  1
  Sb  Sb27  1  0.74985401  0.00094621  0.74816986  1
  Sb  Sb28  1  0.25028490  0.00286839  0.74823227  1
  Sb  Sb29  1  0.24579987  0.74805865  0.50279901  1
  Sb  Sb30  1  0.24212508  0.00202736  0.25085088  1
  Sb  Sb31  1  0.50385739  0.75111800  0.24963864  1
  Te  Te32  1  0.24474334  0.25014450  0.25920759  1
  Te  Te33  1  0.25589918  0.25419768  0.74526603  1
  Te  Te34  1  0.24144345  0.75001771  0.25155952  1
  Te  Te35  1  0.25903531  0.74260453  0.74879761  1
  Te  Te36  1  0.75374401  0.24675215  0.25634751  1
  Te  Te37  1  0.74520467  0.25438626  0.74494055  1
  Te  Te38  1  0.75509647  0.75341057  0.25636536  1
  Te  Te39  1  0.74558023  0.74559432  0.74479174  1
  Te  Te40  1  0.24887174  0.00025960  -0.00044498  1
  Te  Te41  1  0.24338021  0.00475325  0.50069906  1
  Te  Te42  1  0.24725433  0.49922141  -0.00622096  1
  Te  Te43  1  0.24528849  0.49666405  0.50372403  1
  Te  Te44  1  0.75324727  0.00014552  0.00252714  1
  Te  Te45  1  0.75361682  0.00079004  0.49861327  1
  Te  Te46  1  0.75302191  0.49979307  -0.00492815  1
  Te  Te47  1  0.75300851  0.49905716  0.50262787  1
  Te  Te48  1  -0.00010483  0.25025399  0.00494444  1
  Te  Te49  1  -0.00250641  0.25093254  0.50050428  1
  Te  Te50  1  -0.00075665  0.74950954  0.00331402  1
  Te  Te51  1  -0.00325959  0.74967753  0.49870411  1
  Te  Te52  1  0.49988334  0.24998684  -0.00212183  1
  Te  Te53  1  0.50119702  0.24953686  0.50181291  1
  Te  Te54  1  0.50031592  0.75005459  -0.00267078  1
  Te  Te55  1  0.50497413  0.75089974  0.50268848  1
  Te  Te56  1  -0.00272599  0.00170240  0.24896683  1
  Te  Te57  1  0.00020444  -0.00095863  0.75452687  1
  Te  Te58  1  -0.00096157  0.49867538  0.24824462  1
  Te  Te59  1  -0.00149809  0.50038119  0.75220184  1
  Te  Te60  1  0.50706370  -0.00059178  0.24285859  1
  Te  Te61  1  0.50032399  0.00067872  0.75563953  1
  Te  Te62  1  0.49972371  0.50094173  0.23680142  1
  Te  Te63  1  0.50214023  0.49886529  0.75149202  1
