# generated using pymatgen
data_AgSbTe2
_symmetry_space_group_name_H-M   'P 1'
_cell_length_a   12.32647408
_cell_length_b   12.27929813
_cell_length_c   12.33912380
_cell_angle_alpha   89.99533091
_cell_angle_beta   90.01129084
_cell_angle_gamma   89.98967389
_symmetry_Int_Tables_number   1
_chemical_formula_structural   AgSbTe2
_chemical_formula_sum   'Ag16 Sb16 Te32'
_cell_volume   1867.65526010
_cell_formula_units_Z   16
loop_
 _symmetry_equiv_pos_site_id
 _symmetry_equiv_pos_as_xyz
  1  'x, y, z'
loop_
 _atom_site_type_symbol
 _atom_site_label
 _atom_site_symmetry_multiplicity
 _atom_site_fract_x
 _atom_site_fract_y
 _atom_site_fract_z
 _atom_site_occupancy
  Ag  Ag0  1  0.51634644  0.26756413  0.24992420  1
  Ag  Ag1  1  -0.01652903  0.26845511  0.25392452  1
  Ag  Ag2  1  0.50327158  0.49717482  0.48710667  1
  Ag  Ag3  1  0.24696238  0.74030875  0.49693184  1
  Ag  Ag4  1  0.50425854  0.26200671  0.75035200  1
  Ag  Ag5  1  0.74528899  0.26150451  0.48362524  1
  Ag  Ag6  1  -0.00111254  0.50459032  0.49070652  1
  Ag  Ag7  1  0.74067825  0.49356109  0.24896012  1
  Ag  Ag8  1  0.50584212  0.50191957  0.01538974  1
  Ag  Ag9  1  0.50593670  0.73492055  0.24409052  1
  Ag  Ag10  1  0.74691987  0.73733789  0.00972662  1
  Ag  Ag11  1  -0.00270650  0.73745968  0.24989528  1
  Ag  Ag12  1  0.74270599  0.26413170  0.01300535  1
  Ag  Ag13  1  0.25041698  0.74106524  0.00351101  1
  Ag  Ag14  1  0.25311886  0.50570358  0.74734240  1
  Ag  Ag15  1  0.00383499  0.73996478  0.75007962  1
  Sb  Sb16  1  0.75025230  0.50091585  0.75254064  1
  Sb  Sb17  1  -0.00377835  0.50228282  0.00824476  1
  Sb  Sb18  1  0.25549247  0.26232488  0.00228515  1
  Sb  Sb19  1  -0.00112942  -0.00215280  0.49830905  1
  Sb  Sb20  1  0.50009661  -0.00108211  0.00074837  1
  Sb  Sb21  1  0.50128665  0.74353657  0.75230819  1
  Sb  Sb22  1  0.25022175  -0.00392040  0.24907862  1
  Sb  Sb23  1  0.25201833  0.25766573  0.49916388  1
  Sb  Sb24  1  -0.00049606  -0.00187296  0.00106064  1
  Sb  Sb25  1  0.74968772  -0.00162301  0.75051836  1
  Sb  Sb26  1  0.50033436  0.00138717  0.49823852  1
  Sb  Sb27  1  -0.00222134  0.26062578  0.74987902  1
  Sb  Sb28  1  0.25250622  0.50218880  0.25120582  1
  Sb  Sb29  1  0.74957020  0.00398460  0.25011798  1
  Sb  Sb30  1  0.75037396  0.74215963  0.49116552  1
  Sb  Sb31  1  0.25132663  -0.00434145  0.75064362  1
  Te  Te32  1  0.24552493  0.24717211  0.24792323  1
  Te  Te33  1  0.25040155  0.25150803  0.75059874  1
  Te  Te34  1  0.24835604  0.74899660  0.24855553  1
  Te  Te35  1  0.25073553  0.74750000  0.75074853  1
  Te  Te36  1  0.75097974  0.25174368  0.24725018  1
  Te  Te37  1  0.74966762  0.24799497  0.75855558  1
  Te  Te38  1  0.74771131  0.74835101  0.24832040  1
  Te  Te39  1  0.75164909  0.75123272  0.75973580  1
  Te  Te40  1  0.24865681  -0.02098566  0.00029569  1
  Te  Te41  1  0.24968845  -0.02173835  0.49982100  1
  Te  Te42  1  0.25683069  0.50360743  -0.00599701  1
  Te  Te43  1  0.25188385  0.50404658  0.50065632  1
  Te  Te44  1  0.75040380  -0.00144084  0.00006970  1
  Te  Te45  1  0.74951605  0.02329486  0.50128585  1
  Te  Te46  1  0.74802472  0.50026120  0.00211675  1
  Te  Te47  1  0.74648918  0.49678399  0.49729652  1
  Te  Te48  1  -0.00328488  0.24988989  0.00281321  1
  Te  Te49  1  0.00549183  0.25157292  0.49750287  1
  Te  Te50  1  -0.00347782  0.74754654  0.00898769  1
  Te  Te51  1  -0.00682687  0.74773547  0.49197162  1
  Te  Te52  1  0.49908947  0.25078225  0.00959146  1
  Te  Te53  1  0.49497064  0.25185952  0.49025187  1
  Te  Te54  1  0.50599490  0.74892784  -0.00048932  1
  Te  Te55  1  0.50582179  0.74840699  0.50134570  1
  Te  Te56  1  -0.00035778  -0.00264349  0.25002241  1
  Te  Te57  1  0.00014974  -0.01670760  0.75005133  1
  Te  Te58  1  0.00025631  0.49918232  0.25330301  1
  Te  Te59  1  0.00223959  0.50539676  0.74173001  1
  Te  Te60  1  0.50065362  -0.00266646  0.25112721  1
  Te  Te61  1  0.50049691  0.02250929  0.74878289  1
  Te  Te62  1  0.50101269  0.50308066  0.25046696  1
  Te  Te63  1  0.50047487  0.49705124  0.74522845  1
