# generated using pymatgen
data_AgSbTe2
_symmetry_space_group_name_H-M   'P 1'
_cell_length_a   12.22197907
_cell_length_b   12.22163230
_cell_length_c   12.21011526
_cell_angle_alpha   90.00264092
_cell_angle_beta   90.00071542
_cell_angle_gamma   89.99578821
_symmetry_Int_Tables_number   1
_chemical_formula_structural   AgSbTe2
_chemical_formula_sum   'Ag16 Sb16 Te32'
_cell_volume   1823.85585220
_cell_formula_units_Z   16
loop_
 _symmetry_equiv_pos_site_id
 _symmetry_equiv_pos_as_xyz
  1  'x, y, z'
loop_
 _atom_site_type_symbol
 _atom_site_label
 _atom_site_symmetry_multiplicity
 _atom_site_fract_x
 _atom_site_fract_y
 _atom_site_fract_z
 _atom_site_occupancy
  Ag  Ag0  1  0.25004297  0.24919535  0.00117678  1
  Ag  Ag1  1  -0.00109836  0.50497637  0.49713902  1
  Ag  Ag2  1  0.50133868  0.24721637  0.25058699  1
  Ag  Ag3  1  0.50331364  -0.00501712  0.49918707  1
  Ag  Ag4  1  0.74751589  -0.00650680  0.74534749  1
  Ag  Ag5  1  0.74720957  -0.00595252  0.25492057  1
  Ag  Ag6  1  -0.00563060  0.74815575  0.25406858  1
  Ag  Ag7  1  0.49603772  0.75456056  0.74744180  1
  Ag  Ag8  1  0.00415586  0.75051125  0.74756701  1
  Ag  Ag9  1  0.50557354  0.75366667  0.25396715  1
  Ag  Ag10  1  0.75283376  0.50579635  0.25385031  1
  Ag  Ag11  1  0.25000984  0.75040169  -0.00534086  1
  Ag  Ag12  1  -0.00137399  0.25116246  0.25070935  1
  Ag  Ag13  1  0.25167987  -0.00872111  0.75041823  1
  Ag  Ag14  1  0.24902908  0.50840001  0.75049691  1
  Ag  Ag15  1  0.74987667  0.75299183  0.49561342  1
  Sb  Sb16  1  0.49851081  -0.00133544  0.00098113  1
  Sb  Sb17  1  0.74991847  0.75123325  0.00492319  1
  Sb  Sb18  1  0.24754705  0.50254684  0.25063824  1
  Sb  Sb19  1  0.49747108  0.24522117  0.74945325  1
  Sb  Sb20  1  0.24967242  0.24912826  0.49765215  1
  Sb  Sb21  1  -0.00338598  -0.00540223  0.49901639  1
  Sb  Sb22  1  0.49760356  0.50108994  0.00103253  1
  Sb  Sb23  1  0.25305014  -0.00270267  0.25075496  1
  Sb  Sb24  1  0.50119035  0.50523235  0.49874102  1
  Sb  Sb25  1  0.74997399  0.24842175  0.00436678  1
  Sb  Sb26  1  0.75115645  0.50855091  0.74559569  1
  Sb  Sb27  1  0.00207462  0.50149671  0.00288068  1
  Sb  Sb28  1  0.74996153  0.24644916  0.49743620  1
  Sb  Sb29  1  0.00179081  -0.00127999  0.00105569  1
  Sb  Sb30  1  0.00227528  0.25002497  0.74933867  1
  Sb  Sb31  1  0.24971178  0.75031198  0.50612743  1
  Te  Te32  1  0.24988780  0.24985607  0.24560388  1
  Te  Te33  1  0.24980698  0.24934886  0.75580891  1
  Te  Te34  1  0.24995224  0.75026451  0.24482527  1
  Te  Te35  1  0.24980461  0.75111843  0.75017350  1
  Te  Te36  1  0.75009802  0.24775653  0.24890228  1
  Te  Te37  1  0.74998116  0.24171515  0.75140528  1
  Te  Te38  1  0.75002526  0.75243586  0.24879927  1
  Te  Te39  1  0.74995371  0.75226981  0.74975325  1
  Te  Te40  1  0.24974451  -0.00133559  -0.00637530  1
  Te  Te41  1  0.25635000  0.00095745  0.50681655  1
  Te  Te42  1  0.25000263  0.50161192  -0.00627158  1
  Te  Te43  1  0.24464256  0.49919260  0.50623056  1
  Te  Te44  1  0.75036836  0.00025454  -0.00098596  1
  Te  Te45  1  0.74756500  -0.00410696  0.49903062  1
  Te  Te46  1  0.74984230  0.49883558  0.00872920  1
  Te  Te47  1  0.75376711  0.50579935  0.49532761  1
  Te  Te48  1  0.00672756  0.25068180  0.00731939  1
  Te  Te49  1  -0.00009434  0.25676186  0.49276093  1
  Te  Te50  1  0.00648992  0.74970346  -0.00061261  1
  Te  Te51  1  -0.00302859  0.74829455  0.49818878  1
  Te  Te52  1  0.49333988  0.25104799  0.00710924  1
  Te  Te53  1  0.50006788  0.24426362  0.49305137  1
  Te  Te54  1  0.49353249  0.74935815  -0.00017339  1
  Te  Te55  1  0.50324975  0.75270891  0.49836469  1
  Te  Te56  1  -0.00409104  -0.00170025  0.25212170  1
  Te  Te57  1  -0.00024927  -0.00392456  0.74805627  1
  Te  Te58  1  -0.00151871  0.50304304  0.25347949  1
  Te  Te59  1  0.00132027  0.50334558  0.74535753  1
  Te  Te60  1  0.50188659  -0.00299130  0.25340212  1
  Te  Te61  1  0.50120281  -0.00267101  0.74687047  1
  Te  Te62  1  0.50314619  0.50143941  0.25190164  1
  Te  Te63  1  0.49718983  0.50484060  0.74788522  1
