# generated using pymatgen
data_AgSbTe2
_symmetry_space_group_name_H-M   'P 1'
_cell_length_a   12.21309872
_cell_length_b   12.20591753
_cell_length_c   12.21061980
_cell_angle_alpha   90.00113410
_cell_angle_beta   90.00133059
_cell_angle_gamma   89.99849946
_symmetry_Int_Tables_number   1
_chemical_formula_structural   AgSbTe2
_chemical_formula_sum   'Ag16 Sb16 Te32'
_cell_volume   1820.26243896
_cell_formula_units_Z   16
loop_
 _symmetry_equiv_pos_site_id
 _symmetry_equiv_pos_as_xyz
  1  'x, y, z'
loop_
 _atom_site_type_symbol
 _atom_site_label
 _atom_site_symmetry_multiplicity
 _atom_site_fract_x
 _atom_site_fract_y
 _atom_site_fract_z
 _atom_site_occupancy
  Ag  Ag0  1  -0.00478284  0.74909442  0.25106275  1
  Ag  Ag1  1  0.75107119  0.74677111  0.49672612  1
  Ag  Ag2  1  -0.00251603  0.50604952  0.50180171  1
  Ag  Ag3  1  0.75044769  -0.00740706  0.25124181  1
  Ag  Ag4  1  0.24928831  0.74670620  -0.00305791  1
  Ag  Ag5  1  0.50544832  0.74832966  0.25054744  1
  Ag  Ag6  1  0.25030983  0.25300902  -0.00052359  1
  Ag  Ag7  1  0.00198404  0.50558074  -0.00134882  1
  Ag  Ag8  1  0.49899727  0.74570544  0.74962506  1
  Ag  Ag9  1  0.74991431  0.50623958  0.74809599  1
  Ag  Ag10  1  0.75055797  0.74710846  0.00366856  1
  Ag  Ag11  1  0.50015795  0.25225224  0.24969527  1
  Ag  Ag12  1  0.50177213  0.50548487  0.50165338  1
  Ag  Ag13  1  -0.00139825  -0.00710435  0.49882845  1
  Ag  Ag14  1  0.24983886  -0.00508385  0.75081498  1
  Ag  Ag15  1  0.25005556  0.50473358  0.75264070  1
  Sb  Sb16  1  0.74895620  0.25441916  0.00282398  1
  Sb  Sb17  1  0.74943242  0.50920649  0.25194061  1
  Sb  Sb18  1  0.49924564  -0.00344942  0.00052734  1
  Sb  Sb19  1  0.00162277  0.25232449  0.75137359  1
  Sb  Sb20  1  0.00232057  0.74653493  0.74852285  1
  Sb  Sb21  1  0.24846093  0.74817738  0.50390075  1
  Sb  Sb22  1  0.50162128  -0.00660689  0.49932055  1
  Sb  Sb23  1  0.24883908  -0.00317116  0.25039696  1
  Sb  Sb24  1  0.00079283  -0.00748828  0.00082052  1
  Sb  Sb25  1  0.75066310  -0.00903222  0.74854959  1
  Sb  Sb26  1  0.49763698  0.25419403  0.75041092  1
  Sb  Sb27  1  0.74857340  0.25402421  0.49846897  1
  Sb  Sb28  1  -0.00033768  0.25090486  0.24870200  1
  Sb  Sb29  1  0.25051351  0.50225525  0.24566698  1
  Sb  Sb30  1  0.25154620  0.25185794  0.49943221  1
  Sb  Sb31  1  0.49790522  0.50411716  -0.00223918  1
  Te  Te32  1  0.25573612  0.24888219  0.24323262  1
  Te  Te33  1  0.25181469  0.25147261  0.75652153  1
  Te  Te34  1  0.25117193  0.75128738  0.24267792  1
  Te  Te35  1  0.25309708  0.74759632  0.75349382  1
  Te  Te36  1  0.74425962  0.24058411  0.24796343  1
  Te  Te37  1  0.74804398  0.25794528  0.75164922  1
  Te  Te38  1  0.74876696  0.75102083  0.24963211  1
  Te  Te39  1  0.74506596  0.74757577  0.75006800  1
  Te  Te40  1  0.24864536  -0.00202333  -0.00582548  1
  Te  Te41  1  0.24378646  0.00031768  0.50600347  1
  Te  Te42  1  0.24759055  0.50349226  -0.00353294  1
  Te  Te43  1  0.24811395  0.49975396  0.50711780  1
  Te  Te44  1  0.75181818  -0.00616712  0.00291260  1
  Te  Te45  1  0.75427610  -0.00495651  0.49832897  1
  Te  Te46  1  0.75463104  0.50461988  -0.00460105  1
  Te  Te47  1  0.75214982  0.50383020  0.50294683  1
  Te  Te48  1  0.00545117  0.25836077  0.00198289  1
  Te  Te49  1  -0.00015934  0.25381300  0.49776225  1
  Te  Te50  1  -0.00000998  0.74647067  0.00359932  1
  Te  Te51  1  -0.00102451  0.74676373  0.49731856  1
  Te  Te52  1  0.49541654  0.25127259  0.00582412  1
  Te  Te53  1  0.49982563  0.25765396  0.49389113  1
  Te  Te54  1  0.50049519  0.74860812  0.00159524  1
  Te  Te55  1  0.50178641  0.74641180  0.49839483  1
  Te  Te56  1  -0.00253914  -0.00388293  0.25448902  1
  Te  Te57  1  0.00384177  0.00113106  0.74383381  1
  Te  Te58  1  0.00020002  0.50384676  0.25210140  1
  Te  Te59  1  0.00121252  0.50074451  0.74797639  1
  Te  Te60  1  0.50366004  -0.00389632  0.25136203  1
  Te  Te61  1  0.49519673  -0.00531560  0.74830362  1
  Te  Te62  1  0.49986507  0.50338955  0.25600070  1
  Te  Te63  1  0.49887532  0.50365931  0.74688532  1
