# generated using pymatgen
data_AgSbTe2
_symmetry_space_group_name_H-M   'P 1'
_cell_length_a   12.22199650
_cell_length_b   12.23299474
_cell_length_c   12.23987324
_cell_angle_alpha   90.00161557
_cell_angle_beta   90.00386106
_cell_angle_gamma   90.00116218
_symmetry_Int_Tables_number   1
_chemical_formula_structural   AgSbTe2
_chemical_formula_sum   'Ag16 Sb16 Te32'
_cell_volume   1830.00325685
_cell_formula_units_Z   16
loop_
 _symmetry_equiv_pos_site_id
 _symmetry_equiv_pos_as_xyz
  1  'x, y, z'
loop_
 _atom_site_type_symbol
 _atom_site_label
 _atom_site_symmetry_multiplicity
 _atom_site_fract_x
 _atom_site_fract_y
 _atom_site_fract_z
 _atom_site_occupancy
  Ag  Ag0  1  0.00804489  0.74098841  0.25085139  1
  Ag  Ag1  1  0.24793373  -0.00734523  0.75376452  1
  Ag  Ag2  1  0.24409731  0.50658232  0.25250412  1
  Ag  Ag3  1  0.24776405  -0.00734675  0.24615418  1
  Ag  Ag4  1  0.24877909  0.74741432  0.00087649  1
  Ag  Ag5  1  0.00880759  0.74391210  0.74963841  1
  Ag  Ag6  1  0.49003496  0.50231752  0.49773427  1
  Ag  Ag7  1  0.00239679  0.25999941  0.24954610  1
  Ag  Ag8  1  0.24575109  0.74235331  0.49920217  1
  Ag  Ag9  1  0.49303885  -0.00143361  0.00070230  1
  Ag  Ag10  1  0.75606181  0.49920156  0.24800031  1
  Ag  Ag11  1  0.00800282  0.50315587  0.49586213  1
  Ag  Ag12  1  0.24464837  0.50633828  0.74784720  1
  Ag  Ag13  1  0.75164673  0.25406795  0.00188643  1
  Ag  Ag14  1  0.00360210  0.25553322  0.75072657  1
  Ag  Ag15  1  0.49465086  0.50059452  0.00219544  1
  Sb  Sb16  1  0.49576871  0.25229245  0.75265178  1
  Sb  Sb17  1  0.75193435  0.00099574  0.75441654  1
  Sb  Sb18  1  0.75435687  0.25400630  0.49814285  1
  Sb  Sb19  1  0.49166802  -0.00268068  0.49898645  1
  Sb  Sb20  1  0.75429022  0.74552956  0.49830207  1
  Sb  Sb21  1  0.24717855  0.25908998  0.49953422  1
  Sb  Sb22  1  0.24901562  0.25189593  0.00068094  1
  Sb  Sb23  1  0.75038851  0.74692243  0.00214713  1
  Sb  Sb24  1  0.75567097  0.49907345  0.75277789  1
  Sb  Sb25  1  0.49037612  0.74818742  0.75098191  1
  Sb  Sb26  1  0.00445643  -0.00353216  0.49987980  1
  Sb  Sb27  1  0.00578404  0.50020048  0.00475923  1
  Sb  Sb28  1  0.75272824  0.00039269  0.24550145  1
  Sb  Sb29  1  0.49053049  0.74625710  0.24953679  1
  Sb  Sb30  1  0.49721776  0.25343325  0.24827088  1
  Sb  Sb31  1  0.00668242  -0.00031224  0.00004032  1
  Te  Te32  1  0.24393347  0.25083453  0.25023680  1
  Te  Te33  1  0.24435885  0.25160630  0.74965394  1
  Te  Te34  1  0.24754176  0.74774684  0.24763329  1
  Te  Te35  1  0.24739078  0.74746683  0.75245547  1
  Te  Te36  1  0.75681046  0.25248271  0.24682977  1
  Te  Te37  1  0.75943497  0.24902670  0.75484030  1
  Te  Te38  1  0.76175404  0.74607934  0.24927489  1
  Te  Te39  1  0.76392123  0.75138507  0.75019577  1
  Te  Te40  1  0.25323240  -0.00043810  0.00046666  1
  Te  Te41  1  0.25155880  -0.00881522  0.49976486  1
  Te  Te42  1  0.25383180  0.50117349  0.00014586  1
  Te  Te43  1  0.24807164  0.50252069  0.49932507  1
  Te  Te44  1  0.73910455  0.00370711  0.00017632  1
  Te  Te45  1  0.74583191  -0.00017898  0.50040163  1
  Te  Te46  1  0.74101581  0.49812435  0.00397308  1
  Te  Te47  1  0.75000639  0.50066093  0.49376310  1
  Te  Te48  1  -0.00358966  0.24921946  0.00040281  1
  Te  Te49  1  -0.00002784  0.25554319  0.49946041  1
  Te  Te50  1  0.00462911  0.75074638  -0.00000819  1
  Te  Te51  1  0.00365397  0.74716622  0.49891849  1
  Te  Te52  1  0.50404611  0.25261237  -0.00053826  1
  Te  Te53  1  0.50154845  0.25857215  0.50061278  1
  Te  Te54  1  0.49626274  0.74868996  -0.00019015  1
  Te  Te55  1  0.49493928  0.74391996  0.50034333  1
  Te  Te56  1  0.00473854  0.00043628  0.25030538  1
  Te  Te57  1  0.00523100  0.00117151  0.74968943  1
  Te  Te58  1  0.00350113  0.49985358  0.24882568  1
  Te  Te59  1  0.00198396  0.50020937  0.74871807  1
  Te  Te60  1  0.49438256  0.00126427  0.24714082  1
  Te  Te61  1  0.49391535  0.00009259  0.75307286  1
  Te  Te62  1  0.49727268  0.49953146  0.24921589  1
  Te  Te63  1  0.49640540  0.49950376  0.75079161  1
