# generated using pymatgen
data_AgSbTe2
_symmetry_space_group_name_H-M   'P 1'
_cell_length_a   12.21477969
_cell_length_b   12.20942116
_cell_length_c   12.22014537
_cell_angle_alpha   89.99611035
_cell_angle_beta   90.00529713
_cell_angle_gamma   89.99423402
_symmetry_Int_Tables_number   1
_chemical_formula_structural   AgSbTe2
_chemical_formula_sum   'Ag16 Sb16 Te32'
_cell_volume   1822.45612052
_cell_formula_units_Z   16
loop_
 _symmetry_equiv_pos_site_id
 _symmetry_equiv_pos_as_xyz
  1  'x, y, z'
loop_
 _atom_site_type_symbol
 _atom_site_label
 _atom_site_symmetry_multiplicity
 _atom_site_fract_x
 _atom_site_fract_y
 _atom_site_fract_z
 _atom_site_occupancy
  Ag  Ag0  1  -0.00207625  0.49392793  -0.00301228  1
  Ag  Ag1  1  0.75228900  0.00456792  0.75101296  1
  Ag  Ag2  1  0.50181925  0.49779917  0.00165521  1
  Ag  Ag3  1  0.74738058  0.49633518  0.24912024  1
  Ag  Ag4  1  0.75206087  0.49573097  0.75037767  1
  Ag  Ag5  1  0.00363532  0.00745332  -0.00411106  1
  Ag  Ag6  1  0.49978026  0.74696454  0.24755272  1
  Ag  Ag7  1  0.24725215  0.24769701  -0.00055471  1
  Ag  Ag8  1  0.24783536  0.24982161  0.50065290  1
  Ag  Ag9  1  -0.00038214  0.25080824  0.75125862  1
  Ag  Ag10  1  0.24766406  0.00518473  0.75307991  1
  Ag  Ag11  1  0.49800918  0.25266082  0.24826512  1
  Ag  Ag12  1  0.25083213  0.00526250  0.24753965  1
  Ag  Ag13  1  -0.00346025  0.49292178  0.50272863  1
  Ag  Ag14  1  0.50086858  0.74849871  0.75268783  1
  Ag  Ag15  1  0.75269522  0.25428387  0.50308474  1
  Sb  Sb16  1  0.74975663  0.00421375  0.24879757  1
  Sb  Sb17  1  0.49723496  0.00370969  -0.00101427  1
  Sb  Sb18  1  0.25234029  0.75283939  -0.00032272  1
  Sb  Sb19  1  0.25381509  0.49564864  0.24857069  1
  Sb  Sb20  1  0.50023912  0.25153076  0.75228288  1
  Sb  Sb21  1  0.25082362  0.74928709  0.50055663  1
  Sb  Sb22  1  0.74768793  0.74757319  -0.00061441  1
  Sb  Sb23  1  0.74955975  0.74590381  0.50089311  1
  Sb  Sb24  1  0.00214177  0.25128865  0.24809321  1
  Sb  Sb25  1  0.49977778  0.00255805  0.50099221  1
  Sb  Sb26  1  0.24844236  0.49498763  0.75131458  1
  Sb  Sb27  1  0.00055545  0.00735529  0.50446300  1
  Sb  Sb28  1  -0.00001577  0.74975836  0.75104439  1
  Sb  Sb29  1  0.00054625  0.74820193  0.24867189  1
  Sb  Sb30  1  0.75342504  0.25282866  -0.00299478  1
  Sb  Sb31  1  0.50324142  0.49671115  0.49917432  1
  Te  Te32  1  0.25203856  0.24689357  0.25003721  1
  Te  Te33  1  0.24963803  0.24651036  0.74985219  1
  Te  Te34  1  0.25691740  0.75746818  0.25122821  1
  Te  Te35  1  0.25646656  0.75904875  0.74851001  1
  Te  Te36  1  0.74588726  0.25173021  0.25496715  1
  Te  Te37  1  0.75053539  0.25140544  0.74715444  1
  Te  Te38  1  0.74253591  0.74671453  0.25135883  1
  Te  Te39  1  0.74424669  0.74980890  0.74899847  1
  Te  Te40  1  0.24744792  0.00442083  -0.00152008  1
  Te  Te41  1  0.24872113  0.00710000  0.50040444  1
  Te  Te42  1  0.24828208  0.49402466  0.00031135  1
  Te  Te43  1  0.24309475  0.49244773  0.49956195  1
  Te  Te44  1  0.75639450  0.00109184  -0.00513383  1
  Te  Te45  1  0.75194776  0.00722224  0.50531991  1
  Te  Te46  1  0.75132509  0.49845077  -0.00061844  1
  Te  Te47  1  0.75300031  0.49609107  0.50156712  1
  Te  Te48  1  0.00319359  0.25208990  -0.00231299  1
  Te  Te49  1  0.00031188  0.25377830  0.50303196  1
  Te  Te50  1  0.00075827  0.74561609  0.00026110  1
  Te  Te51  1  0.00076340  0.73821787  0.49959418  1
  Te  Te52  1  0.49466994  0.25454952  0.00390727  1
  Te  Te53  1  0.49818996  0.25113353  0.49465771  1
  Te  Te54  1  0.49894778  0.74258326  0.00056868  1
  Te  Te55  1  0.49900901  0.74909345  0.49908734  1
  Te  Te56  1  0.00334977  -0.00130670  0.24346776  1
  Te  Te57  1  0.00015176  0.00100604  0.75329197  1
  Te  Te58  1  -0.00602667  0.50103661  0.24602499  1
  Te  Te59  1  -0.00232485  0.49896590  0.75375915  1
  Te  Te60  1  0.49744818  0.00023943  0.24855400  1
  Te  Te61  1  0.50092052  -0.00352781  0.75183140  1
  Te  Te62  1  0.50292148  0.49926608  0.24751961  1
  Te  Te63  1  0.50346167  0.50251510  0.75351051  1
