# generated using pymatgen
data_AgSbTe2
_symmetry_space_group_name_H-M   'P 1'
_cell_length_a   12.29548710
_cell_length_b   12.30825514
_cell_length_c   12.29848313
_cell_angle_alpha   90.00348008
_cell_angle_beta   90.00425821
_cell_angle_gamma   90.00727472
_symmetry_Int_Tables_number   1
_chemical_formula_structural   AgSbTe2
_chemical_formula_sum   'Ag16 Sb16 Te32'
_cell_volume   1861.20312597
_cell_formula_units_Z   16
loop_
 _symmetry_equiv_pos_site_id
 _symmetry_equiv_pos_as_xyz
  1  'x, y, z'
loop_
 _atom_site_type_symbol
 _atom_site_label
 _atom_site_symmetry_multiplicity
 _atom_site_fract_x
 _atom_site_fract_y
 _atom_site_fract_z
 _atom_site_occupancy
  Ag  Ag0  1  0.25336769  0.24875134  0.49783550  1
  Ag  Ag1  1  0.75669274  0.75608997  -0.02038222  1
  Ag  Ag2  1  0.75457315  -0.01607462  0.74673302  1
  Ag  Ag3  1  -0.00841416  0.75286754  0.26159800  1
  Ag  Ag4  1  0.50089804  0.24921529  0.25603578  1
  Ag  Ag5  1  0.50994004  -0.00251915  0.50532362  1
  Ag  Ag6  1  0.50760898  0.50217140  0.50493320  1
  Ag  Ag7  1  0.76034839  0.75291981  0.51575160  1
  Ag  Ag8  1  -0.00985449  0.51396164  0.50491395  1
  Ag  Ag9  1  0.25016857  0.24499559  0.00054106  1
  Ag  Ag10  1  -0.01008004  -0.00500104  -0.00763991  1
  Ag  Ag11  1  0.75115785  0.24300560  -0.00493160  1
  Ag  Ag12  1  0.51784632  0.75142781  0.73811730  1
  Ag  Ag13  1  -0.01622024  0.75508797  0.74108114  1
  Ag  Ag14  1  -0.00984347  -0.01161025  0.50546152  1
  Ag  Ag15  1  0.75087829  0.51824427  0.74433141  1
  Sb  Sb16  1  0.75080501  -0.00046938  0.25307950  1
  Sb  Sb17  1  0.24915258  0.00088606  0.25109358  1
  Sb  Sb18  1  0.50634249  0.74958502  0.25506737  1
  Sb  Sb19  1  -0.00382204  0.50154645  -0.00485887  1
  Sb  Sb20  1  0.24950317  0.49868369  0.25296767  1
  Sb  Sb21  1  0.50178989  0.24914534  0.74819583  1
  Sb  Sb22  1  0.75144531  0.24842791  0.50524802  1
  Sb  Sb23  1  0.24606649  -0.00023259  0.74825508  1
  Sb  Sb24  1  0.75075674  0.50071453  0.25444184  1
  Sb  Sb25  1  -0.00108974  0.25034698  0.25052376  1
  Sb  Sb26  1  -0.00225656  0.24836675  0.74982497  1
  Sb  Sb27  1  0.24805929  0.75241519  0.50023426  1
  Sb  Sb28  1  0.50423734  0.49903524  -0.00652833  1
  Sb  Sb29  1  0.24524201  0.75481396  -0.00322101  1
  Sb  Sb30  1  0.50741011  0.00113666  -0.00689320  1
  Sb  Sb31  1  0.24751545  0.50068960  0.74629073  1
  Te  Te32  1  0.25384291  0.24973376  0.25066517  1
  Te  Te33  1  0.24936320  0.24984678  0.75203014  1
  Te  Te34  1  0.23686753  0.75035904  0.24697827  1
  Te  Te35  1  0.25462726  0.74984319  0.75231086  1
  Te  Te36  1  0.74591954  0.25024637  0.23764682  1
  Te  Te37  1  0.75086047  0.24795360  0.75558618  1
  Te  Te38  1  0.75572799  0.74989318  0.25103551  1
  Te  Te39  1  0.74786298  0.75092661  0.74683324  1
  Te  Te40  1  0.24172390  0.00479177  0.00058791  1
  Te  Te41  1  0.24811679  0.00455751  0.49993908  1
  Te  Te42  1  0.25097975  0.48753334  0.00093825  1
  Te  Te43  1  0.25113471  0.49320545  0.49968029  1
  Te  Te44  1  0.75208586  -0.00274806  -0.00127832  1
  Te  Te45  1  0.75251035  0.00169271  0.50085837  1
  Te  Te46  1  0.74935397  0.50251161  -0.00764964  1
  Te  Te47  1  0.75177059  0.49585668  0.50373324  1
  Te  Te48  1  -0.00305479  0.24909201  -0.00024483  1
  Te  Te49  1  0.00007555  0.24606539  0.50022534  1
  Te  Te50  1  -0.00054097  0.75222138  -0.00636451  1
  Te  Te51  1  0.00013273  0.75181638  0.50372581  1
  Te  Te52  1  0.50064954  0.24906100  0.00295101  1
  Te  Te53  1  0.50197494  0.24816386  0.49861281  1
  Te  Te54  1  0.50131429  0.75039105  0.00359851  1
  Te  Te55  1  0.49534823  0.75189852  0.50106040  1
  Te  Te56  1  0.00045530  -0.00098293  0.25584607  1
  Te  Te57  1  -0.00240752  0.00031904  0.74737440  1
  Te  Te58  1  -0.00057620  0.50313405  0.26074377  1
  Te  Te59  1  -0.00183774  0.50284612  0.74543504  1
  Te  Te60  1  0.49942526  0.00190747  0.26194976  1
  Te  Te61  1  0.50443255  -0.00244358  0.74496970  1
  Te  Te62  1  0.49969317  0.49895369  0.26106613  1
  Te  Te63  1  0.50194265  0.50272846  0.74573068  1
