# generated using pymatgen
data_AgSbTe2
_symmetry_space_group_name_H-M   'P 1'
_cell_length_a   12.21600551
_cell_length_b   12.22105185
_cell_length_c   12.22563532
_cell_angle_alpha   90.00073581
_cell_angle_beta   89.99521453
_cell_angle_gamma   90.01032705
_symmetry_Int_Tables_number   1
_chemical_formula_structural   AgSbTe2
_chemical_formula_sum   'Ag16 Sb16 Te32'
_cell_volume   1825.19485210
_cell_formula_units_Z   16
loop_
 _symmetry_equiv_pos_site_id
 _symmetry_equiv_pos_as_xyz
  1  'x, y, z'
loop_
 _atom_site_type_symbol
 _atom_site_label
 _atom_site_symmetry_multiplicity
 _atom_site_fract_x
 _atom_site_fract_y
 _atom_site_fract_z
 _atom_site_occupancy
  Ag  Ag0  1  0.49949175  0.00265163  -0.00293986  1
  Ag  Ag1  1  0.00299721  0.23420845  0.75144707  1
  Ag  Ag2  1  0.25133917  0.24658388  -0.00097116  1
  Ag  Ag3  1  -0.00027546  -0.00198511  0.51549687  1
  Ag  Ag4  1  0.75293784  0.50644545  0.75295507  1
  Ag  Ag5  1  0.23468961  0.00288567  0.75363507  1
  Ag  Ag6  1  0.24735169  0.24732458  0.50160341  1
  Ag  Ag7  1  0.75582614  0.75273086  0.50773829  1
  Ag  Ag8  1  -0.00095303  0.75319690  0.24838988  1
  Ag  Ag9  1  0.49487909  0.25049124  0.24476230  1
  Ag  Ag10  1  0.49957375  0.49731526  0.00056983  1
  Ag  Ag11  1  -0.00660683  0.76509843  0.75148850  1
  Ag  Ag12  1  -0.00024504  -0.00197862  -0.01550114  1
  Ag  Ag13  1  0.25049066  0.49645436  0.24708418  1
  Ag  Ag14  1  0.75454865  0.75365030  -0.00688298  1
  Ag  Ag15  1  0.76531667  -0.00539621  0.75340205  1
  Sb  Sb16  1  0.24789748  0.49852382  0.75203847  1
  Sb  Sb17  1  0.50808031  0.75138760  0.75271878  1
  Sb  Sb18  1  0.49871942  0.75003963  0.24624843  1
  Sb  Sb19  1  0.50017113  0.00169306  0.50302422  1
  Sb  Sb20  1  -0.00050202  0.50172449  -0.00229524  1
  Sb  Sb21  1  0.24459527  0.75219770  0.50183498  1
  Sb  Sb22  1  0.49695973  0.24784295  0.75390286  1
  Sb  Sb23  1  0.74976279  0.50298421  0.24757885  1
  Sb  Sb24  1  0.24591210  0.75303711  -0.00177723  1
  Sb  Sb25  1  -0.00023460  0.50175312  0.50195873  1
  Sb  Sb26  1  0.24814606  0.00212320  0.24709792  1
  Sb  Sb27  1  0.75189763  -0.00215911  0.24633277  1
  Sb  Sb28  1  0.00340714  0.24798111  0.24918670  1
  Sb  Sb29  1  0.75220846  0.24805209  0.50449266  1
  Sb  Sb30  1  0.74981778  0.24726702  -0.00301799  1
  Sb  Sb31  1  0.50001715  0.49815246  0.50049640  1
  Te  Te32  1  0.25133288  0.25266026  0.24753365  1
  Te  Te33  1  0.24645536  0.24874069  0.75171317  1
  Te  Te34  1  0.24465821  0.74397060  0.25078720  1
  Te  Te35  1  0.24184454  0.75348147  0.74847251  1
  Te  Te36  1  0.74327502  0.25132188  0.25154945  1
  Te  Te37  1  0.75563247  0.24834236  0.74873316  1
  Te  Te38  1  0.75577453  0.74890479  0.24847656  1
  Te  Te39  1  0.75215538  0.75187453  0.75210329  1
  Te  Te40  1  0.24988164  0.00261942  -0.00278765  1
  Te  Te41  1  0.24858028  0.00376140  0.50388842  1
  Te  Te42  1  0.25436208  0.49636120  0.00154256  1
  Te  Te43  1  0.25154982  0.49449943  0.49675503  1
  Te  Te44  1  0.75138098  -0.00228576  -0.00281853  1
  Te  Te45  1  0.75199145  -0.00312934  0.50465260  1
  Te  Te46  1  0.74648835  0.50286467  -0.00400173  1
  Te  Te47  1  0.74878620  0.50427486  0.50596852  1
  Te  Te48  1  0.00314167  0.24592286  -0.00155436  1
  Te  Te49  1  0.00392598  0.24507183  0.50086910  1
  Te  Te50  1  -0.00281998  0.75265946  -0.00147645  1
  Te  Te51  1  -0.00268383  0.75369801  0.50133068  1
  Te  Te52  1  0.49785689  0.24815552  0.00187272  1
  Te  Te53  1  0.49406954  0.24926350  0.49362711  1
  Te  Te54  1  0.50480338  0.75196167  0.00090843  1
  Te  Te55  1  0.50855077  0.75060577  0.49876135  1
  Te  Te56  1  0.00040349  -0.00422423  0.24957038  1
  Te  Te57  1  -0.00022630  0.00040345  0.75138047  1
  Te  Te58  1  0.00402071  0.50424203  0.25002978  1
  Te  Te59  1  -0.00436564  0.50010133  0.75021420  1
  Te  Te60  1  0.49994797  0.00328212  0.24329864  1
  Te  Te61  1  0.49946718  0.00018182  0.75518036  1
  Te  Te62  1  0.49705722  0.49810031  0.24487352  1
  Te  Te63  1  0.50448408  0.50003456  0.75644717  1
