# generated using pymatgen
data_AgSbTe2
_symmetry_space_group_name_H-M   'P 1'
_cell_length_a   12.23907347
_cell_length_b   12.24064947
_cell_length_c   12.22942714
_cell_angle_alpha   90.00580487
_cell_angle_beta   89.99807153
_cell_angle_gamma   89.99908283
_symmetry_Int_Tables_number   1
_chemical_formula_structural   AgSbTe2
_chemical_formula_sum   'Ag16 Sb16 Te32'
_cell_volume   1832.14193339
_cell_formula_units_Z   16
loop_
 _symmetry_equiv_pos_site_id
 _symmetry_equiv_pos_as_xyz
  1  'x, y, z'
loop_
 _atom_site_type_symbol
 _atom_site_label
 _atom_site_symmetry_multiplicity
 _atom_site_fract_x
 _atom_site_fract_y
 _atom_site_fract_z
 _atom_site_occupancy
  Ag  Ag0  1  0.74751701  0.50699008  0.23539328  1
  Ag  Ag1  1  0.25236410  0.49980329  0.75679358  1
  Ag  Ag2  1  -0.01101880  -0.00025274  -0.00061213  1
  Ag  Ag3  1  0.50496831  0.25314405  0.75563588  1
  Ag  Ag4  1  -0.01480752  0.50018622  -0.00367548  1
  Ag  Ag5  1  0.74579899  -0.00737042  0.24177302  1
  Ag  Ag6  1  0.74556111  0.75033300  0.49600052  1
  Ag  Ag7  1  0.51029052  -0.00519461  0.00150104  1
  Ag  Ag8  1  0.74853909  0.26305801  -0.00346982  1
  Ag  Ag9  1  0.74495770  0.73785750  0.00385641  1
  Ag  Ag10  1  0.51372998  0.50415297  -0.00284639  1
  Ag  Ag11  1  -0.00615978  0.25389884  0.75650505  1
  Ag  Ag12  1  0.74860840  0.49826161  0.76435307  1
  Ag  Ag13  1  0.25540604  0.74683838  -0.00037760  1
  Ag  Ag14  1  0.50672786  0.75129988  0.24317363  1
  Ag  Ag15  1  0.50574492  -0.00269958  0.49983705  1
  Sb  Sb16  1  -0.00567436  0.25063986  0.24160527  1
  Sb  Sb17  1  -0.00806910  -0.00019873  0.50106187  1
  Sb  Sb18  1  0.50376722  0.50220602  0.50218542  1
  Sb  Sb19  1  0.25204466  -0.00151802  0.75388268  1
  Sb  Sb20  1  0.25108819  0.25280407  -0.00288439  1
  Sb  Sb21  1  -0.00328181  0.74663199  0.75503578  1
  Sb  Sb22  1  -0.00438719  0.49994265  0.50383172  1
  Sb  Sb23  1  0.25475659  -0.00288952  0.24536757  1
  Sb  Sb24  1  -0.00957497  0.74978831  0.24497740  1
  Sb  Sb25  1  0.50296566  0.74701478  0.75821040  1
  Sb  Sb26  1  0.74758381  0.24874107  0.50413282  1
  Sb  Sb27  1  0.25314970  0.24994027  0.50505278  1
  Sb  Sb28  1  0.74877267  0.00186496  0.76040115  1
  Sb  Sb29  1  0.25250026  0.50446548  0.24096363  1
  Sb  Sb30  1  0.25662446  0.74948863  0.50122217  1
  Sb  Sb31  1  0.50415107  0.24887729  0.24365387  1
  Te  Te32  1  0.24830520  0.25096002  0.25225067  1
  Te  Te33  1  0.25203254  0.25606546  0.75076263  1
  Te  Te34  1  0.26001534  0.74921148  0.24587775  1
  Te  Te35  1  0.24951897  0.74409952  0.75425440  1
  Te  Te36  1  0.75005670  0.25145273  0.24515917  1
  Te  Te37  1  0.74840780  0.25221197  0.75346943  1
  Te  Te38  1  0.74731190  0.74954472  0.24611412  1
  Te  Te39  1  0.74963025  0.74487987  0.75148184  1
  Te  Te40  1  0.25056540  -0.00694578  0.00009930  1
  Te  Te41  1  0.25796334  -0.00137477  0.49914833  1
  Te  Te42  1  0.25061907  0.50379717  -0.00315264  1
  Te  Te43  1  0.24876892  0.50104792  0.50874204  1
  Te  Te44  1  0.74887418  -0.00114879  -0.00009157  1
  Te  Te45  1  0.74630735  -0.00281898  0.49364044  1
  Te  Te46  1  0.74936041  0.49914579  -0.00020697  1
  Te  Te47  1  0.75029394  0.50406964  0.49816732  1
  Te  Te48  1  -0.00068003  0.25032697  -0.00356188  1
  Te  Te49  1  0.00103157  0.24848518  0.51062937  1
  Te  Te50  1  -0.00184234  0.75045712  0.00018299  1
  Te  Te51  1  -0.00661604  0.75175465  0.49969342  1
  Te  Te52  1  0.50119878  0.25039098  -0.00308848  1
  Te  Te53  1  0.50043860  0.24383034  0.50790205  1
  Te  Te54  1  0.50334802  0.75017726  0.00007374  1
  Te  Te55  1  0.50424989  0.75389632  0.49424365  1
  Te  Te56  1  -0.00611583  0.00023414  0.24458950  1
  Te  Te57  1  0.00044639  0.00676682  0.75522998  1
  Te  Te58  1  -0.00433743  0.49935569  0.24448226  1
  Te  Te59  1  -0.00388356  0.49784654  0.75337557  1
  Te  Te60  1  0.50371700  0.00033847  0.24447188  1
  Te  Te61  1  0.49978303  0.00490138  0.75351884  1
  Te  Te62  1  0.50344195  0.50079555  0.24767698  1
  Te  Te63  1  0.50314391  0.49813902  0.75232261  1
