# generated using pymatgen
data_AgSbTe2
_symmetry_space_group_name_H-M   'P 1'
_cell_length_a   12.20785988
_cell_length_b   12.20992835
_cell_length_c   12.20830498
_cell_angle_alpha   89.99905532
_cell_angle_beta   89.99500760
_cell_angle_gamma   90.00026757
_symmetry_Int_Tables_number   1
_chemical_formula_structural   AgSbTe2
_chemical_formula_sum   'Ag16 Sb16 Te32'
_cell_volume   1819.73446234
_cell_formula_units_Z   16
loop_
 _symmetry_equiv_pos_site_id
 _symmetry_equiv_pos_as_xyz
  1  'x, y, z'
loop_
 _atom_site_type_symbol
 _atom_site_label
 _atom_site_symmetry_multiplicity
 _atom_site_fract_x
 _atom_site_fract_y
 _atom_site_fract_z
 _atom_site_occupancy
  Ag  Ag0  1  0.75260888  0.25074623  0.00225612  1
  Ag  Ag1  1  0.24839284  0.25297916  0.50024920  1
  Ag  Ag2  1  0.24701917  0.74758002  0.49956039  1
  Ag  Ag3  1  0.49772154  0.50127683  0.49805160  1
  Ag  Ag4  1  0.00044714  0.74783072  0.25385686  1
  Ag  Ag5  1  -0.00110503  0.50113739  0.00108323  1
  Ag  Ag6  1  0.24570999  0.50253011  0.74299055  1
  Ag  Ag7  1  0.75139501  0.25140016  0.49767270  1
  Ag  Ag8  1  0.24681920  -0.00277336  0.74455452  1
  Ag  Ag9  1  0.49967651  0.74908837  0.25434862  1
  Ag  Ag10  1  0.75172598  -0.00026579  0.25273479  1
  Ag  Ag11  1  0.00292083  0.50260616  0.49942946  1
  Ag  Ag12  1  0.75301288  0.00047171  0.74729751  1
  Ag  Ag13  1  0.00306684  0.74815756  0.74610201  1
  Ag  Ag14  1  0.75290123  0.50028151  0.25343423  1
  Ag  Ag15  1  0.24838995  -0.00341646  0.25555260  1
  Sb  Sb16  1  0.50005812  0.25136270  0.74616233  1
  Sb  Sb17  1  0.50126795  -0.00016992  0.00168601  1
  Sb  Sb18  1  0.50174705  0.50018107  0.00279645  1
  Sb  Sb19  1  0.50181919  0.25220413  0.25388640  1
  Sb  Sb20  1  0.75606126  0.49974593  0.74597267  1
  Sb  Sb21  1  0.24725312  0.74846974  0.00114439  1
  Sb  Sb22  1  0.24589205  0.50536721  0.26068747  1
  Sb  Sb23  1  -0.00206317  -0.00048258  0.00070760  1
  Sb  Sb24  1  0.75409321  0.74774716  0.49720760  1
  Sb  Sb25  1  0.49629399  0.74837385  0.74351053  1
  Sb  Sb26  1  0.75296554  0.74834996  0.00228584  1
  Sb  Sb27  1  0.00011932  0.25221493  0.74706815  1
  Sb  Sb28  1  0.49870815  -0.00287940  0.49788636  1
  Sb  Sb29  1  0.00124127  -0.00475522  0.49964486  1
  Sb  Sb30  1  -0.00246623  0.25384278  0.25287927  1
  Sb  Sb31  1  0.24571334  0.25233334  0.00079173  1
  Te  Te32  1  0.25068001  0.24042002  0.25525496  1
  Te  Te33  1  0.24995613  0.24724932  0.74456014  1
  Te  Te34  1  0.24748517  0.75363333  0.25263666  1
  Te  Te35  1  0.24771667  0.75185387  0.74691782  1
  Te  Te36  1  0.74992565  0.24808551  0.25307994  1
  Te  Te37  1  0.75014804  0.24400338  0.74733171  1
  Te  Te38  1  0.75233101  0.75174049  0.25103842  1
  Te  Te39  1  0.75437851  0.75689551  0.74996276  1
  Te  Te40  1  0.24971934  0.00291286  -0.00178614  1
  Te  Te41  1  0.25030300  0.00050157  0.50095044  1
  Te  Te42  1  0.24495563  0.49668307  -0.00919552  1
  Te  Te43  1  0.24820465  0.49926888  0.50028322  1
  Te  Te44  1  0.75109770  0.00686573  0.00129117  1
  Te  Te45  1  0.74963453  0.00627109  0.49853309  1
  Te  Te46  1  0.75316372  0.49530874  0.00320942  1
  Te  Te47  1  0.75110614  0.49704024  0.49844763  1
  Te  Te48  1  -0.00656580  0.25860561  -0.00014165  1
  Te  Te49  1  0.00010736  0.25865260  0.50024910  1
  Te  Te50  1  -0.00001522  0.74216721  0.00047351  1
  Te  Te51  1  0.00364316  0.74604271  0.49938584  1
  Te  Te52  1  0.51088573  0.25145161  0.00041547  1
  Te  Te53  1  0.50009536  0.25870601  0.49948843  1
  Te  Te54  1  0.50001970  0.74861412  0.01136364  1
  Te  Te55  1  0.49333027  0.74413036  0.49472628  1
  Te  Te56  1  -0.00154298  -0.00793388  0.24919129  1
  Te  Te57  1  0.00126540  -0.00692879  0.75051743  1
  Te  Te58  1  -0.00294126  0.50420170  0.25159781  1
  Te  Te59  1  0.00235526  0.50459218  0.74792746  1
  Te  Te60  1  0.50154727  -0.00737307  0.25049468  1
  Te  Te61  1  0.49924139  -0.00251394  0.75027558  1
  Te  Te62  1  0.50571084  0.50505541  0.25361769  1
  Te  Te63  1  0.49265049  0.50226059  0.74440971  1
