# generated using pymatgen
data_AgSbTe2
_symmetry_space_group_name_H-M   'P 1'
_cell_length_a   12.20667550
_cell_length_b   12.21391217
_cell_length_c   12.21108179
_cell_angle_alpha   90.00307598
_cell_angle_beta   90.00444507
_cell_angle_gamma   90.00114720
_symmetry_Int_Tables_number   1
_chemical_formula_structural   AgSbTe2
_chemical_formula_sum   'Ag16 Sb16 Te32'
_cell_volume   1820.56559087
_cell_formula_units_Z   16
loop_
 _symmetry_equiv_pos_site_id
 _symmetry_equiv_pos_as_xyz
  1  'x, y, z'
loop_
 _atom_site_type_symbol
 _atom_site_label
 _atom_site_symmetry_multiplicity
 _atom_site_fract_x
 _atom_site_fract_y
 _atom_site_fract_z
 _atom_site_occupancy
  Ag  Ag0  1  0.75430056  -0.00092929  0.75361807  1
  Ag  Ag1  1  0.25165522  0.50428926  0.25262803  1
  Ag  Ag2  1  0.49838770  0.74405511  0.24966847  1
  Ag  Ag3  1  0.49743404  0.50457664  0.49992034  1
  Ag  Ag4  1  -0.00642802  0.50177667  -0.00111693  1
  Ag  Ag5  1  0.74898220  0.50179712  0.75697209  1
  Ag  Ag6  1  0.00017758  -0.00124590  0.50247428  1
  Ag  Ag7  1  0.50581985  0.50486911  -0.00086590  1
  Ag  Ag8  1  0.24823214  0.25285011  0.50070095  1
  Ag  Ag9  1  -0.00344107  0.24901647  0.75236981  1
  Ag  Ag10  1  0.25103183  0.74662102  0.49719528  1
  Ag  Ag11  1  0.00133483  0.74817228  0.24753820  1
  Ag  Ag12  1  0.75098527  0.74535884  -0.00339653  1
  Ag  Ag13  1  0.75380116  0.25432505  -0.00502456  1
  Ag  Ag14  1  -0.00512814  -0.00156282  -0.00297141  1
  Ag  Ag15  1  0.50374988  0.74514839  0.75082113  1
  Sb  Sb16  1  0.24795419  -0.00488317  0.25167924  1
  Sb  Sb17  1  0.24922157  0.74718298  0.00291652  1
  Sb  Sb18  1  0.00152032  0.25290312  0.24801421  1
  Sb  Sb19  1  0.50317798  0.25457479  0.75071735  1
  Sb  Sb20  1  0.74902688  0.74860648  0.50340042  1
  Sb  Sb21  1  0.75203291  -0.00316198  0.24615851  1
  Sb  Sb22  1  0.25126848  0.50161662  0.74726295  1
  Sb  Sb23  1  0.75180536  0.25193105  0.50468529  1
  Sb  Sb24  1  0.49783357  0.25658389  0.24973413  1
  Sb  Sb25  1  0.24534622  -0.00156873  0.74889928  1
  Sb  Sb26  1  -0.00361793  0.75061742  0.75218857  1
  Sb  Sb27  1  0.24680412  0.25403758  -0.00145458  1
  Sb  Sb28  1  0.74856954  0.50328334  0.24173815  1
  Sb  Sb29  1  0.50581266  -0.00475526  -0.00292146  1
  Sb  Sb30  1  0.50047953  -0.00364359  0.50280142  1
  Sb  Sb31  1  0.00178518  0.50116304  0.50050321  1
  Te  Te32  1  0.25042670  0.25683245  0.25693884  1
  Te  Te33  1  0.24390223  0.24952839  0.74411784  1
  Te  Te34  1  0.25001048  0.74634828  0.25326228  1
  Te  Te35  1  0.25736156  0.75032442  0.74282962  1
  Te  Te36  1  0.74965196  0.24891638  0.24122216  1
  Te  Te37  1  0.75351216  0.25039184  0.75408032  1
  Te  Te38  1  0.75076499  0.74999605  0.24409105  1
  Te  Te39  1  0.74719157  0.74828287  0.75379150  1
  Te  Te40  1  0.24015106  0.00152945  0.00012741  1
  Te  Te41  1  0.24473426  -0.00019078  0.49983372  1
  Te  Te42  1  0.25031944  0.49894561  0.00454461  1
  Te  Te43  1  0.25281810  0.50227202  0.49744996  1
  Te  Te44  1  0.75418876  -0.00139006  -0.00382297  1
  Te  Te45  1  0.75634100  0.00121691  0.50681188  1
  Te  Te46  1  0.75042946  0.50239597  -0.00193843  1
  Te  Te47  1  0.74415672  0.49853502  0.50824430  1
  Te  Te48  1  -0.00238020  0.25091370  -0.00238375  1
  Te  Te49  1  0.00320725  0.24729388  0.50261951  1
  Te  Te50  1  -0.00122487  0.74877172  0.00144397  1
  Te  Te51  1  0.00274959  0.75236530  0.49714063  1
  Te  Te52  1  0.50420258  0.25515875  -0.00013921  1
  Te  Te53  1  0.49448661  0.25420132  0.50000719  1
  Te  Te54  1  0.50116865  0.74704982  -0.00004079  1
  Te  Te55  1  0.49839025  0.74736607  0.49890814  1
  Te  Te56  1  0.00023372  -0.00613999  0.25007547  1
  Te  Te57  1  -0.00404608  0.00064372  0.75127193  1
  Te  Te58  1  0.00339119  0.50489018  0.24703770  1
  Te  Te59  1  -0.00373962  0.49827036  0.75360543  1
  Te  Te60  1  0.49989042  -0.01041251  0.25020291  1
  Te  Te61  1  0.50761542  -0.00618443  0.75022744  1
  Te  Te62  1  0.49772700  0.50503707  0.24991320  1
  Te  Te63  1  0.50245205  0.50323459  0.75167160  1
