# generated using pymatgen
data_AgSbTe2
_symmetry_space_group_name_H-M   'P 1'
_cell_length_a   12.22214874
_cell_length_b   12.21701479
_cell_length_c   12.22154166
_cell_angle_alpha   90.00429537
_cell_angle_beta   90.00144800
_cell_angle_gamma   90.00182763
_symmetry_Int_Tables_number   1
_chemical_formula_structural   AgSbTe2
_chemical_formula_sum   'Ag16 Sb16 Te32'
_cell_volume   1824.89825025
_cell_formula_units_Z   16
loop_
 _symmetry_equiv_pos_site_id
 _symmetry_equiv_pos_as_xyz
  1  'x, y, z'
loop_
 _atom_site_type_symbol
 _atom_site_label
 _atom_site_symmetry_multiplicity
 _atom_site_fract_x
 _atom_site_fract_y
 _atom_site_fract_z
 _atom_site_occupancy
  Ag  Ag0  1  0.75757387  0.25105272  -0.00501123  1
  Ag  Ag1  1  -0.00226011  0.75164325  0.24193222  1
  Ag  Ag2  1  0.24634289  0.74773575  -0.00137043  1
  Ag  Ag3  1  0.49973936  0.74638035  0.75425068  1
  Ag  Ag4  1  -0.00458203  -0.00083818  0.00279083  1
  Ag  Ag5  1  -0.00535884  0.24833542  0.24258858  1
  Ag  Ag6  1  -0.00343864  0.50064541  -0.00306558  1
  Ag  Ag7  1  0.75463351  -0.00141729  0.24517905  1
  Ag  Ag8  1  0.24905010  0.50359021  0.75327286  1
  Ag  Ag9  1  0.24965022  0.74745041  0.50141740  1
  Ag  Ag10  1  0.50163027  0.75094774  0.24567894  1
  Ag  Ag11  1  0.75259162  0.25069148  0.50548406  1
  Ag  Ag12  1  0.50733485  0.25387595  0.75280002  1
  Ag  Ag13  1  -0.00765346  0.25401102  0.75689566  1
  Ag  Ag14  1  0.75486823  0.74962345  0.00103059  1
  Ag  Ag15  1  0.75149553  0.49538856  0.75503806  1
  Sb  Sb16  1  0.50720414  0.24847989  0.24690987  1
  Sb  Sb17  1  0.50504492  -0.00261895  0.00055634  1
  Sb  Sb18  1  -0.00241626  -0.00074785  0.49816354  1
  Sb  Sb19  1  0.50203019  -0.00057228  0.49984362  1
  Sb  Sb20  1  0.50372977  0.50191564  -0.00435212  1
  Sb  Sb21  1  0.75021381  0.74921429  0.50067413  1
  Sb  Sb22  1  0.24809720  -0.00406265  0.75286115  1
  Sb  Sb23  1  0.24161875  0.25331067  -0.00257395  1
  Sb  Sb24  1  0.24511957  -0.00286163  0.24684684  1
  Sb  Sb25  1  -0.00042048  0.74601778  0.75916829  1
  Sb  Sb26  1  0.50105102  0.50032269  0.50347822  1
  Sb  Sb27  1  -0.00103668  0.50065042  0.50431764  1
  Sb  Sb28  1  0.75183901  0.00434831  0.75491247  1
  Sb  Sb29  1  0.75334742  0.50126285  0.24408737  1
  Sb  Sb30  1  0.24816840  0.25291819  0.50354751  1
  Sb  Sb31  1  0.24672360  0.50370622  0.24517539  1
  Te  Te32  1  0.24507413  0.25031515  0.25172920  1
  Te  Te33  1  0.25209925  0.25553038  0.74887383  1
  Te  Te34  1  0.24969133  0.74932589  0.24747511  1
  Te  Te35  1  0.25113381  0.74655355  0.75271744  1
  Te  Te36  1  0.75106446  0.25015155  0.24690479  1
  Te  Te37  1  0.75010218  0.24908008  0.75309470  1
  Te  Te38  1  0.75163715  0.74969657  0.24910051  1
  Te  Te39  1  0.74769926  0.74820369  0.75074611  1
  Te  Te40  1  0.24121903  -0.00778355  0.00019618  1
  Te  Te41  1  0.24966540  -0.00898342  0.49995319  1
  Te  Te42  1  0.24334448  0.50449140  -0.00502668  1
  Te  Te43  1  0.24940072  0.50590357  0.50866538  1
  Te  Te44  1  0.75458716  -0.00177469  0.00393716  1
  Te  Te45  1  0.75096564  0.00571468  0.49112442  1
  Te  Te46  1  0.75413561  0.50068797  -0.00475929  1
  Te  Te47  1  0.75085509  0.49415633  0.51002690  1
  Te  Te48  1  -0.00086477  0.25107025  0.00071051  1
  Te  Te49  1  -0.00362580  0.25007344  0.49901085  1
  Te  Te50  1  -0.00306415  0.74921039  0.00072896  1
  Te  Te51  1  0.00321695  0.75048030  0.49114536  1
  Te  Te52  1  0.50564051  0.24901240  -0.00355021  1
  Te  Te53  1  0.50455043  0.24996134  0.50391647  1
  Te  Te54  1  0.50130081  0.75043438  -0.00120022  1
  Te  Te55  1  0.49729072  0.75023890  0.50099527  1
  Te  Te56  1  -0.00355373  0.00001692  0.24607009  1
  Te  Te57  1  0.00020034  0.00833170  0.75609804  1
  Te  Te58  1  -0.00027390  0.49988876  0.24347099  1
  Te  Te59  1  -0.00174703  0.49699586  0.75386445  1
  Te  Te60  1  0.50680845  -0.00533307  0.24974717  1
  Te  Te61  1  0.49954999  -0.00086406  0.75026913  1
  Te  Te62  1  0.49937925  0.50798721  0.25011046  1
  Te  Te63  1  0.50058548  0.50082625  0.75132569  1
