# generated using pymatgen
data_AgSbTe2
_symmetry_space_group_name_H-M   'P 1'
_cell_length_a   12.29370850
_cell_length_b   12.31220194
_cell_length_c   12.32409723
_cell_angle_alpha   89.98923979
_cell_angle_beta   90.00891514
_cell_angle_gamma   90.01283566
_symmetry_Int_Tables_number   1
_chemical_formula_structural   AgSbTe2
_chemical_formula_sum   'Ag16 Sb16 Te32'
_cell_volume   1865.40756259
_cell_formula_units_Z   16
loop_
 _symmetry_equiv_pos_site_id
 _symmetry_equiv_pos_as_xyz
  1  'x, y, z'
loop_
 _atom_site_type_symbol
 _atom_site_label
 _atom_site_symmetry_multiplicity
 _atom_site_fract_x
 _atom_site_fract_y
 _atom_site_fract_z
 _atom_site_occupancy
  Ag  Ag0  1  0.24571596  0.49964295  0.76958160  1
  Ag  Ag1  1  0.48295043  0.50197917  0.01451553  1
  Ag  Ag2  1  0.01903519  0.48782963  0.00887603  1
  Ag  Ag3  1  0.00321696  0.00780514  0.49661369  1
  Ag  Ag4  1  0.49124938  0.74179245  0.75791675  1
  Ag  Ag5  1  0.00746052  0.25702319  0.76056869  1
  Ag  Ag6  1  0.49272041  -0.00069593  0.49420131  1
  Ag  Ag7  1  0.49363512  0.73557832  0.24344194  1
  Ag  Ag8  1  0.49156801  0.26302267  0.24223678  1
  Ag  Ag9  1  0.00755963  0.01518755  0.00603563  1
  Ag  Ag10  1  0.75263112  0.49814247  0.24545472  1
  Ag  Ag11  1  0.24078034  0.26662414  0.00556386  1
  Ag  Ag12  1  0.00787185  0.26109524  0.24314943  1
  Ag  Ag13  1  0.25389379  0.73189908  0.00170100  1
  Ag  Ag14  1  0.00515288  0.48718830  0.48896037  1
  Ag  Ag15  1  0.24973925  0.49455608  0.23334990  1
  Sb  Sb16  1  0.24691136  0.25236198  0.49530160  1
  Sb  Sb17  1  0.75644449  0.25134821  0.00103452  1
  Sb  Sb18  1  0.24837655  0.00298231  0.24807336  1
  Sb  Sb19  1  0.00645113  0.74624204  0.75243447  1
  Sb  Sb20  1  0.25116400  0.74748511  0.49675344  1
  Sb  Sb21  1  0.49370636  0.00108763  0.00220172  1
  Sb  Sb22  1  0.24754669  0.00131756  0.75166866  1
  Sb  Sb23  1  0.75210769  -0.00044110  0.75042515  1
  Sb  Sb24  1  0.75252402  0.25163960  0.49789529  1
  Sb  Sb25  1  0.75267280  0.50024945  0.75292653  1
  Sb  Sb26  1  0.74724689  0.74736543  0.00199137  1
  Sb  Sb27  1  0.00556024  0.74292977  0.24775029  1
  Sb  Sb28  1  0.49166749  0.25233468  0.75294048  1
  Sb  Sb29  1  0.74916189  0.74740639  0.49758008  1
  Sb  Sb30  1  0.49465598  0.49951855  0.49415990  1
  Sb  Sb31  1  0.75083726  -0.00090202  0.24987510  1
  Te  Te32  1  0.24932582  0.25049649  0.24718225  1
  Te  Te33  1  0.24420258  0.25408794  0.75710523  1
  Te  Te34  1  0.25326113  0.74528347  0.24739079  1
  Te  Te35  1  0.25391502  0.74545545  0.75367522  1
  Te  Te36  1  0.74666406  0.25470187  0.24931942  1
  Te  Te37  1  0.76462019  0.24824180  0.74970912  1
  Te  Te38  1  0.73679107  0.74365593  0.24911687  1
  Te  Te39  1  0.73140588  0.75084965  0.75032054  1
  Te  Te40  1  0.24380941  0.00053455  0.00043316  1
  Te  Te41  1  0.24684598  -0.00047799  0.50028763  1
  Te  Te42  1  0.25408301  0.49979643  -0.00168984  1
  Te  Te43  1  0.24389373  0.49973056  0.50097823  1
  Te  Te44  1  0.76807904  -0.00072310  -0.00063716  1
  Te  Te45  1  0.75797767  0.00021315  0.50089461  1
  Te  Te46  1  0.74706151  0.49962968  0.00375308  1
  Te  Te47  1  0.76364960  0.49955715  0.49443862  1
  Te  Te48  1  0.00130865  0.25303528  0.00456079  1
  Te  Te49  1  0.00084844  0.25073310  0.49246176  1
  Te  Te50  1  0.00524047  0.74688477  0.00118492  1
  Te  Te51  1  -0.00001321  0.75965642  0.50004778  1
  Te  Te52  1  0.49742600  0.24675845  0.00234360  1
  Te  Te53  1  0.49983521  0.24410029  0.49865994  1
  Te  Te54  1  0.49675729  0.75486785  0.00306219  1
  Te  Te55  1  0.50022110  0.75287055  0.49588073  1
  Te  Te56  1  -0.00100455  0.00387851  0.25237004  1
  Te  Te57  1  0.00032045  0.00142605  0.74484472  1
  Te  Te58  1  0.00568905  0.50102213  0.24810114  1
  Te  Te59  1  -0.00066158  0.50055172  0.75286735  1
  Te  Te60  1  0.50061560  0.00477242  0.25263811  1
  Te  Te61  1  0.50084574  0.00195839  0.74588770  1
  Te  Te62  1  0.49305972  0.49604865  0.25049607  1
  Te  Te63  1  0.50171023  0.49880638  0.74713618  1
