# generated using pymatgen
data_AgSbTe2
_symmetry_space_group_name_H-M   'P 1'
_cell_length_a   12.23816035
_cell_length_b   12.21864773
_cell_length_c   12.24482078
_cell_angle_alpha   89.99999998
_cell_angle_beta   89.99999996
_cell_angle_gamma   90.00525477
_symmetry_Int_Tables_number   1
_chemical_formula_structural   AgSbTe2
_chemical_formula_sum   'Ag16 Sb16 Te32'
_cell_volume   1831.01420769
_cell_formula_units_Z   16
loop_
 _symmetry_equiv_pos_site_id
 _symmetry_equiv_pos_as_xyz
  1  'x, y, z'
loop_
 _atom_site_type_symbol
 _atom_site_label
 _atom_site_symmetry_multiplicity
 _atom_site_fract_x
 _atom_site_fract_y
 _atom_site_fract_z
 _atom_site_occupancy
  Ag  Ag0  1  0.50453413  0.25170537  0.25378282  1
  Ag  Ag1  1  0.74888588  0.25675608  0.00000011  1
  Ag  Ag2  1  0.49942998  0.00858102  0.50000000  1
  Ag  Ag3  1  0.24865774  0.49395564  0.74749654  1
  Ag  Ag4  1  -0.00430328  0.25654361  0.24936153  1
  Ag  Ag5  1  0.50308150  0.00689830  -0.00000000  1
  Ag  Ag6  1  -0.00611435  0.49425158  -0.00000003  1
  Ag  Ag7  1  0.75154476  0.49166679  0.75592995  1
  Ag  Ag8  1  0.24865775  0.49395567  0.25250346  1
  Ag  Ag9  1  0.50453404  0.25170538  0.74621717  1
  Ag  Ag10  1  0.75154473  0.49166672  0.24407006  1
  Ag  Ag11  1  0.74894354  0.74162202  -0.00000002  1
  Ag  Ag12  1  0.25587222  0.25398337  0.50000000  1
  Ag  Ag13  1  -0.00430320  0.25654339  0.75063847  1
  Ag  Ag14  1  0.25270864  0.74425812  0.50000000  1
  Ag  Ag15  1  0.74413278  0.25393631  0.49999989  1
  Sb  Sb16  1  0.25277129  0.00727286  0.74820716  1
  Sb  Sb17  1  -0.00048683  0.74170059  0.75188640  1
  Sb  Sb18  1  0.74774779  0.01023113  0.75065419  1
  Sb  Sb19  1  0.49774208  0.49142724  0.50000001  1
  Sb  Sb20  1  0.00142132  0.49578189  0.50000005  1
  Sb  Sb21  1  0.50040750  0.74685789  0.25019532  1
  Sb  Sb22  1  0.25277123  0.00727284  0.25179283  1
  Sb  Sb23  1  -0.00048679  0.74170046  0.24811360  1
  Sb  Sb24  1  -0.00275268  0.00618375  0.00000002  1
  Sb  Sb25  1  0.50781325  0.49364600  -0.00000001  1
  Sb  Sb26  1  0.25179891  0.25358016  -0.00000002  1
  Sb  Sb27  1  0.25258855  0.74386722  -0.00000001  1
  Sb  Sb28  1  0.74774783  0.01023078  0.24934583  1
  Sb  Sb29  1  -0.00070790  0.00671422  0.49999998  1
  Sb  Sb30  1  0.74700962  0.74579672  0.50000004  1
  Sb  Sb31  1  0.50040755  0.74685791  0.74980469  1
  Te  Te32  1  0.25108053  0.25433721  0.25100197  1
  Te  Te33  1  0.25108049  0.25433725  0.74899802  1
  Te  Te34  1  0.24981741  0.74054809  0.25470519  1
  Te  Te35  1  0.24981745  0.74054806  0.74529482  1
  Te  Te36  1  0.74869881  0.25272771  0.25115798  1
  Te  Te37  1  0.74869886  0.25272745  0.74884201  1
  Te  Te38  1  0.75055686  0.73968646  0.24774555  1
  Te  Te39  1  0.75055683  0.73968642  0.75225445  1
  Te  Te40  1  0.25667833  -0.00357174  -0.00000001  1
  Te  Te41  1  0.25394556  0.00418492  0.50000003  1
  Te  Te42  1  0.24336560  0.50148068  0.00000001  1
  Te  Te43  1  0.25007956  0.49595533  0.49999999  1
  Te  Te44  1  0.74616864  0.00093248  0.00000003  1
  Te  Te45  1  0.74504596  0.00195213  0.49999995  1
  Te  Te46  1  0.75076617  0.49615889  -0.00000006  1
  Te  Te47  1  0.75003891  0.49730340  0.50000005  1
  Te  Te48  1  -0.00223544  0.25221732  -0.00000005  1
  Te  Te49  1  -0.00101993  0.24829153  0.50000004  1
  Te  Te50  1  -0.00566993  0.74774363  0.00000004  1
  Te  Te51  1  0.00683422  0.75449952  0.49999997  1
  Te  Te52  1  0.50226551  0.24839980  -0.00000001  1
  Te  Te53  1  0.50060990  0.24930519  0.50000001  1
  Te  Te54  1  0.50509764  0.75894241  0.00000001  1
  Te  Te55  1  0.49613730  0.76182860  0.49999998  1
  Te  Te56  1  0.00042369  0.01012486  0.24881246  1
  Te  Te57  1  0.00042384  0.01012479  0.75118755  1
  Te  Te58  1  -0.00038856  0.49488485  0.24677394  1
  Te  Te59  1  -0.00038861  0.49488498  0.75322606  1
  Te  Te60  1  0.49966426  0.00687268  0.25001799  1
  Te  Te61  1  0.49966410  0.00687267  0.74998200  1
  Te  Te62  1  0.49929320  0.49443072  0.24930916  1
  Te  Te63  1  0.49929325  0.49443066  0.75069084  1
