# generated using pymatgen
data_AgSbTe2
_symmetry_space_group_name_H-M   'P 1'
_cell_length_a   12.22703729
_cell_length_b   12.24349739
_cell_length_c   12.24397438
_cell_angle_alpha   89.99999998
_cell_angle_beta   90.00000006
_cell_angle_gamma   89.99741549
_symmetry_Int_Tables_number   1
_chemical_formula_structural   AgSbTe2
_chemical_formula_sum   'Ag16 Sb16 Te32'
_cell_volume   1832.94376717
_cell_formula_units_Z   16
loop_
 _symmetry_equiv_pos_site_id
 _symmetry_equiv_pos_as_xyz
  1  'x, y, z'
loop_
 _atom_site_type_symbol
 _atom_site_label
 _atom_site_symmetry_multiplicity
 _atom_site_fract_x
 _atom_site_fract_y
 _atom_site_fract_z
 _atom_site_occupancy
  Ag  Ag0  1  0.00524454  0.74612955  0.75000005  1
  Ag  Ag1  1  0.49976692  -0.00673049  0.00415173  1
  Ag  Ag2  1  -0.00377496  0.25186731  0.25000004  1
  Ag  Ag3  1  0.74177573  0.00122062  0.24999998  1
  Ag  Ag4  1  0.50398613  0.25281829  0.24999985  1
  Ag  Ag5  1  0.25753915  0.74767232  -0.00550824  1
  Ag  Ag6  1  0.49998022  0.26409275  0.75000018  1
  Ag  Ag7  1  0.74143902  0.49863376  0.25000000  1
  Ag  Ag8  1  0.25753943  0.74767231  0.50550824  1
  Ag  Ag9  1  0.73529556  0.50247576  0.75000007  1
  Ag  Ag10  1  0.49989151  0.50589804  -0.01217644  1
  Ag  Ag11  1  0.49976693  -0.00673051  0.49584828  1
  Ag  Ag12  1  0.50031647  0.74734781  0.24999990  1
  Ag  Ag13  1  0.49516596  0.73653474  0.75000018  1
  Ag  Ag14  1  0.26389338  0.50667729  0.75000006  1
  Ag  Ag15  1  0.49989152  0.50589804  0.51217844  1
  Sb  Sb16  1  0.74023567  0.74908260  -0.00008993  1
  Sb  Sb17  1  0.74023664  0.74908251  0.50008986  1
  Sb  Sb18  1  0.00043566  0.50265322  0.00097448  1
  Sb  Sb19  1  0.00051324  -0.00391076  0.49753139  1
  Sb  Sb20  1  0.74283909  -0.00279824  0.75000004  1
  Sb  Sb21  1  0.25607166  0.25277725  -0.00078053  1
  Sb  Sb22  1  0.26235383  0.50152928  0.25000004  1
  Sb  Sb23  1  0.25607159  0.25277727  0.50078049  1
  Sb  Sb24  1  -0.00035518  0.74904097  0.24999997  1
  Sb  Sb25  1  0.74591972  0.25122546  0.49774688  1
  Sb  Sb26  1  0.00043570  0.50265308  0.49902550  1
  Sb  Sb27  1  0.25560846  -0.00862325  0.75000000  1
  Sb  Sb28  1  0.25973374  -0.00060989  0.25000000  1
  Sb  Sb29  1  0.74591962  0.25122554  0.00225311  1
  Sb  Sb30  1  -0.00050350  0.25463442  0.74999989  1
  Sb  Sb31  1  0.00051320  -0.00391087  0.00246862  1
  Te  Te32  1  0.25142988  0.25012332  0.24999998  1
  Te  Te33  1  0.25176780  0.25841429  0.75000003  1
  Te  Te34  1  0.25249399  0.74953523  0.25000003  1
  Te  Te35  1  0.25416817  0.74866289  0.74999995  1
  Te  Te36  1  0.74412658  0.25297382  0.25000002  1
  Te  Te37  1  0.74765230  0.25656828  0.74999995  1
  Te  Te38  1  0.74711895  0.74694382  0.25000012  1
  Te  Te39  1  0.74895315  0.74621941  0.74999997  1
  Te  Te40  1  0.25589439  -0.00672934  -0.00016785  1
  Te  Te41  1  0.25589435  -0.00672950  0.50016789  1
  Te  Te42  1  0.25380293  0.50396659  -0.00298538  1
  Te  Te43  1  0.25380282  0.50396667  0.50298534  1
  Te  Te44  1  0.74393237  -0.00065802  0.00512829  1
  Te  Te45  1  0.74393240  -0.00065800  0.49487167  1
  Te  Te46  1  0.74536267  0.50052014  0.00016546  1
  Te  Te47  1  0.74536275  0.50052030  0.49983450  1
  Te  Te48  1  0.00296550  0.24861545  0.00599203  1
  Te  Te49  1  0.00296561  0.24861545  0.49400806  1
  Te  Te50  1  0.01208109  0.75097598  -0.00449884  1
  Te  Te51  1  0.01208093  0.75097599  0.50449881  1
  Te  Te52  1  0.49832982  0.25067188  0.00047698  1
  Te  Te53  1  0.49832975  0.25067176  0.49952302  1
  Te  Te54  1  0.49824348  0.74864600  0.00063545  1
  Te  Te55  1  0.49824213  0.74864615  0.49936448  1
  Te  Te56  1  -0.01061032  0.00361301  0.25000000  1
  Te  Te57  1  -0.00276278  -0.00283585  0.74999998  1
  Te  Te58  1  -0.01160964  0.49581776  0.24999998  1
  Te  Te59  1  -0.00224124  0.50225597  0.75000003  1
  Te  Te60  1  0.50158331  -0.00000484  0.24999998  1
  Te  Te61  1  0.50160496  0.00166761  0.75000000  1
  Te  Te62  1  0.50052374  0.50001855  0.24999975  1
  Te  Te63  1  0.50083150  0.49970308  0.74999818  1
