# generated using pymatgen
data_AgSbTe2
_symmetry_space_group_name_H-M   'P 1'
_cell_length_a   12.23038718
_cell_length_b   12.23980532
_cell_length_c   12.22093769
_cell_angle_alpha   89.99854455
_cell_angle_beta   89.99228216
_cell_angle_gamma   90.00073649
_symmetry_Int_Tables_number   1
_chemical_formula_structural   AgSbTe2
_chemical_formula_sum   'Ag16 Sb16 Te32'
_cell_volume   1829.44451243
_cell_formula_units_Z   16
loop_
 _symmetry_equiv_pos_site_id
 _symmetry_equiv_pos_as_xyz
  1  'x, y, z'
loop_
 _atom_site_type_symbol
 _atom_site_label
 _atom_site_symmetry_multiplicity
 _atom_site_fract_x
 _atom_site_fract_y
 _atom_site_fract_z
 _atom_site_occupancy
  Ag  Ag0  1  0.50254719  0.49589586  -0.00518385  1
  Ag  Ag1  1  0.75426471  0.74894015  0.50641394  1
  Ag  Ag2  1  0.50390002  0.24938896  0.75660698  1
  Ag  Ag3  1  0.74617463  0.74957275  -0.00677184  1
  Ag  Ag4  1  0.25620594  0.24282201  -0.00582345  1
  Ag  Ag5  1  0.49495808  0.00392224  -0.00341922  1
  Ag  Ag6  1  -0.00365299  0.49974963  0.50563179  1
  Ag  Ag7  1  0.24981705  -0.00063336  0.24543777  1
  Ag  Ag8  1  0.00144467  -0.00010872  0.50375610  1
  Ag  Ag9  1  0.25021205  0.00217794  0.75413879  1
  Ag  Ag10  1  0.25369272  0.75791650  -0.00329146  1
  Ag  Ag11  1  0.75009710  0.49464937  0.75047280  1
  Ag  Ag12  1  -0.00453060  0.24953027  0.74798954  1
  Ag  Ag13  1  0.24651498  0.75394529  0.50341801  1
  Ag  Ag14  1  0.75354237  0.25184588  0.51091146  1
  Ag  Ag15  1  0.74371284  0.25134404  -0.01036914  1
  Sb  Sb16  1  -0.00190118  0.49785480  -0.00468895  1
  Sb  Sb17  1  0.24728211  0.24627634  0.50560232  1
  Sb  Sb18  1  0.24976108  0.49983228  0.24849009  1
  Sb  Sb19  1  0.49889461  0.24774912  0.24281297  1
  Sb  Sb20  1  0.24987195  0.49920053  0.75142708  1
  Sb  Sb21  1  0.75042360  0.00521077  0.75086620  1
  Sb  Sb22  1  0.00453008  0.00169589  -0.00349398  1
  Sb  Sb23  1  0.74997101  0.49958258  0.24918319  1
  Sb  Sb24  1  0.50056594  0.75174322  0.75291102  1
  Sb  Sb25  1  0.50199374  0.49793587  0.50528679  1
  Sb  Sb26  1  0.00097418  0.75203801  0.25203636  1
  Sb  Sb27  1  0.75060116  0.00064418  0.24827747  1
  Sb  Sb28  1  -0.00038464  0.75151728  0.74746330  1
  Sb  Sb29  1  0.49963733  0.00186358  0.50325797  1
  Sb  Sb30  1  0.49924090  0.75212084  0.24748831  1
  Sb  Sb31  1  0.00099786  0.24772220  0.25118935  1
  Te  Te32  1  0.25008126  0.24567426  0.24276741  1
  Te  Te33  1  0.24977401  0.24883739  0.75228015  1
  Te  Te34  1  0.24998727  0.75446878  0.24848602  1
  Te  Te35  1  0.24975032  0.75240727  0.75122051  1
  Te  Te36  1  0.75000804  0.24858218  0.24936044  1
  Te  Te37  1  0.75086701  0.24919721  0.75116768  1
  Te  Te38  1  0.75003057  0.75095371  0.24987641  1
  Te  Te39  1  0.75034292  0.74596363  0.75070881  1
  Te  Te40  1  0.24822342  -0.00167899  -0.00301399  1
  Te  Te41  1  0.24987590  -0.00225871  0.50278106  1
  Te  Te42  1  0.25098530  0.50247790  0.00016988  1
  Te  Te43  1  0.24910137  0.50690326  0.49916501  1
  Te  Te44  1  0.74834927  -0.00260224  0.00071036  1
  Te  Te45  1  0.75090232  -0.00307815  0.49946526  1
  Te  Te46  1  0.74982149  0.50068753  -0.00166463  1
  Te  Te47  1  0.74972414  0.50127600  0.50162091  1
  Te  Te48  1  -0.00200646  0.25033734  -0.00435035  1
  Te  Te49  1  -0.00176174  0.24899400  0.50304933  1
  Te  Te50  1  -0.00178123  0.74952589  -0.00050406  1
  Te  Te51  1  -0.00179766  0.75155079  0.50066676  1
  Te  Te52  1  0.50118292  0.24832125  -0.00250215  1
  Te  Te53  1  0.50580641  0.25096385  0.50686651  1
  Te  Te54  1  0.50092159  0.75155718  -0.00111552  1
  Te  Te55  1  0.50172529  0.74927600  0.50061362  1
  Te  Te56  1  0.00625722  0.00060654  0.25965733  1
  Te  Te57  1  0.00456590  0.00543417  0.74517104  1
  Te  Te58  1  0.00068142  0.49917788  0.26297142  1
  Te  Te59  1  -0.00436795  0.49375751  0.74510749  1
  Te  Te60  1  0.49307530  0.00058753  0.24249705  1
  Te  Te61  1  0.49502418  0.00521682  0.75474575  1
  Te  Te62  1  0.49908348  0.49926429  0.23860560  1
  Te  Te63  1  0.50420621  0.49367159  0.75539116  1
