# generated using pymatgen
data_AgSbTe2
_symmetry_space_group_name_H-M   'P 1'
_cell_length_a   12.23402552
_cell_length_b   12.21815583
_cell_length_c   12.22383530
_cell_angle_alpha   90.00383503
_cell_angle_beta   89.99495472
_cell_angle_gamma   90.00178128
_symmetry_Int_Tables_number   1
_chemical_formula_structural   AgSbTe2
_chemical_formula_sum   'Ag16 Sb16 Te32'
_cell_volume   1827.18503072
_cell_formula_units_Z   16
loop_
 _symmetry_equiv_pos_site_id
 _symmetry_equiv_pos_as_xyz
  1  'x, y, z'
loop_
 _atom_site_type_symbol
 _atom_site_label
 _atom_site_symmetry_multiplicity
 _atom_site_fract_x
 _atom_site_fract_y
 _atom_site_fract_z
 _atom_site_occupancy
  Ag  Ag0  1  0.00000662  0.50297464  -0.00294058  1
  Ag  Ag1  1  0.24800735  0.75241370  -0.00402767  1
  Ag  Ag2  1  0.75188126  0.75732600  0.50550098  1
  Ag  Ag3  1  0.50265659  0.24120221  0.75411344  1
  Ag  Ag4  1  0.00179213  0.75473172  0.24799409  1
  Ag  Ag5  1  0.50021837  0.49785394  -0.00290655  1
  Ag  Ag6  1  0.25007719  -0.00309764  0.74929930  1
  Ag  Ag7  1  0.74749819  0.24899237  -0.00513575  1
  Ag  Ag8  1  0.00002251  0.75893546  0.75106584  1
  Ag  Ag9  1  -0.00101813  -0.00427620  0.50753052  1
  Ag  Ag10  1  0.50080786  -0.00111069  0.50770715  1
  Ag  Ag11  1  0.50006830  0.24560472  0.24611751  1
  Ag  Ag12  1  0.49998134  0.75930327  0.75116993  1
  Ag  Ag13  1  -0.00236798  0.24105999  0.75302229  1
  Ag  Ag14  1  0.24999159  -0.00210051  0.24954345  1
  Ag  Ag15  1  0.75002079  -0.00099568  0.74727669  1
  Sb  Sb16  1  -0.00173674  0.50342370  0.50233054  1
  Sb  Sb17  1  0.49945207  0.00184211  -0.00839117  1
  Sb  Sb18  1  0.49861208  0.75460827  0.24850413  1
  Sb  Sb19  1  0.00014285  0.24497264  0.24654201  1
  Sb  Sb20  1  0.74988262  0.50022064  0.24716167  1
  Sb  Sb21  1  0.25015255  0.50276430  0.24508938  1
  Sb  Sb22  1  0.75000577  0.49975643  0.75226184  1
  Sb  Sb23  1  0.25150024  0.24775979  -0.00286410  1
  Sb  Sb24  1  0.24821259  0.75569946  0.50355667  1
  Sb  Sb25  1  0.74984979  0.24351171  0.50515926  1
  Sb  Sb26  1  0.74960786  -0.00034473  0.25171831  1
  Sb  Sb27  1  0.00102122  -0.00287787  -0.00866558  1
  Sb  Sb28  1  0.25033016  0.24467769  0.50201750  1
  Sb  Sb29  1  0.50162536  0.50081500  0.50216425  1
  Sb  Sb30  1  0.75095659  0.75152487  -0.00452086  1
  Sb  Sb31  1  0.25007982  0.50460566  0.75330128  1
  Te  Te32  1  0.25423863  0.24226199  0.24921263  1
  Te  Te33  1  0.25038541  0.24235248  0.75136845  1
  Te  Te34  1  0.24622105  0.75512996  0.24506460  1
  Te  Te35  1  0.24966604  0.75421214  0.75369509  1
  Te  Te36  1  0.74539949  0.24951894  0.24420695  1
  Te  Te37  1  0.74911583  0.24651976  0.75234476  1
  Te  Te38  1  0.75566451  0.75102685  0.25350674  1
  Te  Te39  1  0.75043815  0.75398072  0.74919025  1
  Te  Te40  1  0.25009317  -0.00659613  0.00000031  1
  Te  Te41  1  0.25050493  -0.00075285  0.50215344  1
  Te  Te42  1  0.24962180  0.50756430  0.00010003  1
  Te  Te43  1  0.24995362  0.49967259  0.49889855  1
  Te  Te44  1  0.75031728  0.00591372  -0.00671101  1
  Te  Te45  1  0.75002162  -0.00346926  0.50460974  1
  Te  Te46  1  0.74952462  0.49451853  -0.00052685  1
  Te  Te47  1  0.74998236  0.51107820  0.49904614  1
  Te  Te48  1  -0.00116686  0.25554202  -0.00300951  1
  Te  Te49  1  -0.00172328  0.24705104  0.50511450  1
  Te  Te50  1  -0.00120986  0.74728383  -0.00263635  1
  Te  Te51  1  -0.00143983  0.75226769  0.50373167  1
  Te  Te52  1  0.50034914  0.25259867  -0.00395683  1
  Te  Te53  1  0.50124072  0.24763448  0.50311780  1
  Te  Te54  1  0.50020107  0.74526462  -0.00308862  1
  Te  Te55  1  0.50286575  0.75269168  0.50379989  1
  Te  Te56  1  0.00283500  -0.00221058  0.25700886  1
  Te  Te57  1  0.00125961  -0.00088875  0.74862631  1
  Te  Te58  1  0.00089645  0.50393119  0.24576223  1
  Te  Te59  1  0.00085374  0.49985338  0.75395616  1
  Te  Te60  1  0.49759004  0.00228202  0.25682942  1
  Te  Te61  1  0.49885388  -0.00033478  0.74853945  1
  Te  Te62  1  0.49899874  0.49386898  0.24550926  1
  Te  Te63  1  0.49910842  0.49845562  0.75384018  1
