# generated using pymatgen
data_AgSbTe2
_symmetry_space_group_name_H-M   'P 1'
_cell_length_a   12.21421321
_cell_length_b   12.21285245
_cell_length_c   12.20911624
_cell_angle_alpha   89.99385465
_cell_angle_beta   90.00177611
_cell_angle_gamma   90.00173660
_symmetry_Int_Tables_number   1
_chemical_formula_structural   AgSbTe2
_chemical_formula_sum   'Ag16 Sb16 Te32'
_cell_volume   1821.23854219
_cell_formula_units_Z   16
loop_
 _symmetry_equiv_pos_site_id
 _symmetry_equiv_pos_as_xyz
  1  'x, y, z'
loop_
 _atom_site_type_symbol
 _atom_site_label
 _atom_site_symmetry_multiplicity
 _atom_site_fract_x
 _atom_site_fract_y
 _atom_site_fract_z
 _atom_site_occupancy
  Ag  Ag0  1  0.24431669  0.49787008  0.24652494  1
  Ag  Ag1  1  0.75263958  0.24923459  0.50442927  1
  Ag  Ag2  1  -0.00062879  0.00589727  0.00124210  1
  Ag  Ag3  1  0.75633104  0.24751421  -0.00396829  1
  Ag  Ag4  1  0.75435944  0.00440375  0.24516163  1
  Ag  Ag5  1  0.24750770  0.24922113  0.50242137  1
  Ag  Ag6  1  0.49925911  0.75340996  0.75476308  1
  Ag  Ag7  1  0.25145569  0.00387476  0.75492865  1
  Ag  Ag8  1  0.00112127  0.75049612  0.24374415  1
  Ag  Ag9  1  -0.00125646  0.24918301  0.24330307  1
  Ag  Ag10  1  -0.00352366  0.24934102  0.75616926  1
  Ag  Ag11  1  0.49945531  0.00239326  -0.00454914  1
  Ag  Ag12  1  0.50260937  0.24699795  0.75305295  1
  Ag  Ag13  1  0.75157853  0.49254812  0.75277559  1
  Ag  Ag14  1  0.00046133  0.49444974  0.00146237  1
  Ag  Ag15  1  0.24716620  0.75237329  -0.00066906  1
  Sb  Sb16  1  0.00000724  0.49520391  0.49947811  1
  Sb  Sb17  1  0.50022165  0.49713943  0.50169335  1
  Sb  Sb18  1  0.74892455  0.00902389  0.75501649  1
  Sb  Sb19  1  0.00055909  0.75102423  0.75700213  1
  Sb  Sb20  1  0.24908224  0.75096332  0.50040503  1
  Sb  Sb21  1  0.75612805  0.49535685  0.24708459  1
  Sb  Sb22  1  0.75184734  0.75259258  -0.00092007  1
  Sb  Sb23  1  0.50026885  0.00315261  0.50551366  1
  Sb  Sb24  1  -0.00036226  0.00493592  0.49966241  1
  Sb  Sb25  1  0.49982455  0.49698630  -0.00261510  1
  Sb  Sb26  1  0.24244926  0.24766852  -0.00202381  1
  Sb  Sb27  1  0.49838043  0.75312542  0.24465165  1
  Sb  Sb28  1  0.24791683  0.49601033  0.75274780  1
  Sb  Sb29  1  0.50073415  0.24761481  0.24586742  1
  Sb  Sb30  1  0.75108456  0.75143231  0.50165379  1
  Sb  Sb31  1  0.24487337  0.00217448  0.24494710  1
  Te  Te32  1  0.24706536  0.25157033  0.25392511  1
  Te  Te33  1  0.24951028  0.24903298  0.74786383  1
  Te  Te34  1  0.24618320  0.74804800  0.24810714  1
  Te  Te35  1  0.25244147  0.75221749  0.75231633  1
  Te  Te36  1  0.75234903  0.24901862  0.24890527  1
  Te  Te37  1  0.75175450  0.24993816  0.75109345  1
  Te  Te38  1  0.75514712  0.75305700  0.25180482  1
  Te  Te39  1  0.74597997  0.74296136  0.74805147  1
  Te  Te40  1  0.24921019  -0.00263558  -0.00296720  1
  Te  Te41  1  0.25038000  0.00626435  0.50690229  1
  Te  Te42  1  0.24545710  0.50477045  0.00293155  1
  Te  Te43  1  0.25002645  0.49349142  0.49446216  1
  Te  Te44  1  0.75222924  0.00315815  0.00222916  1
  Te  Te45  1  0.74970702  0.00727439  0.49265093  1
  Te  Te46  1  0.75452176  0.49535193  -0.00302305  1
  Te  Te47  1  0.74983781  0.49187811  0.50504101  1
  Te  Te48  1  0.00037133  0.24884698  -0.00001716  1
  Te  Te49  1  -0.00077167  0.24984716  0.50078118  1
  Te  Te50  1  0.00286569  0.75101802  0.00312350  1
  Te  Te51  1  0.00023658  0.74997163  0.48989905  1
  Te  Te52  1  0.50475520  0.24601556  -0.00489451  1
  Te  Te53  1  0.50039287  0.24901609  0.50667682  1
  Te  Te54  1  0.49628059  0.75433843  -0.00479070  1
  Te  Te55  1  0.49959002  0.75060277  0.50944823  1
  Te  Te56  1  -0.00167373  0.00325875  0.24492962  1
  Te  Te57  1  0.00270811  0.00293405  0.75581269  1
  Te  Te58  1  0.00205665  0.49743341  0.24471701  1
  Te  Te59  1  -0.00310531  0.49702051  0.75569990  1
  Te  Te60  1  0.50525569  -0.00082999  0.24123084  1
  Te  Te61  1  0.49885551  0.00271767  0.75501336  1
  Te  Te62  1  0.49201433  0.50143297  0.24947068  1
  Te  Te63  1  0.50357537  0.49736564  0.75164870  1
