# generated using pymatgen
data_AgSbTe2
_symmetry_space_group_name_H-M   'P 1'
_cell_length_a   12.22335546
_cell_length_b   12.24662401
_cell_length_c   12.24146609
_cell_angle_alpha   90.00901879
_cell_angle_beta   90.00098336
_cell_angle_gamma   89.99844184
_symmetry_Int_Tables_number   1
_chemical_formula_structural   AgSbTe2
_chemical_formula_sum   'Ag16 Sb16 Te32'
_cell_volume   1832.48426505
_cell_formula_units_Z   16
loop_
 _symmetry_equiv_pos_site_id
 _symmetry_equiv_pos_as_xyz
  1  'x, y, z'
loop_
 _atom_site_type_symbol
 _atom_site_label
 _atom_site_symmetry_multiplicity
 _atom_site_fract_x
 _atom_site_fract_y
 _atom_site_fract_z
 _atom_site_occupancy
  Ag  Ag0  1  -0.00338087  0.75059135  0.74990428  1
  Ag  Ag1  1  0.26260518  -0.00547357  0.74981108  1
  Ag  Ag2  1  0.26039540  0.50152592  0.24971247  1
  Ag  Ag3  1  0.25940314  0.75022030  0.50404201  1
  Ag  Ag4  1  0.73838345  -0.00775127  0.75020328  1
  Ag  Ag5  1  0.74122001  0.50771395  0.75026920  1
  Ag  Ag6  1  0.50011412  -0.00616398  -0.00839533  1
  Ag  Ag7  1  0.50006159  0.50602056  0.49906240  1
  Ag  Ag8  1  0.74079389  0.25001441  0.50239804  1
  Ag  Ag9  1  0.49997631  0.50584837  0.00123236  1
  Ag  Ag10  1  0.50302729  0.75475791  0.75071190  1
  Ag  Ag11  1  0.74065565  0.74996938  -0.00787955  1
  Ag  Ag12  1  0.25932059  0.25024003  -0.00022351  1
  Ag  Ag13  1  0.49860959  0.25472334  0.24976828  1
  Ag  Ag14  1  0.49994646  -0.00627981  0.50847637  1
  Ag  Ag15  1  0.49907668  0.74508542  0.25087213  1
  Sb  Sb16  1  0.74056436  0.50183847  0.25085110  1
  Sb  Sb17  1  -0.00005784  0.50290469  -0.00310845  1
  Sb  Sb18  1  0.25932960  0.50403326  0.74975372  1
  Sb  Sb19  1  0.25710911  -0.00164869  0.24992566  1
  Sb  Sb20  1  0.25724338  0.24934595  0.50011807  1
  Sb  Sb21  1  0.00169582  0.25231278  0.25016842  1
  Sb  Sb22  1  0.00011747  -0.00268492  -0.00469355  1
  Sb  Sb23  1  0.74239375  0.24980442  -0.00069118  1
  Sb  Sb24  1  -0.00096490  -0.00286348  0.50473591  1
  Sb  Sb25  1  0.25918948  0.75051687  -0.00218114  1
  Sb  Sb26  1  0.74011820  0.75025646  0.50771148  1
  Sb  Sb27  1  0.00082589  0.74798227  0.24993449  1
  Sb  Sb28  1  -0.00074249  0.25054833  0.75007337  1
  Sb  Sb29  1  0.74272426  -0.00159065  0.25072268  1
  Sb  Sb30  1  0.50018733  0.24613417  0.74970639  1
  Sb  Sb31  1  -0.00139080  0.50305491  0.50310773  1
  Te  Te32  1  0.25420393  0.25298893  0.24797537  1
  Te  Te33  1  0.24694879  0.24391654  0.75353443  1
  Te  Te34  1  0.25356328  0.74713770  0.25289941  1
  Te  Te35  1  0.25503006  0.75236954  0.74814389  1
  Te  Te36  1  0.74507778  0.25021986  0.25409993  1
  Te  Te37  1  0.75239397  0.24913140  0.74739705  1
  Te  Te38  1  0.74623798  0.74928253  0.24188898  1
  Te  Te39  1  0.74393994  0.75118123  0.75012422  1
  Te  Te40  1  0.25521063  0.00147947  -0.00395816  1
  Te  Te41  1  0.25482944  -0.00137147  0.50436409  1
  Te  Te42  1  0.25559145  0.49837228  0.00053113  1
  Te  Te43  1  0.25531899  0.50086640  0.49941093  1
  Te  Te44  1  0.74495617  -0.00040898  -0.00468961  1
  Te  Te45  1  0.74485991  0.00112023  0.50451635  1
  Te  Te46  1  0.74497646  0.50039452  -0.00327116  1
  Te  Te47  1  0.74490034  0.49871544  0.50259061  1
  Te  Te48  1  0.01024018  0.25001712  0.00145455  1
  Te  Te49  1  -0.01047189  0.24999010  0.49907027  1
  Te  Te50  1  -0.00985466  0.74993068  -0.00508656  1
  Te  Te51  1  0.01071512  0.74989273  0.50377367  1
  Te  Te52  1  0.49693380  0.25056501  0.00376557  1
  Te  Te53  1  0.50272552  0.25048361  0.49674928  1
  Te  Te54  1  0.50106461  0.75015356  -0.00151487  1
  Te  Te55  1  0.49860252  0.75017061  0.50024325  1
  Te  Te56  1  -0.00023660  -0.00025272  0.25002541  1
  Te  Te57  1  -0.00128657  -0.00607461  0.75001797  1
  Te  Te58  1  0.01266805  0.50022343  0.25001752  1
  Te  Te59  1  -0.00890718  0.50655081  0.74999287  1
  Te  Te60  1  0.50013729  -0.00211717  0.25000740  1
  Te  Te61  1  0.50019166  -0.00031033  0.75003680  1
  Te  Te62  1  0.49813344  0.50256342  0.24994411  1
  Te  Te63  1  0.50275454  0.50183100  0.74984518  1
