# generated using pymatgen
data_AgSbTe2
_symmetry_space_group_name_H-M   'P 1'
_cell_length_a   12.22819256
_cell_length_b   12.21528859
_cell_length_c   12.22534254
_cell_angle_alpha   90.01417705
_cell_angle_beta   90.00180056
_cell_angle_gamma   89.99885478
_symmetry_Int_Tables_number   1
_chemical_formula_structural   AgSbTe2
_chemical_formula_sum   'Ag16 Sb16 Te32'
_cell_volume   1826.11037413
_cell_formula_units_Z   16
loop_
 _symmetry_equiv_pos_site_id
 _symmetry_equiv_pos_as_xyz
  1  'x, y, z'
loop_
 _atom_site_type_symbol
 _atom_site_label
 _atom_site_symmetry_multiplicity
 _atom_site_fract_x
 _atom_site_fract_y
 _atom_site_fract_z
 _atom_site_occupancy
  Ag  Ag0  1  0.75461908  0.50376562  0.74204820  1
  Ag  Ag1  1  0.00125184  0.49992813  0.01563870  1
  Ag  Ag2  1  0.49695507  0.25448249  0.25098782  1
  Ag  Ag3  1  0.75471949  0.74218855  0.49904736  1
  Ag  Ag4  1  0.24576296  0.74584740  0.49868684  1
  Ag  Ag5  1  0.00305769  0.26539410  0.25041399  1
  Ag  Ag6  1  0.76460698  0.50119567  0.25615001  1
  Ag  Ag7  1  0.24971338  0.25137207  0.00491017  1
  Ag  Ag8  1  0.00060820  0.74425185  0.74261894  1
  Ag  Ag9  1  0.49578048  0.00268824  0.00169350  1
  Ag  Ag10  1  -0.00282271  0.50681615  0.48620389  1
  Ag  Ag11  1  0.49758959  -0.00184607  0.49853377  1
  Ag  Ag12  1  0.50303568  0.50250851  0.49454206  1
  Ag  Ag13  1  0.00102944  0.73489394  0.25661789  1
  Ag  Ag14  1  0.23529887  0.49832198  0.25341650  1
  Ag  Ag15  1  0.25097392  -0.00195128  0.74867815  1
  Sb  Sb16  1  0.49942868  0.74886461  0.74605677  1
  Sb  Sb17  1  0.24726117  0.74873943  0.00177504  1
  Sb  Sb18  1  0.49911491  0.49790963  0.00459737  1
  Sb  Sb19  1  0.74975636  -0.00358442  0.74577119  1
  Sb  Sb20  1  0.24956101  0.25302442  0.49560636  1
  Sb  Sb21  1  0.74895877  -0.00216958  0.25334694  1
  Sb  Sb22  1  0.00251747  0.00133456  0.00049431  1
  Sb  Sb23  1  0.25167671  0.00104516  0.25139094  1
  Sb  Sb24  1  0.74955126  0.25872761  0.49758574  1
  Sb  Sb25  1  0.75078560  0.25210972  0.00336497  1
  Sb  Sb26  1  0.00235783  -0.00721656  0.49921598  1
  Sb  Sb27  1  0.24679341  0.50181508  0.74653555  1
  Sb  Sb28  1  0.49777395  0.25115179  0.74917223  1
  Sb  Sb29  1  0.49925871  0.74497240  0.25438015  1
  Sb  Sb30  1  0.75250038  0.74731452  0.00119399  1
  Sb  Sb31  1  0.00273291  0.25554398  0.74826350  1
  Te  Te32  1  0.24940807  0.25240758  0.24745988  1
  Te  Te33  1  0.24934154  0.24425751  0.75722678  1
  Te  Te34  1  0.24636446  0.74608240  0.25400624  1
  Te  Te35  1  0.24565808  0.75303268  0.74595076  1
  Te  Te36  1  0.75094192  0.25513620  0.25005995  1
  Te  Te37  1  0.75066569  0.25752415  0.75035004  1
  Te  Te38  1  0.75398884  0.74545000  0.25409909  1
  Te  Te39  1  0.75518388  0.74499920  0.74589355  1
  Te  Te40  1  0.25375599  0.00242836  -0.00281148  1
  Te  Te41  1  0.25418687  -0.00352771  0.50290664  1
  Te  Te42  1  0.24756788  0.49711593  0.00226861  1
  Te  Te43  1  0.25068791  0.50277955  0.49860094  1
  Te  Te44  1  0.74148919  -0.00027904  -0.00079831  1
  Te  Te45  1  0.74261778  -0.00903425  0.50114615  1
  Te  Te46  1  0.75314597  0.50076141  0.00243439  1
  Te  Te47  1  0.74990320  0.50264893  0.49768074  1
  Te  Te48  1  0.00379368  0.25296623  0.00403950  1
  Te  Te49  1  0.00045557  0.25461015  0.49511456  1
  Te  Te50  1  0.00022997  0.74632084  0.00219538  1
  Te  Te51  1  0.00122259  0.74952059  0.49823921  1
  Te  Te52  1  0.49548581  0.24767557  0.00466846  1
  Te  Te53  1  0.49971073  0.25038168  0.49496028  1
  Te  Te54  1  0.49982801  0.75725463  0.00044911  1
  Te  Te55  1  0.49823200  0.74798625  0.49912050  1
  Te  Te56  1  -0.00097424  0.00133455  0.24899531  1
  Te  Te57  1  0.00352627  -0.00510176  0.75095107  1
  Te  Te58  1  0.00122305  0.50057172  0.25065706  1
  Te  Te59  1  -0.00153767  0.50302285  0.74794325  1
  Te  Te60  1  0.50046956  0.00527327  0.25235724  1
  Te  Te61  1  0.49727751  0.00019159  0.74719872  1
  Te  Te62  1  0.49933191  0.49692000  0.25226634  1
  Te  Te63  1  0.50460891  0.49984926  0.74543116  1
