# generated using pymatgen
data_AgSbTe2
_symmetry_space_group_name_H-M   'P 1'
_cell_length_a   12.23103676
_cell_length_b   12.22443239
_cell_length_c   12.21959135
_cell_angle_alpha   90.01044251
_cell_angle_beta   89.99920142
_cell_angle_gamma   90.00270523
_symmetry_Int_Tables_number   1
_chemical_formula_structural   AgSbTe2
_chemical_formula_sum   'Ag16 Sb16 Te32'
_cell_volume   1827.04249755
_cell_formula_units_Z   16
loop_
 _symmetry_equiv_pos_site_id
 _symmetry_equiv_pos_as_xyz
  1  'x, y, z'
loop_
 _atom_site_type_symbol
 _atom_site_label
 _atom_site_symmetry_multiplicity
 _atom_site_fract_x
 _atom_site_fract_y
 _atom_site_fract_z
 _atom_site_occupancy
  Ag  Ag0  1  0.50458312  0.00638968  0.00063506  1
  Ag  Ag1  1  0.25434181  0.49219982  0.75032196  1
  Ag  Ag2  1  0.25943404  0.25060170  -0.00958473  1
  Ag  Ag3  1  0.50177555  0.75443606  0.24902757  1
  Ag  Ag4  1  0.74496902  0.00119645  0.24955977  1
  Ag  Ag5  1  0.74642320  0.24588777  0.50760575  1
  Ag  Ag6  1  0.50060449  0.00488169  0.49905961  1
  Ag  Ag7  1  0.50050676  0.25185930  0.75413843  1
  Ag  Ag8  1  0.74394262  0.75180051  -0.00053603  1
  Ag  Ag9  1  -0.00055035  0.25027226  0.74737155  1
  Ag  Ag10  1  0.25374292  0.75315105  0.50207505  1
  Ag  Ag11  1  0.50286994  0.49217115  -0.00484398  1
  Ag  Ag12  1  0.25330327  0.24707888  0.50880672  1
  Ag  Ag13  1  -0.00018775  0.00473600  0.50110153  1
  Ag  Ag14  1  0.74085146  0.24939409  -0.00795163  1
  Ag  Ag15  1  0.74534020  0.49230471  0.75286490  1
  Sb  Sb16  1  0.50114214  0.24613969  0.24644880  1
  Sb  Sb17  1  0.49979093  0.49360956  0.50436745  1
  Sb  Sb18  1  0.50037799  0.74881031  0.75001706  1
  Sb  Sb19  1  0.25449816  0.49889153  0.24897025  1
  Sb  Sb20  1  0.74778065  0.00849858  0.75034631  1
  Sb  Sb21  1  -0.00273383  0.49742994  -0.00316964  1
  Sb  Sb22  1  0.74568931  0.49877788  0.24772986  1
  Sb  Sb23  1  -0.00064896  0.75153212  0.74782427  1
  Sb  Sb24  1  0.74589120  0.75469249  0.50135825  1
  Sb  Sb25  1  0.00018814  0.49523764  0.50369145  1
  Sb  Sb26  1  -0.00388608  0.00428548  -0.00095351  1
  Sb  Sb27  1  0.25187012  0.00867989  0.74834780  1
  Sb  Sb28  1  -0.00156525  0.24716208  0.25316105  1
  Sb  Sb29  1  -0.00175587  0.75376948  0.25210764  1
  Sb  Sb30  1  0.25656352  0.74965021  -0.00229181  1
  Sb  Sb31  1  0.25552537  -0.00008555  0.25252313  1
  Te  Te32  1  0.24928673  0.25046236  0.25178352  1
  Te  Te33  1  0.25298549  0.25201485  0.74932889  1
  Te  Te34  1  0.25430259  0.74945516  0.25503138  1
  Te  Te35  1  0.24863676  0.73972837  0.74561245  1
  Te  Te36  1  0.75033627  0.24727883  0.25070430  1
  Te  Te37  1  0.74685767  0.25203601  0.75018820  1
  Te  Te38  1  0.74683161  0.75234560  0.24760193  1
  Te  Te39  1  0.75161002  0.73895846  0.75406075  1
  Te  Te40  1  0.25423183  0.00345186  0.00122538  1
  Te  Te41  1  0.25365230  0.00333274  0.49918700  1
  Te  Te42  1  0.25313259  0.49719745  -0.00349904  1
  Te  Te43  1  0.25071693  0.49653459  0.50377536  1
  Te  Te44  1  0.74761946  0.00234176  0.00102227  1
  Te  Te45  1  0.74562684  0.00214221  0.49892935  1
  Te  Te46  1  0.74779318  0.49611946  -0.00208226  1
  Te  Te47  1  0.74992102  0.49429021  0.50404810  1
  Te  Te48  1  0.00040308  0.24810536  -0.00547154  1
  Te  Te49  1  0.00079469  0.24633261  0.50317134  1
  Te  Te50  1  -0.00776544  0.75142376  0.00008309  1
  Te  Te51  1  0.00605043  0.75758850  0.50046958  1
  Te  Te52  1  0.50064012  0.24823906  0.00082297  1
  Te  Te53  1  0.49974716  0.24814363  0.50003211  1
  Te  Te54  1  0.50238225  0.75415277  0.00000749  1
  Te  Te55  1  0.49735850  0.75496865  0.49915234  1
  Te  Te56  1  -0.00911880  0.00005957  0.25645353  1
  Te  Te57  1  0.00022929  0.00603143  0.74383924  1
  Te  Te58  1  -0.00007238  0.50065224  0.25035437  1
  Te  Te59  1  0.00042393  0.49335879  0.74966253  1
  Te  Te60  1  0.50413075  -0.00346607  0.25012232  1
  Te  Te61  1  0.49969232  0.00492428  0.75005362  1
  Te  Te62  1  0.50031954  0.50973658  0.24069887  1
  Te  Te63  1  0.50056545  0.49661648  0.75350070  1
