# generated using pymatgen
data_AgSbTe2
_symmetry_space_group_name_H-M   'P 1'
_cell_length_a   12.31678919
_cell_length_b   12.29237205
_cell_length_c   12.31699454
_cell_angle_alpha   89.98595420
_cell_angle_beta   89.99431327
_cell_angle_gamma   89.99069042
_symmetry_Int_Tables_number   1
_chemical_formula_structural   AgSbTe2
_chemical_formula_sum   'Ag16 Sb16 Te32'
_cell_volume   1864.82435486
_cell_formula_units_Z   16
loop_
 _symmetry_equiv_pos_site_id
 _symmetry_equiv_pos_as_xyz
  1  'x, y, z'
loop_
 _atom_site_type_symbol
 _atom_site_label
 _atom_site_symmetry_multiplicity
 _atom_site_fract_x
 _atom_site_fract_y
 _atom_site_fract_z
 _atom_site_occupancy
  Ag  Ag0  1  0.73883129  0.74877680  -0.00410434  1
  Ag  Ag1  1  0.26194202  0.50470260  0.23514148  1
  Ag  Ag2  1  0.74377033  -0.00787141  0.24790428  1
  Ag  Ag3  1  0.49523504  0.51326971  -0.00845099  1
  Ag  Ag4  1  -0.01329007  -0.00657952  0.50664719  1
  Ag  Ag5  1  0.49984790  0.50747575  0.51067508  1
  Ag  Ag6  1  0.50045218  0.74973154  0.75838836  1
  Ag  Ag7  1  0.74184533  0.50948870  0.24146320  1
  Ag  Ag8  1  0.50847021  -0.01398451  -0.01412406  1
  Ag  Ag9  1  -0.00164605  0.74898343  0.75652880  1
  Ag  Ag10  1  0.73635487  -0.00775234  0.75171950  1
  Ag  Ag11  1  0.26393268  0.50748383  0.76191778  1
  Ag  Ag12  1  0.00414587  0.50948035  -0.00356606  1
  Ag  Ag13  1  0.50070852  0.25189544  0.75191762  1
  Ag  Ag14  1  0.26208345  0.74161007  -0.00676267  1
  Ag  Ag15  1  0.50575309  -0.00635338  0.51339147  1
  Sb  Sb16  1  -0.00104339  0.25040491  0.75147855  1
  Sb  Sb17  1  0.74674393  0.75109764  0.50301054  1
  Sb  Sb18  1  0.25257890  0.25154817  0.50256313  1
  Sb  Sb19  1  -0.00114871  0.50531214  0.50095483  1
  Sb  Sb20  1  -0.00736685  -0.00847602  -0.00296492  1
  Sb  Sb21  1  0.74888416  0.25163776  -0.00144070  1
  Sb  Sb22  1  0.25310485  0.25735464  -0.00180868  1
  Sb  Sb23  1  0.74456030  0.50630930  0.75703269  1
  Sb  Sb24  1  -0.00252353  0.74866735  0.24476664  1
  Sb  Sb25  1  0.50137782  0.74890945  0.24443831  1
  Sb  Sb26  1  0.50058429  0.25151009  0.24797965  1
  Sb  Sb27  1  0.25549745  -0.00417703  0.75255816  1
  Sb  Sb28  1  0.25345363  0.74786551  0.50546611  1
  Sb  Sb29  1  0.25488647  -0.00645694  0.24599430  1
  Sb  Sb30  1  -0.00080680  0.25038563  0.24930838  1
  Sb  Sb31  1  0.74766367  0.25026635  0.50113939  1
  Te  Te32  1  0.24928146  0.26516501  0.24918717  1
  Te  Te33  1  0.25473588  0.26164479  0.75082239  1
  Te  Te34  1  0.25011026  0.74391236  0.24060408  1
  Te  Te35  1  0.25181011  0.74810970  0.75239470  1
  Te  Te36  1  0.75012293  0.24667584  0.25002381  1
  Te  Te37  1  0.74642500  0.23434816  0.74982030  1
  Te  Te38  1  0.74911816  0.75040273  0.24113229  1
  Te  Te39  1  0.74935561  0.75289601  0.75266512  1
  Te  Te40  1  0.25488092  -0.00696964  0.00287285  1
  Te  Te41  1  0.26059578  0.00004072  0.49685523  1
  Te  Te42  1  0.25694172  0.50245510  -0.00193187  1
  Te  Te43  1  0.25391760  0.50040112  0.49887856  1
  Te  Te44  1  0.74871059  -0.00053917  0.00156552  1
  Te  Te45  1  0.74408601  -0.00063053  0.49676916  1
  Te  Te46  1  0.74367732  0.50072365  -0.00014271  1
  Te  Te47  1  0.74497898  0.50035155  0.48884410  1
  Te  Te48  1  0.00146407  0.26855744  0.00136766  1
  Te  Te49  1  -0.00022196  0.23441093  0.49883501  1
  Te  Te50  1  -0.00291225  0.74440327  -0.00420399  1
  Te  Te51  1  0.00030132  0.75635085  0.51302725  1
  Te  Te52  1  0.49981474  0.24619188  -0.00496573  1
  Te  Te53  1  0.50041516  0.24987840  0.50787106  1
  Te  Te54  1  0.50330954  0.74968558  -0.00088908  1
  Te  Te55  1  0.50048462  0.74892761  0.51159485  1
  Te  Te56  1  -0.00449984  -0.00024960  0.25242853  1
  Te  Te57  1  0.00275600  0.00073197  0.75011666  1
  Te  Te58  1  -0.00699642  0.49994232  0.25342236  1
  Te  Te59  1  -0.00435988  0.49987019  0.74765261  1
  Te  Te60  1  0.50238258  -0.00025988  0.25308342  1
  Te  Te61  1  0.49758576  -0.00692132  0.75208414  1
  Te  Te62  1  0.50345784  0.50099871  0.24917629  1
  Te  Te63  1  0.50338754  0.50597825  0.74987520  1
