# generated using pymatgen
data_AgSbTe2
_symmetry_space_group_name_H-M   'P 1'
_cell_length_a   12.23060868
_cell_length_b   12.25361141
_cell_length_c   12.24017438
_cell_angle_alpha   90.00269852
_cell_angle_beta   90.00021474
_cell_angle_gamma   90.00173408
_symmetry_Int_Tables_number   1
_chemical_formula_structural   AgSbTe2
_chemical_formula_sum   'Ag16 Sb16 Te32'
_cell_volume   1834.42423462
_cell_formula_units_Z   16
loop_
 _symmetry_equiv_pos_site_id
 _symmetry_equiv_pos_as_xyz
  1  'x, y, z'
loop_
 _atom_site_type_symbol
 _atom_site_label
 _atom_site_symmetry_multiplicity
 _atom_site_fract_x
 _atom_site_fract_y
 _atom_site_fract_z
 _atom_site_occupancy
  Ag  Ag0  1  0.24400649  -0.00719204  0.25291474  1
  Ag  Ag1  1  0.49596581  0.25207068  0.74736229  1
  Ag  Ag2  1  0.00713696  0.74939417  0.25050451  1
  Ag  Ag3  1  0.00547177  -0.00168012  0.50445230  1
  Ag  Ag4  1  0.75857614  0.49925371  0.74917450  1
  Ag  Ag5  1  0.24365653  0.50634983  0.25520829  1
  Ag  Ag6  1  0.24455832  0.74578078  0.49997767  1
  Ag  Ag7  1  0.00386345  -0.00358088  -0.00462326  1
  Ag  Ag8  1  0.24450189  0.74708664  -0.00028620  1
  Ag  Ag9  1  0.00537668  0.50289699  -0.00877442  1
  Ag  Ag10  1  0.49419697  0.74719930  0.74932075  1
  Ag  Ag11  1  0.24195814  0.50082700  0.74526279  1
  Ag  Ag12  1  0.00343277  0.25512277  0.74690765  1
  Ag  Ag13  1  0.24496844  0.25483939  0.50552926  1
  Ag  Ag14  1  0.00725351  0.50084071  0.50860694  1
  Ag  Ag15  1  0.75629812  -0.00008234  0.74957129  1
  Sb  Sb16  1  0.75572526  0.25057659  0.50529871  1
  Sb  Sb17  1  0.75840252  -0.00229696  0.25058865  1
  Sb  Sb18  1  0.49065113  0.50024172  0.50440008  1
  Sb  Sb19  1  0.75920747  0.50212635  0.25105317  1
  Sb  Sb20  1  0.00575653  0.74602729  0.74938765  1
  Sb  Sb21  1  0.00395878  0.25011341  0.25295241  1
  Sb  Sb22  1  0.49001342  0.74959773  0.25114746  1
  Sb  Sb23  1  0.75307071  0.25021276  -0.00479471  1
  Sb  Sb24  1  0.75699005  0.74936349  -0.00525451  1
  Sb  Sb25  1  0.49380417  0.50166247  -0.00445761  1
  Sb  Sb26  1  0.49331163  -0.00059058  0.50375600  1
  Sb  Sb27  1  0.75669803  0.74930693  0.50504461  1
  Sb  Sb28  1  0.24705856  0.25187239  -0.00543331  1
  Sb  Sb29  1  0.49126441  0.25057147  0.25396967  1
  Sb  Sb30  1  0.24357934  -0.00046630  0.74880385  1
  Sb  Sb31  1  0.49457377  -0.00208342  -0.00439527  1
  Te  Te32  1  0.25080584  0.25179524  0.25715629  1
  Te  Te33  1  0.24632170  0.25052775  0.74695828  1
  Te  Te34  1  0.24713693  0.74866314  0.25100063  1
  Te  Te35  1  0.25262291  0.74951432  0.74972739  1
  Te  Te36  1  0.74490768  0.25022659  0.25070103  1
  Te  Te37  1  0.75211658  0.25233212  0.74848225  1
  Te  Te38  1  0.75553439  0.74971256  0.24990388  1
  Te  Te39  1  0.73985308  0.74878967  0.74989031  1
  Te  Te40  1  0.24431018  -0.00210923  0.00269453  1
  Te  Te41  1  0.24581291  -0.00260754  0.49877452  1
  Te  Te42  1  0.24574650  0.50124765  -0.00251453  1
  Te  Te43  1  0.24731696  0.50191578  0.50288892  1
  Te  Te44  1  0.75857267  0.00002023  -0.00292752  1
  Te  Te45  1  0.75880341  -0.00018216  0.50286258  1
  Te  Te46  1  0.75919990  0.50039387  -0.00359876  1
  Te  Te47  1  0.75962047  0.50039015  0.50326564  1
  Te  Te48  1  0.00102982  0.24994498  -0.00631832  1
  Te  Te49  1  0.00413035  0.25025012  0.50364425  1
  Te  Te50  1  0.00456890  0.74994995  0.00156316  1
  Te  Te51  1  0.00409780  0.75036932  0.49853022  1
  Te  Te52  1  0.50060456  0.24958047  -0.00886452  1
  Te  Te53  1  0.49205611  0.25009296  0.50578495  1
  Te  Te54  1  0.49123056  0.75048835  -0.00335556  1
  Te  Te55  1  0.49212810  0.75023749  0.50327645  1
  Te  Te56  1  0.00379147  0.00048632  0.25034666  1
  Te  Te57  1  -0.00162051  0.00014331  0.74949186  1
  Te  Te58  1  0.00382691  0.50011736  0.25003614  1
  Te  Te59  1  0.00221093  0.50098007  0.74933286  1
  Te  Te60  1  0.49441713  0.00054489  0.24887780  1
  Te  Te61  1  0.50844027  0.00218980  0.75058765  1
  Te  Te62  1  0.49453014  0.49958297  0.24875226  1
  Te  Te63  1  0.50058757  0.49904959  0.74987277  1
