# generated using pymatgen
data_AgSbTe2
_symmetry_space_group_name_H-M   'P 1'
_cell_length_a   12.23101817
_cell_length_b   12.21798213
_cell_length_c   12.22455243
_cell_angle_alpha   89.99976986
_cell_angle_beta   90.00382938
_cell_angle_gamma   90.00391391
_symmetry_Int_Tables_number   1
_chemical_formula_structural   AgSbTe2
_chemical_formula_sum   'Ag16 Sb16 Te32'
_cell_volume   1826.81707503
_cell_formula_units_Z   16
loop_
 _symmetry_equiv_pos_site_id
 _symmetry_equiv_pos_as_xyz
  1  'x, y, z'
loop_
 _atom_site_type_symbol
 _atom_site_label
 _atom_site_symmetry_multiplicity
 _atom_site_fract_x
 _atom_site_fract_y
 _atom_site_fract_z
 _atom_site_occupancy
  Ag  Ag0  1  0.74762383  0.24561436  0.50006529  1
  Ag  Ag1  1  0.00370561  0.75617900  0.74591693  1
  Ag  Ag2  1  0.49824432  0.24501794  0.74597447  1
  Ag  Ag3  1  0.00540180  -0.00626238  -0.00236952  1
  Ag  Ag4  1  0.49390126  -0.00185502  0.50255513  1
  Ag  Ag5  1  0.25290780  0.23895096  0.50310380  1
  Ag  Ag6  1  0.24756844  0.75947419  0.50070150  1
  Ag  Ag7  1  0.75199803  0.75389603  0.49651479  1
  Ag  Ag8  1  0.50005428  0.75151999  0.25134346  1
  Ag  Ag9  1  0.49470641  -0.00481701  -0.00221874  1
  Ag  Ag10  1  0.00593468  -0.00704099  0.50203731  1
  Ag  Ag11  1  0.00020603  0.75280159  0.25476089  1
  Ag  Ag12  1  0.25071566  -0.00342352  0.74491625  1
  Ag  Ag13  1  0.74772139  0.50497201  0.25189327  1
  Ag  Ag14  1  0.49913979  0.50551987  0.00152465  1
  Ag  Ag15  1  0.25141086  0.75639667  -0.00024297  1
  Sb  Sb16  1  0.25287969  0.50507627  0.24969848  1
  Sb  Sb17  1  0.50127028  0.24742989  0.25382758  1
  Sb  Sb18  1  0.74877806  0.75109095  0.00335838  1
  Sb  Sb19  1  0.25054011  -0.00278159  0.25583845  1
  Sb  Sb20  1  -0.00172514  0.24635215  0.25344841  1
  Sb  Sb21  1  0.49724119  0.75457893  0.74934308  1
  Sb  Sb22  1  0.74763449  0.50223818  0.74871814  1
  Sb  Sb23  1  0.25292764  0.24141264  -0.00334558  1
  Sb  Sb24  1  0.74881534  -0.00115717  0.74669934  1
  Sb  Sb25  1  0.74964163  -0.00413947  0.25474599  1
  Sb  Sb26  1  0.00157494  0.24295748  0.74639912  1
  Sb  Sb27  1  0.25199423  0.50369535  0.75014547  1
  Sb  Sb28  1  0.00152961  0.50755203  0.00236389  1
  Sb  Sb29  1  -0.00051917  0.50925564  0.49872929  1
  Sb  Sb30  1  0.50030425  0.50225801  0.49900559  1
  Sb  Sb31  1  0.74767893  0.24913952  0.00006932  1
  Te  Te32  1  0.24911746  0.25333736  0.25951430  1
  Te  Te33  1  0.25279317  0.24545696  0.74536397  1
  Te  Te34  1  0.25089508  0.74920480  0.25061027  1
  Te  Te35  1  0.24803704  0.75326343  0.74863676  1
  Te  Te36  1  0.75030459  0.25780807  0.25657048  1
  Te  Te37  1  0.74595778  0.25117976  0.74323476  1
  Te  Te38  1  0.74847260  0.74748466  0.25352665  1
  Te  Te39  1  0.75636609  0.74905192  0.74143830  1
  Te  Te40  1  0.25171399  -0.00306261  -0.00376723  1
  Te  Te41  1  0.25123703  -0.00280398  0.50134074  1
  Te  Te42  1  0.25488132  0.50623035  -0.00025346  1
  Te  Te43  1  0.24982988  0.50130431  0.50072064  1
  Te  Te44  1  0.74819189  0.00100426  -0.00034972  1
  Te  Te45  1  0.74884720  -0.00136226  0.49975580  1
  Te  Te46  1  0.74454196  0.49872944  0.00463535  1
  Te  Te47  1  0.75020277  0.50105836  0.49661571  1
  Te  Te48  1  0.00019659  0.24082005  0.00019183  1
  Te  Te49  1  -0.00018315  0.24213584  0.49992696  1
  Te  Te50  1  0.00132021  0.75429922  0.00185125  1
  Te  Te51  1  0.00199084  0.75249437  0.49754478  1
  Te  Te52  1  0.49982806  0.24478243  -0.00272289  1
  Te  Te53  1  0.49966564  0.24764384  0.50105896  1
  Te  Te54  1  0.49867274  0.75451817  -0.00049002  1
  Te  Te55  1  0.49851678  0.75228346  0.49953704  1
  Te  Te56  1  -0.00069869  -0.00534386  0.24999578  1
  Te  Te57  1  0.00344081  -0.00371146  0.74897873  1
  Te  Te58  1  -0.00608772  0.50731677  0.24836211  1
  Te  Te59  1  -0.00020456  0.50819423  0.75190575  1
  Te  Te60  1  0.50037891  -0.00510259  0.24927740  1
  Te  Te61  1  0.49723484  0.00160703  0.74874934  1
  Te  Te62  1  0.50285198  0.50533191  0.24584584  1
  Te  Te63  1  0.49988065  0.49294329  0.75687241  1
