# generated using pymatgen
data_AgSbTe2
_symmetry_space_group_name_H-M   'P 1'
_cell_length_a   12.20589161
_cell_length_b   12.20128453
_cell_length_c   12.20770259
_cell_angle_alpha   90.00854808
_cell_angle_beta   89.99726191
_cell_angle_gamma   90.00235517
_symmetry_Int_Tables_number   1
_chemical_formula_structural   AgSbTe2
_chemical_formula_sum   'Ag16 Sb16 Te32'
_cell_volume   1818.06329306
_cell_formula_units_Z   16
loop_
 _symmetry_equiv_pos_site_id
 _symmetry_equiv_pos_as_xyz
  1  'x, y, z'
loop_
 _atom_site_type_symbol
 _atom_site_label
 _atom_site_symmetry_multiplicity
 _atom_site_fract_x
 _atom_site_fract_y
 _atom_site_fract_z
 _atom_site_occupancy
  Ag  Ag0  1  0.25285506  0.49736573  0.74968701  1
  Ag  Ag1  1  0.50017168  0.00123503  0.00232033  1
  Ag  Ag2  1  0.25096144  0.25171160  0.49742180  1
  Ag  Ag3  1  0.74916709  0.00272674  0.25281213  1
  Ag  Ag4  1  0.49599369  0.49588833  0.49956579  1
  Ag  Ag5  1  0.49711084  0.24981631  0.25260753  1
  Ag  Ag6  1  0.00150560  0.75122047  0.25067275  1
  Ag  Ag7  1  0.00416623  0.49858015  0.00094660  1
  Ag  Ag8  1  0.74899606  0.00273909  0.74745794  1
  Ag  Ag9  1  0.74977298  0.24642644  0.49956746  1
  Ag  Ag10  1  0.49574779  0.49862195  0.00023249  1
  Ag  Ag11  1  -0.00151810  0.00400736  0.49756609  1
  Ag  Ag12  1  0.25099169  0.00349329  0.25193201  1
  Ag  Ag13  1  0.49954879  0.74834570  0.75037740  1
  Ag  Ag14  1  0.00060089  0.25017433  0.74662307  1
  Ag  Ag15  1  0.25234122  0.49646120  0.25045133  1
  Sb  Sb16  1  0.74757744  0.49685175  0.74800430  1
  Sb  Sb17  1  0.25098335  0.00330137  0.74811303  1
  Sb  Sb18  1  0.49894561  0.75018635  0.24945808  1
  Sb  Sb19  1  0.00066385  0.00150469  0.00288757  1
  Sb  Sb20  1  0.74890679  0.24832919  0.00072700  1
  Sb  Sb21  1  0.25064838  0.74873850  0.49880929  1
  Sb  Sb22  1  0.00478969  0.49560481  0.49947434  1
  Sb  Sb23  1  0.49909702  0.25135057  0.74753930  1
  Sb  Sb24  1  0.25067997  0.74731304  0.00090384  1
  Sb  Sb25  1  0.00028367  0.74932281  0.74942380  1
  Sb  Sb26  1  0.74811916  0.49664792  0.25201358  1
  Sb  Sb27  1  0.74908225  0.75450003  0.49929462  1
  Sb  Sb28  1  0.00279948  0.24940088  0.25343795  1
  Sb  Sb29  1  0.74926866  0.75096543  0.00052304  1
  Sb  Sb30  1  0.25087118  0.25269758  0.00336676  1
  Sb  Sb31  1  0.50121821  0.00480156  0.49768009  1
  Te  Te32  1  0.25230003  0.25090994  0.25493472  1
  Te  Te33  1  0.24710296  0.25399050  0.74263859  1
  Te  Te34  1  0.24588804  0.74989115  0.25126074  1
  Te  Te35  1  0.25447846  0.74354688  0.74869049  1
  Te  Te36  1  0.74660023  0.24508528  0.25583576  1
  Te  Te37  1  0.75326598  0.24535862  0.74386968  1
  Te  Te38  1  0.75553584  0.75801062  0.25100591  1
  Te  Te39  1  0.74583375  0.75745010  0.74908812  1
  Te  Te40  1  0.25520090  0.00139469  0.00597092  1
  Te  Te41  1  0.24742727  0.00558520  0.49599747  1
  Te  Te42  1  0.25283812  0.49858225  0.00109536  1
  Te  Te43  1  0.25237125  0.49526782  0.49850879  1
  Te  Te44  1  0.74556579  0.00113689  0.00058998  1
  Te  Te45  1  0.75140616  0.00439622  0.49902670  1
  Te  Te46  1  0.74746708  0.49931814  0.00002536  1
  Te  Te47  1  0.74419143  0.49188572  0.49990736  1
  Te  Te48  1  -0.00077917  0.25566318  -0.00707419  1
  Te  Te49  1  -0.00010228  0.24693287  0.50281336  1
  Te  Te50  1  -0.00077543  0.74328900  0.00438133  1
  Te  Te51  1  -0.00049569  0.75689038  0.49592342  1
  Te  Te52  1  0.50086388  0.25151438  0.00517071  1
  Te  Te53  1  0.49896980  0.25296691  0.49689784  1
  Te  Te54  1  0.50045810  0.74827148  -0.00421462  1
  Te  Te55  1  0.50063854  0.74184827  0.50510322  1
  Te  Te56  1  0.00062425  -0.00058433  0.24986074  1
  Te  Te57  1  -0.00183146  0.00159805  0.74909092  1
  Te  Te58  1  0.00346618  0.50132303  0.24747237  1
  Te  Te59  1  0.00314038  0.49896047  0.75234167  1
  Te  Te60  1  0.49931983  0.00029734  0.24822109  1
  Te  Te61  1  0.50185283  -0.00147184  0.75318783  1
  Te  Te62  1  0.49728858  0.49965694  0.24813727  1
  Te  Te63  1  0.49754072  0.50070362  0.75234278  1
