# generated using pymatgen
data_AgSbTe2
_symmetry_space_group_name_H-M   'P 1'
_cell_length_a   12.21252131
_cell_length_b   12.20965945
_cell_length_c   12.21016439
_cell_angle_alpha   89.98894505
_cell_angle_beta   89.99759283
_cell_angle_gamma   89.99890328
_symmetry_Int_Tables_number   1
_chemical_formula_structural   AgSbTe2
_chemical_formula_sum   'Ag16 Sb16 Te32'
_cell_volume   1820.66644327
_cell_formula_units_Z   16
loop_
 _symmetry_equiv_pos_site_id
 _symmetry_equiv_pos_as_xyz
  1  'x, y, z'
loop_
 _atom_site_type_symbol
 _atom_site_label
 _atom_site_symmetry_multiplicity
 _atom_site_fract_x
 _atom_site_fract_y
 _atom_site_fract_z
 _atom_site_occupancy
  Ag  Ag0  1  0.49672562  0.75177479  0.24941977  1
  Ag  Ag1  1  0.49589941  0.00136402  -0.00032125  1
  Ag  Ag2  1  0.24474550  0.49369809  0.74799868  1
  Ag  Ag3  1  0.75466262  0.49530897  0.75107588  1
  Ag  Ag4  1  0.24743407  0.75013222  0.49817361  1
  Ag  Ag5  1  0.00401422  0.00387215  -0.00314306  1
  Ag  Ag6  1  0.24871251  -0.00163992  0.24610964  1
  Ag  Ag7  1  0.24599910  0.25031409  0.50669629  1
  Ag  Ag8  1  0.75373311  0.00490629  0.75469737  1
  Ag  Ag9  1  0.24614222  0.00678300  0.75474309  1
  Ag  Ag10  1  0.00408872  0.24958672  0.75251233  1
  Ag  Ag11  1  0.75311519  0.24780531  -0.00482126  1
  Ag  Ag12  1  0.24663485  0.24380514  -0.00567181  1
  Ag  Ag13  1  0.00301832  0.75024909  0.25074913  1
  Ag  Ag14  1  0.75272638  0.50004628  0.24917253  1
  Ag  Ag15  1  0.00310456  0.49933915  0.50265267  1
  Sb  Sb16  1  0.49890380  0.24777774  0.24735969  1
  Sb  Sb17  1  0.75488151  0.25198055  0.50623249  1
  Sb  Sb18  1  0.24700248  0.50213514  0.25113867  1
  Sb  Sb19  1  0.49734145  0.75238290  0.75073713  1
  Sb  Sb20  1  0.49647734  -0.00159222  0.49973439  1
  Sb  Sb21  1  0.00050463  0.49632370  -0.00257868  1
  Sb  Sb22  1  0.49870589  0.49980833  0.00116551  1
  Sb  Sb23  1  0.00397772  0.00090866  0.50241299  1
  Sb  Sb24  1  0.00166825  0.24950169  0.24706167  1
  Sb  Sb25  1  0.49399909  0.24856530  0.75186798  1
  Sb  Sb26  1  0.75350453  0.74880800  0.49879426  1
  Sb  Sb27  1  0.75117062  0.00049668  0.24451187  1
  Sb  Sb28  1  0.24877036  0.75815056  0.00282544  1
  Sb  Sb29  1  0.00268992  0.75034981  0.74958722  1
  Sb  Sb30  1  0.75121078  0.75226892  0.00027968  1
  Sb  Sb31  1  0.49626812  0.50140434  0.49923717  1
  Te  Te32  1  0.24912464  0.24640498  0.24835946  1
  Te  Te33  1  0.24865875  0.24858232  0.75109843  1
  Te  Te34  1  0.24857951  0.75137809  0.25242897  1
  Te  Te35  1  0.24992444  0.74986397  0.74446369  1
  Te  Te36  1  0.74999636  0.25466409  0.24588867  1
  Te  Te37  1  0.75388808  0.25103176  0.75148896  1
  Te  Te38  1  0.75123488  0.74609260  0.25096794  1
  Te  Te39  1  0.74967879  0.74789011  0.74910778  1
  Te  Te40  1  0.24885079  0.00130875  -0.00142025  1
  Te  Te41  1  0.24936445  0.00022664  0.50061949  1
  Te  Te42  1  0.25062852  0.49173644  -0.00544441  1
  Te  Te43  1  0.24662566  0.49924717  0.50269550  1
  Te  Te44  1  0.75113327  0.00401668  -0.00333985  1
  Te  Te45  1  0.74932357  0.00113102  0.50904900  1
  Te  Te46  1  0.74998219  0.49421466  -0.00301440  1
  Te  Te47  1  0.75503291  0.49868516  0.50253257  1
  Te  Te48  1  0.00069449  0.24643893  -0.00329205  1
  Te  Te49  1  0.00572214  0.25399831  0.50506884  1
  Te  Te50  1  0.00031206  0.75699739  0.00673294  1
  Te  Te51  1  0.00462897  0.74603770  0.49507883  1
  Te  Te52  1  0.49988362  0.24371540  0.00132066  1
  Te  Te53  1  0.48911256  0.25001593  0.49786509  1
  Te  Te54  1  0.49989459  0.75654218  0.00680742  1
  Te  Te55  1  0.49225411  0.75013902  0.49250098  1
  Te  Te56  1  0.00290149  -0.00313008  0.24751539  1
  Te  Te57  1  0.00173848  0.00085004  0.75222676  1
  Te  Te58  1  -0.00300572  0.50332161  0.25242541  1
  Te  Te59  1  0.00007231  0.49945233  0.74867124  1
  Te  Te60  1  0.49737474  -0.00432933  0.24553532  1
  Te  Te61  1  0.49953682  -0.00195037  0.75594263  1
  Te  Te62  1  0.50627048  0.50697270  0.24932600  1
  Te  Te63  1  0.50274912  0.50183835  0.75038191  1
