# generated using pymatgen
data_AgSbTe2
_symmetry_space_group_name_H-M   'P 1'
_cell_length_a   12.23254711
_cell_length_b   12.21967104
_cell_length_c   12.22746465
_cell_angle_alpha   90.00052459
_cell_angle_beta   90.00033181
_cell_angle_gamma   89.99319761
_symmetry_Int_Tables_number   1
_chemical_formula_structural   AgSbTe2
_chemical_formula_sum   'Ag16 Sb16 Te32'
_cell_volume   1827.73329969
_cell_formula_units_Z   16
loop_
 _symmetry_equiv_pos_site_id
 _symmetry_equiv_pos_as_xyz
  1  'x, y, z'
loop_
 _atom_site_type_symbol
 _atom_site_label
 _atom_site_symmetry_multiplicity
 _atom_site_fract_x
 _atom_site_fract_y
 _atom_site_fract_z
 _atom_site_occupancy
  Ag  Ag0  1  0.49968588  0.74658602  0.75244148  1
  Ag  Ag1  1  0.25070187  0.74742967  -0.00552685  1
  Ag  Ag2  1  0.74520941  0.50911619  0.75257591  1
  Ag  Ag3  1  0.25072037  -0.00714930  0.24933018  1
  Ag  Ag4  1  0.25474242  0.50914023  0.75095702  1
  Ag  Ag5  1  0.49604804  0.50425559  0.50793192  1
  Ag  Ag6  1  0.74708619  -0.00940754  0.75328019  1
  Ag  Ag7  1  0.25151908  0.50774103  0.24848132  1
  Ag  Ag8  1  0.25098707  0.74798439  0.50483452  1
  Ag  Ag9  1  0.50016311  0.25269678  0.75079385  1
  Ag  Ag10  1  0.00301622  0.50769944  -0.00528713  1
  Ag  Ag11  1  0.74866595  0.75277968  -0.00877256  1
  Ag  Ag12  1  0.00103394  -0.00609829  0.50178769  1
  Ag  Ag13  1  0.00054462  0.74793719  0.75274567  1
  Ag  Ag14  1  0.74907282  -0.00514222  0.24731781  1
  Ag  Ag15  1  0.50148302  -0.00594453  -0.00398776  1
  Sb  Sb16  1  0.00224172  0.75050577  0.24805583  1
  Sb  Sb17  1  0.49883660  0.24998681  0.24918708  1
  Sb  Sb18  1  0.49888417  -0.00397924  0.50339624  1
  Sb  Sb19  1  0.74872201  0.50641450  0.24680623  1
  Sb  Sb20  1  0.74901382  0.75086702  0.50905530  1
  Sb  Sb21  1  0.74773009  0.24706081  -0.00298728  1
  Sb  Sb22  1  0.74819944  0.24930534  0.50242276  1
  Sb  Sb23  1  0.00372389  0.50583314  0.50439464  1
  Sb  Sb24  1  0.00109522  0.24918082  0.24972086  1
  Sb  Sb25  1  0.49770481  0.75040426  0.24727404  1
  Sb  Sb26  1  0.25204252  0.25090689  0.50218286  1
  Sb  Sb27  1  0.00095962  0.25070773  0.75009900  1
  Sb  Sb28  1  -0.00066597  -0.00641383  -0.00185597  1
  Sb  Sb29  1  0.49770860  0.50611283  -0.00816533  1
  Sb  Sb30  1  0.25167200  -0.00921256  0.75109913  1
  Sb  Sb31  1  0.25222264  0.25147305  -0.00219511  1
  Te  Te32  1  0.25055002  0.24899529  0.24987758  1
  Te  Te33  1  0.25526834  0.25939930  0.75019150  1
  Te  Te34  1  0.25020113  0.74986736  0.24864667  1
  Te  Te35  1  0.25010376  0.74887177  0.75214856  1
  Te  Te36  1  0.74946256  0.23986885  0.24992070  1
  Te  Te37  1  0.74460050  0.25082839  0.75029238  1
  Te  Te38  1  0.74998275  0.75514369  0.24173052  1
  Te  Te39  1  0.74962062  0.74970495  0.75146492  1
  Te  Te40  1  0.25011088  -0.00471774  0.00324985  1
  Te  Te41  1  0.24891588  -0.00467416  0.49635319  1
  Te  Te42  1  0.25074171  0.50425586  -0.00000578  1
  Te  Te43  1  0.25026055  0.50413770  0.50043955  1
  Te  Te44  1  0.75029136  -0.00364160  -0.00237329  1
  Te  Te45  1  0.75167312  -0.00141315  0.49971049  1
  Te  Te46  1  0.75091325  0.50519682  -0.00097895  1
  Te  Te47  1  0.74754500  0.50086380  0.50175328  1
  Te  Te48  1  -0.00002099  0.26180214  -0.00047893  1
  Te  Te49  1  -0.00018049  0.23844759  0.50013538  1
  Te  Te50  1  0.00196266  0.74652955  -0.00459405  1
  Te  Te51  1  0.00492203  0.75449155  0.50623336  1
  Te  Te52  1  0.49982114  0.23966049  -0.00653005  1
  Te  Te53  1  0.49968293  0.25705213  0.50753936  1
  Te  Te54  1  0.49886392  0.75378936  -0.00359213  1
  Te  Te55  1  0.49533732  0.74595839  0.50577542  1
  Te  Te56  1  0.00125058  0.00010989  0.25255430  1
  Te  Te57  1  -0.00320150  -0.00125669  0.74830183  1
  Te  Te58  1  0.00425853  0.49936754  0.24767626  1
  Te  Te59  1  -0.00046958  0.50180188  0.75076372  1
  Te  Te60  1  0.49916181  0.00069964  0.24775948  1
  Te  Te61  1  0.50201653  -0.00301043  0.75148340  1
  Te  Te62  1  0.49522543  0.49880667  0.25666429  1
  Te  Te63  1  0.50035703  0.50428552  0.75049360  1
