# generated using pymatgen
data_AgSbTe2
_symmetry_space_group_name_H-M   'P 1'
_cell_length_a   12.20753763
_cell_length_b   12.21323914
_cell_length_c   12.21840453
_cell_angle_alpha   89.99980308
_cell_angle_beta   90.00123541
_cell_angle_gamma   90.00367169
_symmetry_Int_Tables_number   1
_chemical_formula_structural   AgSbTe2
_chemical_formula_sum   'Ag16 Sb16 Te32'
_cell_volume   1821.68562552
_cell_formula_units_Z   16
loop_
 _symmetry_equiv_pos_site_id
 _symmetry_equiv_pos_as_xyz
  1  'x, y, z'
loop_
 _atom_site_type_symbol
 _atom_site_label
 _atom_site_symmetry_multiplicity
 _atom_site_fract_x
 _atom_site_fract_y
 _atom_site_fract_z
 _atom_site_occupancy
  Ag  Ag0  1  0.75314998  0.49929209  0.75216766  1
  Ag  Ag1  1  0.00192508  0.49712810  0.50047710  1
  Ag  Ag2  1  0.24114830  0.25225659  0.00019657  1
  Ag  Ag3  1  -0.00423611  0.00955666  0.00126814  1
  Ag  Ag4  1  0.50081113  -0.00319781  0.49997897  1
  Ag  Ag5  1  0.50042016  0.74993326  0.74567040  1
  Ag  Ag6  1  0.74924042  0.00092252  0.75236707  1
  Ag  Ag7  1  0.25354676  0.74751176  0.50127972  1
  Ag  Ag8  1  0.24763803  0.49916927  0.74765400  1
  Ag  Ag9  1  0.75905025  0.25058687  0.00234305  1
  Ag  Ag10  1  -0.00282642  0.25250129  0.24408189  1
  Ag  Ag11  1  0.75381332  0.49713818  0.24786433  1
  Ag  Ag12  1  -0.00277471  0.49108964  0.00049412  1
  Ag  Ag13  1  0.24713474  0.25340557  0.50037480  1
  Ag  Ag14  1  0.50145876  0.75081833  0.25430794  1
  Ag  Ag15  1  0.75058493  0.00261920  0.24764953  1
  Sb  Sb16  1  0.75060934  0.74879003  -0.00034624  1
  Sb  Sb17  1  0.50296959  0.24962445  0.25216408  1
  Sb  Sb18  1  -0.00196674  0.74810028  0.25202759  1
  Sb  Sb19  1  0.50326903  0.49873411  -0.00031540  1
  Sb  Sb20  1  -0.00019221  0.00340194  0.49953452  1
  Sb  Sb21  1  -0.00015553  0.25206367  0.75676579  1
  Sb  Sb22  1  0.50111235  0.24978167  0.74808775  1
  Sb  Sb23  1  0.50461692  0.00098860  -0.00003842  1
  Sb  Sb24  1  0.25061704  0.00033473  0.75062860  1
  Sb  Sb25  1  -0.00035179  0.74718741  0.74824728  1
  Sb  Sb26  1  0.75414180  0.25184677  0.49821941  1
  Sb  Sb27  1  0.49736557  0.50251139  0.50038415  1
  Sb  Sb28  1  0.24600733  0.49850562  0.25119756  1
  Sb  Sb29  1  0.24931466  0.74728234  -0.00152854  1
  Sb  Sb30  1  0.24972250  0.00069275  0.24966183  1
  Sb  Sb31  1  0.74563910  0.74960087  0.50035220  1
  Te  Te32  1  0.24636901  0.25062727  0.24886556  1
  Te  Te33  1  0.25088861  0.25489533  0.74957475  1
  Te  Te34  1  0.25716505  0.74977224  0.25457244  1
  Te  Te35  1  0.25523426  0.74613455  0.74708141  1
  Te  Te36  1  0.75259832  0.25068104  0.24781669  1
  Te  Te37  1  0.74873738  0.25194994  0.75403076  1
  Te  Te38  1  0.74578624  0.75025473  0.25074078  1
  Te  Te39  1  0.74404899  0.74804978  0.74908665  1
  Te  Te40  1  0.24297378  0.00639101  -0.00147207  1
  Te  Te41  1  0.25198937  0.00072933  0.50101937  1
  Te  Te42  1  0.24501274  0.49577637  -0.00318715  1
  Te  Te43  1  0.24739088  0.49817125  0.50215132  1
  Te  Te44  1  0.75320466  0.00307799  0.00006898  1
  Te  Te45  1  0.74749234  0.00052754  0.50075231  1
  Te  Te46  1  0.75334636  0.49700201  -0.00161692  1
  Te  Te47  1  0.75514507  0.49923950  0.50231835  1
  Te  Te48  1  -0.00035997  0.25129546  0.00232628  1
  Te  Te49  1  0.00506107  0.25313068  0.49317001  1
  Te  Te50  1  0.00213142  0.74917077  0.00082416  1
  Te  Te51  1  0.00940929  0.74475382  0.49896862  1
  Te  Te52  1  0.49734141  0.24953538  0.00037696  1
  Te  Te53  1  0.49124546  0.24339747  0.49920088  1
  Te  Te54  1  0.49791833  0.75047465  0.00054878  1
  Te  Te55  1  0.49643753  0.75281136  0.50015836  1
  Te  Te56  1  -0.00598770  0.00235098  0.24774707  1
  Te  Te57  1  -0.00784195  -0.00215568  0.75320789  1
  Te  Te58  1  -0.00430290  0.49830576  0.24860202  1
  Te  Te59  1  -0.00242108  0.50133128  0.74979481  1
  Te  Te60  1  0.50558058  -0.00328048  0.25260767  1
  Te  Te61  1  0.50469555  -0.00480541  0.74732599  1
  Te  Te62  1  0.50894880  0.50500684  0.25094466  1
  Te  Te63  1  0.50195753  0.50521908  0.74917518  1
