# generated using pymatgen
data_AgSbTe2
_symmetry_space_group_name_H-M   'P 1'
_cell_length_a   12.30074526
_cell_length_b   12.27824658
_cell_length_c   12.29244039
_cell_angle_alpha   90.00304757
_cell_angle_beta   90.00513123
_cell_angle_gamma   90.00210612
_symmetry_Int_Tables_number   1
_chemical_formula_structural   AgSbTe2
_chemical_formula_sum   'Ag16 Sb16 Te32'
_cell_volume   1856.54672467
_cell_formula_units_Z   16
loop_
 _symmetry_equiv_pos_site_id
 _symmetry_equiv_pos_as_xyz
  1  'x, y, z'
loop_
 _atom_site_type_symbol
 _atom_site_label
 _atom_site_symmetry_multiplicity
 _atom_site_fract_x
 _atom_site_fract_y
 _atom_site_fract_z
 _atom_site_occupancy
  Ag  Ag0  1  0.49449735  0.00483321  -0.00214248  1
  Ag  Ag1  1  0.25523480  0.23865556  -0.00869663  1
  Ag  Ag2  1  0.49371209  0.76018231  0.25573036  1
  Ag  Ag3  1  0.74980434  0.75957851  0.50628044  1
  Ag  Ag4  1  0.25144078  0.76146755  0.49998051  1
  Ag  Ag5  1  -0.00400556  0.24534037  0.74462149  1
  Ag  Ag6  1  0.74524818  0.00931306  0.74363249  1
  Ag  Ag7  1  0.74832545  0.23977770  0.51269668  1
  Ag  Ag8  1  0.00135810  0.75409689  0.74205871  1
  Ag  Ag9  1  0.74456748  0.24093737  -0.01687019  1
  Ag  Ag10  1  0.25411951  0.76323201  0.00065795  1
  Ag  Ag11  1  0.00051880  0.49900298  0.50499189  1
  Ag  Ag12  1  0.25801665  -0.00293692  0.25305239  1
  Ag  Ag13  1  0.50592139  0.24072886  0.74755915  1
  Ag  Ag14  1  0.49801281  0.00180193  0.50186528  1
  Ag  Ag15  1  0.25170269  0.23942990  0.50914408  1
  Sb  Sb16  1  0.00307127  0.00050924  0.50357272  1
  Sb  Sb17  1  0.00233507  0.75167712  0.25650811  1
  Sb  Sb18  1  0.74444540  -0.00086920  0.25438951  1
  Sb  Sb19  1  0.00688622  0.00105261  -0.00457870  1
  Sb  Sb20  1  0.00144924  0.24824699  0.25646865  1
  Sb  Sb21  1  0.49913911  0.75703395  0.74771352  1
  Sb  Sb22  1  0.00016530  0.49804210  -0.00471394  1
  Sb  Sb23  1  0.49809830  0.24482034  0.25117883  1
  Sb  Sb24  1  0.49956510  0.49633087  -0.00024633  1
  Sb  Sb25  1  0.75022404  0.49284654  0.74899882  1
  Sb  Sb26  1  0.49988681  0.49887517  0.50003845  1
  Sb  Sb27  1  0.74903822  0.50025842  0.25258531  1
  Sb  Sb28  1  0.74820553  0.76182240  -0.00822179  1
  Sb  Sb29  1  0.25060271  0.50148901  0.25155450  1
  Sb  Sb30  1  0.25037934  0.49855533  0.74932689  1
  Sb  Sb31  1  0.25555302  0.00217921  0.74874995  1
  Te  Te32  1  0.24950363  0.24563881  0.25032489  1
  Te  Te33  1  0.24519868  0.25030239  0.74765399  1
  Te  Te34  1  0.24999834  0.75297708  0.25290416  1
  Te  Te35  1  0.24874649  0.75016149  0.74643998  1
  Te  Te36  1  0.75060340  0.24938569  0.25443499  1
  Te  Te37  1  0.75273508  0.24803040  0.74682866  1
  Te  Te38  1  0.74934697  0.75052538  0.25689075  1
  Te  Te39  1  0.75005744  0.75363778  0.74665541  1
  Te  Te40  1  0.25478256  0.00038110  -0.00418199  1
  Te  Te41  1  0.25354704  0.00076386  0.50286373  1
  Te  Te42  1  0.25016385  0.49736649  0.00044419  1
  Te  Te43  1  0.24790391  0.49813372  0.49977426  1
  Te  Te44  1  0.74228871  0.00322360  0.00269958  1
  Te  Te45  1  0.74507394  0.00144775  0.49883121  1
  Te  Te46  1  0.75049635  0.48461999  0.00157212  1
  Te  Te47  1  0.75241463  0.49996027  0.50015420  1
  Te  Te48  1  0.00448138  0.25110570  -0.00778201  1
  Te  Te49  1  0.00230146  0.24637377  0.50339201  1
  Te  Te50  1  0.00379202  0.74844721  -0.00681220  1
  Te  Te51  1  0.00254723  0.75447148  0.50398597  1
  Te  Te52  1  0.49518445  0.24788177  0.00400670  1
  Te  Te53  1  0.49758481  0.24937600  0.49718035  1
  Te  Te54  1  0.49620699  0.75138334  -0.00686173  1
  Te  Te55  1  0.49586791  0.74931476  0.50520450  1
  Te  Te56  1  0.01554920  0.00118830  0.24613790  1
  Te  Te57  1  -0.01413620  0.00104931  0.75154213  1
  Te  Te58  1  -0.00102286  0.49963984  0.26363511  1
  Te  Te59  1  -0.00010768  0.50177242  0.74454085  1
  Te  Te60  1  0.49543941  -0.00408223  0.25290898  1
  Te  Te61  1  0.50529444  0.00675512  0.74699711  1
  Te  Te62  1  0.50079838  0.52205190  0.24889128  1
  Te  Te63  1  0.49983851  0.47840408  0.75085632  1
