# generated using pymatgen
data_AgSbTe2
_symmetry_space_group_name_H-M   'P 1'
_cell_length_a   12.22048463
_cell_length_b   12.21970065
_cell_length_c   12.21929626
_cell_angle_alpha   89.99318933
_cell_angle_beta   89.99485089
_cell_angle_gamma   90.00009214
_symmetry_Int_Tables_number   1
_chemical_formula_structural   AgSbTe2
_chemical_formula_sum   'Ag16 Sb16 Te32'
_cell_volume   1824.71560446
_cell_formula_units_Z   16
loop_
 _symmetry_equiv_pos_site_id
 _symmetry_equiv_pos_as_xyz
  1  'x, y, z'
loop_
 _atom_site_type_symbol
 _atom_site_label
 _atom_site_symmetry_multiplicity
 _atom_site_fract_x
 _atom_site_fract_y
 _atom_site_fract_z
 _atom_site_occupancy
  Ag  Ag0  1  -0.00797555  0.75194861  0.74591023  1
  Ag  Ag1  1  0.74821271  0.50698486  0.74476836  1
  Ag  Ag2  1  0.24918499  -0.00360356  0.74435766  1
  Ag  Ag3  1  0.50535605  0.50282506  -0.00206910  1
  Ag  Ag4  1  -0.00571459  0.50210643  0.00106672  1
  Ag  Ag5  1  0.50834141  0.50379451  0.50262684  1
  Ag  Ag6  1  -0.00448612  -0.00327462  0.50095233  1
  Ag  Ag7  1  0.75260091  0.50193416  0.25455703  1
  Ag  Ag8  1  0.75126177  0.25036359  0.49984414  1
  Ag  Ag9  1  -0.00311182  0.24991362  0.25299534  1
  Ag  Ag10  1  0.24658823  -0.00113483  0.25570940  1
  Ag  Ag11  1  0.75086065  -0.00819109  0.74205211  1
  Ag  Ag12  1  0.75045505  0.74990406  0.50592706  1
  Ag  Ag13  1  0.50516635  -0.00334788  0.50386509  1
  Ag  Ag14  1  0.50792636  0.74949614  0.74478900  1
  Ag  Ag15  1  -0.00382122  0.75006226  0.25404382  1
  Sb  Sb16  1  0.24966000  0.74987788  -0.00007387  1
  Sb  Sb17  1  -0.00129341  -0.00277868  -0.00055488  1
  Sb  Sb18  1  0.50255868  0.25082998  0.74737951  1
  Sb  Sb19  1  0.50409057  0.25002718  0.25332814  1
  Sb  Sb20  1  0.25041475  0.50464753  0.74807069  1
  Sb  Sb21  1  0.24642264  0.50165233  0.25206464  1
  Sb  Sb22  1  -0.01040704  0.50465615  0.49944548  1
  Sb  Sb23  1  0.24777749  0.75315015  0.50027851  1
  Sb  Sb24  1  0.75202724  0.25364442  0.00125119  1
  Sb  Sb25  1  0.75028658  0.74623217  -0.00705823  1
  Sb  Sb26  1  0.24840336  0.25011506  0.00116825  1
  Sb  Sb27  1  0.50143312  -0.00421775  -0.00395117  1
  Sb  Sb28  1  0.50540732  0.74946643  0.25653966  1
  Sb  Sb29  1  0.24655030  0.24675165  0.49841838  1
  Sb  Sb30  1  0.75448311  -0.00296151  0.26058625  1
  Sb  Sb31  1  -0.00343892  0.24863084  0.74647511  1
  Te  Te32  1  0.24172963  0.24414628  0.25041177  1
  Te  Te33  1  0.24899515  0.23876099  0.74998967  1
  Te  Te34  1  0.24134797  0.75521562  0.25029456  1
  Te  Te35  1  0.24827276  0.75580919  0.74963274  1
  Te  Te36  1  0.75436219  0.25427315  0.25545906  1
  Te  Te37  1  0.75106379  0.25227422  0.74301447  1
  Te  Te38  1  0.75468573  0.74680939  0.25613568  1
  Te  Te39  1  0.75091047  0.74846291  0.74737957  1
  Te  Te40  1  0.25115249  0.00044281  -0.00095338  1
  Te  Te41  1  0.25018150  0.00041345  0.50096708  1
  Te  Te42  1  0.25121539  0.49948062  -0.00001842  1
  Te  Te43  1  0.26439505  0.49780033  0.50010170  1
  Te  Te44  1  0.74819715  0.00262025  -0.01157016  1
  Te  Te45  1  0.74982113  -0.00166976  0.50161112  1
  Te  Te46  1  0.75019872  0.49910650  -0.00031824  1
  Te  Te47  1  0.74891776  0.50150978  0.50149889  1
  Te  Te48  1  -0.00059578  0.25754972  0.00778330  1
  Te  Te49  1  -0.00456078  0.24434003  0.49594716  1
  Te  Te50  1  -0.00034630  0.74516742  -0.00038166  1
  Te  Te51  1  -0.00277613  0.75288282  0.50148082  1
  Te  Te52  1  0.49996640  0.26041900  0.00132905  1
  Te  Te53  1  0.50720006  0.24825734  0.49910213  1
  Te  Te54  1  0.50021887  0.74368092  -0.00700872  1
  Te  Te55  1  0.50388531  0.75166076  0.50274862  1
  Te  Te56  1  0.00072897  -0.00231675  0.24994604  1
  Te  Te57  1  -0.00172849  -0.00209617  0.74973925  1
  Te  Te58  1  -0.00153143  0.50243014  0.24962318  1
  Te  Te59  1  -0.00051958  0.50308674  0.75161681  1
  Te  Te60  1  0.49449626  -0.00111699  0.25312969  1
  Te  Te61  1  0.50144922  -0.00265256  0.74793206  1
  Te  Te62  1  0.50289932  0.50146418  0.25035942  1
  Te  Te63  1  0.50054623  0.50228254  0.74825305  1
