# generated using pymatgen
data_AgSbTe2
_symmetry_space_group_name_H-M   'P 1'
_cell_length_a   12.29198226
_cell_length_b   12.31232029
_cell_length_c   12.28045072
_cell_angle_alpha   89.99807447
_cell_angle_beta   90.01317014
_cell_angle_gamma   90.00866973
_symmetry_Int_Tables_number   1
_chemical_formula_structural   AgSbTe2
_chemical_formula_sum   'Ag16 Sb16 Te32'
_cell_volume   1858.55800433
_cell_formula_units_Z   16
loop_
 _symmetry_equiv_pos_site_id
 _symmetry_equiv_pos_as_xyz
  1  'x, y, z'
loop_
 _atom_site_type_symbol
 _atom_site_label
 _atom_site_symmetry_multiplicity
 _atom_site_fract_x
 _atom_site_fract_y
 _atom_site_fract_z
 _atom_site_occupancy
  Ag  Ag0  1  0.76992650  -0.00018504  0.24747913  1
  Ag  Ag1  1  0.76258854  0.50132410  0.24955435  1
  Ag  Ag2  1  0.23635969  0.75652645  0.48888192  1
  Ag  Ag3  1  0.76768945  0.75263493  0.48859344  1
  Ag  Ag4  1  -0.00186985  0.22967473  0.24968991  1
  Ag  Ag5  1  -0.00074247  0.50916332  0.48282218  1
  Ag  Ag6  1  0.23908343  0.75858026  0.01407090  1
  Ag  Ag7  1  0.23011314  -0.00389063  0.25122416  1
  Ag  Ag8  1  -0.00267063  0.50093561  0.01786743  1
  Ag  Ag9  1  0.50038331  0.00216241  0.00575572  1
  Ag  Ag10  1  0.00134460  0.76901949  0.25774368  1
  Ag  Ag11  1  0.00455647  -0.00904982  0.48048032  1
  Ag  Ag12  1  0.23995449  0.24258820  0.49294018  1
  Ag  Ag13  1  0.00043054  -0.00121680  0.01987301  1
  Ag  Ag14  1  0.75781029  0.24449448  0.00793232  1
  Ag  Ag15  1  0.50039583  0.24544811  0.75285962  1
  Sb  Sb16  1  0.76126668  0.75282535  0.01022616  1
  Sb  Sb17  1  0.23789501  0.50482302  0.24979328  1
  Sb  Sb18  1  0.24509110  0.24433637  0.00702608  1
  Sb  Sb19  1  0.50096685  0.50015050  0.00342937  1
  Sb  Sb20  1  0.49982842  0.24814575  0.25095304  1
  Sb  Sb21  1  0.50097503  0.49862787  0.49675484  1
  Sb  Sb22  1  -0.00030166  0.75031201  0.74496847  1
  Sb  Sb23  1  0.75740964  0.24869867  0.49396884  1
  Sb  Sb24  1  0.24860924  0.49975979  0.74961552  1
  Sb  Sb25  1  0.49966407  0.00028363  0.49350420  1
  Sb  Sb26  1  0.75270358  0.49924683  0.74981630  1
  Sb  Sb27  1  0.50014322  0.75427928  0.75309488  1
  Sb  Sb28  1  0.24913615  0.00016896  0.74784802  1
  Sb  Sb29  1  0.00007802  0.24976290  0.75016488  1
  Sb  Sb30  1  0.75165568  0.00063247  0.75231740  1
  Sb  Sb31  1  0.49688021  0.75063746  0.24918748  1
  Te  Te32  1  0.24656340  0.24582058  0.25378656  1
  Te  Te33  1  0.25172368  0.25042144  0.74050941  1
  Te  Te34  1  0.24844693  0.75148309  0.25103354  1
  Te  Te35  1  0.25027077  0.74892190  0.74415214  1
  Te  Te36  1  0.75411325  0.24383347  0.24621059  1
  Te  Te37  1  0.74782046  0.24935945  0.75969555  1
  Te  Te38  1  0.75272856  0.75479883  0.25358618  1
  Te  Te39  1  0.74816086  0.74969000  0.73007094  1
  Te  Te40  1  0.24223589  -0.00106385  0.00199628  1
  Te  Te41  1  0.25051092  -0.00320982  0.49877450  1
  Te  Te42  1  0.24467467  0.50694363  0.00204340  1
  Te  Te43  1  0.24514941  0.50508256  0.49779857  1
  Te  Te44  1  0.75648418  -0.00206775  0.00263647  1
  Te  Te45  1  0.74862541  0.00143876  0.49510057  1
  Te  Te46  1  0.75310690  0.50299710  0.00137896  1
  Te  Te47  1  0.75415251  0.49762187  0.49737248  1
  Te  Te48  1  0.00006214  0.24865757  0.00140534  1
  Te  Te49  1  0.00265699  0.24818643  0.49964812  1
  Te  Te50  1  0.00207288  0.75214149  0.00064745  1
  Te  Te51  1  0.00195290  0.75180264  0.49890351  1
  Te  Te52  1  0.49802913  0.24853964  0.00110131  1
  Te  Te53  1  0.49137070  0.25028620  0.50111059  1
  Te  Te54  1  0.48885893  0.75388450  -0.00119120  1
  Te  Te55  1  0.49131077  0.74933426  0.50132180  1
  Te  Te56  1  0.00098405  0.00065834  0.25151822  1
  Te  Te57  1  -0.00122368  -0.00092447  0.75175239  1
  Te  Te58  1  -0.00297479  0.50013452  0.24971006  1
  Te  Te59  1  -0.00031030  0.50103330  0.75219331  1
  Te  Te60  1  0.50155006  -0.00072864  0.24374091  1
  Te  Te61  1  0.50049798  0.00444933  0.76167566  1
  Te  Te62  1  0.52304953  0.50008848  0.25015687  1
  Te  Te63  1  0.49999035  0.48948447  0.74972248  1
