# generated using pymatgen
data_AgSbTe2
_symmetry_space_group_name_H-M   'P 1'
_cell_length_a   12.21666319
_cell_length_b   12.23544636
_cell_length_c   12.23961458
_cell_angle_alpha   89.99862708
_cell_angle_beta   90.00170593
_cell_angle_gamma   90.01386936
_symmetry_Int_Tables_number   1
_chemical_formula_structural   AgSbTe2
_chemical_formula_sum   'Ag16 Sb16 Te32'
_cell_volume   1829.53257902
_cell_formula_units_Z   16
loop_
 _symmetry_equiv_pos_site_id
 _symmetry_equiv_pos_as_xyz
  1  'x, y, z'
loop_
 _atom_site_type_symbol
 _atom_site_label
 _atom_site_symmetry_multiplicity
 _atom_site_fract_x
 _atom_site_fract_y
 _atom_site_fract_z
 _atom_site_occupancy
  Ag  Ag0  1  0.50442268  0.75217389  0.25731600  1
  Ag  Ag1  1  0.75044093  0.75618151  -0.00119206  1
  Ag  Ag2  1  0.50550837  -0.00303599  0.50319769  1
  Ag  Ag3  1  0.74779385  0.00663128  0.75235131  1
  Ag  Ag4  1  -0.00402213  0.49628266  0.50087220  1
  Ag  Ag5  1  -0.00881775  0.00655268  -0.00077125  1
  Ag  Ag6  1  0.50507441  0.75244041  0.74281773  1
  Ag  Ag7  1  -0.01133471  0.24915904  0.75303835  1
  Ag  Ag8  1  0.74984486  0.00201244  0.24697622  1
  Ag  Ag9  1  -0.00588334  0.49290930  -0.00088861  1
  Ag  Ag10  1  0.51156280  0.24654183  0.74579521  1
  Ag  Ag11  1  0.75022543  0.24776202  0.50665827  1
  Ag  Ag12  1  0.50282867  0.50362465  0.50206540  1
  Ag  Ag13  1  0.25583569  0.74957619  0.50051223  1
  Ag  Ag14  1  0.75684346  0.24398637  -0.00593784  1
  Ag  Ag15  1  -0.00730492  0.24937538  0.24750640  1
  Sb  Sb16  1  -0.00655333  0.75098184  0.74959931  1
  Sb  Sb17  1  -0.00556852  0.00375077  0.50029112  1
  Sb  Sb18  1  0.25028716  0.75078104  -0.00105889  1
  Sb  Sb19  1  0.25019765  0.25004934  0.50096144  1
  Sb  Sb20  1  0.24341472  0.24946461  -0.00162832  1
  Sb  Sb21  1  0.50497554  0.49915034  -0.00176966  1
  Sb  Sb22  1  0.24952544  0.50100471  0.25200242  1
  Sb  Sb23  1  0.75085451  0.49852506  0.25079485  1
  Sb  Sb24  1  0.74560541  0.75181504  0.50173939  1
  Sb  Sb25  1  0.25133269  -0.00122771  0.25204411  1
  Sb  Sb26  1  0.50871474  -0.00004130  -0.00287010  1
  Sb  Sb27  1  0.50745015  0.24830200  0.25340518  1
  Sb  Sb28  1  0.25249315  -0.00073879  0.74859496  1
  Sb  Sb29  1  -0.00468576  0.75079770  0.25070237  1
  Sb  Sb30  1  0.75002747  0.49333779  0.74865530  1
  Sb  Sb31  1  0.24984751  0.50082192  0.74832388  1
  Te  Te32  1  0.23909364  0.24964436  0.24901768  1
  Te  Te33  1  0.25170964  0.24980335  0.75082289  1
  Te  Te34  1  0.25845916  0.75085810  0.25395543  1
  Te  Te35  1  0.25939067  0.75072312  0.74621590  1
  Te  Te36  1  0.75329037  0.24601256  0.24974364  1
  Te  Te37  1  0.75006457  0.24731408  0.74916378  1
  Te  Te38  1  0.74632294  0.75582059  0.24698711  1
  Te  Te39  1  0.74586313  0.75780924  0.75291699  1
  Te  Te40  1  0.23633526  -0.00067868  0.00045920  1
  Te  Te41  1  0.25832845  -0.00552871  0.49975669  1
  Te  Te42  1  0.23851594  0.50049793  0.00064086  1
  Te  Te43  1  0.25058903  0.50432065  0.49996267  1
  Te  Te44  1  0.75138221  0.00165581  -0.00046642  1
  Te  Te45  1  0.74681871  0.00244092  0.50083365  1
  Te  Te46  1  0.75493405  0.49984742  0.00091276  1
  Te  Te47  1  0.75131256  0.49513927  0.49948902  1
  Te  Te48  1  -0.00186870  0.25024356  -0.00289521  1
  Te  Te49  1  -0.00071400  0.25138095  0.50232991  1
  Te  Te50  1  -0.00318697  0.74881733  -0.00030251  1
  Te  Te51  1  0.00424245  0.74340439  0.50030252  1
  Te  Te52  1  0.50401288  0.25195602  -0.00371056  1
  Te  Te53  1  0.50126575  0.25093562  0.50104084  1
  Te  Te54  1  0.50342594  0.74839279  -0.00129846  1
  Te  Te55  1  0.50234448  0.74835981  0.50138662  1
  Te  Te56  1  -0.00485364  0.00202407  0.24978772  1
  Te  Te57  1  -0.00407114  0.00227080  0.75078341  1
  Te  Te58  1  0.00012323  0.49738820  0.25226906  1
  Te  Te59  1  -0.00005678  0.49678335  0.74776514  1
  Te  Te60  1  0.50355723  -0.00155677  0.25218228  1
  Te  Te61  1  0.50285190  0.00218660  0.74864982  1
  Te  Te62  1  0.49955929  0.50330787  0.25511635  1
  Te  Te63  1  0.50002094  0.49947737  0.74607666  1
