# generated using pymatgen
data_AgSbTe2
_symmetry_space_group_name_H-M   'P 1'
_cell_length_a   12.21330621
_cell_length_b   12.21756431
_cell_length_c   12.20626914
_cell_angle_alpha   90.00653200
_cell_angle_beta   90.00384932
_cell_angle_gamma   89.99542213
_symmetry_Int_Tables_number   1
_chemical_formula_structural   AgSbTe2
_chemical_formula_sum   'Ag16 Sb16 Te32'
_cell_volume   1821.38106027
_cell_formula_units_Z   16
loop_
 _symmetry_equiv_pos_site_id
 _symmetry_equiv_pos_as_xyz
  1  'x, y, z'
loop_
 _atom_site_type_symbol
 _atom_site_label
 _atom_site_symmetry_multiplicity
 _atom_site_fract_x
 _atom_site_fract_y
 _atom_site_fract_z
 _atom_site_occupancy
  Ag  Ag0  1  -0.00475023  0.00054738  0.50047851  1
  Ag  Ag1  1  0.24764717  0.49892533  0.24939532  1
  Ag  Ag2  1  0.25275693  0.00240685  0.74933110  1
  Ag  Ag3  1  -0.00443108  0.74675504  0.25226837  1
  Ag  Ag4  1  0.75171113  0.74989426  0.49869579  1
  Ag  Ag5  1  -0.00098844  0.49938831  -0.00034553  1
  Ag  Ag6  1  0.50128062  0.00181663  -0.00339913  1
  Ag  Ag7  1  0.50466571  0.25099132  0.25055460  1
  Ag  Ag8  1  0.74998612  0.00123631  0.25436340  1
  Ag  Ag9  1  -0.00195135  0.25327737  0.74766585  1
  Ag  Ag10  1  0.75042028  0.49691515  0.74737575  1
  Ag  Ag11  1  0.50152302  0.74983196  0.74942582  1
  Ag  Ag12  1  0.50154006  0.24998265  0.74956351  1
  Ag  Ag13  1  0.75205584  0.49915446  0.25287319  1
  Ag  Ag14  1  0.75034279  0.25026917  0.50069390  1
  Ag  Ag15  1  0.24944087  0.49690623  0.75060287  1
  Sb  Sb16  1  -0.00508511  0.25365646  0.25304608  1
  Sb  Sb17  1  0.50433843  0.00174685  0.50245737  1
  Sb  Sb18  1  0.50457017  0.74920534  0.25094138  1
  Sb  Sb19  1  0.74990010  0.74911659  0.00003989  1
  Sb  Sb20  1  0.74931157  0.25061559  -0.00113452  1
  Sb  Sb21  1  0.25038895  0.00147542  0.25077666  1
  Sb  Sb22  1  0.74819529  0.00296908  0.74597697  1
  Sb  Sb23  1  -0.00229590  0.74666998  0.74757326  1
  Sb  Sb24  1  0.50373400  0.49865673  0.50266638  1
  Sb  Sb25  1  -0.00110056  0.00094960  -0.00141844  1
  Sb  Sb26  1  0.25021642  0.25100384  -0.00249959  1
  Sb  Sb27  1  0.25017751  0.74900651  -0.00108863  1
  Sb  Sb28  1  0.50069069  0.49860007  -0.00313245  1
  Sb  Sb29  1  -0.00405519  0.49939594  0.50059306  1
  Sb  Sb30  1  0.24870063  0.75025255  0.50101430  1
  Sb  Sb31  1  0.24887289  0.24986935  0.50298625  1
  Te  Te32  1  0.25642612  0.25584059  0.25299780  1
  Te  Te33  1  0.25263301  0.25319454  0.74740315  1
  Te  Te34  1  0.24668294  0.74352699  0.25228358  1
  Te  Te35  1  0.25458151  0.74740108  0.74807901  1
  Te  Te36  1  0.74801028  0.25220577  0.25479532  1
  Te  Te37  1  0.74819799  0.25219391  0.74555649  1
  Te  Te38  1  0.75051929  0.74722147  0.25492536  1
  Te  Te39  1  0.74724998  0.74624476  0.74465474  1
  Te  Te40  1  0.25435872  -0.00078764  -0.00602486  1
  Te  Te41  1  0.24158910  -0.00046649  0.50520551  1
  Te  Te42  1  0.24470909  0.50044325  -0.00154085  1
  Te  Te43  1  0.24889476  0.50046475  0.50153464  1
  Te  Te44  1  0.74615192  -0.00064020  0.00841340  1
  Te  Te45  1  0.75385879  0.00042852  0.49636564  1
  Te  Te46  1  0.75480903  0.50061405  0.00034248  1
  Te  Te47  1  0.75093721  0.49950452  0.49939864  1
  Te  Te48  1  -0.00015695  0.25472501  -0.00846124  1
  Te  Te49  1  -0.00656460  0.24395199  0.50487358  1
  Te  Te50  1  -0.00024012  0.74502181  0.00693991  1
  Te  Te51  1  -0.00657754  0.75634808  0.49594592  1
  Te  Te52  1  0.50020265  0.24488358  -0.00174729  1
  Te  Te53  1  0.50766647  0.24904169  0.50116816  1
  Te  Te54  1  0.50029277  0.75689720  -0.00726737  1
  Te  Te55  1  0.50798216  0.75125839  0.50629346  1
  Te  Te56  1  -0.00172997  -0.00152359  0.25054748  1
  Te  Te57  1  0.00238568  0.00184568  0.75048679  1
  Te  Te58  1  -0.00182230  0.50010830  0.24771435  1
  Te  Te59  1  0.00023563  0.49917459  0.75203863  1
  Te  Te60  1  0.50136244  0.00242863  0.24699767  1
  Te  Te61  1  0.49844439  0.00323526  0.75194899  1
  Te  Te62  1  0.50151645  0.49670702  0.24686423  1
  Te  Te63  1  0.49958374  0.49701813  0.75292541  1
