# generated using pymatgen
data_AgSbTe2
_symmetry_space_group_name_H-M   'P 1'
_cell_length_a   12.21949034
_cell_length_b   12.21592124
_cell_length_c   12.21973086
_cell_angle_alpha   89.99835523
_cell_angle_beta   89.99313071
_cell_angle_gamma   89.99816320
_symmetry_Int_Tables_number   1
_chemical_formula_structural   AgSbTe2
_chemical_formula_sum   'Ag16 Sb16 Te32'
_cell_volume   1824.06770244
_cell_formula_units_Z   16
loop_
 _symmetry_equiv_pos_site_id
 _symmetry_equiv_pos_as_xyz
  1  'x, y, z'
loop_
 _atom_site_type_symbol
 _atom_site_label
 _atom_site_symmetry_multiplicity
 _atom_site_fract_x
 _atom_site_fract_y
 _atom_site_fract_z
 _atom_site_occupancy
  Ag  Ag0  1  0.24477133  0.50116756  0.24451861  1
  Ag  Ag1  1  0.50012962  0.25652267  0.75216712  1
  Ag  Ag2  1  0.75160573  0.25239163  0.49892089  1
  Ag  Ag3  1  0.24870203  0.50099610  0.75585369  1
  Ag  Ag4  1  0.00174232  0.25243716  0.24816400  1
  Ag  Ag5  1  0.49689506  0.49900418  -0.00303611  1
  Ag  Ag6  1  0.75491031  0.74518659  0.00088849  1
  Ag  Ag7  1  0.75497866  0.74764985  0.49891048  1
  Ag  Ag8  1  0.24862711  0.25751215  0.00231927  1
  Ag  Ag9  1  0.00025330  0.74762226  0.24961794  1
  Ag  Ag10  1  0.24513429  -0.00187951  0.24876097  1
  Ag  Ag11  1  0.75480871  -0.00269581  0.25047220  1
  Ag  Ag12  1  -0.00200998  0.74303452  0.75066956  1
  Ag  Ag13  1  0.00299117  0.50259898  0.00090672  1
  Ag  Ag14  1  0.75158023  0.50281156  0.75249715  1
  Ag  Ag15  1  0.24433865  0.74676823  0.49680750  1
  Sb  Sb16  1  0.00002575  0.50281484  0.49832214  1
  Sb  Sb17  1  0.50100161  0.74403385  0.75183110  1
  Sb  Sb18  1  0.24878375  -0.00201316  0.75149938  1
  Sb  Sb19  1  0.49936245  -0.00019012  0.00124566  1
  Sb  Sb20  1  0.49965383  0.74720043  0.24925136  1
  Sb  Sb21  1  0.24471104  0.74180154  0.00290776  1
  Sb  Sb22  1  0.50077208  0.49911175  0.50237980  1
  Sb  Sb23  1  0.75607173  0.50272967  0.24816127  1
  Sb  Sb24  1  -0.00029801  -0.00269488  0.49619844  1
  Sb  Sb25  1  0.75149555  0.25456501  0.00098994  1
  Sb  Sb26  1  0.50045149  0.00023567  0.49913558  1
  Sb  Sb27  1  -0.00023812  0.25856859  0.75206155  1
  Sb  Sb28  1  0.00028610  -0.00270565  0.00402883  1
  Sb  Sb29  1  0.24815022  0.25198056  0.49757962  1
  Sb  Sb30  1  0.49933975  0.25292006  0.24806312  1
  Sb  Sb31  1  0.75118250  -0.00234892  0.74966802  1
  Te  Te32  1  0.24730272  0.25123221  0.25095702  1
  Te  Te33  1  0.24982465  0.25335043  0.74982250  1
  Te  Te34  1  0.24668766  0.74938208  0.25103827  1
  Te  Te35  1  0.24771809  0.74719920  0.74722393  1
  Te  Te36  1  0.75309351  0.24843033  0.25258857  1
  Te  Te37  1  0.75020758  0.25184192  0.74761523  1
  Te  Te38  1  0.75316414  0.74988392  0.25287945  1
  Te  Te39  1  0.75148296  0.74810489  0.74751672  1
  Te  Te40  1  0.25118098  0.00803448  0.00588839  1
  Te  Te41  1  0.25060485  -0.00583675  0.49297617  1
  Te  Te42  1  0.24866105  0.49944290  -0.00087573  1
  Te  Te43  1  0.25132501  0.50460263  0.50051051  1
  Te  Te44  1  0.74918021  -0.00666236  0.00572745  1
  Te  Te45  1  0.74945296  -0.00240975  0.49468812  1
  Te  Te46  1  0.75129218  0.50265655  -0.00266237  1
  Te  Te47  1  0.74870575  0.50241015  0.50441919  1
  Te  Te48  1  0.00319174  0.25578455  0.00356280  1
  Te  Te49  1  -0.00595029  0.25043439  0.49436600  1
  Te  Te50  1  -0.00272730  0.74542225  0.00218996  1
  Te  Te51  1  -0.00185554  0.74912133  0.49776124  1
  Te  Te52  1  0.49735761  0.25552296  -0.00310258  1
  Te  Te53  1  0.50628886  0.25050656  0.50542782  1
  Te  Te54  1  0.50809891  0.74375433  -0.00109641  1
  Te  Te55  1  0.50309548  0.74972844  0.50088097  1
  Te  Te56  1  0.00051009  -0.00102502  0.24845437  1
  Te  Te57  1  0.00066050  -0.01108903  0.75210676  1
  Te  Te58  1  0.00273086  0.50154813  0.24523569  1
  Te  Te59  1  -0.00009016  0.50358037  0.75593213  1
  Te  Te60  1  0.49933927  0.00055831  0.24907297  1
  Te  Te61  1  0.49902138  0.01117543  0.75079814  1
  Te  Te62  1  0.49084038  0.49962062  0.24211187  1
  Te  Te63  1  0.49939364  0.49655618  0.75422281  1
