# generated using pymatgen
data_AgSbTe2
_symmetry_space_group_name_H-M   'P 1'
_cell_length_a   12.21879562
_cell_length_b   12.21974092
_cell_length_c   12.23308489
_cell_angle_alpha   90.00091612
_cell_angle_beta   90.00244662
_cell_angle_gamma   90.00777251
_symmetry_Int_Tables_number   1
_chemical_formula_structural   AgSbTe2
_chemical_formula_sum   'Ag16 Sb16 Te32'
_cell_volume   1826.52820881
_cell_formula_units_Z   16
loop_
 _symmetry_equiv_pos_site_id
 _symmetry_equiv_pos_as_xyz
  1  'x, y, z'
loop_
 _atom_site_type_symbol
 _atom_site_label
 _atom_site_symmetry_multiplicity
 _atom_site_fract_x
 _atom_site_fract_y
 _atom_site_fract_z
 _atom_site_occupancy
  Ag  Ag0  1  0.24561981  0.26135706  0.49772848  1
  Ag  Ag1  1  -0.00401538  0.50066269  0.00414463  1
  Ag  Ag2  1  0.24428663  0.50073751  0.25850031  1
  Ag  Ag3  1  0.50400087  0.74843307  0.75128213  1
  Ag  Ag4  1  0.74841008  -0.00244510  0.24829196  1
  Ag  Ag5  1  0.75170479  0.50337203  0.74846024  1
  Ag  Ag6  1  -0.00285313  0.25765293  0.25445286  1
  Ag  Ag7  1  0.50418265  0.74836747  0.24872811  1
  Ag  Ag8  1  0.24807640  0.50258516  0.74117297  1
  Ag  Ag9  1  0.00301408  0.49706626  0.49549859  1
  Ag  Ag10  1  0.25088356  0.73809848  0.49925248  1
  Ag  Ag11  1  0.75626607  0.50061323  0.25194423  1
  Ag  Ag12  1  0.74640806  0.74837633  0.00096996  1
  Ag  Ag13  1  0.75433227  0.25612689  0.49668043  1
  Ag  Ag14  1  0.74666615  -0.00357806  0.75183331  1
  Ag  Ag15  1  0.50666045  -0.00614226  0.00064927  1
  Sb  Sb16  1  -0.00520567  -0.00143846  0.00316620  1
  Sb  Sb17  1  0.50313092  -0.00243844  0.49933358  1
  Sb  Sb18  1  0.25339821  -0.00236385  0.74811787  1
  Sb  Sb19  1  0.49603431  0.50106409  0.49937908  1
  Sb  Sb20  1  -0.00069138  0.25426164  0.74519335  1
  Sb  Sb21  1  0.50151614  0.25182331  0.74934748  1
  Sb  Sb22  1  0.75234364  0.25195185  0.00258598  1
  Sb  Sb23  1  0.25319412  0.74606195  0.00075050  1
  Sb  Sb24  1  0.24766658  0.25451705  0.00184230  1
  Sb  Sb25  1  0.74968481  0.74275239  0.49962778  1
  Sb  Sb26  1  -0.00340730  0.00166325  0.49788447  1
  Sb  Sb27  1  0.50458167  0.50414183  0.00061428  1
  Sb  Sb28  1  -0.00300425  0.74216621  0.25076498  1
  Sb  Sb29  1  -0.00300646  0.74616013  0.74945383  1
  Sb  Sb30  1  0.25155043  -0.00105825  0.25184175  1
  Sb  Sb31  1  0.50218350  0.25194813  0.25106419  1
  Te  Te32  1  0.24853027  0.25345173  0.25421807  1
  Te  Te33  1  0.25058108  0.25535708  0.74367517  1
  Te  Te34  1  0.25438827  0.74721182  0.25199008  1
  Te  Te35  1  0.25460994  0.74631381  0.74803898  1
  Te  Te36  1  0.75038212  0.25358449  0.25335041  1
  Te  Te37  1  0.74897212  0.25310584  0.74463170  1
  Te  Te38  1  0.74695399  0.74874843  0.25069117  1
  Te  Te39  1  0.74657353  0.74712346  0.74879491  1
  Te  Te40  1  0.25456620  0.00072059  -0.00144900  1
  Te  Te41  1  0.24858167  0.00183206  0.50076279  1
  Te  Te42  1  0.24441867  0.49986427  -0.00022629  1
  Te  Te43  1  0.24922956  0.49950525  0.49973750  1
  Te  Te44  1  0.74857644  -0.00235864  0.00062458  1
  Te  Te45  1  0.75171325  0.00512068  0.49906326  1
  Te  Te46  1  0.75273917  0.50240447  -0.00046439  1
  Te  Te47  1  0.75254585  0.49840529  0.49981291  1
  Te  Te48  1  0.00069682  0.25662610  0.00822618  1
  Te  Te49  1  -0.00076377  0.25414960  0.49639721  1
  Te  Te50  1  -0.00762290  0.74443075  0.00004432  1
  Te  Te51  1  0.00800978  0.74346227  0.49966318  1
  Te  Te52  1  0.49946383  0.23911168  -0.00027412  1
  Te  Te53  1  0.49956769  0.24895224  0.49996429  1
  Te  Te54  1  0.50425188  0.75254533  0.00039858  1
  Te  Te55  1  0.49474104  0.75053818  0.49966932  1
  Te  Te56  1  -0.00611020  0.00776570  0.24867391  1
  Te  Te57  1  -0.00882691  0.00087390  0.75147448  1
  Te  Te58  1  -0.00147721  0.49927362  0.25223055  1
  Te  Te59  1  -0.00172444  0.49958001  0.74911826  1
  Te  Te60  1  0.50421282  -0.00473169  0.24683420  1
  Te  Te61  1  0.50519350  -0.00498688  0.75351257  1
  Te  Te62  1  0.50107711  0.50463039  0.24756103  1
  Te  Te63  1  0.50233622  0.50489167  0.75269661  1
