# generated using pymatgen
data_AgSbTe2
_symmetry_space_group_name_H-M   'P 1'
_cell_length_a   12.22517093
_cell_length_b   12.22607614
_cell_length_c   12.24020275
_cell_angle_alpha   89.99826018
_cell_angle_beta   90.00516680
_cell_angle_gamma   89.99765496
_symmetry_Int_Tables_number   1
_chemical_formula_structural   AgSbTe2
_chemical_formula_sum   'Ag16 Sb16 Te32'
_cell_volume   1829.49255066
_cell_formula_units_Z   16
loop_
 _symmetry_equiv_pos_site_id
 _symmetry_equiv_pos_as_xyz
  1  'x, y, z'
loop_
 _atom_site_type_symbol
 _atom_site_label
 _atom_site_symmetry_multiplicity
 _atom_site_fract_x
 _atom_site_fract_y
 _atom_site_fract_z
 _atom_site_occupancy
  Ag  Ag0  1  0.75558573  0.50295898  0.74884233  1
  Ag  Ag1  1  0.00244621  0.50440689  0.50516213  1
  Ag  Ag2  1  0.49455685  -0.01166734  0.49814030  1
  Ag  Ag3  1  0.49604153  0.51002622  0.49835179  1
  Ag  Ag4  1  0.49355180  -0.00589234  0.00242731  1
  Ag  Ag5  1  0.49198100  0.74763373  0.25500098  1
  Ag  Ag6  1  0.00193086  0.26159330  0.75167561  1
  Ag  Ag7  1  0.00462164  0.50236629  -0.00587843  1
  Ag  Ag8  1  0.00324613  0.74004703  0.74953137  1
  Ag  Ag9  1  0.25199712  0.50793108  0.25045694  1
  Ag  Ag10  1  0.25681316  0.74536047  0.49669172  1
  Ag  Ag11  1  0.25558310  -0.00877819  0.24829127  1
  Ag  Ag12  1  0.24896440  0.25383304  0.00082541  1
  Ag  Ag13  1  0.49507228  0.74634021  0.74484354  1
  Ag  Ag14  1  0.74873225  0.50403876  0.25166611  1
  Ag  Ag15  1  0.25277346  0.74775328  0.00412464  1
  Sb  Sb16  1  0.24496785  0.50375861  0.74956297  1
  Sb  Sb17  1  0.00797632  0.74528488  0.25074458  1
  Sb  Sb18  1  0.00303794  0.25488980  0.24844771  1
  Sb  Sb19  1  0.74337350  -0.00485469  0.25010568  1
  Sb  Sb20  1  0.74744606  -0.00266147  0.74995360  1
  Sb  Sb21  1  0.74885320  0.74676364  -0.00012220  1
  Sb  Sb22  1  0.25236788  -0.00326672  0.75115500  1
  Sb  Sb23  1  0.75064854  0.25398257  0.50108112  1
  Sb  Sb24  1  0.00643176  -0.00204668  -0.00065668  1
  Sb  Sb25  1  0.74353159  0.74563582  0.50020667  1
  Sb  Sb26  1  0.49811640  0.25269370  0.24954021  1
  Sb  Sb27  1  0.00594254  -0.00578128  0.50116986  1
  Sb  Sb28  1  0.49875318  0.25604649  0.75096325  1
  Sb  Sb29  1  0.49413433  0.50513132  0.00046217  1
  Sb  Sb30  1  0.24922858  0.25394447  0.49961489  1
  Sb  Sb31  1  0.75054940  0.25426638  -0.00200931  1
  Te  Te32  1  0.24970094  0.25150670  0.24466914  1
  Te  Te33  1  0.24548128  0.24801374  0.75625675  1
  Te  Te34  1  0.25197585  0.74793627  0.24955369  1
  Te  Te35  1  0.25238907  0.75051917  0.74991115  1
  Te  Te36  1  0.75063406  0.25969257  0.24958806  1
  Te  Te37  1  0.75563185  0.25654096  0.75078324  1
  Te  Te38  1  0.74159454  0.74395772  0.24954942  1
  Te  Te39  1  0.75120204  0.74575558  0.75021462  1
  Te  Te40  1  0.25269709  -0.00416737  0.00291377  1
  Te  Te41  1  0.25414435  -0.00253077  0.49538217  1
  Te  Te42  1  0.24732042  0.50253783  0.00329062  1
  Te  Te43  1  0.25134638  0.50174684  0.49699553  1
  Te  Te44  1  0.74122536  0.00109217  0.00211747  1
  Te  Te45  1  0.74126363  0.00215019  0.49785065  1
  Te  Te46  1  0.75739246  0.49941100  0.00014035  1
  Te  Te47  1  0.75115323  0.50059381  0.49927979  1
  Te  Te48  1  0.00436260  0.25132489  -0.00358284  1
  Te  Te49  1  0.00089359  0.25496982  0.50657731  1
  Te  Te50  1  0.00434915  0.74744979  -0.00329334  1
  Te  Te51  1  0.00653840  0.74665591  0.50322666  1
  Te  Te52  1  0.49352963  0.24314456  -0.00168423  1
  Te  Te53  1  0.49901824  0.25147365  0.50151749  1
  Te  Te54  1  0.49629399  0.75102953  -0.00143587  1
  Te  Te55  1  0.49673163  0.74704148  0.50111813  1
  Te  Te56  1  0.00381801  0.00081915  0.25076853  1
  Te  Te57  1  -0.00275468  -0.00254993  0.74944770  1
  Te  Te58  1  0.00073107  0.50147302  0.25167160  1
  Te  Te59  1  0.00022211  0.50287021  0.74941572  1
  Te  Te60  1  0.49772883  -0.00258369  0.25111197  1
  Te  Te61  1  0.50213864  -0.00509027  0.74753937  1
  Te  Te62  1  0.49747868  0.50226189  0.25035906  1
  Te  Te63  1  0.50451098  0.50321530  0.74837377  1
