# generated using pymatgen
data_AgSbTe2
_symmetry_space_group_name_H-M   'P 1'
_cell_length_a   12.32456058
_cell_length_b   12.32425483
_cell_length_c   12.34296335
_cell_angle_alpha   89.99901747
_cell_angle_beta   89.99336944
_cell_angle_gamma   89.98641171
_symmetry_Int_Tables_number   1
_chemical_formula_structural   AgSbTe2
_chemical_formula_sum   'Ag16 Sb16 Te32'
_cell_volume   1874.78529283
_cell_formula_units_Z   16
loop_
 _symmetry_equiv_pos_site_id
 _symmetry_equiv_pos_as_xyz
  1  'x, y, z'
loop_
 _atom_site_type_symbol
 _atom_site_label
 _atom_site_symmetry_multiplicity
 _atom_site_fract_x
 _atom_site_fract_y
 _atom_site_fract_z
 _atom_site_occupancy
  Ag  Ag0  1  0.77153466  0.51178130  0.25619164  1
  Ag  Ag1  1  0.22898061  0.50468999  0.73274709  1
  Ag  Ag2  1  0.76443694  0.74037885  0.50128480  1
  Ag  Ag3  1  -0.00477340  0.73101556  0.26377090  1
  Ag  Ag4  1  0.77126276  0.50978122  0.74380701  1
  Ag  Ag5  1  -0.01278032  0.73030886  0.73787122  1
  Ag  Ag6  1  0.23372754  0.73700842  0.49734252  1
  Ag  Ag7  1  -0.00340978  0.50433614  -0.00010083  1
  Ag  Ag8  1  0.00116742  0.27228987  0.26071119  1
  Ag  Ag9  1  0.75780270  0.74336671  -0.00189586  1
  Ag  Ag10  1  0.75767848  -0.01532387  0.74758666  1
  Ag  Ag11  1  0.50746779  0.74294870  0.25399675  1
  Ag  Ag12  1  0.22761561  0.50585175  0.26675987  1
  Ag  Ag13  1  0.23814891  0.26920733  0.49985171  1
  Ag  Ag14  1  0.00012659  0.27393062  0.74019798  1
  Ag  Ag15  1  0.00609314  0.50770463  0.50015285  1
  Sb  Sb16  1  0.50565774  0.74820727  0.74546731  1
  Sb  Sb17  1  0.75590056  0.25746435  -0.00110137  1
  Sb  Sb18  1  0.24235777  -0.00355565  0.74543085  1
  Sb  Sb19  1  0.49542869  0.50045281  0.50027405  1
  Sb  Sb20  1  0.50239212  -0.00385533  0.50019269  1
  Sb  Sb21  1  0.75395887  -0.01187957  0.25305396  1
  Sb  Sb22  1  0.76186136  0.26474984  0.50054276  1
  Sb  Sb23  1  0.49878055  0.25395522  0.74744526  1
  Sb  Sb24  1  0.50573417  -0.00814784  -0.00011720  1
  Sb  Sb25  1  0.50613080  0.50384938  0.00025386  1
  Sb  Sb26  1  0.24284330  0.74404663  0.00143238  1
  Sb  Sb27  1  0.24368603  0.25807948  0.00022591  1
  Sb  Sb28  1  -0.00118210  -0.00866113  0.49989705  1
  Sb  Sb29  1  0.24689940  -0.00582582  0.25303731  1
  Sb  Sb30  1  0.49876700  0.25927001  0.25334318  1
  Sb  Sb31  1  -0.00284593  -0.00770894  -0.00058618  1
  Te  Te32  1  0.24964190  0.25117510  0.25005108  1
  Te  Te33  1  0.24818153  0.24831891  0.74977355  1
  Te  Te34  1  0.23780480  0.74948353  0.24920088  1
  Te  Te35  1  0.25401426  0.74992471  0.75073696  1
  Te  Te36  1  0.74971161  0.25320548  0.25192262  1
  Te  Te37  1  0.75167570  0.26067855  0.74808654  1
  Te  Te38  1  0.75875774  0.74825168  0.25635476  1
  Te  Te39  1  0.74843945  0.74329793  0.74429042  1
  Te  Te40  1  0.25274023  0.00084566  -0.00101292  1
  Te  Te41  1  0.25118390  -0.00638382  0.50003616  1
  Te  Te42  1  0.24282768  0.50159260  -0.00127330  1
  Te  Te43  1  0.24975718  0.50455605  0.50022114  1
  Te  Te44  1  0.75098262  -0.00998374  -0.00465714  1
  Te  Te45  1  0.74913297  -0.01261137  0.50303466  1
  Te  Te46  1  0.75466942  0.50301577  0.00046592  1
  Te  Te47  1  0.75073678  0.50216275  0.49926020  1
  Te  Te48  1  -0.00162842  0.25873714  -0.00011501  1
  Te  Te49  1  0.00182697  0.25321329  0.49990023  1
  Te  Te50  1  -0.00312632  0.74561825  -0.00295428  1
  Te  Te51  1  0.00097959  0.74696878  0.50236334  1
  Te  Te52  1  0.50100001  0.24666642  0.00048395  1
  Te  Te53  1  0.48096398  0.24762564  0.50010991  1
  Te  Te54  1  0.51069251  0.74910456  0.00806446  1
  Te  Te55  1  0.49807415  0.74984895  0.49570883  1
  Te  Te56  1  -0.00069916  0.00786626  0.24882708  1
  Te  Te57  1  -0.00534689  0.00056603  0.75058851  1
  Te  Te58  1  0.00029315  0.49934930  0.25313980  1
  Te  Te59  1  0.00217195  0.50099536  0.74691063  1
  Te  Te60  1  0.49980731  -0.00891282  0.24987493  1
  Te  Te61  1  0.51274298  0.00190761  0.75042890  1
  Te  Te62  1  0.50189068  0.50498204  0.24956789  1
  Te  Te63  1  0.49864973  0.49821661  0.75154198  1
