# generated using pymatgen
data_AgSbTe2
_symmetry_space_group_name_H-M   'P 1'
_cell_length_a   12.21878331
_cell_length_b   12.20783493
_cell_length_c   12.21527765
_cell_angle_alpha   90.00799091
_cell_angle_beta   90.00216002
_cell_angle_gamma   89.99558674
_symmetry_Int_Tables_number   1
_chemical_formula_structural   AgSbTe2
_chemical_formula_sum   'Ag16 Sb16 Te32'
_cell_volume   1822.09051829
_cell_formula_units_Z   16
loop_
 _symmetry_equiv_pos_site_id
 _symmetry_equiv_pos_as_xyz
  1  'x, y, z'
loop_
 _atom_site_type_symbol
 _atom_site_label
 _atom_site_symmetry_multiplicity
 _atom_site_fract_x
 _atom_site_fract_y
 _atom_site_fract_z
 _atom_site_occupancy
  Ag  Ag0  1  0.75340993  -0.00406532  0.24901613  1
  Ag  Ag1  1  0.75324037  0.25105804  0.49746308  1
  Ag  Ag2  1  0.00006251  0.50347039  0.50096532  1
  Ag  Ag3  1  -0.00005911  0.75203476  0.24519480  1
  Ag  Ag4  1  0.24678817  0.50480347  0.75236281  1
  Ag  Ag5  1  0.49904103  0.50634073  -0.00123086  1
  Ag  Ag6  1  0.50016693  0.75026646  0.24668541  1
  Ag  Ag7  1  0.24632960  -0.00523088  0.24807251  1
  Ag  Ag8  1  0.00166057  0.74572369  0.75451618  1
  Ag  Ag9  1  0.24595203  0.25231396  0.49901411  1
  Ag  Ag10  1  0.49845361  0.74591856  0.75395082  1
  Ag  Ag11  1  0.24563934  0.74725349  0.00083431  1
  Ag  Ag12  1  -0.00019182  -0.00736710  0.00453444  1
  Ag  Ag13  1  0.00194892  0.50802558  -0.00169959  1
  Ag  Ag14  1  0.75396661  0.74939662  0.49663182  1
  Ag  Ag15  1  0.75250656  0.25050143  0.00301222  1
  Sb  Sb16  1  0.00073414  0.25489329  0.74948110  1
  Sb  Sb17  1  0.49888713  0.50301956  0.50149930  1
  Sb  Sb18  1  0.50077112  -0.00676639  0.00246688  1
  Sb  Sb19  1  0.24550170  0.74868818  0.49940426  1
  Sb  Sb20  1  -0.00093787  0.24737143  0.25003571  1
  Sb  Sb21  1  0.75532349  0.74997612  0.00382067  1
  Sb  Sb22  1  0.75249468  -0.00279392  0.75191858  1
  Sb  Sb23  1  0.75129826  0.50432685  0.25004676  1
  Sb  Sb24  1  0.24851722  0.25182416  0.00121066  1
  Sb  Sb25  1  0.50033378  -0.00185989  0.49863859  1
  Sb  Sb26  1  0.75368009  0.50308645  0.75032408  1
  Sb  Sb27  1  0.49916451  0.25462142  0.75189406  1
  Sb  Sb28  1  0.50134240  0.25094580  0.24850077  1
  Sb  Sb29  1  0.24795520  0.50478140  0.24808728  1
  Sb  Sb30  1  -0.00105744  -0.00357761  0.49626143  1
  Sb  Sb31  1  0.24688146  -0.00460393  0.75168261  1
  Te  Te32  1  0.25060799  0.24230835  0.25487025  1
  Te  Te33  1  0.25098510  0.25495202  0.74455524  1
  Te  Te34  1  0.24870140  0.75340717  0.24851843  1
  Te  Te35  1  0.24855519  0.74716297  0.75128480  1
  Te  Te36  1  0.74925470  0.24362778  0.25244666  1
  Te  Te37  1  0.74906817  0.24877015  0.74616156  1
  Te  Te38  1  0.75129306  0.75355847  0.25299245  1
  Te  Te39  1  0.75054508  0.75060406  0.74313296  1
  Te  Te40  1  0.24593702  -0.00105257  0.00344975  1
  Te  Te41  1  0.24925731  0.00629433  0.49526544  1
  Te  Te42  1  0.24664733  0.50139459  -0.00160902  1
  Te  Te43  1  0.24644353  0.49642952  0.50225577  1
  Te  Te44  1  0.75350423  0.00422868  0.00418679  1
  Te  Te45  1  0.75091446  0.00149233  0.49470537  1
  Te  Te46  1  0.75228843  0.49516241  0.00041612  1
  Te  Te47  1  0.75481950  0.49816110  0.49986841  1
  Te  Te48  1  -0.00425709  0.25248687  -0.00015496  1
  Te  Te49  1  -0.00326669  0.25494582  0.50008653  1
  Te  Te50  1  -0.00182508  0.74737920  0.00117760  1
  Te  Te51  1  -0.00199663  0.74701643  0.49943299  1
  Te  Te52  1  0.50500967  0.25754938  -0.00046655  1
  Te  Te53  1  0.50458856  0.25133116  0.50031182  1
  Te  Te54  1  0.49926980  0.74677160  0.00066230  1
  Te  Te55  1  0.50539582  0.74805777  0.49863326  1
  Te  Te56  1  -0.00049468  -0.00395365  0.24674884  1
  Te  Te57  1  0.00065645  -0.00897272  0.75792150  1
  Te  Te58  1  0.00056882  0.50651358  0.24930952  1
  Te  Te59  1  0.00290875  0.50449805  0.75158252  1
  Te  Te60  1  0.50049891  -0.00723711  0.24903623  1
  Te  Te61  1  0.49950569  -0.01070659  0.75043776  1
  Te  Te62  1  0.49975653  0.50773312  0.24387359  1
  Te  Te63  1  0.49505359  0.50570891  0.75430982  1
