# generated using pymatgen
data_AgSbTe2
_symmetry_space_group_name_H-M   'P 1'
_cell_length_a   12.21205873
_cell_length_b   12.20731282
_cell_length_c   12.20935096
_cell_angle_alpha   89.99470401
_cell_angle_beta   90.00174963
_cell_angle_gamma   90.00007366
_symmetry_Int_Tables_number   1
_chemical_formula_structural   AgSbTe2
_chemical_formula_sum   'Ag16 Sb16 Te32'
_cell_volume   1820.12633602
_cell_formula_units_Z   16
loop_
 _symmetry_equiv_pos_site_id
 _symmetry_equiv_pos_as_xyz
  1  'x, y, z'
loop_
 _atom_site_type_symbol
 _atom_site_label
 _atom_site_symmetry_multiplicity
 _atom_site_fract_x
 _atom_site_fract_y
 _atom_site_fract_z
 _atom_site_occupancy
  Ag  Ag0  1  0.00055822  0.24483047  0.25003481  1
  Ag  Ag1  1  0.25085237  -0.00071938  0.24915102  1
  Ag  Ag2  1  0.25254246  0.75090864  -0.00255349  1
  Ag  Ag3  1  0.74648886  0.75930651  0.50149158  1
  Ag  Ag4  1  -0.00386500  0.00068542  0.49938112  1
  Ag  Ag5  1  0.49721159  0.75357179  0.75025377  1
  Ag  Ag6  1  0.74923745  0.24109979  0.49871522  1
  Ag  Ag7  1  0.50396028  -0.00239732  0.49941097  1
  Ag  Ag8  1  0.49935634  0.24544925  0.25133336  1
  Ag  Ag9  1  0.74908224  -0.00228329  0.74349559  1
  Ag  Ag10  1  0.25100159  -0.00415689  0.75117094  1
  Ag  Ag11  1  0.00371762  -0.00036665  0.00130637  1
  Ag  Ag12  1  0.25178755  0.50449133  0.75555164  1
  Ag  Ag13  1  0.49808012  0.75447103  0.25008067  1
  Ag  Ag14  1  0.49494641  0.50358939  -0.00077510  1
  Ag  Ag15  1  0.00444985  0.50085587  -0.00015605  1
  Sb  Sb16  1  0.74923483  0.24593661  0.00164565  1
  Sb  Sb17  1  0.49499253  -0.00330430  0.00092914  1
  Sb  Sb18  1  0.74815591  0.00001564  0.25807187  1
  Sb  Sb19  1  0.49931811  0.50172116  0.50069230  1
  Sb  Sb20  1  0.25381651  0.75474918  0.50243998  1
  Sb  Sb21  1  0.74715391  0.75368149  -0.00087144  1
  Sb  Sb22  1  -0.00079684  0.24717676  0.74957737  1
  Sb  Sb23  1  0.50083215  0.24630855  0.74859628  1
  Sb  Sb24  1  0.00349545  0.75258637  0.75035581  1
  Sb  Sb25  1  0.00062569  0.49842170  0.49946745  1
  Sb  Sb26  1  0.00268719  0.75604038  0.24968281  1
  Sb  Sb27  1  0.25094000  0.24519068  0.49799980  1
  Sb  Sb28  1  0.74835560  0.50297634  0.75058793  1
  Sb  Sb29  1  0.24983033  0.24817737  0.00089517  1
  Sb  Sb30  1  0.74976616  0.50036141  0.24946960  1
  Sb  Sb31  1  0.25056868  0.50271081  0.24376694  1
  Te  Te32  1  0.25104168  0.24418740  0.25066054  1
  Te  Te33  1  0.25107865  0.24706875  0.74939495  1
  Te  Te34  1  0.25483679  0.75407151  0.24659667  1
  Te  Te35  1  0.25373030  0.75371167  0.75221312  1
  Te  Te36  1  0.74888254  0.24998537  0.25533159  1
  Te  Te37  1  0.74885502  0.24413507  0.74246883  1
  Te  Te38  1  0.74181750  0.74997273  0.25513301  1
  Te  Te39  1  0.74352743  0.75396115  0.74644996  1
  Te  Te40  1  0.24712662  -0.00287381  -0.00166470  1
  Te  Te41  1  0.24976496  -0.00114450  0.50137118  1
  Te  Te42  1  0.24981558  0.50382647  -0.00360575  1
  Te  Te43  1  0.24852477  0.50108694  0.51051072  1
  Te  Te44  1  0.75906651  -0.00055293  -0.00980359  1
  Te  Te45  1  0.74964866  -0.00043669  0.50190974  1
  Te  Te46  1  0.75245942  0.50055268  -0.00193856  1
  Te  Te47  1  0.75161701  0.49974814  0.50190789  1
  Te  Te48  1  -0.00065669  0.24899017  0.00599283  1
  Te  Te49  1  -0.00449887  0.24633251  0.49475283  1
  Te  Te50  1  0.00388680  0.75018757  0.00114587  1
  Te  Te51  1  -0.00729558  0.75538943  0.49878632  1
  Te  Te52  1  0.50129683  0.25666962  0.00690507  1
  Te  Te53  1  0.50423080  0.24694216  0.49512395  1
  Te  Te54  1  0.49754177  0.74768205  0.00014030  1
  Te  Te55  1  0.50269794  0.75249190  0.49976728  1
  Te  Te56  1  0.00345780  0.00208121  0.24983669  1
  Te  Te57  1  0.00260123  0.00026826  0.74917534  1
  Te  Te58  1  0.00174410  0.49352111  0.24434255  1
  Te  Te59  1  0.00480019  0.49914869  0.75641674  1
  Te  Te60  1  0.49735548  -0.00019069  0.25071639  1
  Te  Te61  1  0.49752284  -0.00198168  0.74944444  1
  Te  Te62  1  0.49828545  0.49989648  0.24601750  1
  Te  Te63  1  0.49685231  0.50318513  0.75330124  1
