# generated using pymatgen
data_AgSbTe2
_symmetry_space_group_name_H-M   'P 1'
_cell_length_a   12.28830826
_cell_length_b   12.27483068
_cell_length_c   12.28334224
_cell_angle_alpha   89.99420373
_cell_angle_beta   89.99180255
_cell_angle_gamma   89.99274965
_symmetry_Int_Tables_number   1
_chemical_formula_structural   AgSbTe2
_chemical_formula_sum   'Ag16 Sb16 Te32'
_cell_volume   1852.78126148
_cell_formula_units_Z   16
loop_
 _symmetry_equiv_pos_site_id
 _symmetry_equiv_pos_as_xyz
  1  'x, y, z'
loop_
 _atom_site_type_symbol
 _atom_site_label
 _atom_site_symmetry_multiplicity
 _atom_site_fract_x
 _atom_site_fract_y
 _atom_site_fract_z
 _atom_site_occupancy
  Ag  Ag0  1  0.00361052  0.24826365  0.74944384  1
  Ag  Ag1  1  0.47958643  0.24424362  0.25315664  1
  Ag  Ag2  1  0.48648460  0.75701195  0.25395260  1
  Ag  Ag3  1  0.01944502  0.24384141  0.25263438  1
  Ag  Ag4  1  0.01514531  0.75641179  0.25389574  1
  Ag  Ag5  1  0.74573132  0.75240741  0.49648828  1
  Ag  Ag6  1  0.25015483  0.48124338  0.25006430  1
  Ag  Ag7  1  0.00739518  0.00408099  0.49238901  1
  Ag  Ag8  1  0.49449057  -0.00205099  0.49244732  1
  Ag  Ag9  1  0.25166582  0.75144282  0.01137713  1
  Ag  Ag10  1  0.24635398  0.24363797  0.47967131  1
  Ag  Ag11  1  0.49859931  0.75173027  0.74248156  1
  Ag  Ag12  1  0.24998363  0.01773935  0.25415240  1
  Ag  Ag13  1  0.24716691  0.24909064  0.01837586  1
  Ag  Ag14  1  0.74992939  0.49879481  0.74811505  1
  Ag  Ag15  1  0.75528848  0.25240474  0.00430645  1
  Sb  Sb16  1  0.25036645  0.49958494  0.74845227  1
  Sb  Sb17  1  0.74989101  0.49825365  0.25118982  1
  Sb  Sb18  1  0.00294348  0.00172737  0.00790663  1
  Sb  Sb19  1  0.74967133  0.74813446  0.00285236  1
  Sb  Sb20  1  0.75087567  0.24901308  0.49773457  1
  Sb  Sb21  1  0.49878363  0.49924221  0.00090896  1
  Sb  Sb22  1  0.75016672  0.00107851  0.74799309  1
  Sb  Sb23  1  0.49731412  0.24670831  0.74807599  1
  Sb  Sb24  1  0.00118548  0.49826758  0.00095966  1
  Sb  Sb25  1  0.25030821  -0.00010206  0.74552005  1
  Sb  Sb26  1  0.75018408  0.00121241  0.25140513  1
  Sb  Sb27  1  0.00158817  0.49694015  0.49772008  1
  Sb  Sb28  1  0.00269283  0.75304422  0.74503156  1
  Sb  Sb29  1  0.49888983  0.50253865  0.49781417  1
  Sb  Sb30  1  0.49746472  0.00010366  0.00786440  1
  Sb  Sb31  1  0.25052426  0.75534516  0.48830852  1
  Te  Te32  1  0.25126296  0.25006425  0.25103563  1
  Te  Te33  1  0.24698161  0.25015025  0.75567489  1
  Te  Te34  1  0.25001351  0.75112135  0.24990247  1
  Te  Te35  1  0.25224902  0.74867931  0.76295395  1
  Te  Te36  1  0.75087484  0.25209970  0.24583241  1
  Te  Te37  1  0.75029303  0.25260274  0.75050317  1
  Te  Te38  1  0.74813853  0.74803230  0.24912992  1
  Te  Te39  1  0.74969028  0.74801752  0.75327954  1
  Te  Te40  1  0.25027936  0.00149120  0.00915391  1
  Te  Te41  1  0.24979919  0.00375624  0.49588261  1
  Te  Te42  1  0.24978955  0.49796657  0.00530529  1
  Te  Te43  1  0.25028417  0.48657897  0.49651789  1
  Te  Te44  1  0.74931275  0.01157649  -0.00059989  1
  Te  Te45  1  0.74799533  -0.00649490  0.49885058  1
  Te  Te46  1  0.75004950  0.49342877  -0.00503328  1
  Te  Te47  1  0.75010759  0.50871661  0.50294195  1
  Te  Te48  1  0.00441271  0.24847617  0.00374752  1
  Te  Te49  1  -0.00353093  0.24815038  0.49375473  1
  Te  Te50  1  0.00221626  0.75204464  0.00627600  1
  Te  Te51  1  0.00154013  0.75450991  0.49777685  1
  Te  Te52  1  0.49345814  0.24890457  0.00139116  1
  Te  Te53  1  0.50357825  0.24557853  0.49835823  1
  Te  Te54  1  0.49914794  0.75093593  0.00770610  1
  Te  Te55  1  0.49776471  0.75177549  0.49478521  1
  Te  Te56  1  -0.00069417  0.00091366  0.25411015  1
  Te  Te57  1  0.00105410  0.00548592  0.73686152  1
  Te  Te58  1  0.00361187  0.50037766  0.25016015  1
  Te  Te59  1  -0.00234395  0.49460711  0.74980264  1
  Te  Te60  1  0.50060765  -0.00078440  0.25384295  1
  Te  Te61  1  0.49901165  -0.00620577  0.73749108  1
  Te  Te62  1  0.49648461  0.49917245  0.25046076  1
  Te  Te63  1  0.50267852  0.50688431  0.74945478  1
