# generated using pymatgen
data_AgSbTe2
_symmetry_space_group_name_H-M   'P 1'
_cell_length_a   12.21721637
_cell_length_b   12.22120771
_cell_length_c   12.23091513
_cell_angle_alpha   89.99454972
_cell_angle_beta   90.00167700
_cell_angle_gamma   90.00976310
_symmetry_Int_Tables_number   1
_chemical_formula_structural   AgSbTe2
_chemical_formula_sum   'Ag16 Sb16 Te32'
_cell_volume   1826.18737087
_cell_formula_units_Z   16
loop_
 _symmetry_equiv_pos_site_id
 _symmetry_equiv_pos_as_xyz
  1  'x, y, z'
loop_
 _atom_site_type_symbol
 _atom_site_label
 _atom_site_symmetry_multiplicity
 _atom_site_fract_x
 _atom_site_fract_y
 _atom_site_fract_z
 _atom_site_occupancy
  Ag  Ag0  1  0.00571364  -0.00955655  0.49799199  1
  Ag  Ag1  1  0.24899728  -0.00128770  0.75361795  1
  Ag  Ag2  1  0.24664383  -0.00318093  0.24700675  1
  Ag  Ag3  1  0.49481631  0.50158919  0.50206056  1
  Ag  Ag4  1  0.24330917  0.74948031  0.49927254  1
  Ag  Ag5  1  0.00448890  0.75292319  0.25391590  1
  Ag  Ag6  1  0.24680343  0.75399894  0.00034194  1
  Ag  Ag7  1  0.49319135  0.25379335  0.75240195  1
  Ag  Ag8  1  0.25361184  0.24768896  -0.00170627  1
  Ag  Ag9  1  0.49399085  0.49874408  -0.00170281  1
  Ag  Ag10  1  0.00525927  0.51017240  0.50006083  1
  Ag  Ag11  1  0.25360572  0.50079284  0.74945441  1
  Ag  Ag12  1  0.75737525  0.74895913  0.49861666  1
  Ag  Ag13  1  0.00776785  -0.00569580  0.00142443  1
  Ag  Ag14  1  0.49420025  0.25123881  0.24790078  1
  Ag  Ag15  1  0.75255524  0.75039384  0.00120606  1
  Sb  Sb16  1  0.74724261  0.24906017  0.00034235  1
  Sb  Sb17  1  0.25125381  0.25081370  0.50193195  1
  Sb  Sb18  1  0.00651888  0.24744611  0.24892678  1
  Sb  Sb19  1  0.75324855  -0.00315611  0.24979614  1
  Sb  Sb20  1  0.49197178  0.00075834  -0.00031139  1
  Sb  Sb21  1  0.74636271  0.50134822  0.74951696  1
  Sb  Sb22  1  0.74985919  -0.00182873  0.75036309  1
  Sb  Sb23  1  0.00660085  0.24955566  0.75087182  1
  Sb  Sb24  1  0.00400251  0.75038098  0.74457181  1
  Sb  Sb25  1  0.74934211  0.50283127  0.25018531  1
  Sb  Sb26  1  0.49529130  0.75014119  0.24948772  1
  Sb  Sb27  1  0.00604629  0.50744778  -0.00070274  1
  Sb  Sb28  1  0.49445424  -0.00274182  0.50041310  1
  Sb  Sb29  1  0.49529127  0.74650452  0.75056307  1
  Sb  Sb30  1  0.25089940  0.50286024  0.25155813  1
  Sb  Sb31  1  0.74902336  0.24961118  0.49957409  1
  Te  Te32  1  0.25319536  0.24526007  0.24494600  1
  Te  Te33  1  0.25357482  0.25062102  0.75286870  1
  Te  Te34  1  0.24706110  0.75294295  0.24994799  1
  Te  Te35  1  0.25114733  0.75056324  0.75111445  1
  Te  Te36  1  0.73949342  0.24875951  0.24915023  1
  Te  Te37  1  0.73893125  0.24999175  0.75089703  1
  Te  Te38  1  0.75553820  0.75108760  0.25004233  1
  Te  Te39  1  0.74784837  0.75063688  0.75092502  1
  Te  Te40  1  0.24899296  -0.00345204  -0.00157824  1
  Te  Te41  1  0.24775225  -0.00191906  0.50082047  1
  Te  Te42  1  0.25164989  0.50153667  -0.00208137  1
  Te  Te43  1  0.25094556  0.50139646  0.50123430  1
  Te  Te44  1  0.75838653  -0.00666813  -0.00138960  1
  Te  Te45  1  0.75726468  -0.00644696  0.50130692  1
  Te  Te46  1  0.74555629  0.50596398  -0.00075180  1
  Te  Te47  1  0.74996253  0.50569633  0.50044232  1
  Te  Te48  1  0.00349243  0.24526132  0.00137216  1
  Te  Te49  1  -0.00196247  0.24968131  0.49902489  1
  Te  Te50  1  0.00342338  0.75098041  0.00361636  1
  Te  Te51  1  0.00259643  0.75010351  0.49910821  1
  Te  Te52  1  0.49750121  0.25225324  0.00016215  1
  Te  Te53  1  0.50138684  0.25578041  0.49917708  1
  Te  Te54  1  0.49844792  0.74623184  0.00126621  1
  Te  Te55  1  0.49865400  0.74531605  0.49888060  1
  Te  Te56  1  0.00423544  -0.00200199  0.25103846  1
  Te  Te57  1  0.00632278  0.00143174  0.74956853  1
  Te  Te58  1  -0.00024680  0.50373653  0.25605998  1
  Te  Te59  1  0.00706486  0.49776745  0.74415136  1
  Te  Te60  1  0.49291906  0.00464549  0.25087185  1
  Te  Te61  1  0.49312766  0.00759355  0.74899990  1
  Te  Te62  1  0.49986863  0.49652891  0.25035846  1
  Te  Te63  1  0.49612904  0.49763322  0.74949722  1
