# generated using pymatgen
data_AgSbTe2
_symmetry_space_group_name_H-M   'P 1'
_cell_length_a   12.21967616
_cell_length_b   12.21929307
_cell_length_c   12.20866764
_cell_angle_alpha   90.00377127
_cell_angle_beta   90.00084589
_cell_angle_gamma   89.99591570
_symmetry_Int_Tables_number   1
_chemical_formula_structural   AgSbTe2
_chemical_formula_sum   'Ag16 Sb16 Te32'
_cell_volume   1822.94701929
_cell_formula_units_Z   16
loop_
 _symmetry_equiv_pos_site_id
 _symmetry_equiv_pos_as_xyz
  1  'x, y, z'
loop_
 _atom_site_type_symbol
 _atom_site_label
 _atom_site_symmetry_multiplicity
 _atom_site_fract_x
 _atom_site_fract_y
 _atom_site_fract_z
 _atom_site_occupancy
  Ag  Ag0  1  0.50623813  0.75591411  0.74926176  1
  Ag  Ag1  1  0.75040111  0.75266961  -0.00772313  1
  Ag  Ag2  1  0.24774271  0.50073483  0.25122023  1
  Ag  Ag3  1  0.50065706  0.50264209  0.50454845  1
  Ag  Ag4  1  -0.00071337  -0.00321374  0.50782264  1
  Ag  Ag5  1  -0.00068386  0.74917454  0.25216460  1
  Ag  Ag6  1  0.50269443  -0.00098730  -0.00977222  1
  Ag  Ag7  1  0.75075728  0.24735512  -0.00698138  1
  Ag  Ag8  1  -0.00273460  0.24627552  0.75036600  1
  Ag  Ag9  1  0.24911452  0.24770514  -0.00409106  1
  Ag  Ag10  1  0.50094226  -0.00295079  0.50992737  1
  Ag  Ag11  1  0.75214625  0.50407927  0.74959613  1
  Ag  Ag12  1  0.74982689  -0.00447488  0.75224402  1
  Ag  Ag13  1  -0.00691817  0.75384253  0.74743503  1
  Ag  Ag14  1  -0.00044984  0.50347509  0.50394144  1
  Ag  Ag15  1  0.25001871  0.00005926  0.75021962  1
  Sb  Sb16  1  0.24883577  0.24903575  0.50493384  1
  Sb  Sb17  1  0.24944352  0.49883387  0.74915641  1
  Sb  Sb18  1  0.50343379  0.24279272  0.75160955  1
  Sb  Sb19  1  -0.00370216  -0.00040850  -0.01044252  1
  Sb  Sb20  1  0.49929914  0.25085495  0.24891953  1
  Sb  Sb21  1  0.75207595  0.75133099  0.50962758  1
  Sb  Sb22  1  -0.00067565  0.50064944  -0.00494756  1
  Sb  Sb23  1  0.75147860  0.24864004  0.50741649  1
  Sb  Sb24  1  0.75184467  0.50267022  0.25198602  1
  Sb  Sb25  1  0.25016697  0.75281040  -0.00262427  1
  Sb  Sb26  1  0.50113941  0.74914510  0.25119147  1
  Sb  Sb27  1  0.50103957  0.50181332  -0.00613495  1
  Sb  Sb28  1  0.75179264  -0.00187670  0.24742702  1
  Sb  Sb29  1  0.24744611  -0.00033013  0.24842906  1
  Sb  Sb30  1  0.00098656  0.25126912  0.24965365  1
  Sb  Sb31  1  0.24797776  0.75078920  0.50185837  1
  Te  Te32  1  0.24873638  0.25444829  0.24069449  1
  Te  Te33  1  0.24387352  0.24684082  0.75503606  1
  Te  Te34  1  0.24338593  0.74488668  0.24706262  1
  Te  Te35  1  0.24954642  0.75502137  0.75192049  1
  Te  Te36  1  0.75095337  0.25057803  0.23598696  1
  Te  Te37  1  0.75364678  0.24963935  0.75492593  1
  Te  Te38  1  0.75596886  0.74889411  0.23718989  1
  Te  Te39  1  0.75088450  0.75103031  0.75281826  1
  Te  Te40  1  0.25511830  0.00354875  -0.00255018  1
  Te  Te41  1  0.25137186  0.00152153  0.50450136  1
  Te  Te42  1  0.25107405  0.49376573  0.00372986  1
  Te  Te43  1  0.24988321  0.49803759  0.49723162  1
  Te  Te44  1  0.74778938  -0.00012605  -0.00300888  1
  Te  Te45  1  0.74856819  0.00148149  0.50470952  1
  Te  Te46  1  0.74903568  0.49942116  -0.00534714  1
  Te  Te47  1  0.74999322  0.49827437  0.50424042  1
  Te  Te48  1  -0.00101680  0.24973904  -0.00371635  1
  Te  Te49  1  -0.00030354  0.24981514  0.50440893  1
  Te  Te50  1  -0.00403235  0.75044194  -0.00254981  1
  Te  Te51  1  -0.00055027  0.74988784  0.50339308  1
  Te  Te52  1  0.50109154  0.24569789  -0.00056122  1
  Te  Te53  1  0.50027668  0.24914515  0.49996995  1
  Te  Te54  1  0.50359476  0.75323733  -0.00319090  1
  Te  Te55  1  0.50016914  0.75186439  0.50306456  1
  Te  Te56  1  0.00135442  -0.00499251  0.26244685  1
  Te  Te57  1  -0.00111632  -0.00200991  0.74795209  1
  Te  Te58  1  0.00210204  0.50252786  0.25792914  1
  Te  Te59  1  -0.00114435  0.50203291  0.74577653  1
  Te  Te60  1  0.49943889  -0.00148355  0.25429223  1
  Te  Te61  1  0.50119239  -0.00077103  0.74833331  1
  Te  Te62  1  0.49651117  0.50190731  0.25981498  1
  Te  Te63  1  0.50098082  0.50537653  0.74525618  1
