# generated using pymatgen
data_AgSbTe2
_symmetry_space_group_name_H-M   'P 1'
_cell_length_a   12.21188403
_cell_length_b   12.20427293
_cell_length_c   12.20751088
_cell_angle_alpha   89.99714414
_cell_angle_beta   89.99972633
_cell_angle_gamma   89.99865206
_symmetry_Int_Tables_number   1
_chemical_formula_structural   AgSbTe2
_chemical_formula_sum   'Ag16 Sb16 Te32'
_cell_volume   1819.37282027
_cell_formula_units_Z   16
loop_
 _symmetry_equiv_pos_site_id
 _symmetry_equiv_pos_as_xyz
  1  'x, y, z'
loop_
 _atom_site_type_symbol
 _atom_site_label
 _atom_site_symmetry_multiplicity
 _atom_site_fract_x
 _atom_site_fract_y
 _atom_site_fract_z
 _atom_site_occupancy
  Ag  Ag0  1  0.24772260  -0.00026672  0.75269213  1
  Ag  Ag1  1  0.74738388  0.24891110  -0.00359965  1
  Ag  Ag2  1  0.25001396  0.75260421  0.00289684  1
  Ag  Ag3  1  0.25133738  0.50660043  0.24900002  1
  Ag  Ag4  1  0.00271837  -0.00418898  0.50220093  1
  Ag  Ag5  1  0.75205419  0.75063270  0.50013122  1
  Ag  Ag6  1  0.49802351  0.24852434  0.24567368  1
  Ag  Ag7  1  0.00386727  -0.00056925  -0.00292422  1
  Ag  Ag8  1  0.24779406  0.75108151  0.49657598  1
  Ag  Ag9  1  0.00125423  0.24748371  0.75222944  1
  Ag  Ag10  1  0.49685702  0.00208849  -0.00067041  1
  Ag  Ag11  1  0.00659087  0.75145767  0.25169136  1
  Ag  Ag12  1  0.24999259  0.50018326  0.75091141  1
  Ag  Ag13  1  0.49265024  0.75039386  0.24858342  1
  Ag  Ag14  1  0.49915326  0.24929525  0.75451793  1
  Ag  Ag15  1  0.75009549  0.49753689  0.75047323  1
  Sb  Sb16  1  0.75119781  0.24988415  0.50325115  1
  Sb  Sb17  1  0.49679096  0.75135215  0.75309312  1
  Sb  Sb18  1  0.00289920  0.75381123  0.74835748  1
  Sb  Sb19  1  0.75205320  0.00261401  0.75060970  1
  Sb  Sb20  1  0.00167559  0.50548343  0.50134067  1
  Sb  Sb21  1  0.49824360  0.49707472  -0.00039664  1
  Sb  Sb22  1  0.74939525  -0.00087728  0.25015655  1
  Sb  Sb23  1  0.00229884  0.24881964  0.24682383  1
  Sb  Sb24  1  0.25055727  -0.00852665  0.24631924  1
  Sb  Sb25  1  0.75009624  0.75089744  -0.00039341  1
  Sb  Sb26  1  0.00222996  0.50089475  -0.00168677  1
  Sb  Sb27  1  0.49666241  -0.00261836  0.50192601  1
  Sb  Sb28  1  0.25269188  0.24562816  -0.00175886  1
  Sb  Sb29  1  0.74840168  0.50092167  0.24998198  1
  Sb  Sb30  1  0.24906129  0.24748426  0.50167856  1
  Sb  Sb31  1  0.49845435  0.50214668  0.50055419  1
  Te  Te32  1  0.25513529  0.25877229  0.24993933  1
  Te  Te33  1  0.25035169  0.25196783  0.75023174  1
  Te  Te34  1  0.25080123  0.74899174  0.24988321  1
  Te  Te35  1  0.25063299  0.74813978  0.75065369  1
  Te  Te36  1  0.74437675  0.25323292  0.24558590  1
  Te  Te37  1  0.74885837  0.25293612  0.75185411  1
  Te  Te38  1  0.74963505  0.74744735  0.25332690  1
  Te  Te39  1  0.74927638  0.74329828  0.74618795  1
  Te  Te40  1  0.24946483  -0.00353772  -0.00370081  1
  Te  Te41  1  0.24603028  -0.00505542  0.50633537  1
  Te  Te42  1  0.24950710  0.50779067  -0.00249918  1
  Te  Te43  1  0.24912020  0.50736479  0.50261618  1
  Te  Te44  1  0.74973991  0.00318530  -0.00056914  1
  Te  Te45  1  0.75648132  -0.00684673  0.50066002  1
  Te  Te46  1  0.75069240  0.49550881  -0.00662667  1
  Te  Te47  1  0.75100628  0.50612009  0.50641212  1
  Te  Te48  1  -0.00314714  0.24359549  -0.00187515  1
  Te  Te49  1  -0.00160889  0.24066455  0.50357559  1
  Te  Te50  1  0.00140831  0.75606825  0.00358575  1
  Te  Te51  1  0.00208827  0.75450908  0.49810071  1
  Te  Te52  1  0.50142952  0.24616794  -0.00090442  1
  Te  Te53  1  0.50155779  0.24781088  0.49918770  1
  Te  Te54  1  0.49850415  0.75606939  0.00425748  1
  Te  Te55  1  0.49872532  0.75206843  0.49325090  1
  Te  Te56  1  0.00035684  -0.00324365  0.24897948  1
  Te  Te57  1  0.00284867  0.00301669  0.75225414  1
  Te  Te58  1  0.00576107  0.50393430  0.25003302  1
  Te  Te59  1  0.00342621  0.49288642  0.75008915  1
  Te  Te60  1  0.49930727  0.00128520  0.24541838  1
  Te  Te61  1  0.49595612  0.00413918  0.75343558  1
  Te  Te62  1  0.49556277  0.50092083  0.24999504  1
  Te  Te63  1  0.49649518  0.49403243  0.75008579  1
