# generated using pymatgen
data_AgSbTe2
_symmetry_space_group_name_H-M   'P 1'
_cell_length_a   12.30322517
_cell_length_b   12.30105297
_cell_length_c   12.30251958
_cell_angle_alpha   89.99332982
_cell_angle_beta   90.00844554
_cell_angle_gamma   90.00155374
_symmetry_Int_Tables_number   1
_chemical_formula_structural   AgSbTe2
_chemical_formula_sum   'Ag16 Sb16 Te32'
_cell_volume   1861.89556654
_cell_formula_units_Z   16
loop_
 _symmetry_equiv_pos_site_id
 _symmetry_equiv_pos_as_xyz
  1  'x, y, z'
loop_
 _atom_site_type_symbol
 _atom_site_label
 _atom_site_symmetry_multiplicity
 _atom_site_fract_x
 _atom_site_fract_y
 _atom_site_fract_z
 _atom_site_occupancy
  Ag  Ag0  1  0.25273322  0.00938968  0.25025521  1
  Ag  Ag1  1  0.74664628  0.26528915  0.50291247  1
  Ag  Ag2  1  0.74837157  0.73039535  0.50447569  1
  Ag  Ag3  1  0.75590768  0.49551742  0.75005499  1
  Ag  Ag4  1  0.24194342  0.49613294  0.74976644  1
  Ag  Ag5  1  -0.01609464  0.49342791  0.50994527  1
  Ag  Ag6  1  0.50588990  0.00877632  0.49345546  1
  Ag  Ag7  1  0.25396941  0.49386902  0.24981263  1
  Ag  Ag8  1  0.50118327  0.25705607  0.25445233  1
  Ag  Ag9  1  -0.00636635  0.00722408  0.00134613  1
  Ag  Ag10  1  0.75161493  0.73034512  -0.00408960  1
  Ag  Ag11  1  -0.01598540  0.49504157  -0.00995515  1
  Ag  Ag12  1  0.51463826  0.49563960  0.49905889  1
  Ag  Ag13  1  -0.00702885  0.25833886  0.75409487  1
  Ag  Ag14  1  0.51477056  0.49393751  0.00091137  1
  Ag  Ag15  1  0.75389526  0.26564649  -0.00492916  1
  Sb  Sb16  1  0.24636909  0.25475290  0.00088773  1
  Sb  Sb17  1  0.74636628  0.49917223  0.24968735  1
  Sb  Sb18  1  0.50009747  0.74409396  0.25050815  1
  Sb  Sb19  1  -0.00258914  0.74275940  0.75036730  1
  Sb  Sb20  1  0.50265551  0.74645321  0.74972231  1
  Sb  Sb21  1  0.25181509  0.74426009  0.50007205  1
  Sb  Sb22  1  0.24757485  0.74414598  0.00004639  1
  Sb  Sb23  1  -0.00292426  0.00426860  0.49935363  1
  Sb  Sb24  1  0.50306266  0.25431318  0.75118251  1
  Sb  Sb25  1  0.75127820  0.00540924  0.75013495  1
  Sb  Sb26  1  0.25409521  0.25447046  0.49842149  1
  Sb  Sb27  1  -0.00058207  0.74439573  0.24928747  1
  Sb  Sb28  1  0.24754212  0.00775974  0.74959530  1
  Sb  Sb29  1  0.74816607  0.00174201  0.25028398  1
  Sb  Sb30  1  0.50368925  0.00425963  0.00421428  1
  Sb  Sb31  1  -0.00113407  0.25534170  0.25096273  1
  Te  Te32  1  0.25740437  0.25139034  0.24970640  1
  Te  Te33  1  0.23962498  0.25660317  0.74927290  1
  Te  Te34  1  0.24974768  0.74929928  0.25000927  1
  Te  Te35  1  0.24909739  0.73624774  0.75010798  1
  Te  Te36  1  0.74418086  0.24763258  0.25195902  1
  Te  Te37  1  0.75284126  0.25487171  0.75118230  1
  Te  Te38  1  0.75024816  0.75483459  0.24997037  1
  Te  Te39  1  0.75088467  0.73841055  0.75010318  1
  Te  Te40  1  0.24903453  -0.00198581  0.00079339  1
  Te  Te41  1  0.25193745  -0.00184729  0.49805876  1
  Te  Te42  1  0.25233170  0.50053681  -0.00065369  1
  Te  Te43  1  0.25075238  0.50053041  0.50064641  1
  Te  Te44  1  0.75388127  0.00248623  -0.00214132  1
  Te  Te45  1  0.74610776  0.00220971  0.50227887  1
  Te  Te46  1  0.74916562  0.49731515  0.00992464  1
  Te  Te47  1  0.75068750  0.49757080  0.48984544  1
  Te  Te48  1  -0.00063738  0.25582309  0.00286906  1
  Te  Te49  1  -0.00677818  0.25270696  0.49690957  1
  Te  Te50  1  -0.00468048  0.74514345  -0.00011910  1
  Te  Te51  1  -0.00880143  0.74807526  0.50058022  1
  Te  Te52  1  0.50480294  0.25213113  -0.00189448  1
  Te  Te53  1  0.50070781  0.25555764  0.50109327  1
  Te  Te54  1  0.50864110  0.74733697  -0.00040160  1
  Te  Te55  1  0.50449520  0.74235345  0.50010411  1
  Te  Te56  1  0.00852945  -0.00025662  0.24553983  1
  Te  Te57  1  0.00186194  0.01042172  0.75481495  1
  Te  Te58  1  0.01416931  0.50098138  0.25044622  1
  Te  Te59  1  -0.00666751  0.49815874  0.74925617  1
  Te  Te60  1  0.49671319  0.00528143  0.25321943  1
  Te  Te61  1  0.49694664  -0.00070733  0.73941411  1
  Te  Te62  1  0.49554639  0.49750157  0.25023550  1
  Te  Te63  1  0.50565264  0.49976002  0.75057338  1
