# generated using pymatgen
data_AgSbTe2
_symmetry_space_group_name_H-M   'P 1'
_cell_length_a   12.21919234
_cell_length_b   12.23724078
_cell_length_c   12.24337099
_cell_angle_alpha   89.99984258
_cell_angle_beta   89.99384195
_cell_angle_gamma   90.00218154
_symmetry_Int_Tables_number   1
_chemical_formula_structural   AgSbTe2
_chemical_formula_sum   'Ag16 Sb16 Te32'
_cell_volume   1830.74144304
_cell_formula_units_Z   16
loop_
 _symmetry_equiv_pos_site_id
 _symmetry_equiv_pos_as_xyz
  1  'x, y, z'
loop_
 _atom_site_type_symbol
 _atom_site_label
 _atom_site_symmetry_multiplicity
 _atom_site_fract_x
 _atom_site_fract_y
 _atom_site_fract_z
 _atom_site_occupancy
  Ag  Ag0  1  0.50752684  0.00159323  0.49755793  1
  Ag  Ag1  1  0.74620821  0.74335724  0.49608674  1
  Ag  Ag2  1  -0.00622181  0.25455583  0.74918797  1
  Ag  Ag3  1  0.74845298  0.00374156  0.74937917  1
  Ag  Ag4  1  0.50740938  0.74837956  0.25275982  1
  Ag  Ag5  1  0.51078305  0.49820739  0.49596637  1
  Ag  Ag6  1  0.50711525  0.00147441  0.00239243  1
  Ag  Ag7  1  0.51014148  0.25211538  0.25291915  1
  Ag  Ag8  1  -0.00673614  0.49573798  0.00002250  1
  Ag  Ag9  1  -0.00950023  0.49543558  0.49930942  1
  Ag  Ag10  1  0.75116091  0.25254166  0.00594790  1
  Ag  Ag11  1  0.74917190  0.49437719  0.25516019  1
  Ag  Ag12  1  0.74806827  0.74792167  0.00348313  1
  Ag  Ag13  1  0.24769575  0.49741473  0.74872288  1
  Ag  Ag14  1  -0.01181656  0.25575074  0.25065325  1
  Ag  Ag15  1  0.74897387  0.25640080  0.49346971  1
  Sb  Sb16  1  -0.00884026  0.00437846  -0.00057617  1
  Sb  Sb17  1  0.74705763  0.00574740  0.25079598  1
  Sb  Sb18  1  0.25462178  0.74634733  0.49935287  1
  Sb  Sb19  1  0.25142728  0.25162054  0.50025729  1
  Sb  Sb20  1  0.50629605  0.25084894  0.74799979  1
  Sb  Sb21  1  0.25079814  0.00307781  0.74980955  1
  Sb  Sb22  1  0.25419499  0.00155400  0.25019485  1
  Sb  Sb23  1  -0.00448884  0.74481345  0.74962008  1
  Sb  Sb24  1  0.75121376  0.49620263  0.74560394  1
  Sb  Sb25  1  0.50763657  0.49897719  0.00321764  1
  Sb  Sb26  1  0.25038984  0.49904538  0.25016541  1
  Sb  Sb27  1  0.50469480  0.74935862  0.74769002  1
  Sb  Sb28  1  -0.01101924  0.74325014  0.25076985  1
  Sb  Sb29  1  0.25364925  0.74678885  0.00058350  1
  Sb  Sb30  1  0.25020875  0.25159434  -0.00041908  1
  Sb  Sb31  1  -0.00947250  0.00549413  0.50062271  1
  Te  Te32  1  0.25158109  0.25013202  0.24967255  1
  Te  Te33  1  0.23974311  0.25443007  0.75036859  1
  Te  Te34  1  0.26188113  0.75092380  0.24925829  1
  Te  Te35  1  0.24785788  0.74374954  0.75067078  1
  Te  Te36  1  0.74884605  0.25231387  0.25068101  1
  Te  Te37  1  0.75293590  0.24692579  0.75061535  1
  Te  Te38  1  0.74698012  0.74538017  0.25075081  1
  Te  Te39  1  0.75072589  0.75759931  0.75073940  1
  Te  Te40  1  0.26173548  -0.00112396  -0.00106026  1
  Te  Te41  1  0.26222358  -0.00148525  0.50110870  1
  Te  Te42  1  0.24087879  0.50062274  -0.00480055  1
  Te  Te43  1  0.24806331  0.50102663  0.50331352  1
  Te  Te44  1  0.74647509  0.00074348  -0.00211957  1
  Te  Te45  1  0.74625790  0.00064847  0.50176967  1
  Te  Te46  1  0.75239369  0.49831575  0.00073208  1
  Te  Te47  1  0.74946373  0.49831946  0.50021113  1
  Te  Te48  1  -0.00336346  0.25165812  0.00230711  1
  Te  Te49  1  -0.00247104  0.25193435  0.49785511  1
  Te  Te50  1  -0.00661445  0.74642067  0.00127971  1
  Te  Te51  1  -0.00645122  0.74510949  0.49842404  1
  Te  Te52  1  0.50420319  0.24894661  0.00252718  1
  Te  Te53  1  0.50241168  0.25156730  0.49850130  1
  Te  Te54  1  0.50540565  0.75055859  0.00306625  1
  Te  Te55  1  0.50417902  0.74849265  0.49830719  1
  Te  Te56  1  0.00301811  0.00947351  0.25026987  1
  Te  Te57  1  -0.00273640  0.00740589  0.74958940  1
  Te  Te58  1  -0.00173664  0.49707664  0.25165000  1
  Te  Te59  1  -0.00047663  0.49651220  0.74861618  1
  Te  Te60  1  0.50051102  0.00237451  0.25106945  1
  Te  Te61  1  0.50250658  0.00012744  0.74944224  1
  Te  Te62  1  0.50159394  0.49702832  0.25270458  1
  Te  Te63  1  0.49517677  0.49868766  0.74377211  1
