# generated using pymatgen
data_AgSbTe2
_symmetry_space_group_name_H-M   'P 1'
_cell_length_a   12.30242661
_cell_length_b   12.30775702
_cell_length_c   12.31234292
_cell_angle_alpha   89.99853257
_cell_angle_beta   90.01424218
_cell_angle_gamma   89.99681839
_symmetry_Int_Tables_number   1
_chemical_formula_structural   AgSbTe2
_chemical_formula_sum   'Ag16 Sb16 Te32'
_cell_volume   1864.27675788
_cell_formula_units_Z   16
loop_
 _symmetry_equiv_pos_site_id
 _symmetry_equiv_pos_as_xyz
  1  'x, y, z'
loop_
 _atom_site_type_symbol
 _atom_site_label
 _atom_site_symmetry_multiplicity
 _atom_site_fract_x
 _atom_site_fract_y
 _atom_site_fract_z
 _atom_site_occupancy
  Ag  Ag0  1  0.49751588  0.74089704  0.74807085  1
  Ag  Ag1  1  0.00958127  0.00072396  0.49540343  1
  Ag  Ag2  1  0.24129315  0.26344605  0.00391140  1
  Ag  Ag3  1  0.47846365  0.50253528  0.50410508  1
  Ag  Ag4  1  0.00372912  0.00534952  0.00355761  1
  Ag  Ag5  1  0.75445110  0.73310952  -0.00293133  1
  Ag  Ag6  1  0.24829702  0.50015317  0.73099911  1
  Ag  Ag7  1  0.24870501  0.73064940  0.50028929  1
  Ag  Ag8  1  -0.00301831  0.49499932  0.00118712  1
  Ag  Ag9  1  0.76000150  0.50044321  0.23939422  1
  Ag  Ag10  1  0.24656422  0.26735710  0.49507486  1
  Ag  Ag11  1  0.76434267  0.26475345  -0.00022788  1
  Ag  Ag12  1  0.24425738  0.00562810  0.25524054  1
  Ag  Ag13  1  0.01200951  0.49988261  0.49885554  1
  Ag  Ag14  1  0.75371474  0.50227155  0.75895413  1
  Ag  Ag15  1  0.24422822  0.49677656  0.26632216  1
  Sb  Sb16  1  0.75208463  0.74545528  0.50012714  1
  Sb  Sb17  1  0.00101231  0.25274845  0.75075104  1
  Sb  Sb18  1  0.75162091  -0.00212801  0.75343745  1
  Sb  Sb19  1  0.49947522  0.49941901  -0.00223349  1
  Sb  Sb20  1  0.48971656  -0.00025986  0.49966559  1
  Sb  Sb21  1  0.49376630  -0.00030209  0.00028472  1
  Sb  Sb22  1  0.00075527  0.74728879  0.24980168  1
  Sb  Sb23  1  0.49747245  0.25353859  0.24943599  1
  Sb  Sb24  1  0.49841689  0.74545198  0.24911801  1
  Sb  Sb25  1  0.75619732  0.25796766  0.49949032  1
  Sb  Sb26  1  0.00100802  0.74675972  0.75024561  1
  Sb  Sb27  1  0.49817557  0.25437711  0.74863005  1
  Sb  Sb28  1  0.75654904  0.00009756  0.24540924  1
  Sb  Sb29  1  0.24689373  0.74048122  0.00168629  1
  Sb  Sb30  1  0.24900052  0.00014349  0.74990274  1
  Sb  Sb31  1  0.00289738  0.25345859  0.24767707  1
  Te  Te32  1  0.24886974  0.25538553  0.24650694  1
  Te  Te33  1  0.25073148  0.25496177  0.75507552  1
  Te  Te34  1  0.24987811  0.74338241  0.25148400  1
  Te  Te35  1  0.25159266  0.74600070  0.74897414  1
  Te  Te36  1  0.74833103  0.25473567  0.24486375  1
  Te  Te37  1  0.74813560  0.25542457  0.75516095  1
  Te  Te38  1  0.74944738  0.74539160  0.24510832  1
  Te  Te39  1  0.74855404  0.74700425  0.75040624  1
  Te  Te40  1  0.24465075  -0.00033517  -0.00262213  1
  Te  Te41  1  0.24566758  0.00361388  0.50130125  1
  Te  Te42  1  0.25140226  0.49981771  0.00348357  1
  Te  Te43  1  0.24855512  0.50083643  0.50080525  1
  Te  Te44  1  0.75779828  0.00646334  0.00186978  1
  Te  Te45  1  0.76127278  0.00347047  0.49736604  1
  Te  Te46  1  0.74764497  0.49862893  0.00082491  1
  Te  Te47  1  0.76204367  0.49687836  0.49952415  1
  Te  Te48  1  0.00331054  0.25576319  0.00104321  1
  Te  Te49  1  0.00469938  0.25196460  0.50067309  1
  Te  Te50  1  -0.00430548  0.74601681  0.00033231  1
  Te  Te51  1  0.00280380  0.74720646  0.49960347  1
  Te  Te52  1  0.49244056  0.24713282  -0.00109886  1
  Te  Te53  1  0.49256781  0.25056645  0.50098273  1
  Te  Te54  1  0.50750693  0.75202175  -0.00416461  1
  Te  Te55  1  0.50077940  0.74947878  0.50205533  1
  Te  Te56  1  0.00609599  -0.00043844  0.25001973  1
  Te  Te57  1  -0.00240757  -0.00123036  0.75165224  1
  Te  Te58  1  0.00040769  0.49864297  0.24731108  1
  Te  Te59  1  0.00028152  0.49912823  0.75244506  1
  Te  Te60  1  0.48634920  -0.00037114  0.25040404  1
  Te  Te61  1  0.50298250  -0.01248572  0.74974027  1
  Te  Te62  1  0.49461576  0.49999340  0.25959758  1
  Te  Te63  1  0.49811826  0.50147643  0.74763506  1
