# generated using pymatgen
data_AgSbTe2
_symmetry_space_group_name_H-M   'P 1'
_cell_length_a   12.21975483
_cell_length_b   12.21573256
_cell_length_c   12.21628786
_cell_angle_alpha   90.00463959
_cell_angle_beta   89.99683952
_cell_angle_gamma   90.00391057
_symmetry_Int_Tables_number   1
_chemical_formula_structural   AgSbTe2
_chemical_formula_sum   'Ag16 Sb16 Te32'
_cell_volume   1823.56506313
_cell_formula_units_Z   16
loop_
 _symmetry_equiv_pos_site_id
 _symmetry_equiv_pos_as_xyz
  1  'x, y, z'
loop_
 _atom_site_type_symbol
 _atom_site_label
 _atom_site_symmetry_multiplicity
 _atom_site_fract_x
 _atom_site_fract_y
 _atom_site_fract_z
 _atom_site_occupancy
  Ag  Ag0  1  0.49696557  0.24506481  0.75230288  1
  Ag  Ag1  1  0.00305692  0.50108373  0.49843211  1
  Ag  Ag2  1  0.75911397  0.50067325  0.25093344  1
  Ag  Ag3  1  0.75209307  0.74772217  0.50377209  1
  Ag  Ag4  1  0.49634205  -0.00175331  -0.00754667  1
  Ag  Ag5  1  0.00280658  0.25035471  0.75265180  1
  Ag  Ag6  1  0.00340016  0.00083450  -0.00547430  1
  Ag  Ag7  1  0.00452749  0.49874071  0.00166419  1
  Ag  Ag8  1  0.24872923  0.74964912  -0.00765437  1
  Ag  Ag9  1  0.24901561  0.74630134  0.50802543  1
  Ag  Ag10  1  0.00108819  0.25708311  0.24738396  1
  Ag  Ag11  1  0.24122951  0.50130784  0.24913785  1
  Ag  Ag12  1  0.25185428  -0.00439447  0.75416931  1
  Ag  Ag13  1  0.74903902  -0.00167561  0.75141919  1
  Ag  Ag14  1  0.49400893  0.75422074  0.75091728  1
  Ag  Ag15  1  0.24597160  0.50495885  0.75066206  1
  Sb  Sb16  1  0.49920974  -0.00211612  0.50960841  1
  Sb  Sb17  1  0.49625134  0.50223579  0.50227194  1
  Sb  Sb18  1  0.24687762  0.25094567  -0.00367726  1
  Sb  Sb19  1  0.49829067  0.25067044  0.24597798  1
  Sb  Sb20  1  0.24760431  0.25498213  0.50382165  1
  Sb  Sb21  1  0.00823511  0.74917760  0.75042085  1
  Sb  Sb22  1  0.24615998  -0.00148269  0.24555822  1
  Sb  Sb23  1  0.75253100  0.25329397  0.50193574  1
  Sb  Sb24  1  0.00156738  -0.00138428  0.50654883  1
  Sb  Sb25  1  0.75287193  0.25093309  -0.00151817  1
  Sb  Sb26  1  0.75446892  -0.00157287  0.24908334  1
  Sb  Sb27  1  0.75096154  0.74937309  -0.00469121  1
  Sb  Sb28  1  0.49420684  0.50207336  -0.00353763  1
  Sb  Sb29  1  0.00058942  0.74147412  0.24982630  1
  Sb  Sb30  1  0.49867908  0.75013049  0.24853728  1
  Sb  Sb31  1  0.75604195  0.50265543  0.74905817  1
  Te  Te32  1  0.24637793  0.25611878  0.25239732  1
  Te  Te33  1  0.24871714  0.24968484  0.74898729  1
  Te  Te34  1  0.25102035  0.74528867  0.25079373  1
  Te  Te35  1  0.25019303  0.74941066  0.75033611  1
  Te  Te36  1  0.75393030  0.25561059  0.25138471  1
  Te  Te37  1  0.75082812  0.24577560  0.74884509  1
  Te  Te38  1  0.74856998  0.74569060  0.25728176  1
  Te  Te39  1  0.74318761  0.75232245  0.74674909  1
  Te  Te40  1  0.24726308  -0.00456811  -0.00217800  1
  Te  Te41  1  0.24915991  -0.00971397  0.50423318  1
  Te  Te42  1  0.24668761  0.50390938  -0.00163839  1
  Te  Te43  1  0.24693245  0.50417899  0.50183069  1
  Te  Te44  1  0.75307326  -0.00188003  -0.00421299  1
  Te  Te45  1  0.75038133  -0.00786991  0.50445761  1
  Te  Te46  1  0.75799951  0.50194648  0.00474290  1
  Te  Te47  1  0.75505178  0.50462145  0.49775910  1
  Te  Te48  1  0.00033492  0.25112199  -0.00229245  1
  Te  Te49  1  -0.00000874  0.25538696  0.50149830  1
  Te  Te50  1  0.00409582  0.75041273  0.00040580  1
  Te  Te51  1  0.00094635  0.74566454  0.49980054  1
  Te  Te52  1  0.50040027  0.24445377  -0.00633649  1
  Te  Te53  1  0.50046508  0.24958052  0.50825759  1
  Te  Te54  1  0.49612484  0.75288148  -0.00479898  1
  Te  Te55  1  0.49795986  0.74976907  0.50521787  1
  Te  Te56  1  -0.00064454  0.01063042  0.24178782  1
  Te  Te57  1  0.00130533  0.00422148  0.75260966  1
  Te  Te58  1  0.00199383  0.49748617  0.24865830  1
  Te  Te59  1  0.00202134  0.49636347  0.75125092  1
  Te  Te60  1  0.50030530  0.00300395  0.23857943  1
  Te  Te61  1  0.49754299  0.00001891  0.75300924  1
  Te  Te62  1  0.49906612  0.49740103  0.24892105  1
  Te  Te63  1  0.49492886  0.49951632  0.75164145  1
