# generated using pymatgen
data_AgSbTe2
_symmetry_space_group_name_H-M   'P 1'
_cell_length_a   12.23443735
_cell_length_b   12.22737875
_cell_length_c   12.22830719
_cell_angle_alpha   90.00331687
_cell_angle_beta   90.00075723
_cell_angle_gamma   90.00585953
_symmetry_Int_Tables_number   1
_chemical_formula_structural   AgSbTe2
_chemical_formula_sum   'Ag16 Sb16 Te32'
_cell_volume   1829.29481454
_cell_formula_units_Z   16
loop_
 _symmetry_equiv_pos_site_id
 _symmetry_equiv_pos_as_xyz
  1  'x, y, z'
loop_
 _atom_site_type_symbol
 _atom_site_label
 _atom_site_symmetry_multiplicity
 _atom_site_fract_x
 _atom_site_fract_y
 _atom_site_fract_z
 _atom_site_occupancy
  Ag  Ag0  1  -0.00322951  0.49761849  0.49687531  1
  Ag  Ag1  1  -0.00232034  0.49449134  0.00482272  1
  Ag  Ag2  1  0.75450038  0.48484046  0.25280312  1
  Ag  Ag3  1  -0.01449654  0.25249796  0.25211208  1
  Ag  Ag4  1  0.24929952  0.24759598  0.00444241  1
  Ag  Ag5  1  0.50070925  0.00629541  0.00439794  1
  Ag  Ag6  1  0.75116569  0.24908420  0.01530480  1
  Ag  Ag7  1  0.00081668  0.75008013  0.74449410  1
  Ag  Ag8  1  0.50051057  0.00463036  0.49669298  1
  Ag  Ag9  1  0.24666984  0.75334428  0.50200979  1
  Ag  Ag10  1  0.74715157  0.01479588  0.25333473  1
  Ag  Ag11  1  0.75186667  0.24858571  0.48558008  1
  Ag  Ag12  1  0.24999160  0.00157276  0.74595980  1
  Ag  Ag13  1  0.24879789  0.24606631  0.49542567  1
  Ag  Ag14  1  0.51449538  0.24588232  0.25147583  1
  Ag  Ag15  1  0.75321972  0.75105417  0.49742400  1
  Sb  Sb16  1  0.49970410  0.75428650  0.74727217  1
  Sb  Sb17  1  0.49933043  0.24751529  0.74831651  1
  Sb  Sb18  1  0.00044726  0.24994071  0.74848404  1
  Sb  Sb19  1  0.50249284  0.75459941  0.25206099  1
  Sb  Sb20  1  0.75314097  0.49948612  0.74723493  1
  Sb  Sb21  1  0.75041386  0.00045927  0.74722964  1
  Sb  Sb22  1  0.24697598  0.75228345  -0.00161588  1
  Sb  Sb23  1  0.75235007  0.75022061  0.00274210  1
  Sb  Sb24  1  -0.00220622  0.74765925  0.25388326  1
  Sb  Sb25  1  0.25269516  0.00491477  0.25244723  1
  Sb  Sb26  1  -0.00007111  0.00218538  0.49896987  1
  Sb  Sb27  1  0.24649813  0.49897686  0.74868433  1
  Sb  Sb28  1  0.24519600  0.49465279  0.25104747  1
  Sb  Sb29  1  -0.00040884  0.00565444  0.00190036  1
  Sb  Sb30  1  0.50200302  0.49592787  0.49626130  1
  Sb  Sb31  1  0.50150297  0.49279410  0.00529505  1
  Te  Te32  1  0.24881257  0.25018773  0.25177165  1
  Te  Te33  1  0.24949535  0.24557567  0.74823130  1
  Te  Te34  1  0.25042575  0.74916483  0.25819838  1
  Te  Te35  1  0.24718636  0.75383406  0.74569790  1
  Te  Te36  1  0.75199484  0.24858510  0.25080169  1
  Te  Te37  1  0.75074539  0.24960013  0.74974249  1
  Te  Te38  1  0.74981936  0.75094095  0.25527256  1
  Te  Te39  1  0.75460231  0.75007553  0.74289063  1
  Te  Te40  1  0.25224605  0.00421020  -0.00112271  1
  Te  Te41  1  0.25141131  0.00341614  0.50033009  1
  Te  Te42  1  0.24672202  0.49461168  -0.00003007  1
  Te  Te43  1  0.24693285  0.49783730  0.49985139  1
  Te  Te44  1  0.74755877  0.00250109  0.00102001  1
  Te  Te45  1  0.74822532  0.00271832  0.49959824  1
  Te  Te46  1  0.75299970  0.49789164  0.00270579  1
  Te  Te47  1  0.75223586  0.49771605  0.49824386  1
  Te  Te48  1  -0.00019452  0.25352877  -0.00042899  1
  Te  Te49  1  0.00028113  0.25257664  0.49930421  1
  Te  Te50  1  0.00082858  0.74167727  -0.00361323  1
  Te  Te51  1  -0.00032850  0.74742664  0.50060327  1
  Te  Te52  1  0.49964704  0.24666761  0.00147727  1
  Te  Te53  1  0.49886994  0.24717326  0.49847626  1
  Te  Te54  1  0.49865779  0.75858988  -0.00032767  1
  Te  Te55  1  0.50014377  0.75455046  0.49921946  1
  Te  Te56  1  -0.00762584  0.00604862  0.24836870  1
  Te  Te57  1  0.00610993  -0.00618258  0.75103700  1
  Te  Te58  1  -0.00346725  0.49696454  0.25170881  1
  Te  Te59  1  0.00027752  0.50468168  0.74713685  1
  Te  Te60  1  0.50287592  0.00387028  0.25174054  1
  Te  Te61  1  0.49472368  -0.00034714  0.74797864  1
  Te  Te62  1  0.50872665  0.49252696  0.24962726  1
  Te  Te63  1  0.49984732  0.50138813  0.75111971  1
