# generated using pymatgen
data_AgSbTe2
_symmetry_space_group_name_H-M   'P 1'
_cell_length_a   12.31694691
_cell_length_b   12.32594358
_cell_length_c   12.28529269
_cell_angle_alpha   89.99767240
_cell_angle_beta   89.97556062
_cell_angle_gamma   89.99333473
_symmetry_Int_Tables_number   1
_chemical_formula_structural   AgSbTe2
_chemical_formula_sum   'Ag16 Sb16 Te32'
_cell_volume   1865.12829336
_cell_formula_units_Z   16
loop_
 _symmetry_equiv_pos_site_id
 _symmetry_equiv_pos_as_xyz
  1  'x, y, z'
loop_
 _atom_site_type_symbol
 _atom_site_label
 _atom_site_symmetry_multiplicity
 _atom_site_fract_x
 _atom_site_fract_y
 _atom_site_fract_z
 _atom_site_occupancy
  Ag  Ag0  1  0.25086466  0.50111776  0.74269023  1
  Ag  Ag1  1  0.51590543  0.74779150  0.25603796  1
  Ag  Ag2  1  0.50956954  0.49512680  0.49259066  1
  Ag  Ag3  1  0.26155407  0.25775471  0.49377374  1
  Ag  Ag4  1  -0.00836365  -0.00795778  0.00907657  1
  Ag  Ag5  1  0.75267733  0.75190535  0.01765039  1
  Ag  Ag6  1  0.50971290  0.00498808  0.49152974  1
  Ag  Ag7  1  0.73939516  0.25839881  0.48397094  1
  Ag  Ag8  1  0.74571284  0.51815726  0.26031611  1
  Ag  Ag9  1  0.24854249  0.74919122  0.00689866  1
  Ag  Ag10  1  0.51006539  0.25222798  0.25869858  1
  Ag  Ag11  1  0.74761832  0.24876475  0.01819028  1
  Ag  Ag12  1  -0.01932367  0.74847816  0.24844786  1
  Ag  Ag13  1  -0.01047522  0.50070367  0.49424728  1
  Ag  Ag14  1  0.74344354  0.73975927  0.48345745  1
  Ag  Ag15  1  0.74665624  -0.01973660  0.25216246  1
  Sb  Sb16  1  0.50164446  0.74877790  0.74521513  1
  Sb  Sb17  1  0.25245279  0.74823376  0.49427798  1
  Sb  Sb18  1  0.50397483  -0.00193642  0.00796311  1
  Sb  Sb19  1  -0.01122084  0.25323026  0.25182534  1
  Sb  Sb20  1  0.25262123  0.50039494  0.25074017  1
  Sb  Sb21  1  0.50259621  0.50134135  0.00620355  1
  Sb  Sb22  1  0.25027833  -0.00089183  0.74804256  1
  Sb  Sb23  1  0.25240542  0.24924081  0.00510533  1
  Sb  Sb24  1  -0.00117009  0.74867498  0.74994595  1
  Sb  Sb25  1  0.74963470  0.50021967  0.74419730  1
  Sb  Sb26  1  0.50186073  0.25092107  0.74097852  1
  Sb  Sb27  1  -0.00139937  0.25105939  0.74805864  1
  Sb  Sb28  1  0.25309765  -0.00140766  0.25187382  1
  Sb  Sb29  1  0.74935494  0.00033066  0.74913025  1
  Sb  Sb30  1  -0.00267650  0.50127337  0.00503033  1
  Sb  Sb31  1  -0.00385818  0.00047319  0.49505052  1
  Te  Te32  1  0.26150269  0.24876308  0.25421680  1
  Te  Te33  1  0.24980493  0.25331513  0.74819503  1
  Te  Te34  1  0.25094490  0.75093994  0.24498906  1
  Te  Te35  1  0.25051312  0.74855545  0.76019076  1
  Te  Te36  1  0.74977294  0.25148476  0.25036819  1
  Te  Te37  1  0.74942641  0.25026283  0.75540007  1
  Te  Te38  1  0.75034338  0.75054804  0.25254083  1
  Te  Te39  1  0.74901922  0.74933475  0.75475326  1
  Te  Te40  1  0.24768126  -0.00196606  -0.00077204  1
  Te  Te41  1  0.24967198  0.00655138  0.50060559  1
  Te  Te42  1  0.25068527  0.50156294  -0.00330962  1
  Te  Te43  1  0.24980229  0.49923486  0.49876611  1
  Te  Te44  1  0.74956646  -0.00086095  -0.00086813  1
  Te  Te45  1  0.74967063  0.00047343  0.50017747  1
  Te  Te46  1  0.74895568  0.49934023  0.00168240  1
  Te  Te47  1  0.75026841  0.50072058  0.49665272  1
  Te  Te48  1  -0.00228751  0.24988815  0.00004775  1
  Te  Te49  1  -0.00164931  0.24968161  0.49982629  1
  Te  Te50  1  -0.00570157  0.74765809  0.00117727  1
  Te  Te51  1  0.00204255  0.75043438  0.49808717  1
  Te  Te52  1  0.50456040  0.24931062  0.00733647  1
  Te  Te53  1  0.50367642  0.25310790  0.49800388  1
  Te  Te54  1  0.50506303  0.74973512  0.00548608  1
  Te  Te55  1  0.49839558  0.74713361  0.49692195  1
  Te  Te56  1  -0.00504520  -0.00431727  0.24673268  1
  Te  Te57  1  0.00096288  0.00123835  0.76306845  1
  Te  Te58  1  -0.00373254  0.50222368  0.25486545  1
  Te  Te59  1  0.00264381  0.49890831  0.73666195  1
  Te  Te60  1  0.50249524  -0.00361323  0.25345805  1
  Te  Te61  1  0.49885143  0.00055707  0.73247964  1
  Te  Te62  1  0.50141223  0.50316918  0.25103282  1
  Te  Te63  1  0.49753130  0.50001769  0.73784819  1
