# generated using pymatgen
data_AgSbTe2
_symmetry_space_group_name_H-M   'P 1'
_cell_length_a   12.31701846
_cell_length_b   12.31154779
_cell_length_c   12.30198224
_cell_angle_alpha   90.01192634
_cell_angle_beta   90.00476699
_cell_angle_gamma   89.99859441
_symmetry_Int_Tables_number   1
_chemical_formula_structural   AgSbTe2
_chemical_formula_sum   'Ag16 Sb16 Te32'
_cell_volume   1865.49174772
_cell_formula_units_Z   16
loop_
 _symmetry_equiv_pos_site_id
 _symmetry_equiv_pos_as_xyz
  1  'x, y, z'
loop_
 _atom_site_type_symbol
 _atom_site_label
 _atom_site_symmetry_multiplicity
 _atom_site_fract_x
 _atom_site_fract_y
 _atom_site_fract_z
 _atom_site_occupancy
  Ag  Ag0  1  0.24473176  -0.01084893  0.74606282  1
  Ag  Ag1  1  -0.01200149  0.51154686  0.50533944  1
  Ag  Ag2  1  0.75117502  0.25625173  -0.00908332  1
  Ag  Ag3  1  0.75207569  0.74635579  -0.01841410  1
  Ag  Ag4  1  0.75369227  0.50347706  0.26086602  1
  Ag  Ag5  1  0.51499848  0.50786539  0.50733033  1
  Ag  Ag6  1  -0.01778839  0.75195130  0.74046688  1
  Ag  Ag7  1  0.23970653  0.75041052  0.51610901  1
  Ag  Ag8  1  -0.00766723  0.25490703  0.25447671  1
  Ag  Ag9  1  0.24628954  0.75203046  -0.01889312  1
  Ag  Ag10  1  0.74848132  0.51865580  0.74029485  1
  Ag  Ag11  1  0.51980903  0.74833219  0.74523054  1
  Ag  Ag12  1  0.51048286  0.25416132  0.74811875  1
  Ag  Ag13  1  -0.00473503  -0.01422638  0.50805253  1
  Ag  Ag14  1  0.75243312  -0.01821290  0.74699247  1
  Ag  Ag15  1  0.75876572  0.73926900  0.51723278  1
  Sb  Sb16  1  0.25157376  0.50901500  0.74713387  1
  Sb  Sb17  1  0.75293744  -0.00149864  0.25303505  1
  Sb  Sb18  1  0.50413857  -0.00613562  0.50586844  1
  Sb  Sb19  1  0.24503601  0.50057548  0.25586475  1
  Sb  Sb20  1  0.75005390  0.25546531  0.50763900  1
  Sb  Sb21  1  -0.00243744  -0.00290579  -0.00647090  1
  Sb  Sb22  1  -0.00173251  0.74819719  0.25625526  1
  Sb  Sb23  1  0.24318956  -0.00324784  0.25462396  1
  Sb  Sb24  1  0.50227797  0.74583048  0.25375723  1
  Sb  Sb25  1  0.24846826  0.24743831  0.50526054  1
  Sb  Sb26  1  0.50142997  -0.00214420  -0.00404272  1
  Sb  Sb27  1  0.50597968  0.25820115  0.25099534  1
  Sb  Sb28  1  0.24960825  0.24800254  -0.00763020  1
  Sb  Sb29  1  0.50458421  0.50314071  -0.00688645  1
  Sb  Sb30  1  -0.00509863  0.24935220  0.74921619  1
  Sb  Sb31  1  -0.00283945  0.50316015  -0.00606526  1
  Te  Te32  1  0.24484300  0.25000678  0.24645981  1
  Te  Te33  1  0.25820660  0.23770998  0.75201654  1
  Te  Te34  1  0.25088088  0.74939897  0.24562325  1
  Te  Te35  1  0.24775047  0.75076253  0.74814863  1
  Te  Te36  1  0.75192112  0.24989663  0.24227696  1
  Te  Te37  1  0.74619149  0.24938237  0.75242379  1
  Te  Te38  1  0.74922955  0.74689855  0.24467611  1
  Te  Te39  1  0.75143597  0.75042225  0.74884776  1
  Te  Te40  1  0.25054113  -0.00640998  -0.00438601  1
  Te  Te41  1  0.24871188  -0.00372737  0.50285161  1
  Te  Te42  1  0.25083083  0.50838247  0.00237591  1
  Te  Te43  1  0.24436012  0.50538663  0.50019330  1
  Te  Te44  1  0.75058812  -0.00714645  -0.00322849  1
  Te  Te45  1  0.75166735  -0.00539872  0.50331082  1
  Te  Te46  1  0.75052629  0.50415697  -0.00443481  1
  Te  Te47  1  0.75252428  0.49982205  0.50370341  1
  Te  Te48  1  -0.00318997  0.25016322  0.00225129  1
  Te  Te49  1  0.00063649  0.25398685  0.50000203  1
  Te  Te50  1  -0.00323595  0.75041070  -0.00670530  1
  Te  Te51  1  -0.00184140  0.74920199  0.50320352  1
  Te  Te52  1  0.50341414  0.24997100  -0.00474911  1
  Te  Te53  1  0.49822450  0.25750925  0.50525276  1
  Te  Te54  1  0.50458064  0.74947485  -0.00568569  1
  Te  Te55  1  0.50247717  0.74848315  0.50252523  1
  Te  Te56  1  -0.00033888  0.00572676  0.26368113  1
  Te  Te57  1  -0.00378188  0.00204419  0.74714791  1
  Te  Te58  1  -0.00368183  0.49824236  0.25697813  1
  Te  Te59  1  -0.00162118  0.49860954  0.74691732  1
  Te  Te60  1  0.49726553  0.00291267  0.24993671  1
  Te  Te61  1  0.50681835  -0.00559904  0.74941776  1
  Te  Te62  1  0.50770155  0.50107576  0.26318737  1
  Te  Te63  1  0.49874491  0.50387044  0.74704365  1
