# generated using pymatgen
data_AgSbTe2
_symmetry_space_group_name_H-M   'P 1'
_cell_length_a   12.20570355
_cell_length_b   12.21226405
_cell_length_c   12.21131942
_cell_angle_alpha   90.00529104
_cell_angle_beta   90.00051274
_cell_angle_gamma   89.99836957
_symmetry_Int_Tables_number   1
_chemical_formula_structural   AgSbTe2
_chemical_formula_sum   'Ag16 Sb16 Te32'
_cell_volume   1820.21040742
_cell_formula_units_Z   16
loop_
 _symmetry_equiv_pos_site_id
 _symmetry_equiv_pos_as_xyz
  1  'x, y, z'
loop_
 _atom_site_type_symbol
 _atom_site_label
 _atom_site_symmetry_multiplicity
 _atom_site_fract_x
 _atom_site_fract_y
 _atom_site_fract_z
 _atom_site_occupancy
  Ag  Ag0  1  0.75906498  0.50007242  0.74851458  1
  Ag  Ag1  1  0.24815464  0.24864432  0.50229964  1
  Ag  Ag2  1  0.00175060  0.50200396  -0.00559827  1
  Ag  Ag3  1  0.25062853  -0.00014571  0.24821128  1
  Ag  Ag4  1  0.49700210  -0.00008769  0.00352530  1
  Ag  Ag5  1  0.00219975  0.25773036  0.75012591  1
  Ag  Ag6  1  -0.00000975  0.74242337  0.75204977  1
  Ag  Ag7  1  -0.00243126  0.74898394  0.24885282  1
  Ag  Ag8  1  0.50169065  0.00119683  0.49638905  1
  Ag  Ag9  1  0.75480734  0.50215039  0.25210874  1
  Ag  Ag10  1  0.74951172  -0.00219887  0.25305553  1
  Ag  Ag11  1  0.24580094  0.75051568  -0.00008019  1
  Ag  Ag12  1  0.75223511  0.75015354  0.49766862  1
  Ag  Ag13  1  0.24735596  0.24945784  -0.00202076  1
  Ag  Ag14  1  0.24069735  0.49792686  0.75261304  1
  Ag  Ag15  1  0.75133708  0.24965240  0.50032538  1
  Sb  Sb16  1  0.24825229  0.75200709  0.50050996  1
  Sb  Sb17  1  -0.00063930  0.25299938  0.24977175  1
  Sb  Sb18  1  0.50056298  0.74976377  0.75063566  1
  Sb  Sb19  1  0.24887031  0.00229684  0.75158656  1
  Sb  Sb20  1  0.75497724  0.74971591  0.00158958  1
  Sb  Sb21  1  0.50015680  0.24643695  0.25006814  1
  Sb  Sb22  1  0.49787796  0.25028234  0.74957824  1
  Sb  Sb23  1  0.00343387  -0.00209292  0.00269484  1
  Sb  Sb24  1  -0.00246659  0.49986071  0.50747818  1
  Sb  Sb25  1  0.49755820  0.49996195  0.00009806  1
  Sb  Sb26  1  0.75125929  -0.00008520  0.74609778  1
  Sb  Sb27  1  0.50314605  0.75346187  0.24957964  1
  Sb  Sb28  1  0.50279595  0.49911853  0.49987103  1
  Sb  Sb29  1  -0.00145061  0.00042768  0.49780033  1
  Sb  Sb30  1  0.24319156  0.50069861  0.24845070  1
  Sb  Sb31  1  0.75318534  0.24976797  -0.00182373  1
  Te  Te32  1  0.24784223  0.24681296  0.25080917  1
  Te  Te33  1  0.24624832  0.25246957  0.74950670  1
  Te  Te34  1  0.24404870  0.75229955  0.24857869  1
  Te  Te35  1  0.24427030  0.74585793  0.75127526  1
  Te  Te36  1  0.75230419  0.24912730  0.25545235  1
  Te  Te37  1  0.75512873  0.25356071  0.74647406  1
  Te  Te38  1  0.75419618  0.75110403  0.25197167  1
  Te  Te39  1  0.75528178  0.74641738  0.74742780  1
  Te  Te40  1  0.25254312  0.00060437  0.00244923  1
  Te  Te41  1  0.25446565  0.00327419  0.49612159  1
  Te  Te42  1  0.24806814  0.49938637  -0.00160600  1
  Te  Te43  1  0.25338853  0.49418544  0.50328166  1
  Te  Te44  1  0.74310672  0.00122681  0.00708060  1
  Te  Te45  1  0.74693988  0.00143147  0.49680363  1
  Te  Te46  1  0.75280341  0.49914113  -0.00112879  1
  Te  Te47  1  0.74775592  0.49878193  0.50002180  1
  Te  Te48  1  0.00459883  0.25374445  -0.00439791  1
  Te  Te49  1  0.00055523  0.24974143  0.50482358  1
  Te  Te50  1  0.00381671  0.74785849  -0.00133635  1
  Te  Te51  1  -0.00484797  0.75014108  0.49988144  1
  Te  Te52  1  0.49171058  0.24420369  -0.00038770  1
  Te  Te53  1  0.50060696  0.24345488  0.50017121  1
  Te  Te54  1  0.49067347  0.75566457  -0.00086933  1
  Te  Te55  1  0.50601828  0.75742763  0.50075184  1
  Te  Te56  1  -0.00055300  -0.00554671  0.24856219  1
  Te  Te57  1  -0.00086132  -0.00133920  0.75106755  1
  Te  Te58  1  -0.00415390  0.50441253  0.24300777  1
  Te  Te59  1  -0.00047934  0.50062355  0.75194574  1
  Te  Te60  1  0.49997485  -0.00061660  0.25017016  1
  Te  Te61  1  0.50094845  -0.00063433  0.75026790  1
  Te  Te62  1  0.51140450  0.50134069  0.24850393  1
  Te  Te63  1  0.50168876  0.50074161  0.75129145  1
