# generated using pymatgen
data_AgSbTe2
_symmetry_space_group_name_H-M   'P 1'
_cell_length_a   12.22937057
_cell_length_b   12.24215504
_cell_length_c   12.23867684
_cell_angle_alpha   89.99286935
_cell_angle_beta   90.00826491
_cell_angle_gamma   89.99854061
_symmetry_Int_Tables_number   1
_chemical_formula_structural   AgSbTe2
_chemical_formula_sum   'Ag16 Sb16 Te32'
_cell_volume   1832.29940213
_cell_formula_units_Z   16
loop_
 _symmetry_equiv_pos_site_id
 _symmetry_equiv_pos_as_xyz
  1  'x, y, z'
loop_
 _atom_site_type_symbol
 _atom_site_label
 _atom_site_symmetry_multiplicity
 _atom_site_fract_x
 _atom_site_fract_y
 _atom_site_fract_z
 _atom_site_occupancy
  Ag  Ag0  1  0.24195918  0.75185458  0.00045961  1
  Ag  Ag1  1  0.76460826  0.00559841  0.74831620  1
  Ag  Ag2  1  0.00566064  0.75037240  0.24646258  1
  Ag  Ag3  1  0.75922632  0.49399259  0.74569846  1
  Ag  Ag4  1  0.00128181  0.76237580  0.75283496  1
  Ag  Ag5  1  0.50469946  0.25126603  0.74617569  1
  Ag  Ag6  1  0.75474710  0.25238669  0.50821791  1
  Ag  Ag7  1  0.00047917  0.00054556  0.51497396  1
  Ag  Ag8  1  0.23487989  -0.00041550  0.75107235  1
  Ag  Ag9  1  -0.00172649  0.49914498  0.50796150  1
  Ag  Ag10  1  -0.00386161  0.23788526  0.74647694  1
  Ag  Ag11  1  0.50064487  0.49622105  0.50421108  1
  Ag  Ag12  1  0.24335400  0.50457751  0.25064500  1
  Ag  Ag13  1  0.00397201  -0.00525380  -0.01428993  1
  Ag  Ag14  1  0.24222418  -0.00412957  0.24862016  1
  Ag  Ag15  1  0.00195593  0.50589119  -0.00748647  1
  Sb  Sb16  1  0.75953105  0.74977150  -0.00331706  1
  Sb  Sb17  1  0.49310346  0.74859363  0.25071343  1
  Sb  Sb18  1  0.49840857  0.25201218  0.25451321  1
  Sb  Sb19  1  0.49776622  0.49972089  -0.00348393  1
  Sb  Sb20  1  0.75919337  0.00015883  0.25137488  1
  Sb  Sb21  1  0.00097111  0.24969828  0.25329618  1
  Sb  Sb22  1  0.24569529  0.25030253  0.50306026  1
  Sb  Sb23  1  0.24450796  0.75016086  0.49969588  1
  Sb  Sb24  1  0.75448196  0.24987282  -0.00900310  1
  Sb  Sb25  1  0.24060618  0.50116686  0.74996649  1
  Sb  Sb26  1  0.75651089  0.50011965  0.25301233  1
  Sb  Sb27  1  0.49997516  0.00307366  0.50340892  1
  Sb  Sb28  1  0.24586978  0.24825039  -0.00206745  1
  Sb  Sb29  1  0.49822717  0.74948467  0.74956920  1
  Sb  Sb30  1  0.75553440  0.74825042  0.50303490  1
  Sb  Sb31  1  0.49663840  0.00007675  -0.00292662  1
  Te  Te32  1  0.25152753  0.24896174  0.24970869  1
  Te  Te33  1  0.24774780  0.24526163  0.74948642  1
  Te  Te34  1  0.24484092  0.75044518  0.24803959  1
  Te  Te35  1  0.24662595  0.75378680  0.75363440  1
  Te  Te36  1  0.74723176  0.24945153  0.26047724  1
  Te  Te37  1  0.75391787  0.25039958  0.74761918  1
  Te  Te38  1  0.75766505  0.75079517  0.24804806  1
  Te  Te39  1  0.75316201  0.75070474  0.75109987  1
  Te  Te40  1  0.24700009  -0.00093569  -0.00075394  1
  Te  Te41  1  0.24675690  0.00065319  0.50104635  1
  Te  Te42  1  0.24560341  0.50250807  0.00268421  1
  Te  Te43  1  0.24588032  0.49950387  0.49721022  1
  Te  Te44  1  0.75440647  -0.00019093  -0.00347439  1
  Te  Te45  1  0.75247148  0.00271879  0.50286877  1
  Te  Te46  1  0.75496556  0.49999851  -0.00357270  1
  Te  Te47  1  0.75591499  0.49852640  0.50245088  1
  Te  Te48  1  -0.00096867  0.25039292  -0.00553126  1
  Te  Te49  1  -0.00246772  0.25092030  0.50335228  1
  Te  Te50  1  0.00269460  0.74987491  -0.00187034  1
  Te  Te51  1  0.00007408  0.74976450  0.50220639  1
  Te  Te52  1  0.50193851  0.25062771  -0.00895823  1
  Te  Te53  1  0.50464389  0.25443472  0.50519685  1
  Te  Te54  1  0.48879028  0.74931540  0.00094851  1
  Te  Te55  1  0.50118715  0.73991755  0.49954283  1
  Te  Te56  1  0.00367506  -0.00057729  0.25031019  1
  Te  Te57  1  0.00030268  -0.00111989  0.74828595  1
  Te  Te58  1  0.00280734  0.50018748  0.25080968  1
  Te  Te59  1  0.00065681  0.50071249  0.74836576  1
  Te  Te60  1  0.49087848  -0.00023725  0.25010432  1
  Te  Te61  1  0.50105102  0.00231245  0.74889961  1
  Te  Te62  1  0.49444105  0.49999432  0.25367140  1
  Te  Te63  1  0.50345166  0.49786400  0.74689564  1
