# generated using pymatgen
data_AgSbTe2
_symmetry_space_group_name_H-M   'P 1'
_cell_length_a   12.20947484
_cell_length_b   12.22235650
_cell_length_c   12.21896106
_cell_angle_alpha   90.00470322
_cell_angle_beta   89.99962690
_cell_angle_gamma   89.99292673
_symmetry_Int_Tables_number   1
_chemical_formula_structural   AgSbTe2
_chemical_formula_sum   'Ag16 Sb16 Te32'
_cell_volume   1823.41787208
_cell_formula_units_Z   16
loop_
 _symmetry_equiv_pos_site_id
 _symmetry_equiv_pos_as_xyz
  1  'x, y, z'
loop_
 _atom_site_type_symbol
 _atom_site_label
 _atom_site_symmetry_multiplicity
 _atom_site_fract_x
 _atom_site_fract_y
 _atom_site_fract_z
 _atom_site_occupancy
  Ag  Ag0  1  0.49436495  0.74919729  0.24595723  1
  Ag  Ag1  1  0.00896527  0.25334926  0.74891534  1
  Ag  Ag2  1  0.49157559  0.25060891  0.75084347  1
  Ag  Ag3  1  0.49657531  0.00332400  0.49922339  1
  Ag  Ag4  1  0.25544465  0.00296050  0.24990199  1
  Ag  Ag5  1  0.49151595  0.25048763  0.24898258  1
  Ag  Ag6  1  0.74809162  -0.00018015  0.75081980  1
  Ag  Ag7  1  0.25352679  0.74441313  0.00060029  1
  Ag  Ag8  1  0.74753235  0.74924435  -0.00209928  1
  Ag  Ag9  1  0.25286855  0.25233149  0.50188030  1
  Ag  Ag10  1  0.00322480  0.74761786  0.75160669  1
  Ag  Ag11  1  0.00677460  0.49821115  0.50427491  1
  Ag  Ag12  1  0.25476314  0.25573406  -0.00165637  1
  Ag  Ag13  1  0.24902962  0.49416408  0.75368698  1
  Ag  Ag14  1  0.25440700  0.49637265  0.24530615  1
  Ag  Ag15  1  0.49249281  0.49976591  0.00109660  1
  Sb  Sb16  1  0.49397631  0.49681042  0.49954196  1
  Sb  Sb17  1  0.25130869  0.74819994  0.50045685  1
  Sb  Sb18  1  0.74576098  0.25111765  -0.00269833  1
  Sb  Sb19  1  0.74387057  -0.00168981  0.24906539  1
  Sb  Sb20  1  0.74821967  0.75107608  0.50225800  1
  Sb  Sb21  1  0.00573350  0.74715348  0.24800838  1
  Sb  Sb22  1  0.00179096  0.00007432  -0.00203531  1
  Sb  Sb23  1  0.25207920  0.00568569  0.74986848  1
  Sb  Sb24  1  0.49789604  0.00086752  0.00092831  1
  Sb  Sb25  1  0.74708911  0.24930864  0.50149787  1
  Sb  Sb26  1  0.74543826  0.50116574  0.24749557  1
  Sb  Sb27  1  0.00977474  0.49970641  -0.00418169  1
  Sb  Sb28  1  0.49669853  0.74914730  0.75453103  1
  Sb  Sb29  1  0.00356816  0.00173304  0.50280857  1
  Sb  Sb30  1  0.75107161  0.50095651  0.75217790  1
  Sb  Sb31  1  0.01074989  0.25294883  0.25068525  1
  Te  Te32  1  0.25249563  0.25215861  0.24867815  1
  Te  Te33  1  0.25120301  0.24900824  0.75096586  1
  Te  Te34  1  0.25255284  0.74860639  0.24741139  1
  Te  Te35  1  0.24770946  0.74783711  0.75332873  1
  Te  Te36  1  0.74045491  0.24857675  0.24891857  1
  Te  Te37  1  0.74921937  0.24605758  0.75153837  1
  Te  Te38  1  0.74492107  0.75116936  0.24335871  1
  Te  Te39  1  0.75228363  0.75245176  0.75403914  1
  Te  Te40  1  0.24977067  -0.00040550  0.00465684  1
  Te  Te41  1  0.25465729  0.00450703  0.49640767  1
  Te  Te42  1  0.25237699  0.49932659  -0.00072716  1
  Te  Te43  1  0.24816511  0.49678132  0.50198218  1
  Te  Te44  1  0.75059691  -0.00608830  -0.00478976  1
  Te  Te45  1  0.74417521  -0.00009005  0.50497889  1
  Te  Te46  1  0.74112985  0.50577559  0.00090150  1
  Te  Te47  1  0.76009465  0.50021882  0.49933064  1
  Te  Te48  1  0.00430783  0.25072828  -0.00551289  1
  Te  Te49  1  0.00422655  0.25249654  0.50402676  1
  Te  Te50  1  0.00169497  0.74961511  -0.00403503  1
  Te  Te51  1  -0.00058787  0.74691502  0.50591994  1
  Te  Te52  1  0.49690371  0.25242485  -0.00074930  1
  Te  Te53  1  0.49662268  0.24905405  0.50064532  1
  Te  Te54  1  0.49557462  0.74771185  0.00209491  1
  Te  Te55  1  0.50034513  0.75435594  0.49334732  1
  Te  Te56  1  0.00692682  0.00019902  0.25170553  1
  Te  Te57  1  -0.00385919  -0.00013042  0.74858603  1
  Te  Te58  1  0.00638533  0.49971137  0.25570329  1
  Te  Te59  1  0.00280940  0.49865495  0.74850812  1
  Te  Te60  1  0.49627805  0.00130292  0.25245022  1
  Te  Te61  1  0.50237800  0.00298168  0.74604057  1
  Te  Te62  1  0.49580058  0.49932984  0.24984632  1
  Te  Te63  1  0.49620758  0.49689380  0.75069487  1
