# generated using pymatgen
data_AgSbTe2
_symmetry_space_group_name_H-M   'P 1'
_cell_length_a   12.20931901
_cell_length_b   12.21574345
_cell_length_c   12.22089554
_cell_angle_alpha   89.99635136
_cell_angle_beta   89.99961285
_cell_angle_gamma   90.00647749
_symmetry_Int_Tables_number   1
_chemical_formula_structural   AgSbTe2
_chemical_formula_sum   'Ag16 Sb16 Te32'
_cell_volume   1822.69655551
_cell_formula_units_Z   16
loop_
 _symmetry_equiv_pos_site_id
 _symmetry_equiv_pos_as_xyz
  1  'x, y, z'
loop_
 _atom_site_type_symbol
 _atom_site_label
 _atom_site_symmetry_multiplicity
 _atom_site_fract_x
 _atom_site_fract_y
 _atom_site_fract_z
 _atom_site_occupancy
  Ag  Ag0  1  0.74653830  0.25353057  -0.00332328  1
  Ag  Ag1  1  0.25511135  0.75554250  0.50075168  1
  Ag  Ag2  1  0.49668196  0.75272147  0.74956244  1
  Ag  Ag3  1  0.49479799  0.75215845  0.25054463  1
  Ag  Ag4  1  0.74786012  0.49745782  0.75164093  1
  Ag  Ag5  1  0.74419662  0.00240916  0.74760093  1
  Ag  Ag6  1  0.49442476  0.00043338  0.50121152  1
  Ag  Ag7  1  -0.00008754  0.49907343  0.50268828  1
  Ag  Ag8  1  0.49882360  0.24799639  0.25299026  1
  Ag  Ag9  1  0.50161931  0.50159573  -0.00168404  1
  Ag  Ag10  1  0.25708330  -0.00324253  0.74387792  1
  Ag  Ag11  1  0.25670232  -0.00223412  0.25607815  1
  Ag  Ag12  1  0.25502461  0.74997434  -0.00063291  1
  Ag  Ag13  1  -0.00181096  0.50017819  -0.00236424  1
  Ag  Ag14  1  0.74597040  0.24973682  0.50333428  1
  Ag  Ag15  1  0.25479934  0.24483673  0.49953541  1
  Sb  Sb16  1  0.74771474  0.49854055  0.24908209  1
  Sb  Sb17  1  0.50089987  0.49967653  0.50227102  1
  Sb  Sb18  1  0.74591720  0.74636574  -0.00296090  1
  Sb  Sb19  1  0.25360067  0.25000383  0.00044702  1
  Sb  Sb20  1  0.25350909  0.50243580  0.74909137  1
  Sb  Sb21  1  0.00498201  0.00024775  0.50125650  1
  Sb  Sb22  1  0.49982162  -0.00189139  -0.00213253  1
  Sb  Sb23  1  0.74573086  0.75050799  0.50268874  1
  Sb  Sb24  1  0.00599736  0.74898483  0.25055220  1
  Sb  Sb25  1  -0.00057998  -0.00011309  -0.00131612  1
  Sb  Sb26  1  0.00265295  0.25051628  0.25090842  1
  Sb  Sb27  1  0.74233673  0.00272073  0.25282903  1
  Sb  Sb28  1  -0.00156330  0.25212842  0.74938309  1
  Sb  Sb29  1  0.50219696  0.24655183  0.74719477  1
  Sb  Sb30  1  0.00484102  0.74769254  0.74974987  1
  Sb  Sb31  1  0.25313585  0.50218753  0.25073193  1
  Te  Te32  1  0.25523716  0.24533811  0.25293746  1
  Te  Te33  1  0.25050181  0.24328150  0.74540122  1
  Te  Te34  1  0.25504949  0.75276051  0.25076715  1
  Te  Te35  1  0.25452083  0.75259841  0.74917022  1
  Te  Te36  1  0.74379972  0.24812784  0.25166588  1
  Te  Te37  1  0.74904627  0.24979909  0.74885008  1
  Te  Te38  1  0.73997807  0.75204776  0.24962490  1
  Te  Te39  1  0.74331223  0.75129111  0.75012137  1
  Te  Te40  1  0.24887681  -0.00315333  -0.00251511  1
  Te  Te41  1  0.25024870  -0.00007500  0.50215547  1
  Te  Te42  1  0.25035012  0.50289303  -0.00134772  1
  Te  Te43  1  0.24675264  0.49864634  0.50181436  1
  Te  Te44  1  0.75164173  0.00623441  -0.00619117  1
  Te  Te45  1  0.74829964  0.00378182  0.50434299  1
  Te  Te46  1  0.74927552  0.49739490  -0.00321234  1
  Te  Te47  1  0.75236724  0.49623683  0.50408542  1
  Te  Te48  1  -0.00483332  0.25761832  0.00143806  1
  Te  Te49  1  -0.00091903  0.25566558  0.49884269  1
  Te  Te50  1  0.00609009  0.74320382  0.00114454  1
  Te  Te51  1  0.00689074  0.74344757  0.49864509  1
  Te  Te52  1  0.50216322  0.25404207  0.00438989  1
  Te  Te53  1  0.49975834  0.24940208  0.49736618  1
  Te  Te54  1  0.49654561  0.74820363  -0.00009730  1
  Te  Te55  1  0.49623549  0.75051564  0.50003308  1
  Te  Te56  1  0.00992002  -0.00077422  0.24959662  1
  Te  Te57  1  -0.00241941  -0.00088894  0.75017870  1
  Te  Te58  1  -0.00079555  0.50059915  0.24893966  1
  Te  Te59  1  -0.00679257  0.50109530  0.75074042  1
  Te  Te60  1  0.49642903  -0.00048753  0.25299854  1
  Te  Te61  1  0.49952861  -0.00317529  0.74785419  1
  Te  Te62  1  0.49996417  0.50046749  0.24460711  1
  Te  Te63  1  0.50404743  0.50513780  0.75406390  1
