# generated using pymatgen
data_AgSbTe2
_symmetry_space_group_name_H-M   'P 1'
_cell_length_a   12.31150234
_cell_length_b   12.32293789
_cell_length_c   12.33561079
_cell_angle_alpha   90.00733345
_cell_angle_beta   89.99494031
_cell_angle_gamma   89.99822617
_symmetry_Int_Tables_number   1
_chemical_formula_structural   AgSbTe2
_chemical_formula_sum   'Ag16 Sb16 Te32'
_cell_volume   1871.48333627
_cell_formula_units_Z   16
loop_
 _symmetry_equiv_pos_site_id
 _symmetry_equiv_pos_as_xyz
  1  'x, y, z'
loop_
 _atom_site_type_symbol
 _atom_site_label
 _atom_site_symmetry_multiplicity
 _atom_site_fract_x
 _atom_site_fract_y
 _atom_site_fract_z
 _atom_site_occupancy
  Ag  Ag0  1  0.47869937  0.23840878  0.75260948  1
  Ag  Ag1  1  0.01737738  0.75592620  0.75449392  1
  Ag  Ag2  1  0.24629642  0.00509786  0.22695299  1
  Ag  Ag3  1  0.23730625  0.23192758  -0.01813747  1
  Ag  Ag4  1  0.47773959  0.76346579  0.75295497  1
  Ag  Ag5  1  0.24309573  0.24386018  0.51727211  1
  Ag  Ag6  1  0.76749595  0.25134263  0.50494936  1
  Ag  Ag7  1  0.24288013  0.75903626  0.51944125  1
  Ag  Ag8  1  0.01496920  0.00988074  -0.00717361  1
  Ag  Ag9  1  0.24747509  0.00222745  0.76272509  1
  Ag  Ag10  1  0.24351197  0.77148336  -0.02019292  1
  Ag  Ag11  1  0.00796554  0.24684363  0.24970279  1
  Ag  Ag12  1  0.48125589  0.00368896  -0.00920362  1
  Ag  Ag13  1  0.00699175  0.49054257  -0.00842887  1
  Ag  Ag14  1  0.00496805  0.48788923  0.50794670  1
  Ag  Ag15  1  0.01552017  0.24732399  0.75054475  1
  Sb  Sb16  1  0.00496180  0.00554806  0.50733937  1
  Sb  Sb17  1  0.75619644  0.75082940  -0.00248349  1
  Sb  Sb18  1  0.75413010  0.49781639  0.75049889  1
  Sb  Sb19  1  0.48954941  0.75665992  0.24605216  1
  Sb  Sb20  1  0.49200594  0.24399069  0.24896426  1
  Sb  Sb21  1  0.75500747  0.00130708  0.75097017  1
  Sb  Sb22  1  0.49205639  0.49838702  0.50340775  1
  Sb  Sb23  1  0.75826888  0.00562140  0.24744414  1
  Sb  Sb24  1  0.75917407  0.74860268  0.50552829  1
  Sb  Sb25  1  0.00582905  0.75465465  0.24839662  1
  Sb  Sb26  1  0.48860665  0.49855472  -0.00380338  1
  Sb  Sb27  1  0.49389688  0.00036810  0.50955141  1
  Sb  Sb28  1  0.24674592  0.49344061  0.24963051  1
  Sb  Sb29  1  0.75803706  0.49456928  0.25070863  1
  Sb  Sb30  1  0.24816661  0.49933174  0.75134292  1
  Sb  Sb31  1  0.75904790  0.24948354  -0.00450433  1
  Te  Te32  1  0.24661917  0.24464729  0.25038905  1
  Te  Te33  1  0.24934105  0.25606916  0.75168019  1
  Te  Te34  1  0.24958827  0.76084633  0.25335326  1
  Te  Te35  1  0.24731225  0.74194941  0.74961720  1
  Te  Te36  1  0.75821766  0.24868831  0.25852715  1
  Te  Te37  1  0.75058524  0.24793739  0.74570584  1
  Te  Te38  1  0.74633634  0.75154456  0.25225291  1
  Te  Te39  1  0.74884934  0.75194586  0.74944537  1
  Te  Te40  1  0.24960394  0.00021667  -0.00356823  1
  Te  Te41  1  0.24785086  -0.00098908  0.50907124  1
  Te  Te42  1  0.24283302  0.49935220  0.00487333  1
  Te  Te43  1  0.24513226  0.49915919  0.49543406  1
  Te  Te44  1  0.74723536  -0.00029356  0.00129030  1
  Te  Te45  1  0.74661686  0.00628398  0.49774966  1
  Te  Te46  1  0.76657659  0.50076568  0.00206151  1
  Te  Te47  1  0.76112541  0.49528399  0.49920171  1
  Te  Te48  1  0.00074295  0.24832024  -0.00814083  1
  Te  Te49  1  0.00583676  0.24716611  0.50839206  1
  Te  Te50  1  0.00075935  0.75174394  -0.00050924  1
  Te  Te51  1  0.00277104  0.74906930  0.50071388  1
  Te  Te52  1  0.50092133  0.25350178  -0.00399846  1
  Te  Te53  1  0.48757389  0.25095130  0.50461490  1
  Te  Te54  1  0.49853414  0.74467788  -0.00472224  1
  Te  Te55  1  0.49610044  0.74831268  0.50774367  1
  Te  Te56  1  0.00365700  0.00475650  0.24141184  1
  Te  Te57  1  0.00390007  -0.00059863  0.75181074  1
  Te  Te58  1  0.00039051  0.49141376  0.24985913  1
  Te  Te59  1  -0.00060031  0.49768567  0.75057980  1
  Te  Te60  1  0.49339819  0.00107938  0.23608478  1
  Te  Te61  1  0.49506344  0.00216152  0.75332422  1
  Te  Te62  1  0.50447793  0.49993588  0.25004874  1
  Te  Te63  1  0.50742057  0.49830482  0.75020160  1
