# generated using pymatgen
data_AgSbTe2
_symmetry_space_group_name_H-M   'P 1'
_cell_length_a   12.20948333
_cell_length_b   12.21679146
_cell_length_c   12.21999906
_cell_angle_alpha   89.99681102
_cell_angle_beta   90.00801446
_cell_angle_gamma   90.00822237
_symmetry_Int_Tables_number   1
_chemical_formula_structural   AgSbTe2
_chemical_formula_sum   'Ag16 Sb16 Te32'
_cell_volume   1822.74371761
_cell_formula_units_Z   16
loop_
 _symmetry_equiv_pos_site_id
 _symmetry_equiv_pos_as_xyz
  1  'x, y, z'
loop_
 _atom_site_type_symbol
 _atom_site_label
 _atom_site_symmetry_multiplicity
 _atom_site_fract_x
 _atom_site_fract_y
 _atom_site_fract_z
 _atom_site_occupancy
  Ag  Ag0  1  0.49955095  0.00525978  -0.00414657  1
  Ag  Ag1  1  0.49721736  0.24603748  0.75711794  1
  Ag  Ag2  1  0.00313595  0.25084186  0.75089488  1
  Ag  Ag3  1  0.25628810  0.74794300  -0.00481793  1
  Ag  Ag4  1  0.25328744  0.74836362  0.50496825  1
  Ag  Ag5  1  0.25727890  0.25167796  -0.00379758  1
  Ag  Ag6  1  -0.00247612  0.25151996  0.24935521  1
  Ag  Ag7  1  0.49531522  0.75343138  0.75298319  1
  Ag  Ag8  1  0.74508549  0.00554465  0.24942855  1
  Ag  Ag9  1  0.50063339  0.00126982  0.50373169  1
  Ag  Ag10  1  0.25319485  0.49884304  0.75282753  1
  Ag  Ag11  1  0.74197322  0.00298488  0.75069407  1
  Ag  Ag12  1  0.00195713  0.49746915  0.50025275  1
  Ag  Ag13  1  0.49597095  0.49492933  -0.00244558  1
  Ag  Ag14  1  0.74838877  0.49358695  0.24924410  1
  Ag  Ag15  1  0.50240482  0.24781298  0.24372996  1
  Sb  Sb16  1  0.25153036  0.25204676  0.50487540  1
  Sb  Sb17  1  0.25497674  0.00277885  0.24927851  1
  Sb  Sb18  1  0.00007256  0.00351619  -0.00043734  1
  Sb  Sb19  1  0.49852643  0.49973078  0.50063173  1
  Sb  Sb20  1  0.00338926  0.49607897  -0.00017301  1
  Sb  Sb21  1  0.74582614  0.75060946  0.50152935  1
  Sb  Sb22  1  0.74721098  0.49683089  0.75105947  1
  Sb  Sb23  1  0.74418727  0.75063728  -0.00176047  1
  Sb  Sb24  1  0.74074612  0.24937040  0.00187408  1
  Sb  Sb25  1  -0.00005234  0.74864752  0.25101931  1
  Sb  Sb26  1  0.00076543  0.00166336  0.50087568  1
  Sb  Sb27  1  0.49945122  0.75220715  0.24718314  1
  Sb  Sb28  1  0.25838879  0.00142057  0.75083569  1
  Sb  Sb29  1  0.00517757  0.74980008  0.74903531  1
  Sb  Sb30  1  0.74816564  0.24950454  0.49829095  1
  Sb  Sb31  1  0.25174858  0.49729275  0.24715427  1
  Te  Te32  1  0.25046365  0.25008834  0.24497687  1
  Te  Te33  1  0.25161363  0.25254624  0.75287416  1
  Te  Te34  1  0.24923795  0.75010042  0.24862514  1
  Te  Te35  1  0.25288146  0.74689804  0.75165294  1
  Te  Te36  1  0.74928636  0.24926400  0.24979630  1
  Te  Te37  1  0.74894360  0.24659116  0.74995367  1
  Te  Te38  1  0.75129804  0.75190489  0.24986139  1
  Te  Te39  1  0.74406080  0.75488435  0.75032406  1
  Te  Te40  1  0.25586201  0.00042154  0.00050704  1
  Te  Te41  1  0.25500194  -0.00688261  0.49952267  1
  Te  Te42  1  0.25404091  0.49904360  -0.00281983  1
  Te  Te43  1  0.24750768  0.50375901  0.50398846  1
  Te  Te44  1  0.74407227  -0.00142791  0.00048205  1
  Te  Te45  1  0.74426123  -0.00121835  0.49933224  1
  Te  Te46  1  0.74356359  0.50228202  0.00519218  1
  Te  Te47  1  0.75557617  0.50190694  0.49434455  1
  Te  Te48  1  0.01005746  0.24980873  -0.00069278  1
  Te  Te49  1  0.00283342  0.25360810  0.49978011  1
  Te  Te50  1  0.01194248  0.75044158  -0.00062567  1
  Te  Te51  1  0.00836465  0.74535631  0.50055283  1
  Te  Te52  1  0.49700517  0.24943256  -0.00079687  1
  Te  Te53  1  0.49747216  0.24595466  0.49968739  1
  Te  Te54  1  0.49497081  0.75007378  -0.00262403  1
  Te  Te55  1  0.49483396  0.75233065  0.50392561  1
  Te  Te56  1  -0.00930769  0.00706579  0.25128700  1
  Te  Te57  1  -0.00960429  0.00640134  0.74837481  1
  Te  Te58  1  -0.00413543  0.49508318  0.25209476  1
  Te  Te59  1  -0.00005155  0.49551302  0.74806155  1
  Te  Te60  1  0.50403652  0.00283874  0.24945758  1
  Te  Te61  1  0.50122901  0.00242806  0.75120313  1
  Te  Te62  1  0.50353813  0.49578841  0.24869829  1
  Te  Te63  1  0.49982670  0.49806202  0.75170984  1
