# generated using pymatgen
data_AgSbTe2
_symmetry_space_group_name_H-M   'P 1'
_cell_length_a   12.21237553
_cell_length_b   12.20961200
_cell_length_c   12.21185837
_cell_angle_alpha   90.00617098
_cell_angle_beta   89.99952259
_cell_angle_gamma   90.00590721
_symmetry_Int_Tables_number   1
_chemical_formula_structural   AgSbTe2
_chemical_formula_sum   'Ag16 Sb16 Te32'
_cell_volume   1820.89023662
_cell_formula_units_Z   16
loop_
 _symmetry_equiv_pos_site_id
 _symmetry_equiv_pos_as_xyz
  1  'x, y, z'
loop_
 _atom_site_type_symbol
 _atom_site_label
 _atom_site_symmetry_multiplicity
 _atom_site_fract_x
 _atom_site_fract_y
 _atom_site_fract_z
 _atom_site_occupancy
  Ag  Ag0  1  0.75764669  0.00445685  0.74595839  1
  Ag  Ag1  1  0.49693795  0.75117948  0.25371251  1
  Ag  Ag2  1  0.00087352  0.00529257  0.50634677  1
  Ag  Ag3  1  0.24290985  0.25073098  0.00237182  1
  Ag  Ag4  1  0.75648585  0.24634734  0.50059655  1
  Ag  Ag5  1  0.24710000  0.75292320  0.49978550  1
  Ag  Ag6  1  0.00190255  0.49434265  0.49914978  1
  Ag  Ag7  1  -0.00098219  0.24524892  0.74809693  1
  Ag  Ag8  1  0.75739880  0.24926804  -0.00048607  1
  Ag  Ag9  1  0.49797093  0.24908372  0.25228259  1
  Ag  Ag10  1  0.00165544  0.25194617  0.25076366  1
  Ag  Ag11  1  0.49886422  0.00213081  0.49893701  1
  Ag  Ag12  1  0.24628016  0.49615977  0.25116347  1
  Ag  Ag13  1  0.00199918  0.49251706  0.00094851  1
  Ag  Ag14  1  0.00191280  0.75530534  0.74613853  1
  Ag  Ag15  1  0.24230241  0.00195263  0.74544983  1
  Sb  Sb16  1  0.75370690  0.75127435  -0.00169960  1
  Sb  Sb17  1  0.50040774  0.24684610  0.74632376  1
  Sb  Sb18  1  0.24855885  0.00373727  0.25402116  1
  Sb  Sb19  1  0.24199503  0.24721643  0.49813840  1
  Sb  Sb20  1  0.49732561  0.75438829  0.74594516  1
  Sb  Sb21  1  0.75503052  0.49623181  0.25038991  1
  Sb  Sb22  1  0.75236541  0.75357384  0.50168610  1
  Sb  Sb23  1  0.49774071  0.49674965  0.00325847  1
  Sb  Sb24  1  0.00021571  0.00994706  -0.00841513  1
  Sb  Sb25  1  0.49958876  0.00233394  0.00214161  1
  Sb  Sb26  1  0.49712433  0.49743829  0.49630406  1
  Sb  Sb27  1  0.75539479  0.49427214  0.74915422  1
  Sb  Sb28  1  0.24465347  0.49740632  0.74817508  1
  Sb  Sb29  1  0.00336290  0.74861197  0.25427368  1
  Sb  Sb30  1  0.75128719  0.00425797  0.25435457  1
  Sb  Sb31  1  0.24679797  0.74999884  0.00010287  1
  Te  Te32  1  0.24887600  0.25177972  0.24824789  1
  Te  Te33  1  0.24743630  0.24679875  0.75380583  1
  Te  Te34  1  0.25253314  0.74698266  0.25206045  1
  Te  Te35  1  0.24571415  0.75401163  0.74710921  1
  Te  Te36  1  0.75098857  0.24992152  0.24995920  1
  Te  Te37  1  0.75178012  0.24607347  0.74920311  1
  Te  Te38  1  0.74180602  0.74966659  0.24920188  1
  Te  Te39  1  0.75560558  0.75811669  0.75044692  1
  Te  Te40  1  0.25062827  0.00484519  -0.00733555  1
  Te  Te41  1  0.24902762  -0.00219829  0.50325230  1
  Te  Te42  1  0.24562728  0.49559790  0.00336384  1
  Te  Te43  1  0.24565942  0.50461014  0.49753730  1
  Te  Te44  1  0.74966045  0.00659990  -0.00764776  1
  Te  Te45  1  0.75132023  0.00370763  0.50335972  1
  Te  Te46  1  0.75626072  0.49268750  -0.00042708  1
  Te  Te47  1  0.75673829  0.49337389  0.50057883  1
  Te  Te48  1  -0.00026133  0.25149393  0.00078334  1
  Te  Te49  1  0.00058283  0.24948079  0.50062219  1
  Te  Te50  1  -0.00050039  0.74076991  -0.00422111  1
  Te  Te51  1  0.00225593  0.75049148  0.50203799  1
  Te  Te52  1  0.50044936  0.25040659  0.00691005  1
  Te  Te53  1  0.50477695  0.24703881  0.49541345  1
  Te  Te54  1  0.50062700  0.74941794  0.00804778  1
  Te  Te55  1  0.49722294  0.75276972  0.49609537  1
  Te  Te56  1  0.00053199  0.00379688  0.25859463  1
  Te  Te57  1  0.00094814  0.00241424  0.74807891  1
  Te  Te58  1  0.00397202  0.49721330  0.25163006  1
  Te  Te59  1  0.00086212  0.49800943  0.74823575  1
  Te  Te60  1  0.49988583  0.00260329  0.25601707  1
  Te  Te61  1  0.49898655  -0.00061310  0.74263071  1
  Te  Te62  1  0.49312247  0.49715436  0.25103476  1
  Te  Te63  1  0.50006140  0.50180776  0.75000287  1
