# generated using pymatgen
data_AgSbTe2
_symmetry_space_group_name_H-M   'P 1'
_cell_length_a   12.21455646
_cell_length_b   12.21755177
_cell_length_c   12.22156972
_cell_angle_alpha   89.99767068
_cell_angle_beta   90.00736465
_cell_angle_gamma   90.00453705
_symmetry_Int_Tables_number   1
_chemical_formula_structural   AgSbTe2
_chemical_formula_sum   'Ag16 Sb16 Te32'
_cell_volume   1823.84897636
_cell_formula_units_Z   16
loop_
 _symmetry_equiv_pos_site_id
 _symmetry_equiv_pos_as_xyz
  1  'x, y, z'
loop_
 _atom_site_type_symbol
 _atom_site_label
 _atom_site_symmetry_multiplicity
 _atom_site_fract_x
 _atom_site_fract_y
 _atom_site_fract_z
 _atom_site_occupancy
  Ag  Ag0  1  0.74762190  -0.00630063  0.75349215  1
  Ag  Ag1  1  0.74882141  -0.00391802  0.24644040  1
  Ag  Ag2  1  0.74910389  0.50424783  0.24692211  1
  Ag  Ag3  1  0.25104356  -0.00156580  0.24857695  1
  Ag  Ag4  1  0.49974262  0.50487762  -0.00413569  1
  Ag  Ag5  1  0.25089505  0.24897308  -0.00089565  1
  Ag  Ag6  1  0.00242319  0.50130316  0.50193055  1
  Ag  Ag7  1  0.00076922  -0.00240238  0.00041317  1
  Ag  Ag8  1  0.49757871  -0.00269243  0.50065915  1
  Ag  Ag9  1  0.25080821  0.25005349  0.50087638  1
  Ag  Ag10  1  0.74626264  0.50587437  0.75362518  1
  Ag  Ag11  1  0.74732732  0.75016892  -0.00321521  1
  Ag  Ag12  1  0.49981350  0.74794143  0.75290150  1
  Ag  Ag13  1  0.25250139  0.74993613  0.50289814  1
  Ag  Ag14  1  0.25356922  0.75019647  -0.00350059  1
  Ag  Ag15  1  0.25231405  0.50407058  0.75082972  1
  Sb  Sb16  1  0.49721527  0.25114151  0.75071408  1
  Sb  Sb17  1  0.00265823  -0.00129037  0.49967893  1
  Sb  Sb18  1  0.74884821  0.24981600  -0.00059049  1
  Sb  Sb19  1  0.74658665  0.75010806  0.50382743  1
  Sb  Sb20  1  0.25282888  -0.00562152  0.75080053  1
  Sb  Sb21  1  -0.00068567  0.75015546  0.24978599  1
  Sb  Sb22  1  0.25066159  0.50154268  0.24888242  1
  Sb  Sb23  1  0.49749577  0.50249921  0.50386099  1
  Sb  Sb24  1  0.00167051  0.24976950  0.24950826  1
  Sb  Sb25  1  0.49836661  0.24930424  0.24934750  1
  Sb  Sb26  1  -0.00000916  0.74978805  0.75044821  1
  Sb  Sb27  1  0.74919474  0.25042423  0.50060291  1
  Sb  Sb28  1  0.50029935  0.75030276  0.24727026  1
  Sb  Sb29  1  0.49977765  -0.00460142  -0.00121635  1
  Sb  Sb30  1  0.00024941  0.50169748  -0.00139987  1
  Sb  Sb31  1  0.00281458  0.24988310  0.75026376  1
  Te  Te32  1  0.25035933  0.24512294  0.24965492  1
  Te  Te33  1  0.25121134  0.25653663  0.75040043  1
  Te  Te34  1  0.25070407  0.75454642  0.24834938  1
  Te  Te35  1  0.25363730  0.74775894  0.75244920  1
  Te  Te36  1  0.74953665  0.24746776  0.24999208  1
  Te  Te37  1  0.74882620  0.25250450  0.74993083  1
  Te  Te38  1  0.74935914  0.75208787  0.24512344  1
  Te  Te39  1  0.74646683  0.74804127  0.75199750  1
  Te  Te40  1  0.25084280  -0.00269448  0.00060169  1
  Te  Te41  1  0.24928664  -0.00114748  0.49984524  1
  Te  Te42  1  0.24869775  0.50358218  0.00042851  1
  Te  Te43  1  0.25055778  0.50116010  0.49980720  1
  Te  Te44  1  0.74893963  -0.00026515  0.00149016  1
  Te  Te45  1  0.74948084  0.00010113  0.49794988  1
  Te  Te46  1  0.75114972  0.50018421  -0.00227231  1
  Te  Te47  1  0.75140107  0.49956955  0.50118858  1
  Te  Te48  1  0.00855665  0.24326383  -0.00017857  1
  Te  Te49  1  0.00825572  0.25535019  0.50043813  1
  Te  Te50  1  0.00033922  0.75489320  -0.00010370  1
  Te  Te51  1  0.00934925  0.74510028  0.50022156  1
  Te  Te52  1  0.49239685  0.25832585  -0.00033246  1
  Te  Te53  1  0.49260099  0.24326210  0.50030866  1
  Te  Te54  1  0.49946247  0.74668313  -0.00462325  1
  Te  Te55  1  0.49511543  0.75380920  0.50638721  1
  Te  Te56  1  -0.00191902  0.00039271  0.24677390  1
  Te  Te57  1  -0.00945426  0.00048946  0.75414386  1
  Te  Te58  1  -0.00736308  0.49965070  0.25511566  1
  Te  Te59  1  -0.00043730  0.49955533  0.74648970  1
  Te  Te60  1  0.50140714  -0.00030048  0.25467945  1
  Te  Te61  1  0.50496716  -0.00493466  0.74728381  1
  Te  Te62  1  0.50691082  0.49998945  0.24491603  1
  Te  Te63  1  0.50078638  0.50423056  0.75194046  1
