# generated using pymatgen
data_AgSbTe2
_symmetry_space_group_name_H-M   'P 1'
_cell_length_a   12.23715471
_cell_length_b   12.24864694
_cell_length_c   12.25830736
_cell_angle_alpha   89.99974320
_cell_angle_beta   89.99301825
_cell_angle_gamma   89.99511541
_symmetry_Int_Tables_number   1
_chemical_formula_structural   AgSbTe2
_chemical_formula_sum   'Ag16 Sb16 Te32'
_cell_volume   1837.38035614
_cell_formula_units_Z   16
loop_
 _symmetry_equiv_pos_site_id
 _symmetry_equiv_pos_as_xyz
  1  'x, y, z'
loop_
 _atom_site_type_symbol
 _atom_site_label
 _atom_site_symmetry_multiplicity
 _atom_site_fract_x
 _atom_site_fract_y
 _atom_site_fract_z
 _atom_site_occupancy
  Ag  Ag0  1  0.24357315  0.50739740  0.25071495  1
  Ag  Ag1  1  -0.00538384  -0.00621758  -0.01213708  1
  Ag  Ag2  1  -0.00148345  0.23445636  0.75250453  1
  Ag  Ag3  1  0.76421556  -0.00214583  0.75821857  1
  Ag  Ag4  1  -0.00142019  0.24076624  0.24729974  1
  Ag  Ag5  1  0.23406887  -0.00487657  0.75153929  1
  Ag  Ag6  1  0.00246890  0.76369646  0.75244414  1
  Ag  Ag7  1  0.24205363  0.75172096  0.49479800  1
  Ag  Ag8  1  0.00050210  -0.00562004  0.51390683  1
  Ag  Ag9  1  0.75861111  -0.00404355  0.24168884  1
  Ag  Ag10  1  0.00242120  0.75723515  0.24805323  1
  Ag  Ag11  1  0.00288648  0.50774427  0.49667812  1
  Ag  Ag12  1  0.75833157  0.23851592  0.00087314  1
  Ag  Ag13  1  0.49583854  0.75238734  0.24824070  1
  Ag  Ag14  1  0.76140585  0.75933754  0.00325215  1
  Ag  Ag15  1  0.23909420  0.75369440  0.00422866  1
  Sb  Sb16  1  0.24336533  0.24656435  0.49974011  1
  Sb  Sb17  1  0.50249223  0.24527094  0.75227426  1
  Sb  Sb18  1  0.49873683  0.50348339  0.00242963  1
  Sb  Sb19  1  0.75716629  0.50243572  0.75151645  1
  Sb  Sb20  1  0.49926733  0.75277555  0.75167520  1
  Sb  Sb21  1  0.75943038  0.75297430  0.49718195  1
  Sb  Sb22  1  0.49778731  -0.00399196  0.49735183  1
  Sb  Sb23  1  0.24320979  0.50452798  0.74961637  1
  Sb  Sb24  1  0.24043736  0.24466892  0.00100877  1
  Sb  Sb25  1  0.49535307  0.50557189  0.49574948  1
  Sb  Sb26  1  0.00113325  0.50658497  0.00331446  1
  Sb  Sb27  1  0.75658172  0.24675214  0.49960903  1
  Sb  Sb28  1  0.50107817  0.24791957  0.24773673  1
  Sb  Sb29  1  0.50532660  -0.00278916  0.00137994  1
  Sb  Sb30  1  0.75552113  0.50287376  0.24900984  1
  Sb  Sb31  1  0.23792887  -0.00706655  0.24794341  1
  Te  Te32  1  0.24764632  0.25652040  0.24875240  1
  Te  Te33  1  0.24644200  0.24516000  0.75140282  1
  Te  Te34  1  0.24470153  0.75196562  0.24845906  1
  Te  Te35  1  0.24901371  0.75256963  0.75261317  1
  Te  Te36  1  0.75341549  0.24846949  0.24737649  1
  Te  Te37  1  0.75357180  0.24719848  0.75296985  1
  Te  Te38  1  0.75554474  0.75112891  0.24861693  1
  Te  Te39  1  0.75066227  0.75281500  0.75341444  1
  Te  Te40  1  0.24660078  -0.00383891  -0.00179116  1
  Te  Te41  1  0.24643616  -0.00358533  0.50263581  1
  Te  Te42  1  0.25055119  0.50708418  0.00338923  1
  Te  Te43  1  0.24543264  0.50466606  0.49780438  1
  Te  Te44  1  0.75192484  -0.00249026  0.00013496  1
  Te  Te45  1  0.75398895  -0.00119744  0.50161733  1
  Te  Te46  1  0.74911458  0.50211413  0.00002274  1
  Te  Te47  1  0.75642547  0.49976868  0.50037208  1
  Te  Te48  1  -0.00272437  0.24858260  0.00100926  1
  Te  Te49  1  0.00072563  0.24552485  0.49862049  1
  Te  Te50  1  -0.00057855  0.75020998  -0.00005069  1
  Te  Te51  1  0.00075176  0.75343095  0.50006113  1
  Te  Te52  1  0.51088682  0.25118033  0.00036565  1
  Te  Te53  1  0.49962852  0.25175849  0.49966931  1
  Te  Te54  1  0.49980929  0.74990165  0.00492960  1
  Te  Te55  1  0.48981977  0.74977885  0.49437547  1
  Te  Te56  1  -0.00029150  -0.00025247  0.24823866  1
  Te  Te57  1  -0.00078946  -0.00144369  0.75083738  1
  Te  Te58  1  0.00228375  0.50087582  0.25331826  1
  Te  Te59  1  -0.00006532  0.49945515  0.74172391  1
  Te  Te60  1  0.51160801  -0.00390571  0.25111258  1
  Te  Te61  1  0.50188419  0.00051647  0.74909556  1
  Te  Te62  1  0.49322269  0.50523790  0.25068141  1
  Te  Te63  1  0.50035702  0.49819592  0.74838021  1
