# generated using pymatgen
data_AgSbTe2
_symmetry_space_group_name_H-M   'P 1'
_cell_length_a   12.22098996
_cell_length_b   12.22518194
_cell_length_c   12.23047781
_cell_angle_alpha   90.00372903
_cell_angle_beta   90.00574209
_cell_angle_gamma   90.00033618
_symmetry_Int_Tables_number   1
_chemical_formula_structural   AgSbTe2
_chemical_formula_sum   'Ag16 Sb16 Te32'
_cell_volume   1827.28016330
_cell_formula_units_Z   16
loop_
 _symmetry_equiv_pos_site_id
 _symmetry_equiv_pos_as_xyz
  1  'x, y, z'
loop_
 _atom_site_type_symbol
 _atom_site_label
 _atom_site_symmetry_multiplicity
 _atom_site_fract_x
 _atom_site_fract_y
 _atom_site_fract_z
 _atom_site_occupancy
  Ag  Ag0  1  0.75895186  0.74569361  -0.00478287  1
  Ag  Ag1  1  0.50836441  0.25258327  0.75055026  1
  Ag  Ag2  1  -0.00143465  0.74662909  0.75591058  1
  Ag  Ag3  1  0.24307967  -0.00585609  0.25091960  1
  Ag  Ag4  1  0.75554688  0.25119092  0.50798419  1
  Ag  Ag5  1  -0.00835670  0.25350456  0.75154557  1
  Ag  Ag6  1  -0.00027829  0.25055200  0.24864669  1
  Ag  Ag7  1  0.50148513  0.74779605  0.75182241  1
  Ag  Ag8  1  -0.00223083  0.50461956  -0.00089161  1
  Ag  Ag9  1  0.24275439  0.50586008  0.24809032  1
  Ag  Ag10  1  0.00668594  0.74902738  0.24497918  1
  Ag  Ag11  1  0.75447144  0.49668647  0.75347615  1
  Ag  Ag12  1  0.24086782  0.74769580  0.00283861  1
  Ag  Ag13  1  0.00142087  -0.00079321  0.49814203  1
  Ag  Ag14  1  0.24419816  0.75075413  0.49731820  1
  Ag  Ag15  1  0.75655085  0.25456464  -0.00766384  1
  Sb  Sb16  1  0.49970685  0.50017274  0.50267641  1
  Sb  Sb17  1  0.75306188  0.00424079  0.75023184  1
  Sb  Sb18  1  0.24486368  0.50347719  0.75189441  1
  Sb  Sb19  1  0.00008991  0.50019103  0.50106239  1
  Sb  Sb20  1  0.49871034  -0.00063910  0.50131090  1
  Sb  Sb21  1  0.75677488  -0.00076027  0.25054152  1
  Sb  Sb22  1  0.75758117  0.50123697  0.24604881  1
  Sb  Sb23  1  0.00076400  -0.00467684  0.00213541  1
  Sb  Sb24  1  0.24274250  0.25273204  0.00073172  1
  Sb  Sb25  1  0.50258770  0.50047047  -0.00243645  1
  Sb  Sb26  1  0.50191406  0.25076930  0.24907773  1
  Sb  Sb27  1  0.49910143  -0.00019718  -0.00068234  1
  Sb  Sb28  1  0.75564040  0.74876370  0.50581507  1
  Sb  Sb29  1  0.49366567  0.74922015  0.24805299  1
  Sb  Sb30  1  0.24509871  0.24953257  0.49958197  1
  Sb  Sb31  1  0.24628374  -0.00316021  0.74979048  1
  Te  Te32  1  0.24513859  0.25070284  0.24980494  1
  Te  Te33  1  0.24959951  0.25069942  0.75010356  1
  Te  Te34  1  0.24899048  0.74904252  0.24887202  1
  Te  Te35  1  0.24721271  0.74851094  0.75114354  1
  Te  Te36  1  0.75448863  0.25051183  0.24774734  1
  Te  Te37  1  0.75326303  0.25018203  0.75214770  1
  Te  Te38  1  0.75330936  0.74873384  0.24571617  1
  Te  Te39  1  0.75307870  0.74789651  0.75113809  1
  Te  Te40  1  0.25037498  -0.00713222  0.00622396  1
  Te  Te41  1  0.24536851  -0.00378872  0.49605979  1
  Te  Te42  1  0.24398679  0.50408077  0.00258381  1
  Te  Te43  1  0.25047356  0.50563807  0.49438457  1
  Te  Te44  1  0.74931488  -0.00110819  0.00159107  1
  Te  Te45  1  0.75584661  0.00540582  0.49829796  1
  Te  Te46  1  0.75430136  0.50084609  -0.00288410  1
  Te  Te47  1  0.74898624  0.49502080  0.50593435  1
  Te  Te48  1  -0.00189506  0.25134499  -0.00113441  1
  Te  Te49  1  -0.00151428  0.24919133  0.50080200  1
  Te  Te50  1  -0.00060022  0.75032444  -0.00103047  1
  Te  Te51  1  0.00149512  0.75133217  0.50010516  1
  Te  Te52  1  0.50729703  0.24984298  -0.00571004  1
  Te  Te53  1  0.50596288  0.24943762  0.50578448  1
  Te  Te54  1  0.50183233  0.75013607  -0.00550092  1
  Te  Te55  1  0.49581686  0.75091768  0.50614221  1
  Te  Te56  1  0.00357853  -0.00031075  0.25340334  1
  Te  Te57  1  0.00192671  -0.00006257  0.74341523  1
  Te  Te58  1  0.00215419  0.50083143  0.24660776  1
  Te  Te59  1  -0.00246201  0.50028407  0.75302766  1
  Te  Te60  1  0.48923313  0.00102397  0.25048815  1
  Te  Te61  1  0.49754034  -0.00061239  0.74933017  1
  Te  Te62  1  0.48967457  0.49919203  0.24963336  1
  Te  Te63  1  0.50556211  0.50000300  0.75105323  1
