# generated using pymatgen
data_AgSbTe2
_symmetry_space_group_name_H-M   'P 1'
_cell_length_a   12.22697733
_cell_length_b   12.23043698
_cell_length_c   12.21683792
_cell_angle_alpha   90.00221569
_cell_angle_beta   89.99901571
_cell_angle_gamma   90.00059479
_symmetry_Int_Tables_number   1
_chemical_formula_structural   AgSbTe2
_chemical_formula_sum   'Ag16 Sb16 Te32'
_cell_volume   1826.92152620
_cell_formula_units_Z   16
loop_
 _symmetry_equiv_pos_site_id
 _symmetry_equiv_pos_as_xyz
  1  'x, y, z'
loop_
 _atom_site_type_symbol
 _atom_site_label
 _atom_site_symmetry_multiplicity
 _atom_site_fract_x
 _atom_site_fract_y
 _atom_site_fract_z
 _atom_site_occupancy
  Ag  Ag0  1  -0.00414885  0.25360842  0.24987445  1
  Ag  Ag1  1  -0.01695858  0.74666752  0.24653381  1
  Ag  Ag2  1  0.75389355  0.51441291  0.24677109  1
  Ag  Ag3  1  0.74953418  -0.01430975  0.24916277  1
  Ag  Ag4  1  0.50643566  -0.00352315  0.00788022  1
  Ag  Ag5  1  0.50477726  0.50350862  0.00779197  1
  Ag  Ag6  1  0.75000691  0.75045193  0.01734534  1
  Ag  Ag7  1  0.24622696  0.49868124  0.24872114  1
  Ag  Ag8  1  0.50579313  -0.00039584  0.49189266  1
  Ag  Ag9  1  -0.00440505  0.50006115  0.00876732  1
  Ag  Ag10  1  0.74923549  0.75252074  0.48178761  1
  Ag  Ag11  1  0.51694110  0.75098207  0.24721679  1
  Ag  Ag12  1  -0.00653294  -0.00014851  0.00653914  1
  Ag  Ag13  1  0.75266671  0.24749827  0.49289948  1
  Ag  Ag14  1  -0.00203311  0.25010289  0.74990969  1
  Ag  Ag15  1  0.24692834  0.24994445  0.49500585  1
  Sb  Sb16  1  0.24655178  0.49533345  0.75065166  1
  Sb  Sb17  1  0.50369507  0.50237681  0.48820673  1
  Sb  Sb18  1  0.75441213  0.24862438  0.01075794  1
  Sb  Sb19  1  0.75218730  0.00265029  0.75228092  1
  Sb  Sb20  1  0.25057077  0.00445376  0.25139082  1
  Sb  Sb21  1  0.50328499  0.25002447  0.74832988  1
  Sb  Sb22  1  0.50322571  0.75017096  0.75417668  1
  Sb  Sb23  1  0.50596948  0.24817738  0.25104141  1
  Sb  Sb24  1  -0.00936411  0.00383679  0.48966135  1
  Sb  Sb25  1  0.24519341  0.25169984  0.00785088  1
  Sb  Sb26  1  -0.00270153  0.49615990  0.48553152  1
  Sb  Sb27  1  -0.00414672  0.74995365  0.75551830  1
  Sb  Sb28  1  0.25020486  0.74851405  0.00682531  1
  Sb  Sb29  1  0.24709370  0.00390558  0.74879101  1
  Sb  Sb30  1  0.75274107  0.49698119  0.75580682  1
  Sb  Sb31  1  0.25108455  0.75011665  0.49119572  1
  Te  Te32  1  0.24130161  0.25635607  0.25676066  1
  Te  Te33  1  0.23936110  0.25178403  0.73654901  1
  Te  Te34  1  0.24931809  0.73972736  0.25224712  1
  Te  Te35  1  0.24891192  0.74861762  0.74608249  1
  Te  Te36  1  0.75511252  0.24968776  0.25548351  1
  Te  Te37  1  0.75904448  0.25097077  0.73439783  1
  Te  Te38  1  0.75009325  0.75032599  0.24944378  1
  Te  Te39  1  0.75138646  0.74913837  0.74779014  1
  Te  Te40  1  0.25234320  0.00023642  0.00068248  1
  Te  Te41  1  0.26193077  0.00741716  0.49906362  1
  Te  Te42  1  0.24976745  0.49953572  0.00793780  1
  Te  Te43  1  0.25257149  0.49251918  0.49249617  1
  Te  Te44  1  0.74918315  -0.00202144  0.00368550  1
  Te  Te45  1  0.74585641  -0.00013461  0.49537601  1
  Te  Te46  1  0.75072558  0.50285734  0.00458728  1
  Te  Te47  1  0.74752768  0.50041438  0.49277235  1
  Te  Te48  1  0.00033176  0.24998367  0.00309026  1
  Te  Te49  1  -0.00193556  0.24822161  0.49757193  1
  Te  Te50  1  -0.00410810  0.75008784  0.00331289  1
  Te  Te51  1  -0.00698698  0.75195275  0.49449925  1
  Te  Te52  1  0.49883467  0.24771035  -0.00216101  1
  Te  Te53  1  0.50223325  0.24309898  0.50164111  1
  Te  Te54  1  0.50412424  0.75177374  0.00357945  1
  Te  Te55  1  0.50547896  0.75554558  0.49501062  1
  Te  Te56  1  -0.00214334  0.00005147  0.24462105  1
  Te  Te57  1  0.00045490  0.00748161  0.76405126  1
  Te  Te58  1  -0.00257520  0.49988574  0.24628255  1
  Te  Te59  1  0.00145418  0.49267991  0.76527238  1
  Te  Te60  1  0.50178111  -0.00210598  0.24755468  1
  Te  Te61  1  0.49950338  0.00032096  0.75353488  1
  Te  Te62  1  0.50211552  0.50329329  0.24409486  1
  Te  Te63  1  0.49863885  0.49954426  0.76657180  1
