# generated using pymatgen
data_AgSbTe2
_symmetry_space_group_name_H-M   'P 1'
_cell_length_a   12.20634593
_cell_length_b   12.21214164
_cell_length_c   12.21256257
_cell_angle_alpha   89.99633560
_cell_angle_beta   89.99628899
_cell_angle_gamma   89.99533443
_symmetry_Int_Tables_number   1
_chemical_formula_structural   AgSbTe2
_chemical_formula_sum   'Ag16 Sb16 Te32'
_cell_volume   1820.47326250
_cell_formula_units_Z   16
loop_
 _symmetry_equiv_pos_site_id
 _symmetry_equiv_pos_as_xyz
  1  'x, y, z'
loop_
 _atom_site_type_symbol
 _atom_site_label
 _atom_site_symmetry_multiplicity
 _atom_site_fract_x
 _atom_site_fract_y
 _atom_site_fract_z
 _atom_site_occupancy
  Ag  Ag0  1  0.50259136  0.50377082  -0.00150467  1
  Ag  Ag1  1  0.75008479  0.50364587  0.25103707  1
  Ag  Ag2  1  -0.00231404  0.25009950  0.74876275  1
  Ag  Ag3  1  0.25020768  0.75102627  -0.00198687  1
  Ag  Ag4  1  -0.00134755  -0.00529908  -0.00492904  1
  Ag  Ag5  1  0.74952828  -0.00719661  0.74998909  1
  Ag  Ag6  1  0.50122885  0.25032966  0.25064597  1
  Ag  Ag7  1  0.75172398  0.74782432  0.50637064  1
  Ag  Ag8  1  0.50273083  -0.00112182  0.50328965  1
  Ag  Ag9  1  -0.00800409  0.75023955  0.75044272  1
  Ag  Ag10  1  0.25039138  0.24998850  0.50107654  1
  Ag  Ag11  1  0.75189450  0.50747993  0.74795427  1
  Ag  Ag12  1  0.50167389  -0.00475544  -0.00427396  1
  Ag  Ag13  1  0.50689442  0.75237993  0.75265613  1
  Ag  Ag14  1  -0.00445024  0.50316212  0.50325591  1
  Ag  Ag15  1  -0.00378176  0.74853525  0.24942578  1
  Sb  Sb16  1  0.24887934  0.74986414  0.50128097  1
  Sb  Sb17  1  0.50453403  0.74923983  0.24639883  1
  Sb  Sb18  1  0.74954699  -0.00456531  0.25037300  1
  Sb  Sb19  1  0.25069415  0.24927342  -0.00098359  1
  Sb  Sb20  1  0.50465003  0.50103363  0.50140116  1
  Sb  Sb21  1  -0.00120334  0.25122622  0.25065164  1
  Sb  Sb22  1  0.74930693  0.75025803  -0.00860656  1
  Sb  Sb23  1  0.74931362  0.25000422  -0.00088558  1
  Sb  Sb24  1  -0.00290165  -0.00235710  0.50568009  1
  Sb  Sb25  1  0.74995799  0.25133495  0.50158709  1
  Sb  Sb26  1  -0.00234753  0.50561357  -0.00317795  1
  Sb  Sb27  1  0.25058401  0.50116040  0.24998651  1
  Sb  Sb28  1  0.25062492  -0.00076402  0.24975905  1
  Sb  Sb29  1  0.25046284  -0.00101428  0.75048659  1
  Sb  Sb30  1  0.24885507  0.50132056  0.74986809  1
  Sb  Sb31  1  0.50211062  0.24762984  0.74970666  1
  Te  Te32  1  0.25506160  0.25042850  0.25586206  1
  Te  Te33  1  0.24276483  0.25052774  0.74441552  1
  Te  Te34  1  0.24195216  0.74925329  0.24524669  1
  Te  Te35  1  0.25064319  0.74930736  0.75384561  1
  Te  Te36  1  0.74512302  0.25752291  0.25061559  1
  Te  Te37  1  0.75565281  0.25067974  0.74931841  1
  Te  Te38  1  0.75423805  0.74542299  0.25819318  1
  Te  Te39  1  0.75023933  0.74961675  0.74802119  1
  Te  Te40  1  0.25204270  -0.00454477  0.00014877  1
  Te  Te41  1  0.25724822  0.00388137  0.49976816  1
  Te  Te42  1  0.25757817  0.50526198  0.00026272  1
  Te  Te43  1  0.24303229  0.49642307  0.49957783  1
  Te  Te44  1  0.74791461  0.00080408  -0.00523165  1
  Te  Te45  1  0.74552883  -0.00455222  0.50438958  1
  Te  Te46  1  0.74488233  0.49942926  -0.00068813  1
  Te  Te47  1  0.75319514  0.50378389  0.50250330  1
  Te  Te48  1  0.00314595  0.24382361  -0.00389692  1
  Te  Te49  1  0.00335119  0.25173070  0.50243700  1
  Te  Te50  1  0.00311222  0.75195515  -0.00245630  1
  Te  Te51  1  -0.00024507  0.74861492  0.50256874  1
  Te  Te52  1  0.49753566  0.24807279  0.00295272  1
  Te  Te53  1  0.49666352  0.24722409  0.49782782  1
  Te  Te54  1  0.49693959  0.75267577  -0.00128348  1
  Te  Te55  1  0.50049245  0.75304572  0.50280104  1
  Te  Te56  1  -0.00246138  -0.00365503  0.24353884  1
  Te  Te57  1  -0.00465206  -0.00285946  0.75208733  1
  Te  Te58  1  -0.00620057  0.50230979  0.25139029  1
  Te  Te59  1  -0.00507334  0.50240527  0.74941788  1
  Te  Te60  1  0.50217375  0.00315145  0.24794042  1
  Te  Te61  1  0.50451211  -0.00086500  0.75247592  1
  Te  Te62  1  0.50557261  0.49783421  0.24746551  1
  Te  Te63  1  0.50591578  0.50192321  0.75274638  1
