# generated using pymatgen
data_AgSbTe2
_symmetry_space_group_name_H-M   'P 1'
_cell_length_a   12.21423397
_cell_length_b   12.21913761
_cell_length_c   12.21827148
_cell_angle_alpha   89.99888779
_cell_angle_beta   90.00855235
_cell_angle_gamma   89.99052435
_symmetry_Int_Tables_number   1
_chemical_formula_structural   AgSbTe2
_chemical_formula_sum   'Ag16 Sb16 Te32'
_cell_volume   1823.54527497
_cell_formula_units_Z   16
loop_
 _symmetry_equiv_pos_site_id
 _symmetry_equiv_pos_as_xyz
  1  'x, y, z'
loop_
 _atom_site_type_symbol
 _atom_site_label
 _atom_site_symmetry_multiplicity
 _atom_site_fract_x
 _atom_site_fract_y
 _atom_site_fract_z
 _atom_site_occupancy
  Ag  Ag0  1  0.24653691  0.25001301  0.50195284  1
  Ag  Ag1  1  0.74939349  0.25820446  0.00070006  1
  Ag  Ag2  1  0.50603650  0.74731622  0.25239232  1
  Ag  Ag3  1  0.50419692  0.74644304  0.74807558  1
  Ag  Ag4  1  0.74652541  0.74429297  0.50070332  1
  Ag  Ag5  1  -0.00482119  0.25225004  0.25752900  1
  Ag  Ag6  1  0.25239215  0.00063453  0.74384273  1
  Ag  Ag7  1  0.74914344  0.49982033  0.25247925  1
  Ag  Ag8  1  0.75517582  0.25598803  0.49839365  1
  Ag  Ag9  1  0.74491546  0.74145070  -0.00083879  1
  Ag  Ag10  1  0.50750936  0.50276632  -0.00298874  1
  Ag  Ag11  1  0.25286111  0.49992660  0.74604302  1
  Ag  Ag12  1  0.50088640  -0.00214206  0.50232377  1
  Ag  Ag13  1  0.74727694  0.50199517  0.74780971  1
  Ag  Ag14  1  -0.00103854  0.00600811  0.50071965  1
  Ag  Ag15  1  -0.00662254  0.49472299  0.50034656  1
  Sb  Sb16  1  -0.00681144  0.74778685  0.25397101  1
  Sb  Sb17  1  0.25364540  0.74958977  0.50240574  1
  Sb  Sb18  1  0.50165575  -0.00217087  -0.00207288  1
  Sb  Sb19  1  -0.00819681  0.49795014  -0.00057721  1
  Sb  Sb20  1  0.25078694  0.00182899  0.25648372  1
  Sb  Sb21  1  0.24995919  0.25355711  -0.00172923  1
  Sb  Sb22  1  -0.00494525  0.74865172  0.74771986  1
  Sb  Sb23  1  0.74973348  0.00033114  0.25399661  1
  Sb  Sb24  1  -0.00167340  0.25072766  0.74143671  1
  Sb  Sb25  1  0.25510549  0.74711103  -0.00327749  1
  Sb  Sb26  1  0.74748217  -0.00234304  0.74522164  1
  Sb  Sb27  1  -0.00187017  0.00263938  -0.00133807  1
  Sb  Sb28  1  0.50759987  0.50304343  0.50270213  1
  Sb  Sb29  1  0.25146739  0.49860136  0.25529114  1
  Sb  Sb30  1  0.50141983  0.25400926  0.74816497  1
  Sb  Sb31  1  0.50538647  0.25283077  0.25325661  1
  Te  Te32  1  0.24425341  0.25070973  0.25543063  1
  Te  Te33  1  0.25088758  0.25198697  0.74576498  1
  Te  Te34  1  0.25900480  0.74951383  0.24891056  1
  Te  Te35  1  0.25610264  0.74684884  0.75038237  1
  Te  Te36  1  0.75183123  0.25340896  0.25317146  1
  Te  Te37  1  0.74936248  0.25513930  0.74894901  1
  Te  Te38  1  0.74660482  0.74659652  0.25173519  1
  Te  Te39  1  0.74604899  0.74746541  0.74821614  1
  Te  Te40  1  0.24916398  0.00092469  -0.00998171  1
  Te  Te41  1  0.24980608  0.00152125  0.50390492  1
  Te  Te42  1  0.25576961  0.49875769  -0.00791327  1
  Te  Te43  1  0.24630083  0.49753623  0.50423828  1
  Te  Te44  1  0.75055250  0.00155983  -0.00183283  1
  Te  Te45  1  0.75028269  0.00122222  0.50164276  1
  Te  Te46  1  0.74903860  0.49981240  -0.00131706  1
  Te  Te47  1  0.74862787  0.49911721  0.50081995  1
  Te  Te48  1  -0.00646637  0.24918222  0.00902205  1
  Te  Te49  1  -0.00329243  0.25039897  0.49867580  1
  Te  Te50  1  -0.00971274  0.75119022  0.00166306  1
  Te  Te51  1  -0.00679511  0.74952849  0.49857577  1
  Te  Te52  1  0.50634705  0.25336609  0.00140013  1
  Te  Te53  1  0.50061490  0.24356968  0.49854862  1
  Te  Te54  1  0.50477269  0.74809171  -0.00143424  1
  Te  Te55  1  0.50422901  0.75242353  0.50139531  1
  Te  Te56  1  0.00133006  0.00391927  0.25700534  1
  Te  Te57  1  0.00678528  -0.00114014  0.74323364  1
  Te  Te58  1  -0.00325932  0.49731231  0.25460651  1
  Te  Te59  1  -0.00032090  0.50085372  0.74522943  1
  Te  Te60  1  0.49869933  -0.00665097  0.25477786  1
  Te  Te61  1  0.49714868  -0.00541642  0.74625908  1
  Te  Te62  1  0.50314175  0.50404867  0.24637796  1
  Te  Te63  1  0.50202746  0.50336643  0.75140309  1
