# generated using pymatgen
data_AgSbTe2
_symmetry_space_group_name_H-M   'P 1'
_cell_length_a   12.30347148
_cell_length_b   12.31325532
_cell_length_c   12.27853854
_cell_angle_alpha   90.01543211
_cell_angle_beta   89.99661301
_cell_angle_gamma   89.99398512
_symmetry_Int_Tables_number   1
_chemical_formula_structural   AgSbTe2
_chemical_formula_sum   'Ag16 Sb16 Te32'
_cell_volume   1860.14676180
_cell_formula_units_Z   16
loop_
 _symmetry_equiv_pos_site_id
 _symmetry_equiv_pos_as_xyz
  1  'x, y, z'
loop_
 _atom_site_type_symbol
 _atom_site_label
 _atom_site_symmetry_multiplicity
 _atom_site_fract_x
 _atom_site_fract_y
 _atom_site_fract_z
 _atom_site_occupancy
  Ag  Ag0  1  0.25312442  0.49437794  0.27311365  1
  Ag  Ag1  1  0.25091207  0.73002150  0.50642501  1
  Ag  Ag2  1  0.24744469  0.00086780  0.73252673  1
  Ag  Ag3  1  0.74973744  0.50534398  0.74003382  1
  Ag  Ag4  1  0.47973629  0.50041555  0.50400532  1
  Ag  Ag5  1  0.74758718  0.73604201  0.50488800  1
  Ag  Ag6  1  0.75650990  0.26349530  0.50450303  1
  Ag  Ag7  1  0.01896386  0.49371981  0.50532442  1
  Ag  Ag8  1  0.24538400  0.26959698  0.50217603  1
  Ag  Ag9  1  0.00594794  0.25457791  0.74068933  1
  Ag  Ag10  1  0.24959737  0.49991435  0.73268536  1
  Ag  Ag11  1  0.74590283  0.74501344  -0.01062647  1
  Ag  Ag12  1  0.25007891  0.00482444  0.26873385  1
  Ag  Ag13  1  0.01028973  0.00612961  0.50360911  1
  Ag  Ag14  1  0.49215245  0.25428642  0.26151976  1
  Ag  Ag15  1  0.49977544  0.74403179  0.74054299  1
  Sb  Sb16  1  0.24998666  0.25035827  -0.00122064  1
  Sb  Sb17  1  0.00134460  0.00020616  -0.00612890  1
  Sb  Sb18  1  0.74968496  0.00174915  0.25896980  1
  Sb  Sb19  1  0.50021451  0.50066771  -0.00399890  1
  Sb  Sb20  1  0.00127219  0.74936891  0.25434393  1
  Sb  Sb21  1  0.49908066  -0.00093721  -0.00068164  1
  Sb  Sb22  1  0.74830228  0.49834392  0.26516345  1
  Sb  Sb23  1  0.74878600  0.25470944  -0.00634082  1
  Sb  Sb24  1  0.00000349  0.74729806  0.74662000  1
  Sb  Sb25  1  0.75207838  -0.00247371  0.74309670  1
  Sb  Sb26  1  0.00000194  0.49958638  -0.00594210  1
  Sb  Sb27  1  0.00598394  0.25095298  0.26068687  1
  Sb  Sb28  1  0.48840259  -0.00123325  0.50175388  1
  Sb  Sb29  1  0.49775500  0.74760196  0.25866544  1
  Sb  Sb30  1  0.49744312  0.25470135  0.74217150  1
  Sb  Sb31  1  0.25411851  0.74868203  -0.00766641  1
  Te  Te32  1  0.24977276  0.25197806  0.24914063  1
  Te  Te33  1  0.25354779  0.25326268  0.74979377  1
  Te  Te34  1  0.25094319  0.74959349  0.25351770  1
  Te  Te35  1  0.24846678  0.74614261  0.74677914  1
  Te  Te36  1  0.74513378  0.24998483  0.25502660  1
  Te  Te37  1  0.74462446  0.25054544  0.74465952  1
  Te  Te38  1  0.74864844  0.74992960  0.25937349  1
  Te  Te39  1  0.75161321  0.74960078  0.73899342  1
  Te  Te40  1  0.24931711  -0.00128364  0.00043210  1
  Te  Te41  1  0.24803218  0.00029407  0.50205894  1
  Te  Te42  1  0.24907314  0.50225113  -0.00179899  1
  Te  Te43  1  0.25001737  0.50020297  0.50100460  1
  Te  Te44  1  0.75112322  -0.00796126  0.00106676  1
  Te  Te45  1  0.76275428  0.00006613  0.49946446  1
  Te  Te46  1  0.75173018  0.50383521  -0.01322400  1
  Te  Te47  1  0.75212190  0.50002057  0.50154993  1
  Te  Te48  1  -0.00233482  0.24963101  -0.01784458  1
  Te  Te49  1  0.00226000  0.25292406  0.50448131  1
  Te  Te50  1  -0.01190533  0.74996892  0.00289103  1
  Te  Te51  1  0.00203830  0.74790899  0.49933912  1
  Te  Te52  1  0.50157132  0.24902529  0.01580308  1
  Te  Te53  1  0.49755280  0.25233842  0.49908131  1
  Te  Te54  1  0.50569207  0.75012141  -0.01105465  1
  Te  Te55  1  0.49927705  0.74821994  0.50464797  1
  Te  Te56  1  0.00820128  0.00082461  0.25537964  1
  Te  Te57  1  0.00449036  0.00433174  0.74652866  1
  Te  Te58  1  0.00716352  0.49874179  0.25637345  1
  Te  Te59  1  0.00275811  0.49832328  0.74621822  1
  Te  Te60  1  0.49202823  0.00258878  0.24961838  1
  Te  Te61  1  0.49152706  -0.00650757  0.74954989  1
  Te  Te62  1  0.49713372  0.49939530  0.25505793  1
  Te  Te63  1  0.49802317  0.50146033  0.74644905  1
