# generated using pymatgen
data_AgSbTe2
_symmetry_space_group_name_H-M   'P 1'
_cell_length_a   12.23273610
_cell_length_b   12.21852953
_cell_length_c   12.21951196
_cell_angle_alpha   90.01293164
_cell_angle_beta   89.99857049
_cell_angle_gamma   89.99697418
_symmetry_Int_Tables_number   1
_chemical_formula_structural   AgSbTe2
_chemical_formula_sum   'Ag16 Sb16 Te32'
_cell_volume   1826.40210282
_cell_formula_units_Z   16
loop_
 _symmetry_equiv_pos_site_id
 _symmetry_equiv_pos_as_xyz
  1  'x, y, z'
loop_
 _atom_site_type_symbol
 _atom_site_label
 _atom_site_symmetry_multiplicity
 _atom_site_fract_x
 _atom_site_fract_y
 _atom_site_fract_z
 _atom_site_occupancy
  Ag  Ag0  1  0.50572616  0.50160965  0.00200253  1
  Ag  Ag1  1  0.74906897  0.50068850  0.75895352  1
  Ag  Ag2  1  0.00104003  0.25028245  0.75720094  1
  Ag  Ag3  1  0.74895899  0.74326536  0.00507107  1
  Ag  Ag4  1  0.50086610  -0.00233589  0.50167267  1
  Ag  Ag5  1  0.50656807  0.74661569  0.24496950  1
  Ag  Ag6  1  0.25079941  0.24971998  -0.00347193  1
  Ag  Ag7  1  0.49850030  -0.00027698  -0.00303831  1
  Ag  Ag8  1  -0.00570571  0.50125400  0.00221519  1
  Ag  Ag9  1  0.49884750  0.24783271  0.75612453  1
  Ag  Ag10  1  0.25065910  0.50185133  0.24286809  1
  Ag  Ag11  1  -0.00675490  0.74609306  0.24420112  1
  Ag  Ag12  1  0.74931587  0.50861981  0.24055434  1
  Ag  Ag13  1  0.00120333  -0.00017993  -0.00176048  1
  Ag  Ag14  1  0.25281571  0.00412681  0.75600560  1
  Ag  Ag15  1  0.74776005  0.74871538  0.49414726  1
  Sb  Sb16  1  0.25230010  0.24866664  0.50292548  1
  Sb  Sb17  1  0.25104816  0.74966753  0.00201323  1
  Sb  Sb18  1  0.74913514  0.25670400  -0.00152402  1
  Sb  Sb19  1  0.74753062  0.24990795  0.50154351  1
  Sb  Sb20  1  0.50259467  0.75112114  0.75480967  1
  Sb  Sb21  1  0.49951277  0.25220651  0.24442144  1
  Sb  Sb22  1  -0.00114682  -0.00306352  0.50207607  1
  Sb  Sb23  1  0.74811496  0.00019645  0.75364029  1
  Sb  Sb24  1  0.74934965  -0.00854635  0.24659158  1
  Sb  Sb25  1  0.25089886  0.00008788  0.24463411  1
  Sb  Sb26  1  0.00105287  0.25303267  0.24264064  1
  Sb  Sb27  1  0.50279685  0.50173637  0.49836039  1
  Sb  Sb28  1  0.25271119  0.75174502  0.49680556  1
  Sb  Sb29  1  -0.00225425  0.50130669  0.49817692  1
  Sb  Sb30  1  0.25048504  0.49632011  0.75711628  1
  Sb  Sb31  1  -0.00328721  0.74863920  0.75660521  1
  Te  Te32  1  0.24953432  0.25606122  0.24386840  1
  Te  Te33  1  0.25133623  0.24793896  0.75385495  1
  Te  Te34  1  0.25089370  0.74507659  0.25094107  1
  Te  Te35  1  0.24916282  0.75768244  0.74789586  1
  Te  Te36  1  0.75057815  0.26224335  0.25220241  1
  Te  Te37  1  0.74935014  0.25642954  0.74894871  1
  Te  Te38  1  0.74863127  0.74770908  0.24652852  1
  Te  Te39  1  0.75026990  0.74322437  0.75213033  1
  Te  Te40  1  0.25141747  0.00254758  -0.00230877  1
  Te  Te41  1  0.25587120  0.00026492  0.50567057  1
  Te  Te42  1  0.25058261  0.49798334  0.00213949  1
  Te  Te43  1  0.25015714  0.50017289  0.49026948  1
  Te  Te44  1  0.74915837  -0.00613427  -0.00006124  1
  Te  Te45  1  0.74471831  -0.00614231  0.50015370  1
  Te  Te46  1  0.74933329  0.50169604  -0.00043693  1
  Te  Te47  1  0.74950869  0.50602497  0.50110245  1
  Te  Te48  1  0.00186745  0.24927681  -0.00343601  1
  Te  Te49  1  -0.00008321  0.24818689  0.51050217  1
  Te  Te50  1  -0.00202940  0.74882434  0.00335300  1
  Te  Te51  1  -0.00602617  0.75137835  0.49162817  1
  Te  Te52  1  0.49826311  0.24860697  -0.00315836  1
  Te  Te53  1  0.50008323  0.24272509  0.50762495  1
  Te  Te54  1  0.50191102  0.74915744  0.00309233  1
  Te  Te55  1  0.50373267  0.75382396  0.49521845  1
  Te  Te56  1  0.00041994  -0.00317724  0.24392966  1
  Te  Te57  1  0.00152626  0.00285543  0.75494968  1
  Te  Te58  1  -0.00149601  0.50179965  0.24632829  1
  Te  Te59  1  -0.00042609  0.49773132  0.75473825  1
  Te  Te60  1  0.49940219  -0.00263904  0.24636668  1
  Te  Te61  1  0.49938292  0.00145038  0.75611113  1
  Te  Te62  1  0.50164864  0.50214092  0.24739953  1
  Te  Te63  1  0.50080825  0.49746983  0.75390104  1
