# generated using pymatgen
data_AgSbTe2
_symmetry_space_group_name_H-M   'P 1'
_cell_length_a   12.28997834
_cell_length_b   12.30805884
_cell_length_c   12.29109090
_cell_angle_alpha   90.00118346
_cell_angle_beta   89.99525023
_cell_angle_gamma   89.99704769
_symmetry_Int_Tables_number   1
_chemical_formula_structural   AgSbTe2
_chemical_formula_sum   'Ag16 Sb16 Te32'
_cell_volume   1859.22140101
_cell_formula_units_Z   16
loop_
 _symmetry_equiv_pos_site_id
 _symmetry_equiv_pos_as_xyz
  1  'x, y, z'
loop_
 _atom_site_type_symbol
 _atom_site_label
 _atom_site_symmetry_multiplicity
 _atom_site_fract_x
 _atom_site_fract_y
 _atom_site_fract_z
 _atom_site_occupancy
  Ag  Ag0  1  0.49744160  0.74195933  0.25416400  1
  Ag  Ag1  1  0.24915827  0.25510223  -0.00967074  1
  Ag  Ag2  1  0.00221556  0.25637285  0.26549479  1
  Ag  Ag3  1  0.00690298  0.26330775  0.73925228  1
  Ag  Ag4  1  0.50129382  0.49781064  0.51755892  1
  Ag  Ag5  1  0.24601308  0.00787981  0.74884660  1
  Ag  Ag6  1  0.00588436  0.73669600  0.73797385  1
  Ag  Ag7  1  0.00223190  0.74417664  0.26072977  1
  Ag  Ag8  1  0.49537200  0.49863223  -0.02302404  1
  Ag  Ag9  1  0.00075055  0.00709734  0.50616097  1
  Ag  Ag10  1  0.49521492  0.72916254  0.74658315  1
  Ag  Ag11  1  0.26699801  0.49265040  0.74803323  1
  Ag  Ag12  1  0.75889424  0.25738422  0.50726593  1
  Ag  Ag13  1  0.49012834  0.27111040  0.74580684  1
  Ag  Ag14  1  0.73167258  0.49546758  0.74359688  1
  Ag  Ag15  1  -0.00225425  0.49413710  0.51155885  1
  Sb  Sb16  1  0.24834614  0.74893879  0.50257989  1
  Sb  Sb17  1  0.24325159  0.25159607  0.50807227  1
  Sb  Sb18  1  0.00444942  0.49844783  -0.01308464  1
  Sb  Sb19  1  0.24714057  0.00293283  0.25357695  1
  Sb  Sb20  1  0.75147731  0.00082652  0.25558828  1
  Sb  Sb21  1  0.49708441  0.25795264  0.25461592  1
  Sb  Sb22  1  0.24678423  0.49855507  0.25338092  1
  Sb  Sb23  1  0.74933280  0.74423337  -0.00168034  1
  Sb  Sb24  1  0.75188346  0.49761670  0.25651824  1
  Sb  Sb25  1  0.75196774  0.74388860  0.50184631  1
  Sb  Sb26  1  0.49859303  0.00150758  0.50534420  1
  Sb  Sb27  1  0.75085719  0.25553625  -0.00605860  1
  Sb  Sb28  1  0.49536112  0.00087516  -0.00365326  1
  Sb  Sb29  1  0.25120437  0.74482727  -0.00395931  1
  Sb  Sb30  1  0.00416438  0.00093836  -0.00691795  1
  Sb  Sb31  1  0.75340120  0.00232946  0.74659886  1
  Te  Te32  1  0.24502635  0.24911546  0.23713040  1
  Te  Te33  1  0.24985618  0.25449969  0.74985636  1
  Te  Te34  1  0.24566266  0.75081510  0.24690642  1
  Te  Te35  1  0.24720346  0.74614085  0.75020464  1
  Te  Te36  1  0.75822836  0.25004557  0.25488686  1
  Te  Te37  1  0.75262724  0.25159618  0.74765811  1
  Te  Te38  1  0.75490251  0.75029085  0.24949481  1
  Te  Te39  1  0.75113900  0.74689411  0.74918258  1
  Te  Te40  1  0.24959068  0.01098925  -0.01204018  1
  Te  Te41  1  0.24283996  -0.00118455  0.50732095  1
  Te  Te42  1  0.25305193  0.49588532  -0.00661787  1
  Te  Te43  1  0.25178065  0.50053119  0.50477487  1
  Te  Te44  1  0.74996541  0.00073295  0.00161186  1
  Te  Te45  1  0.76019501  0.01372858  0.50052724  1
  Te  Te46  1  0.73887279  0.50027235  -0.01248462  1
  Te  Te47  1  0.75226217  0.49685058  0.50453472  1
  Te  Te48  1  0.00002509  0.25184404  -0.00195665  1
  Te  Te49  1  0.00182737  0.25759503  0.50295265  1
  Te  Te50  1  -0.00066172  0.74957463  0.00455298  1
  Te  Te51  1  -0.00071435  0.74244551  0.50293265  1
  Te  Te52  1  0.50076933  0.25112719  0.00317353  1
  Te  Te53  1  0.50244653  0.25010455  0.49747496  1
  Te  Te54  1  0.50076970  0.74683329  -0.00366322  1
  Te  Te55  1  0.50078936  0.74999070  0.50367294  1
  Te  Te56  1  0.00170021  -0.00532121  0.25810275  1
  Te  Te57  1  0.00162464  -0.00299837  0.74727944  1
  Te  Te58  1  0.00078526  0.50382801  0.25631738  1
  Te  Te59  1  0.00280547  0.50174265  0.75002272  1
  Te  Te60  1  0.49889992  -0.01470163  0.25142218  1
  Te  Te61  1  0.49469107  -0.00287240  0.74719230  1
  Te  Te62  1  0.49925829  0.50500914  0.25700884  1
  Te  Te63  1  0.49856253  0.49864584  0.74746839  1
