# generated using pymatgen
data_AgSbTe2
_symmetry_space_group_name_H-M   'P 1'
_cell_length_a   12.22405094
_cell_length_b   12.23442649
_cell_length_c   12.22071860
_cell_angle_alpha   89.99741486
_cell_angle_beta   90.00437851
_cell_angle_gamma   89.99554507
_symmetry_Int_Tables_number   1
_chemical_formula_structural   AgSbTe2
_chemical_formula_sum   'Ag16 Sb16 Te32'
_cell_volume   1827.66042426
_cell_formula_units_Z   16
loop_
 _symmetry_equiv_pos_site_id
 _symmetry_equiv_pos_as_xyz
  1  'x, y, z'
loop_
 _atom_site_type_symbol
 _atom_site_label
 _atom_site_symmetry_multiplicity
 _atom_site_fract_x
 _atom_site_fract_y
 _atom_site_fract_z
 _atom_site_occupancy
  Ag  Ag0  1  0.00613839  0.49935431  0.50584937  1
  Ag  Ag1  1  0.75914786  0.00070491  0.73975822  1
  Ag  Ag2  1  0.49571529  0.49747235  0.00025105  1
  Ag  Ag3  1  0.00248925  0.74935552  0.74254988  1
  Ag  Ag4  1  0.24057136  0.74599422  0.50435326  1
  Ag  Ag5  1  0.24104773  0.00102980  0.74256904  1
  Ag  Ag6  1  -0.00369501  0.00066419  0.50673952  1
  Ag  Ag7  1  0.75247270  0.00223999  0.26105000  1
  Ag  Ag8  1  0.24202685  0.25424659  0.50339640  1
  Ag  Ag9  1  0.00261104  0.25076306  0.74238976  1
  Ag  Ag10  1  0.75956550  0.75557069  0.50252251  1
  Ag  Ag11  1  0.24208525  0.49910532  0.74364470  1
  Ag  Ag12  1  0.49952338  0.25221052  0.25304405  1
  Ag  Ag13  1  0.75795306  0.24477839  0.50117091  1
  Ag  Ag14  1  0.00366327  0.49909462  -0.00617135  1
  Ag  Ag15  1  0.24798166  0.49786388  0.25567034  1
  Sb  Sb16  1  0.24663736  0.74628596  -0.00509625  1
  Sb  Sb17  1  0.24820310  0.25341016  -0.00308728  1
  Sb  Sb18  1  0.49180520  0.49791575  0.50035626  1
  Sb  Sb19  1  0.75362228  0.74937523  -0.00306494  1
  Sb  Sb20  1  0.49961019  0.74799493  0.25179149  1
  Sb  Sb21  1  0.49927911  0.00271750  -0.00015766  1
  Sb  Sb22  1  0.75838988  0.49930407  0.74580537  1
  Sb  Sb23  1  0.75206704  0.25085182  -0.00104951  1
  Sb  Sb24  1  0.50564613  0.00123320  0.50028925  1
  Sb  Sb25  1  0.24842131  0.00187916  0.26075001  1
  Sb  Sb26  1  0.75092811  0.49867280  0.25431811  1
  Sb  Sb27  1  0.49862901  0.25190880  0.74762946  1
  Sb  Sb28  1  0.00044221  0.25114107  0.25940784  1
  Sb  Sb29  1  0.49831261  0.74849651  0.74824370  1
  Sb  Sb30  1  0.00004003  0.00131765  -0.00767368  1
  Sb  Sb31  1  -0.00012312  0.74898944  0.25951673  1
  Te  Te32  1  0.25184096  0.25236368  0.25505069  1
  Te  Te33  1  0.24894237  0.25046073  0.74639630  1
  Te  Te34  1  0.25036669  0.74661986  0.25800535  1
  Te  Te35  1  0.24806581  0.74945208  0.74553335  1
  Te  Te36  1  0.74819746  0.24699319  0.25450086  1
  Te  Te37  1  0.75148227  0.24691582  0.74516143  1
  Te  Te38  1  0.74961310  0.75556055  0.25646406  1
  Te  Te39  1  0.75287510  0.75344445  0.74526434  1
  Te  Te40  1  0.24997128  -0.00149812  -0.00844886  1
  Te  Te41  1  0.24636311  0.00034828  0.50272154  1
  Te  Te42  1  0.24650908  0.50043206  0.00013705  1
  Te  Te43  1  0.24801027  0.49904262  0.50163946  1
  Te  Te44  1  0.75024380  -0.00069256  -0.00048530  1
  Te  Te45  1  0.75140020  0.00083088  0.50195257  1
  Te  Te46  1  0.75243072  0.50058166  0.00107676  1
  Te  Te47  1  0.75598434  0.49951949  0.50004705  1
  Te  Te48  1  -0.00013692  0.25545579  -0.00994828  1
  Te  Te49  1  0.00054523  0.24988341  0.50239985  1
  Te  Te50  1  -0.00037863  0.74391548  -0.01011088  1
  Te  Te51  1  0.00032774  0.75006885  0.50279596  1
  Te  Te52  1  0.50040581  0.25549912  0.00616733  1
  Te  Te53  1  0.50065953  0.25103196  0.49596318  1
  Te  Te54  1  0.50092382  0.74108514  0.00041270  1
  Te  Te55  1  0.50099062  0.74958490  0.49977849  1
  Te  Te56  1  -0.00424768  -0.00002935  0.25302093  1
  Te  Te57  1  0.00042705  0.00084275  0.74849911  1
  Te  Te58  1  0.00435278  0.49978610  0.25042933  1
  Te  Te59  1  0.00134371  0.49905514  0.74651289  1
  Te  Te60  1  0.50383291  0.00524493  0.24768969  1
  Te  Te61  1  0.49937456  0.00006196  0.75228789  1
  Te  Te62  1  0.49647481  0.49692264  0.24692020  1
  Te  Te63  1  0.49160007  0.49927409  0.75539844  1
