# generated using pymatgen
data_AgSbTe2
_symmetry_space_group_name_H-M   'P 1'
_cell_length_a   12.31514063
_cell_length_b   12.32749709
_cell_length_c   12.31396292
_cell_angle_alpha   89.99907515
_cell_angle_beta   89.99362133
_cell_angle_gamma   90.00959777
_symmetry_Int_Tables_number   1
_chemical_formula_structural   AgSbTe2
_chemical_formula_sum   'Ag16 Sb16 Te32'
_cell_volume   1869.44252259
_cell_formula_units_Z   16
loop_
 _symmetry_equiv_pos_site_id
 _symmetry_equiv_pos_as_xyz
  1  'x, y, z'
loop_
 _atom_site_type_symbol
 _atom_site_label
 _atom_site_symmetry_multiplicity
 _atom_site_fract_x
 _atom_site_fract_y
 _atom_site_fract_z
 _atom_site_occupancy
  Ag  Ag0  1  0.25838078  0.74663710  -0.00768175  1
  Ag  Ag1  1  0.74010062  0.51005694  0.24483634  1
  Ag  Ag2  1  0.26644082  -0.01148499  0.75362333  1
  Ag  Ag3  1  0.49646131  0.51376214  -0.01367149  1
  Ag  Ag4  1  0.01065279  0.74815683  0.75669049  1
  Ag  Ag5  1  0.00347086  0.50639448  -0.01131803  1
  Ag  Ag6  1  0.49973301  -0.01426463  -0.01800780  1
  Ag  Ag7  1  0.49966104  0.50738686  0.51694806  1
  Ag  Ag8  1  0.00361016  0.24945404  0.75410635  1
  Ag  Ag9  1  0.50175210  -0.00714911  0.52050752  1
  Ag  Ag10  1  0.73977728  -0.00521625  0.24646285  1
  Ag  Ag11  1  0.49139400  0.76681207  0.76038451  1
  Ag  Ag12  1  0.73146734  -0.00387266  0.75206828  1
  Ag  Ag13  1  0.50206840  0.75105086  0.24002552  1
  Ag  Ag14  1  0.26573805  0.51036446  0.75558330  1
  Ag  Ag15  1  0.49762611  0.22950156  0.75234284  1
  Sb  Sb16  1  0.74770393  0.24945049  0.50388319  1
  Sb  Sb17  1  -0.00015308  -0.00512782  -0.00428207  1
  Sb  Sb18  1  0.50060860  0.24968697  0.24601531  1
  Sb  Sb19  1  0.74818360  0.25015518  -0.00361249  1
  Sb  Sb20  1  0.74739150  0.75064269  0.50130843  1
  Sb  Sb21  1  0.25343999  0.25075641  0.50686766  1
  Sb  Sb22  1  -0.00299862  0.74815010  0.23926584  1
  Sb  Sb23  1  0.25255460  0.25202778  -0.00532114  1
  Sb  Sb24  1  0.25440450  0.74937035  0.50959192  1
  Sb  Sb25  1  0.26195812  -0.00580104  0.24592191  1
  Sb  Sb26  1  0.74199369  0.75034722  -0.00093257  1
  Sb  Sb27  1  -0.00203435  -0.00076326  0.50592502  1
  Sb  Sb28  1  0.25723157  0.50423836  0.24380073  1
  Sb  Sb29  1  -0.00238740  0.50096853  0.50932723  1
  Sb  Sb30  1  -0.00565269  0.25248312  0.24137797  1
  Sb  Sb31  1  0.74273704  0.50499604  0.75191553  1
  Te  Te32  1  0.24447116  0.24857212  0.25245909  1
  Te  Te33  1  0.25292593  0.25131057  0.75168122  1
  Te  Te34  1  0.25563226  0.75031103  0.23769936  1
  Te  Te35  1  0.25417803  0.74750828  0.75258168  1
  Te  Te36  1  0.75254412  0.24264487  0.25054880  1
  Te  Te37  1  0.74738938  0.24120020  0.75034931  1
  Te  Te38  1  0.74560369  0.75182409  0.24980936  1
  Te  Te39  1  0.74870563  0.75468168  0.75050312  1
  Te  Te40  1  0.25032095  -0.00160355  -0.00233196  1
  Te  Te41  1  0.25475453  -0.00044796  0.50362327  1
  Te  Te42  1  0.25653698  0.49919592  -0.00380721  1
  Te  Te43  1  0.25610389  0.50019019  0.50737321  1
  Te  Te44  1  0.74849447  -0.00087143  -0.00111948  1
  Te  Te45  1  0.74599582  -0.00059629  0.50132302  1
  Te  Te46  1  0.74450525  0.50110438  0.00276599  1
  Te  Te47  1  0.74356972  0.50079831  0.49083160  1
  Te  Te48  1  -0.00045046  0.26030875  -0.00578142  1
  Te  Te49  1  0.00094381  0.24949578  0.51196455  1
  Te  Te50  1  0.00824837  0.74550449  -0.00445097  1
  Te  Te51  1  0.00223606  0.75050685  0.51086282  1
  Te  Te52  1  0.50091465  0.25040423  -0.00415259  1
  Te  Te53  1  0.50021348  0.25120891  0.50683793  1
  Te  Te54  1  0.50057531  0.75020971  -0.00083959  1
  Te  Te55  1  0.49958326  0.74852810  0.49892876  1
  Te  Te56  1  -0.01112480  0.00046724  0.25238063  1
  Te  Te57  1  0.00195785  -0.00089474  0.75057518  1
  Te  Te58  1  -0.00488888  0.50031000  0.24821163  1
  Te  Te59  1  -0.00898747  0.50340646  0.75187023  1
  Te  Te60  1  0.50206920  0.00241822  0.24739738  1
  Te  Te61  1  0.49889379  0.00032769  0.75108446  1
  Te  Te62  1  0.50149773  0.49708510  0.24501688  1
  Te  Te63  1  0.50327064  0.50572002  0.75185097  1
