# generated using pymatgen
data_AgSbTe2
_symmetry_space_group_name_H-M   'P 1'
_cell_length_a   12.22100977
_cell_length_b   12.22360468
_cell_length_c   12.23015790
_cell_angle_alpha   89.99312184
_cell_angle_beta   90.00624561
_cell_angle_gamma   90.00390202
_symmetry_Int_Tables_number   1
_chemical_formula_structural   AgSbTe2
_chemical_formula_sum   'Ag16 Sb16 Te32'
_cell_volume   1826.99956771
_cell_formula_units_Z   16
loop_
 _symmetry_equiv_pos_site_id
 _symmetry_equiv_pos_as_xyz
  1  'x, y, z'
loop_
 _atom_site_type_symbol
 _atom_site_label
 _atom_site_symmetry_multiplicity
 _atom_site_fract_x
 _atom_site_fract_y
 _atom_site_fract_z
 _atom_site_occupancy
  Ag  Ag0  1  0.00458197  0.00555415  0.50213234  1
  Ag  Ag1  1  0.25323013  0.00804541  0.74926264  1
  Ag  Ag2  1  0.49753413  0.74384873  0.75713617  1
  Ag  Ag3  1  0.50041232  0.74183785  0.24283928  1
  Ag  Ag4  1  0.74240652  0.74503145  0.00125347  1
  Ag  Ag5  1  0.24888151  0.25329773  0.50622963  1
  Ag  Ag6  1  0.49877971  0.50545159  -0.00105628  1
  Ag  Ag7  1  0.25717176  0.49279278  0.75065395  1
  Ag  Ag8  1  0.25461790  0.49703084  0.24835035  1
  Ag  Ag9  1  0.74546870  0.50100874  0.24543736  1
  Ag  Ag10  1  0.48990282  0.25654635  0.75058831  1
  Ag  Ag11  1  0.49540562  0.49896210  0.50197008  1
  Ag  Ag12  1  0.49833089  -0.00435001  -0.00391770  1
  Ag  Ag13  1  0.00162838  0.49786120  0.00078244  1
  Ag  Ag14  1  0.00973743  0.25263473  0.74805506  1
  Ag  Ag15  1  0.00393660  0.25514132  0.25062029  1
  Sb  Sb16  1  0.25832419  0.74633686  -0.00049622  1
  Sb  Sb17  1  0.74664235  0.00000908  0.75190189  1
  Sb  Sb18  1  0.00067679  0.74489502  0.24722363  1
  Sb  Sb19  1  0.00143417  0.00149906  -0.00231697  1
  Sb  Sb20  1  0.25183247  0.74573843  0.50076824  1
  Sb  Sb21  1  0.74710645  0.74672230  0.49902322  1
  Sb  Sb22  1  0.49551750  0.25835228  0.24924867  1
  Sb  Sb23  1  0.74285458  0.50038056  0.75391138  1
  Sb  Sb24  1  0.00285933  0.74660089  0.75294415  1
  Sb  Sb25  1  0.74844045  -0.00020268  0.24758347  1
  Sb  Sb26  1  0.25162506  0.00349368  0.25002925  1
  Sb  Sb27  1  0.25113406  0.25390176  -0.00711391  1
  Sb  Sb28  1  0.74846131  0.25473044  0.00085143  1
  Sb  Sb29  1  0.00384935  0.49553494  0.49997311  1
  Sb  Sb30  1  0.49651482  0.00116677  0.50302867  1
  Sb  Sb31  1  0.74996537  0.25285230  0.49962020  1
  Te  Te32  1  0.24639362  0.25419475  0.25714488  1
  Te  Te33  1  0.25047726  0.25257946  0.74802024  1
  Te  Te34  1  0.25454353  0.74394767  0.25117343  1
  Te  Te35  1  0.25472371  0.74780520  0.74928647  1
  Te  Te36  1  0.75669636  0.25532131  0.25025463  1
  Te  Te37  1  0.75216208  0.24998506  0.74992362  1
  Te  Te38  1  0.74606392  0.74555773  0.24721744  1
  Te  Te39  1  0.74347211  0.74974183  0.75435270  1
  Te  Te40  1  0.25525716  -0.00063179  -0.00502464  1
  Te  Te41  1  0.24726346  0.00568922  0.50323662  1
  Te  Te42  1  0.25035029  0.49997041  -0.00014124  1
  Te  Te43  1  0.25354612  0.49658893  0.50187944  1
  Te  Te44  1  0.74396080  -0.00745063  0.00063488  1
  Te  Te45  1  0.75768954  -0.00028730  0.49956083  1
  Te  Te46  1  0.74831526  0.50297528  0.00336875  1
  Te  Te47  1  0.74293853  0.50043911  0.49174823  1
  Te  Te48  1  -0.00160259  0.25444156  -0.00069364  1
  Te  Te49  1  0.00272445  0.24875025  0.50303569  1
  Te  Te50  1  -0.00915466  0.74460785  -0.00007748  1
  Te  Te51  1  -0.00039532  0.75935014  0.50015916  1
  Te  Te52  1  0.50158394  0.25072973  -0.00369095  1
  Te  Te53  1  0.49639257  0.25320302  0.50354075  1
  Te  Te54  1  0.50167620  0.74617076  -0.00077381  1
  Te  Te55  1  0.50043954  0.74650951  0.50095055  1
  Te  Te56  1  0.00104435  0.00526224  0.25043245  1
  Te  Te57  1  0.00489439  0.00303308  0.75072504  1
  Te  Te58  1  0.00326146  0.49787870  0.24922009  1
  Te  Te59  1  0.00373897  0.49718630  0.75141643  1
  Te  Te60  1  0.49915225  -0.00567169  0.24665960  1
  Te  Te61  1  0.49658550  0.00087721  0.75106783  1
  Te  Te62  1  0.49697423  0.49964553  0.24683826  1
  Te  Te63  1  0.49956636  0.49889293  0.75203618  1
