# generated using pymatgen
data_AgSbTe2
_symmetry_space_group_name_H-M   'P 1'
_cell_length_a   12.21399579
_cell_length_b   12.20614739
_cell_length_c   12.20804149
_cell_angle_alpha   89.99175847
_cell_angle_beta   90.00875056
_cell_angle_gamma   90.00272588
_symmetry_Int_Tables_number   1
_chemical_formula_structural   AgSbTe2
_chemical_formula_sum   'Ag16 Sb16 Te32'
_cell_volume   1820.04599075
_cell_formula_units_Z   16
loop_
 _symmetry_equiv_pos_site_id
 _symmetry_equiv_pos_as_xyz
  1  'x, y, z'
loop_
 _atom_site_type_symbol
 _atom_site_label
 _atom_site_symmetry_multiplicity
 _atom_site_fract_x
 _atom_site_fract_y
 _atom_site_fract_z
 _atom_site_occupancy
  Ag  Ag0  1  -0.00007310  0.00720224  0.00344751  1
  Ag  Ag1  1  0.49606336  0.75350999  0.25094391  1
  Ag  Ag2  1  0.25123763  0.75187428  0.49527051  1
  Ag  Ag3  1  0.24975639  0.00097136  0.24972618  1
  Ag  Ag4  1  0.49906795  0.24692536  0.24755022  1
  Ag  Ag5  1  0.25036349  0.49588652  0.75240306  1
  Ag  Ag6  1  0.75342055  0.24936563  -0.00412577  1
  Ag  Ag7  1  0.00388065  0.75434489  0.24909124  1
  Ag  Ag8  1  -0.00546874  0.24897663  0.75493024  1
  Ag  Ag9  1  0.75124436  0.00979105  0.75064886  1
  Ag  Ag10  1  0.74954895  0.24789727  0.50360840  1
  Ag  Ag11  1  0.74999885  0.49068373  0.75224813  1
  Ag  Ag12  1  0.00109495  0.24525612  0.24325911  1
  Ag  Ag13  1  0.24722298  0.24980129  0.00212882  1
  Ag  Ag14  1  0.49996297  0.00190000  0.49601220  1
  Ag  Ag15  1  0.49983387  0.49515952  0.00003436  1
  Sb  Sb16  1  0.74857473  0.75214978  0.49919338  1
  Sb  Sb17  1  0.24899622  0.00474442  0.75049240  1
  Sb  Sb18  1  0.74870751  0.49454098  0.24702829  1
  Sb  Sb19  1  0.75075249  0.00493624  0.24935531  1
  Sb  Sb20  1  0.75051895  0.75025747  0.00078094  1
  Sb  Sb21  1  0.50045196  0.49790884  0.49948157  1
  Sb  Sb22  1  -0.00014076  0.49905885  0.50088108  1
  Sb  Sb23  1  0.24958980  0.74995889  0.00428682  1
  Sb  Sb24  1  -0.00005768  0.49101567  -0.00168527  1
  Sb  Sb25  1  0.00161392  0.75188519  0.75141099  1
  Sb  Sb26  1  -0.00023490  0.00205121  0.49670907  1
  Sb  Sb27  1  0.50060702  0.00485372  0.00436690  1
  Sb  Sb28  1  0.49844385  0.75026958  0.74989266  1
  Sb  Sb29  1  0.50683820  0.25041689  0.75300153  1
  Sb  Sb30  1  0.25145229  0.24901421  0.49872707  1
  Sb  Sb31  1  0.25137720  0.49845924  0.24766777  1
  Te  Te32  1  0.24884605  0.24820070  0.24853894  1
  Te  Te33  1  0.24519238  0.25236611  0.75189555  1
  Te  Te34  1  0.25031649  0.75184104  0.25255232  1
  Te  Te35  1  0.24835835  0.74516255  0.74440190  1
  Te  Te36  1  0.75109471  0.25028628  0.24916554  1
  Te  Te37  1  0.75033522  0.25007597  0.75149192  1
  Te  Te38  1  0.75035844  0.74901250  0.25114356  1
  Te  Te39  1  0.75148584  0.74843696  0.74899091  1
  Te  Te40  1  0.24755804  0.00540101  0.00294240  1
  Te  Te41  1  0.25480112  -0.00296847  0.49704049  1
  Te  Te42  1  0.25409124  0.49481605  -0.00469599  1
  Te  Te43  1  0.25113141  0.50481319  0.50753231  1
  Te  Te44  1  0.75213201  0.00524368  -0.00521398  1
  Te  Te45  1  0.74569199  0.00413752  0.50519735  1
  Te  Te46  1  0.74577015  0.49461937  -0.00549786  1
  Te  Te47  1  0.74901182  0.49371939  0.50901278  1
  Te  Te48  1  -0.00096517  0.24851594  0.00161782  1
  Te  Te49  1  -0.00481204  0.24872287  0.49968428  1
  Te  Te50  1  0.00014938  0.75834905  0.00676697  1
  Te  Te51  1  0.00442075  0.75068180  0.49264302  1
  Te  Te52  1  0.50006944  0.25161052  0.00455828  1
  Te  Te53  1  0.50320251  0.24647998  0.49269958  1
  Te  Te54  1  0.49982194  0.74477546  0.00757886  1
  Te  Te55  1  0.49738139  0.75362134  0.49339745  1
  Te  Te56  1  0.00199715  0.00316216  0.24727521  1
  Te  Te57  1  -0.00327027  0.00345086  0.75378191  1
  Te  Te58  1  -0.00012456  0.49934785  0.24934735  1
  Te  Te59  1  -0.00097262  0.49588795  0.75078138  1
  Te  Te60  1  0.49787113  0.00112925  0.25146620  1
  Te  Te61  1  0.50453534  -0.00150088  0.74474564  1
  Te  Te62  1  0.49982759  0.49879774  0.24523126  1
  Te  Te63  1  0.50004687  0.50073719  0.75515916  1
