# generated using pymatgen
data_AgSbTe2
_symmetry_space_group_name_H-M   'P 1'
_cell_length_a   12.27086043
_cell_length_b   12.27715392
_cell_length_c   12.29611631
_cell_angle_alpha   90.00639261
_cell_angle_beta   89.99400826
_cell_angle_gamma   90.00158916
_symmetry_Int_Tables_number   1
_chemical_formula_structural   AgSbTe2
_chemical_formula_sum   'Ag16 Sb16 Te32'
_cell_volume   1852.42517482
_cell_formula_units_Z   16
loop_
 _symmetry_equiv_pos_site_id
 _symmetry_equiv_pos_as_xyz
  1  'x, y, z'
loop_
 _atom_site_type_symbol
 _atom_site_label
 _atom_site_symmetry_multiplicity
 _atom_site_fract_x
 _atom_site_fract_y
 _atom_site_fract_z
 _atom_site_occupancy
  Ag  Ag0  1  0.75835831  0.73657583  0.00217658  1
  Ag  Ag1  1  0.24602223  0.74005594  0.50742059  1
  Ag  Ag2  1  0.75986952  0.50466849  0.24427294  1
  Ag  Ag3  1  0.00143098  0.73947425  0.24614539  1
  Ag  Ag4  1  0.00611727  0.50117977  0.00241164  1
  Ag  Ag5  1  0.24271269  0.73557334  -0.00664264  1
  Ag  Ag6  1  0.49135504  0.74753267  0.75082374  1
  Ag  Ag7  1  0.75732884  0.25968039  0.50265715  1
  Ag  Ag8  1  0.75508993  0.73992175  0.49896499  1
  Ag  Ag9  1  0.00857456  0.25589410  0.75357542  1
  Ag  Ag10  1  0.75985026  0.26307572  -0.00247633  1
  Ag  Ag11  1  0.24494323  0.50085075  0.75748963  1
  Ag  Ag12  1  0.24195974  0.25995409  0.51124960  1
  Ag  Ag13  1  0.23915535  0.26510696  -0.01111361  1
  Ag  Ag14  1  0.24029327  0.50493339  0.24220866  1
  Ag  Ag15  1  0.24826458  -0.00184795  0.75086091  1
  Sb  Sb16  1  0.75771298  0.50047245  0.75556012  1
  Sb  Sb17  1  0.75344745  -0.00146373  0.75047876  1
  Sb  Sb18  1  0.24630318  -0.00285681  0.24942205  1
  Sb  Sb19  1  0.75395204  -0.00381810  0.24944990  1
  Sb  Sb20  1  0.49383780  0.25442263  0.75020195  1
  Sb  Sb21  1  0.00084158  0.25958025  0.24509608  1
  Sb  Sb22  1  0.00576591  0.74199141  0.75379893  1
  Sb  Sb23  1  0.49961395  0.25361840  0.24965249  1
  Sb  Sb24  1  0.49877136  -0.00153770  0.50530667  1
  Sb  Sb25  1  0.49924507  0.50087138  0.50241645  1
  Sb  Sb26  1  0.49382793  0.50058786  -0.00183201  1
  Sb  Sb27  1  0.49850987  -0.00168146  -0.00526545  1
  Sb  Sb28  1  0.00155060  -0.00065425  -0.00246873  1
  Sb  Sb29  1  0.49857868  0.74762920  0.24904870  1
  Sb  Sb30  1  0.00137687  0.50037806  0.49834160  1
  Sb  Sb31  1  0.00132867  -0.00025824  0.50350034  1
  Te  Te32  1  0.24836609  0.25420736  0.25156392  1
  Te  Te33  1  0.25185005  0.25522014  0.74930002  1
  Te  Te34  1  0.25235631  0.74685126  0.25048230  1
  Te  Te35  1  0.24473284  0.74584456  0.74880030  1
  Te  Te36  1  0.75143688  0.25517720  0.25077816  1
  Te  Te37  1  0.74814441  0.25005414  0.74921571  1
  Te  Te38  1  0.74714302  0.74656259  0.24937531  1
  Te  Te39  1  0.75200945  0.75031894  0.74836573  1
  Te  Te40  1  0.24851704  0.00091816  -0.00256801  1
  Te  Te41  1  0.24888560  0.00061021  0.50290161  1
  Te  Te42  1  0.24867696  0.50043687  0.00312595  1
  Te  Te43  1  0.24687712  0.50056316  0.49672288  1
  Te  Te44  1  0.75067735  0.00158241  -0.00039989  1
  Te  Te45  1  0.75049531  0.00150401  0.50035412  1
  Te  Te46  1  0.75277087  0.50062946  -0.00135077  1
  Te  Te47  1  0.75284572  0.50057070  0.49783079  1
  Te  Te48  1  0.00056676  0.25258221  0.00126292  1
  Te  Te49  1  -0.00032174  0.25152179  0.50200746  1
  Te  Te50  1  -0.00045298  0.74714477  -0.00331256  1
  Te  Te51  1  -0.00174899  0.74844066  0.49973959  1
  Te  Te52  1  0.50507405  0.24888301  -0.00125206  1
  Te  Te53  1  0.50418991  0.24949484  0.50120363  1
  Te  Te54  1  0.50141565  0.75032551  -0.00475183  1
  Te  Te55  1  0.50060799  0.74975845  0.50517483  1
  Te  Te56  1  0.00023205  -0.02188407  0.24903766  1
  Te  Te57  1  0.00899705  0.01695279  0.75067149  1
  Te  Te58  1  0.00146481  0.50620166  0.24224641  1
  Te  Te59  1  0.00642023  0.49343233  0.76086194  1
  Te  Te60  1  0.50027688  0.00149142  0.24965904  1
  Te  Te61  1  0.48726992  -0.01258733  0.75049834  1
  Te  Te62  1  0.49999879  0.49896120  0.25011295  1
  Te  Te63  1  0.48423488  0.50831872  0.74960955  1
