# generated using pymatgen
data_AgSbTe2
_symmetry_space_group_name_H-M   'P 1'
_cell_length_a   12.23077128
_cell_length_b   12.21705237
_cell_length_c   12.22462364
_cell_angle_alpha   89.99159798
_cell_angle_beta   90.00750891
_cell_angle_gamma   90.00439075
_symmetry_Int_Tables_number   1
_chemical_formula_structural   AgSbTe2
_chemical_formula_sum   'Ag16 Sb16 Te32'
_cell_volume   1826.65179489
_cell_formula_units_Z   16
loop_
 _symmetry_equiv_pos_site_id
 _symmetry_equiv_pos_as_xyz
  1  'x, y, z'
loop_
 _atom_site_type_symbol
 _atom_site_label
 _atom_site_symmetry_multiplicity
 _atom_site_fract_x
 _atom_site_fract_y
 _atom_site_fract_z
 _atom_site_occupancy
  Ag  Ag0  1  0.00373491  0.50368604  -0.00467331  1
  Ag  Ag1  1  0.49745830  0.25718289  0.25094092  1
  Ag  Ag2  1  0.00384676  -0.00354189  0.00225349  1
  Ag  Ag3  1  0.00329328  0.74660851  0.25396904  1
  Ag  Ag4  1  0.75398773  0.73985071  0.49992795  1
  Ag  Ag5  1  0.50413472  0.50328660  0.49716427  1
  Ag  Ag6  1  0.75493583  0.50218393  0.74307546  1
  Ag  Ag7  1  -0.00370516  0.50789371  0.50402164  1
  Ag  Ag8  1  0.24953594  0.25536760  0.00227237  1
  Ag  Ag9  1  0.24615645  0.74376941  0.49649804  1
  Ag  Ag10  1  0.00096283  0.74173508  0.74637360  1
  Ag  Ag11  1  0.49654538  0.74414273  0.25386514  1
  Ag  Ag12  1  0.74972171  0.26121223  0.49929193  1
  Ag  Ag13  1  0.24839817  -0.00373804  0.24899438  1
  Ag  Ag14  1  0.49656249  0.49997968  0.00300134  1
  Ag  Ag15  1  0.24487156  0.50262120  0.75007388  1
  Sb  Sb16  1  0.24547342  -0.00295865  0.75081660  1
  Sb  Sb17  1  0.74855431  0.50062541  0.25854594  1
  Sb  Sb18  1  0.25128247  0.50324207  0.24944557  1
  Sb  Sb19  1  0.49996066  0.25544324  0.74847752  1
  Sb  Sb20  1  0.74940539  0.25574929  0.00118972  1
  Sb  Sb21  1  0.75281427  -0.00176555  0.25049064  1
  Sb  Sb22  1  -0.00017264  0.25955962  0.75027267  1
  Sb  Sb23  1  0.25007908  0.25721951  0.49848792  1
  Sb  Sb24  1  0.75449134  -0.00276239  0.74852798  1
  Sb  Sb25  1  0.49868571  0.74413958  0.74654159  1
  Sb  Sb26  1  0.24824171  0.74550492  0.00282792  1
  Sb  Sb27  1  0.00139666  -0.00852816  0.49792859  1
  Sb  Sb28  1  0.75230458  0.74491147  -0.00007625  1
  Sb  Sb29  1  0.49879258  -0.00315212  0.49719369  1
  Sb  Sb30  1  0.49685706  0.00010437  0.00470299  1
  Sb  Sb31  1  0.00213662  0.25314949  0.25052092  1
  Te  Te32  1  0.25325350  0.24403816  0.24731910  1
  Te  Te33  1  0.25010423  0.25444257  0.75477251  1
  Te  Te34  1  0.24938987  0.75319676  0.25227192  1
  Te  Te35  1  0.24722786  0.74571479  0.74543949  1
  Te  Te36  1  0.74315629  0.24830767  0.25562356  1
  Te  Te37  1  0.74972772  0.25509411  0.74315246  1
  Te  Te38  1  0.75024937  0.75117288  0.25562112  1
  Te  Te39  1  0.75314368  0.74578630  0.74498834  1
  Te  Te40  1  0.24550694  0.00458011  0.00235988  1
  Te  Te41  1  0.24966269  -0.00536827  0.49636379  1
  Te  Te42  1  0.24937115  0.49781643  -0.00311654  1
  Te  Te43  1  0.24998187  0.50266575  0.50352511  1
  Te  Te44  1  0.75880843  0.00179289  -0.00145926  1
  Te  Te45  1  0.75027335  0.00056802  0.50122551  1
  Te  Te46  1  0.75076167  0.49918137  -0.00952619  1
  Te  Te47  1  0.74971293  0.50167083  0.50227795  1
  Te  Te48  1  0.00265427  0.25479575  0.00080607  1
  Te  Te49  1  -0.00329120  0.25627895  0.49883544  1
  Te  Te50  1  -0.00041659  0.74454557  0.00229247  1
  Te  Te51  1  0.00005061  0.74797351  0.49771642  1
  Te  Te52  1  0.49783410  0.25456514  0.00492508  1
  Te  Te53  1  0.50154056  0.25459540  0.49565391  1
  Te  Te54  1  0.50055747  0.74408035  0.00683157  1
  Te  Te55  1  0.50001942  0.74661175  0.49673475  1
  Te  Te56  1  0.00423730  -0.00425611  0.24622562  1
  Te  Te57  1  0.00078236  -0.00999991  0.75644735  1
  Te  Te58  1  -0.00040466  0.50465591  0.24902126  1
  Te  Te59  1  0.00107503  0.50299128  0.74985789  1
  Te  Te60  1  0.49458082  -0.00303681  0.24864531  1
  Te  Te61  1  0.50001361  -0.00023393  0.75193579  1
  Te  Te62  1  0.50062324  0.50166058  0.25035640  1
  Te  Te63  1  0.49906796  0.50138975  0.74993174  1
