# generated using pymatgen
data_AgSbTe2
_symmetry_space_group_name_H-M   'P 1'
_cell_length_a   12.21370365
_cell_length_b   12.20596038
_cell_length_c   12.21668218
_cell_angle_alpha   89.99325030
_cell_angle_beta   89.99654526
_cell_angle_gamma   89.99333557
_symmetry_Int_Tables_number   1
_chemical_formula_structural   AgSbTe2
_chemical_formula_sum   'Ag16 Sb16 Te32'
_cell_volume   1821.26274171
_cell_formula_units_Z   16
loop_
 _symmetry_equiv_pos_site_id
 _symmetry_equiv_pos_as_xyz
  1  'x, y, z'
loop_
 _atom_site_type_symbol
 _atom_site_label
 _atom_site_symmetry_multiplicity
 _atom_site_fract_x
 _atom_site_fract_y
 _atom_site_fract_z
 _atom_site_occupancy
  Ag  Ag0  1  -0.00401216  0.00433434  -0.00243211  1
  Ag  Ag1  1  0.50092634  0.75223607  0.75103038  1
  Ag  Ag2  1  0.74898985  0.24575412  -0.00299780  1
  Ag  Ag3  1  0.50421478  0.24699748  0.75042358  1
  Ag  Ag4  1  0.75414071  0.00549620  0.25054835  1
  Ag  Ag5  1  -0.00263904  0.00796871  0.50348095  1
  Ag  Ag6  1  0.75504423  0.24573231  0.50393008  1
  Ag  Ag7  1  0.24895865  0.49600463  0.25198965  1
  Ag  Ag8  1  0.50052987  0.49436070  -0.00063449  1
  Ag  Ag9  1  0.24736122  0.00545372  0.74816445  1
  Ag  Ag10  1  0.00092963  0.49194960  0.49950795  1
  Ag  Ag11  1  -0.00385226  0.24309115  0.74416007  1
  Ag  Ag12  1  0.75365309  0.00819944  0.74941490  1
  Ag  Ag13  1  0.24483976  0.24899216  0.50241636  1
  Ag  Ag14  1  0.50241944  0.25010373  0.24927982  1
  Ag  Ag15  1  -0.00080817  0.75288663  0.25145406  1
  Sb  Sb16  1  0.49945836  0.49397603  0.49970601  1
  Sb  Sb17  1  0.24638979  0.00402921  0.25215344  1
  Sb  Sb18  1  0.50086477  0.74995140  0.24814313  1
  Sb  Sb19  1  -0.00064705  0.49447205  0.00059729  1
  Sb  Sb20  1  -0.00129442  0.75772899  0.74915224  1
  Sb  Sb21  1  0.75230105  0.75511231  0.50116682  1
  Sb  Sb22  1  0.50415980  0.00576974  -0.00341748  1
  Sb  Sb23  1  0.25061185  0.24873453  -0.00200839  1
  Sb  Sb24  1  0.75145552  0.49423094  0.25099023  1
  Sb  Sb25  1  0.75046852  0.75497840  -0.00125612  1
  Sb  Sb26  1  0.24995425  0.49455256  0.74744815  1
  Sb  Sb27  1  0.24792721  0.75198071  0.50116067  1
  Sb  Sb28  1  0.50291875  0.00531041  0.50282592  1
  Sb  Sb29  1  0.74959143  0.49023027  0.74941394  1
  Sb  Sb30  1  -0.00275604  0.24798689  0.25724242  1
  Sb  Sb31  1  0.24990705  0.75095368  -0.00091631  1
  Te  Te32  1  0.25564244  0.25196041  0.25424098  1
  Te  Te33  1  0.25076484  0.24630490  0.74672437  1
  Te  Te34  1  0.24764037  0.74552589  0.25081323  1
  Te  Te35  1  0.25549790  0.75742528  0.74888139  1
  Te  Te36  1  0.74680441  0.24534137  0.25036172  1
  Te  Te37  1  0.74934095  0.24689978  0.74852363  1
  Te  Te38  1  0.75291620  0.75842043  0.25019739  1
  Te  Te39  1  0.74517069  0.75983399  0.74978957  1
  Te  Te40  1  0.24189871  0.00102960  -0.00489407  1
  Te  Te41  1  0.24392933  0.00571039  0.50355476  1
  Te  Te42  1  0.25355144  0.49968024  0.00620588  1
  Te  Te43  1  0.24475028  0.49399648  0.49643924  1
  Te  Te44  1  0.75363903  0.00498855  -0.00060451  1
  Te  Te45  1  0.75363704  0.00459862  0.50057635  1
  Te  Te46  1  0.74605918  0.49170229  0.00051358  1
  Te  Te47  1  0.75733065  0.49209473  0.49921150  1
  Te  Te48  1  -0.00404874  0.24748092  -0.00511184  1
  Te  Te49  1  -0.00082013  0.24820757  0.50017690  1
  Te  Te50  1  -0.00090769  0.75398278  0.00459543  1
  Te  Te51  1  -0.00024872  0.75010233  0.49648436  1
  Te  Te52  1  0.50264619  0.25218578  -0.00144193  1
  Te  Te53  1  0.50069760  0.25091503  0.50167808  1
  Te  Te54  1  0.50079166  0.74245180  -0.00443043  1
  Te  Te55  1  0.50022587  0.74742595  0.50689697  1
  Te  Te56  1  -0.00157584  -0.00192704  0.25042077  1
  Te  Te57  1  -0.00180483  0.00066109  0.74831024  1
  Te  Te58  1  0.00280033  0.50358182  0.25220956  1
  Te  Te59  1  0.00121366  0.49683586  0.74643061  1
  Te  Te60  1  0.50376489  0.00315623  0.24898266  1
  Te  Te61  1  0.50048652  0.00456371  0.75101519  1
  Te  Te62  1  0.49687040  0.49800257  0.24717320  1
  Te  Te63  1  0.49932860  0.49730154  0.75393706  1
