# generated using pymatgen
data_AgSbTe2
_symmetry_space_group_name_H-M   'P 1'
_cell_length_a   12.28724914
_cell_length_b   12.28682365
_cell_length_c   12.28869642
_cell_angle_alpha   89.99186088
_cell_angle_beta   89.99667942
_cell_angle_gamma   89.99576525
_symmetry_Int_Tables_number   1
_chemical_formula_structural   AgSbTe2
_chemical_formula_sum   'Ag16 Sb16 Te32'
_cell_volume   1855.23999592
_cell_formula_units_Z   16
loop_
 _symmetry_equiv_pos_site_id
 _symmetry_equiv_pos_as_xyz
  1  'x, y, z'
loop_
 _atom_site_type_symbol
 _atom_site_label
 _atom_site_symmetry_multiplicity
 _atom_site_fract_x
 _atom_site_fract_y
 _atom_site_fract_z
 _atom_site_occupancy
  Ag  Ag0  1  -0.00746846  0.25383649  0.25345272  1
  Ag  Ag1  1  0.50070820  0.51980898  0.00413834  1
  Ag  Ag2  1  0.50408235  -0.01820978  0.50337913  1
  Ag  Ag3  1  0.26102646  -0.01039406  0.74896214  1
  Ag  Ag4  1  0.74640558  0.24851701  0.49502025  1
  Ag  Ag5  1  0.73146614  0.75074038  0.01100403  1
  Ag  Ag6  1  0.74442430  0.51022761  0.25416014  1
  Ag  Ag7  1  -0.01008599  0.74760271  0.25107530  1
  Ag  Ag8  1  0.50294354  0.51932517  0.49634925  1
  Ag  Ag9  1  0.73169550  0.75025174  0.48959413  1
  Ag  Ag10  1  0.26740954  0.75003922  0.50101282  1
  Ag  Ag11  1  0.73622589  -0.00761416  0.74547431  1
  Ag  Ag12  1  0.50731589  0.74632201  0.25069331  1
  Ag  Ag13  1  0.26773182  0.75036257  -0.00053829  1
  Ag  Ag14  1  0.50135425  -0.01875710  -0.00261733  1
  Ag  Ag15  1  0.25859441  0.51423134  0.74851029  1
  Sb  Sb16  1  0.25562085  0.50332666  0.25057265  1
  Sb  Sb17  1  0.00052722  0.50437905  0.00285016  1
  Sb  Sb18  1  0.00014496  0.74979141  0.74644742  1
  Sb  Sb19  1  0.74753727  -0.00696386  0.25256928  1
  Sb  Sb20  1  0.25359649  0.24914375  0.50063099  1
  Sb  Sb21  1  0.74267022  0.50652557  0.74880929  1
  Sb  Sb22  1  0.49669474  0.75341905  0.75005573  1
  Sb  Sb23  1  0.25236006  0.24867156  -0.00010985  1
  Sb  Sb24  1  -0.00096644  -0.00435778  -0.00036152  1
  Sb  Sb25  1  0.25224843  -0.00320627  0.25173838  1
  Sb  Sb26  1  -0.00359167  0.25079013  0.74652587  1
  Sb  Sb27  1  0.50132374  0.24817744  0.74874151  1
  Sb  Sb28  1  0.50474345  0.25449325  0.25143801  1
  Sb  Sb29  1  -0.00246111  0.50219948  0.49789476  1
  Sb  Sb30  1  0.74841526  0.24726898  0.00483562  1
  Sb  Sb31  1  -0.00340472  -0.00212604  0.50007713  1
  Te  Te32  1  0.23771646  0.25093542  0.25061237  1
  Te  Te33  1  0.24690346  0.24444189  0.74998527  1
  Te  Te34  1  0.25589228  0.74944101  0.25079534  1
  Te  Te35  1  0.24632272  0.75161689  0.74869337  1
  Te  Te36  1  0.75150769  0.25787021  0.25330278  1
  Te  Te37  1  0.75256062  0.24232190  0.74171563  1
  Te  Te38  1  0.74328909  0.74799822  0.25023431  1
  Te  Te39  1  0.75848207  0.75410593  0.74898139  1
  Te  Te40  1  0.25471600  -0.00208503  -0.00308727  1
  Te  Te41  1  0.25644058  -0.00113256  0.50199083  1
  Te  Te42  1  0.25636850  0.50241629  0.00076965  1
  Te  Te43  1  0.25703917  0.50132422  0.49958210  1
  Te  Te44  1  0.74602249  -0.00197936  -0.00357123  1
  Te  Te45  1  0.74679514  -0.00826764  0.50041075  1
  Te  Te46  1  0.74449341  0.50250830  -0.00678638  1
  Te  Te47  1  0.74624280  0.50919495  0.50508841  1
  Te  Te48  1  -0.00040174  0.24990720  0.01139094  1
  Te  Te49  1  -0.00774450  0.24979272  0.49402669  1
  Te  Te50  1  -0.00004456  0.74999849  0.01175664  1
  Te  Te51  1  0.00186298  0.74967197  0.49110755  1
  Te  Te52  1  0.49920876  0.24884976  0.00320206  1
  Te  Te53  1  0.50557297  0.24858695  0.49809272  1
  Te  Te54  1  0.50004515  0.75031464  -0.00798227  1
  Te  Te55  1  0.49908032  0.75026777  0.50735166  1
  Te  Te56  1  0.00019927  -0.00654447  0.25013514  1
  Te  Te57  1  0.00537535  0.00103751  0.75028403  1
  Te  Te58  1  -0.01020634  0.50777823  0.24986493  1
  Te  Te59  1  0.01700403  0.49795154  0.75055156  1
  Te  Te60  1  0.50055234  -0.00712018  0.24955314  1
  Te  Te61  1  0.49990562  0.00180190  0.74885913  1
  Te  Te62  1  0.50523398  0.50496413  0.25127808  1
  Te  Te63  1  0.49427573  0.49420872  0.74942469  1
