# generated using pymatgen
data_AgSbTe2
_symmetry_space_group_name_H-M   'P 1'
_cell_length_a   12.26051657
_cell_length_b   12.22762398
_cell_length_c   12.27261892
_cell_angle_alpha   89.99656352
_cell_angle_beta   90.00170402
_cell_angle_gamma   89.98410222
_symmetry_Int_Tables_number   1
_chemical_formula_structural   AgSbTe2
_chemical_formula_sum   'Ag16 Sb16 Te32'
_cell_volume   1839.87396723
_cell_formula_units_Z   16
loop_
 _symmetry_equiv_pos_site_id
 _symmetry_equiv_pos_as_xyz
  1  'x, y, z'
loop_
 _atom_site_type_symbol
 _atom_site_label
 _atom_site_symmetry_multiplicity
 _atom_site_fract_x
 _atom_site_fract_y
 _atom_site_fract_z
 _atom_site_occupancy
  Ag  Ag0  1  0.75848826  0.50034876  0.75924724  1
  Ag  Ag1  1  0.75493479  0.73924634  0.00040821  1
  Ag  Ag2  1  0.25171800  0.25949340  0.00525818  1
  Ag  Ag3  1  0.25237130  0.25675688  0.49503465  1
  Ag  Ag4  1  0.76625874  0.49881471  0.24252424  1
  Ag  Ag5  1  0.49175657  0.25868923  0.24932065  1
  Ag  Ag6  1  0.00756655  0.26487221  0.24861039  1
  Ag  Ag7  1  0.23551716  0.49259694  0.24513839  1
  Ag  Ag8  1  -0.00066342  0.73431128  0.24704935  1
  Ag  Ag9  1  0.24295190  0.49565631  0.75602619  1
  Ag  Ag10  1  -0.00120364  0.73893774  0.75433108  1
  Ag  Ag11  1  0.49501960  0.25767163  0.75057615  1
  Ag  Ag12  1  -0.00030925  0.50095719  0.01317481  1
  Ag  Ag13  1  0.49834931  0.49505046  0.00212743  1
  Ag  Ag14  1  0.49726859  0.00732411  0.49916581  1
  Ag  Ag15  1  0.00341408  0.49831815  0.48337562  1
  Sb  Sb16  1  0.49988999  0.74270067  0.75213574  1
  Sb  Sb17  1  0.75183724  0.74430627  0.49941814  1
  Sb  Sb18  1  0.25054752  0.00369217  0.74830247  1
  Sb  Sb19  1  0.00123384  0.00020371  0.00070966  1
  Sb  Sb20  1  0.49957106  0.74091584  0.24768293  1
  Sb  Sb21  1  0.25057369  0.00801009  0.25134634  1
  Sb  Sb22  1  0.24708953  0.74333548  0.49918116  1
  Sb  Sb23  1  0.00255541  0.26065433  0.75098998  1
  Sb  Sb24  1  0.24750611  0.73967608  0.00096236  1
  Sb  Sb25  1  0.49764199  0.49664662  0.49944715  1
  Sb  Sb26  1  0.74933729  0.25480003  0.49900645  1
  Sb  Sb27  1  0.49966740  0.00533933  0.00049931  1
  Sb  Sb28  1  0.00197814  0.00224064  0.49894170  1
  Sb  Sb29  1  0.74892371  0.00138511  0.75073950  1
  Sb  Sb30  1  0.74907675  0.25829302  0.00135940  1
  Sb  Sb31  1  0.74934164  0.00188614  0.24952235  1
  Te  Te32  1  0.24933355  0.25169141  0.24973649  1
  Te  Te33  1  0.25153798  0.25312262  0.74986344  1
  Te  Te34  1  0.24683507  0.74403394  0.24987083  1
  Te  Te35  1  0.24732589  0.74470261  0.74968723  1
  Te  Te36  1  0.75217609  0.25299790  0.24963296  1
  Te  Te37  1  0.74532929  0.25451978  0.75016714  1
  Te  Te38  1  0.75132315  0.74582664  0.24830663  1
  Te  Te39  1  0.75117873  0.74422815  0.75190862  1
  Te  Te40  1  0.25151398  0.01241623  -0.00058313  1
  Te  Te41  1  0.25452740  0.00937167  0.50072882  1
  Te  Te42  1  0.24993356  0.49808747  -0.00028698  1
  Te  Te43  1  0.24683667  0.49625971  0.50001809  1
  Te  Te44  1  0.74999242  -0.01476586  -0.00074598  1
  Te  Te45  1  0.74287244  -0.00008475  0.50077912  1
  Te  Te46  1  0.75240749  0.50021134  0.00031991  1
  Te  Te47  1  0.75622566  0.50023637  0.49896531  1
  Te  Te48  1  0.00178038  0.25137868  0.00205228  1
  Te  Te49  1  0.00321320  0.25329553  0.49804968  1
  Te  Te50  1  -0.00060760  0.74896608  0.00172638  1
  Te  Te51  1  0.00106457  0.74723710  0.49693466  1
  Te  Te52  1  0.50005268  0.25509578  0.00143712  1
  Te  Te53  1  0.49828099  0.25053430  0.49843624  1
  Te  Te54  1  0.50286331  0.74533934  0.00014686  1
  Te  Te55  1  0.49867961  0.76094740  0.49979327  1
  Te  Te56  1  -0.00106242  -0.00137312  0.25100291  1
  Te  Te57  1  -0.00134439  -0.01385742  0.74881829  1
  Te  Te58  1  -0.00062595  0.49865507  0.24897184  1
  Te  Te59  1  -0.00018552  0.49978104  0.75358803  1
  Te  Te60  1  0.50056858  0.00748027  0.25238346  1
  Te  Te61  1  0.49992065  0.00720548  0.74818862  1
  Te  Te62  1  0.49921604  0.49668871  0.24890735  1
  Te  Te63  1  0.49862666  0.49663964  0.74958149  1
