# generated using pymatgen
data_AgSbTe2
_symmetry_space_group_name_H-M   'P 1'
_cell_length_a   12.24045443
_cell_length_b   12.24134976
_cell_length_c   12.21310128
_cell_angle_alpha   89.99889670
_cell_angle_beta   90.00177612
_cell_angle_gamma   89.99870381
_symmetry_Int_Tables_number   1
_chemical_formula_structural   AgSbTe2
_chemical_formula_sum   'Ag16 Sb16 Te32'
_cell_volume   1830.00723377
_cell_formula_units_Z   16
loop_
 _symmetry_equiv_pos_site_id
 _symmetry_equiv_pos_as_xyz
  1  'x, y, z'
loop_
 _atom_site_type_symbol
 _atom_site_label
 _atom_site_symmetry_multiplicity
 _atom_site_fract_x
 _atom_site_fract_y
 _atom_site_fract_z
 _atom_site_occupancy
  Ag  Ag0  1  0.49902396  0.49793178  -0.00318799  1
  Ag  Ag1  1  0.00328559  0.24929961  0.24665382  1
  Ag  Ag2  1  0.24761607  0.75157628  0.50133830  1
  Ag  Ag3  1  -0.00136330  0.24992293  0.75347256  1
  Ag  Ag4  1  0.24587455  -0.00008098  0.25094800  1
  Ag  Ag5  1  0.00099177  0.49958945  -0.00103168  1
  Ag  Ag6  1  0.50130677  0.25045835  0.75367408  1
  Ag  Ag7  1  0.24683697  0.49979130  0.24764420  1
  Ag  Ag8  1  0.75365054  0.00174483  0.24916832  1
  Ag  Ag9  1  0.24859448  -0.00242580  0.74907714  1
  Ag  Ag10  1  0.49706495  0.25002973  0.24663821  1
  Ag  Ag11  1  0.75132213  0.00057062  0.75096531  1
  Ag  Ag12  1  0.00192880  0.75027219  0.75101677  1
  Ag  Ag13  1  0.49824444  0.74992234  0.75117133  1
  Ag  Ag14  1  0.00486450  0.75068916  0.24899371  1
  Ag  Ag15  1  0.75083092  0.49937272  0.75388876  1
  Sb  Sb16  1  0.24938192  0.50272698  0.75409406  1
  Sb  Sb17  1  0.49955021  0.00379276  -0.00320119  1
  Sb  Sb18  1  0.49263328  0.74950331  0.24733612  1
  Sb  Sb19  1  0.49696437  -0.00219899  0.50263754  1
  Sb  Sb20  1  0.24923467  0.25248450  0.00205624  1
  Sb  Sb21  1  0.75113423  0.74867040  -0.00351286  1
  Sb  Sb22  1  0.75078883  0.25185000  -0.00334198  1
  Sb  Sb23  1  0.00323820  -0.00263354  0.50022514  1
  Sb  Sb24  1  0.75289513  0.75081815  0.50376132  1
  Sb  Sb25  1  0.75413534  0.49781967  0.24459509  1
  Sb  Sb26  1  0.00028414  0.00163613  -0.00020842  1
  Sb  Sb27  1  0.24849155  0.74844204  -0.00213291  1
  Sb  Sb28  1  0.24938882  0.24782751  0.49802092  1
  Sb  Sb29  1  0.75049062  0.24919572  0.50250148  1
  Sb  Sb30  1  0.00342402  0.50237187  0.50218155  1
  Sb  Sb31  1  0.49677406  0.50202395  0.50486682  1
  Te  Te32  1  0.24830329  0.24706559  0.25345037  1
  Te  Te33  1  0.24979726  0.24284299  0.74628898  1
  Te  Te34  1  0.24732574  0.75324475  0.25450919  1
  Te  Te35  1  0.24750714  0.75399898  0.74639870  1
  Te  Te36  1  0.75122088  0.24310095  0.25177598  1
  Te  Te37  1  0.75024780  0.24623143  0.74900799  1
  Te  Te38  1  0.75825592  0.75845615  0.25459206  1
  Te  Te39  1  0.75216696  0.75386273  0.74607891  1
  Te  Te40  1  0.25067480  -0.00135405  0.00154955  1
  Te  Te41  1  0.25011484  -0.00957134  0.49864452  1
  Te  Te42  1  0.24931012  0.50064803  0.00959556  1
  Te  Te43  1  0.25083258  0.51183933  0.48553957  1
  Te  Te44  1  0.74933247  -0.00128796  -0.00123169  1
  Te  Te45  1  0.74918340  -0.00220937  0.50111535  1
  Te  Te46  1  0.75032775  0.50040717  -0.00934505  1
  Te  Te47  1  0.74848662  0.50238112  0.51532202  1
  Te  Te48  1  0.00014647  0.26114300  -0.00026060  1
  Te  Te49  1  0.00255466  0.25165456  0.49995628  1
  Te  Te50  1  0.00025449  0.73796286  -0.00098795  1
  Te  Te51  1  0.00910452  0.74911427  0.50098476  1
  Te  Te52  1  0.49991966  0.26024479  -0.00157389  1
  Te  Te53  1  0.49774452  0.25143993  0.50063667  1
  Te  Te54  1  0.49993275  0.73636023  -0.01018593  1
  Te  Te55  1  0.48887906  0.74874894  0.51148555  1
  Te  Te56  1  0.00223958  0.00127720  0.24791678  1
  Te  Te57  1  -0.00101143  0.00007799  0.75204913  1
  Te  Te58  1  -0.00113735  0.49894597  0.24384067  1
  Te  Te59  1  -0.00031494  0.49965743  0.75515917  1
  Te  Te60  1  0.49868483  0.00595595  0.24659435  1
  Te  Te61  1  0.50121818  0.00206613  0.75348241  1
  Te  Te62  1  0.49968653  0.49538098  0.24218016  1
  Te  Te63  1  0.50012838  0.49731831  0.75512068  1
