# generated using pymatgen
data_AgSbTe2
_symmetry_space_group_name_H-M   'P 1'
_cell_length_a   12.22646818
_cell_length_b   12.22843071
_cell_length_c   12.23504798
_cell_angle_alpha   90.00048262
_cell_angle_beta   90.00642043
_cell_angle_gamma   90.00280916
_symmetry_Int_Tables_number   1
_chemical_formula_structural   AgSbTe2
_chemical_formula_sum   'Ag16 Sb16 Te32'
_cell_volume   1829.26835786
_cell_formula_units_Z   16
loop_
 _symmetry_equiv_pos_site_id
 _symmetry_equiv_pos_as_xyz
  1  'x, y, z'
loop_
 _atom_site_type_symbol
 _atom_site_label
 _atom_site_symmetry_multiplicity
 _atom_site_fract_x
 _atom_site_fract_y
 _atom_site_fract_z
 _atom_site_occupancy
  Ag  Ag0  1  0.24348513  0.24415330  0.49891692  1
  Ag  Ag1  1  -0.00003434  0.24284267  0.24626599  1
  Ag  Ag2  1  -0.00512992  0.00507636  0.00395737  1
  Ag  Ag3  1  0.75862367  0.24298271  0.00159299  1
  Ag  Ag4  1  0.49891659  -0.00231731  0.50324035  1
  Ag  Ag5  1  0.75681301  0.00128308  0.24605285  1
  Ag  Ag6  1  0.50060274  0.75773337  0.74818234  1
  Ag  Ag7  1  -0.00008278  0.75778068  0.25417616  1
  Ag  Ag8  1  0.50510579  0.00077783  -0.00301678  1
  Ag  Ag9  1  0.00215558  0.50331297  0.49892318  1
  Ag  Ag10  1  0.24080579  0.24570873  0.00180677  1
  Ag  Ag11  1  -0.00038669  0.49517674  0.00140361  1
  Ag  Ag12  1  -0.00016929  0.75533059  0.74563420  1
  Ag  Ag13  1  0.00158731  -0.00296453  0.49672573  1
  Ag  Ag14  1  0.75240322  -0.00129961  0.75354757  1
  Ag  Ag15  1  0.24298840  0.75638114  0.50143286  1
  Sb  Sb16  1  0.75409267  0.75907721  -0.00062113  1
  Sb  Sb17  1  0.75479272  0.50129433  0.75189410  1
  Sb  Sb18  1  0.23994792  0.00067257  0.25170428  1
  Sb  Sb19  1  0.24606753  -0.00081219  0.74864041  1
  Sb  Sb20  1  0.49966152  0.75739614  0.25224540  1
  Sb  Sb21  1  0.49629443  0.50212385  0.50237488  1
  Sb  Sb22  1  0.24498399  0.75516792  -0.00067935  1
  Sb  Sb23  1  0.50153012  0.24012818  0.74972741  1
  Sb  Sb24  1  0.24550246  0.50102849  0.75011132  1
  Sb  Sb25  1  0.75859233  0.75415807  0.50047729  1
  Sb  Sb26  1  -0.00053528  0.24243491  0.75424268  1
  Sb  Sb27  1  0.24537780  0.49929257  0.24992588  1
  Sb  Sb28  1  0.49987690  0.49850762  -0.00253775  1
  Sb  Sb29  1  0.75635422  0.49876680  0.24820807  1
  Sb  Sb30  1  0.50026174  0.24386790  0.25045164  1
  Sb  Sb31  1  0.75902042  0.24438709  0.49742297  1
  Te  Te32  1  0.24439854  0.25023107  0.25024055  1
  Te  Te33  1  0.25082022  0.25080405  0.74868760  1
  Te  Te34  1  0.24338374  0.74958918  0.25647956  1
  Te  Te35  1  0.24773259  0.74977594  0.74530240  1
  Te  Te36  1  0.75498695  0.24479205  0.24605668  1
  Te  Te37  1  0.74892660  0.24307372  0.75656174  1
  Te  Te38  1  0.75663000  0.75636436  0.24965385  1
  Te  Te39  1  0.75127399  0.75604305  0.75029205  1
  Te  Te40  1  0.24974291  0.00466495  -0.00022395  1
  Te  Te41  1  0.24863785  0.00095418  0.49996657  1
  Te  Te42  1  0.24469007  0.49088117  0.00006153  1
  Te  Te43  1  0.24454482  0.49738725  0.50015809  1
  Te  Te44  1  0.75197265  0.00121666  -0.00037746  1
  Te  Te45  1  0.75006180  0.00160731  0.50110823  1
  Te  Te46  1  0.75495180  0.48926116  -0.00005795  1
  Te  Te47  1  0.75726467  0.49698968  0.50015713  1
  Te  Te48  1  0.00149170  0.24734368  -0.00133306  1
  Te  Te49  1  0.00307226  0.24701897  0.49899581  1
  Te  Te50  1  0.00245973  0.75109258  0.00048743  1
  Te  Te51  1  0.00150708  0.75290208  0.49959619  1
  Te  Te52  1  0.49758968  0.24639059  0.00032238  1
  Te  Te53  1  0.49022237  0.24652558  0.49930834  1
  Te  Te54  1  0.49715319  0.75431575  -0.00314623  1
  Te  Te55  1  0.49325262  0.75292904  0.50193270  1
  Te  Te56  1  -0.00241609  0.00079572  0.24980746  1
  Te  Te57  1  -0.00313159  -0.00404947  0.74945368  1
  Te  Te58  1  -0.00157052  0.49992814  0.24940484  1
  Te  Te59  1  -0.00167195  0.51089872  0.74971297  1
  Te  Te60  1  0.51155147  -0.00085981  0.24982187  1
  Te  Te61  1  0.50493489  -0.00401700  0.74924952  1
  Te  Te62  1  0.50343306  0.50215555  0.25007090  1
  Te  Te63  1  0.50259722  0.51354388  0.74981837  1
