# generated using pymatgen
data_AgSbTe2
_symmetry_space_group_name_H-M   'P 1'
_cell_length_a   12.23256545
_cell_length_b   12.22847861
_cell_length_c   12.23689907
_cell_angle_alpha   90.00837126
_cell_angle_beta   89.99782940
_cell_angle_gamma   89.99838518
_symmetry_Int_Tables_number   1
_chemical_formula_structural   AgSbTe2
_chemical_formula_sum   'Ag16 Sb16 Te32'
_cell_volume   1830.46466305
_cell_formula_units_Z   16
loop_
 _symmetry_equiv_pos_site_id
 _symmetry_equiv_pos_as_xyz
  1  'x, y, z'
loop_
 _atom_site_type_symbol
 _atom_site_label
 _atom_site_symmetry_multiplicity
 _atom_site_fract_x
 _atom_site_fract_y
 _atom_site_fract_z
 _atom_site_occupancy
  Ag  Ag0  1  0.75329302  0.74308899  0.50291334  1
  Ag  Ag1  1  0.24916406  0.01375972  0.25069191  1
  Ag  Ag2  1  0.75325592  0.49590684  0.25335184  1
  Ag  Ag3  1  0.75283900  0.50334275  0.74575811  1
  Ag  Ag4  1  0.01414525  0.25469344  0.25071048  1
  Ag  Ag5  1  0.24769664  0.25283413  0.48608560  1
  Ag  Ag6  1  0.48538675  0.25248003  0.24941405  1
  Ag  Ag7  1  0.00220162  0.50240869  0.49746314  1
  Ag  Ag8  1  0.49278140  0.74864105  0.74763618  1
  Ag  Ag9  1  0.24889238  0.75032209  -0.00309876  1
  Ag  Ag10  1  0.00542107  0.74714437  0.74530867  1
  Ag  Ag11  1  0.24901602  0.25034110  0.01459924  1
  Ag  Ag12  1  0.24654564  0.74790782  0.50324325  1
  Ag  Ag13  1  0.24936162  -0.00550728  0.74931987  1
  Ag  Ag14  1  0.24753064  0.48609658  0.25322820  1
  Ag  Ag15  1  0.75103430  0.25431248  0.00484155  1
  Sb  Sb16  1  0.24703077  0.50476465  0.74696417  1
  Sb  Sb17  1  0.75131423  0.74607283  -0.00185436  1
  Sb  Sb18  1  0.00166930  0.49924427  0.00284339  1
  Sb  Sb19  1  0.49538459  0.74824821  0.25138385  1
  Sb  Sb20  1  0.49607865  0.25166026  0.75082903  1
  Sb  Sb21  1  0.00409697  0.74582492  0.25353739  1
  Sb  Sb22  1  0.00388552  0.00008750  0.00079280  1
  Sb  Sb23  1  0.49757395  0.49970723  0.00023462  1
  Sb  Sb24  1  0.49613968  0.00021092  0.00029803  1
  Sb  Sb25  1  0.75103857  0.00359748  0.25112378  1
  Sb  Sb26  1  0.75072873  -0.00158746  0.74943278  1
  Sb  Sb27  1  0.49650829  0.50078872  0.49929917  1
  Sb  Sb28  1  0.49610313  -0.00033583  0.49978143  1
  Sb  Sb29  1  0.75198409  0.25734613  0.49678351  1
  Sb  Sb30  1  0.00286526  0.25248753  0.74955210  1
  Sb  Sb31  1  0.00396531  -0.00151036  0.49955875  1
  Te  Te32  1  0.24924958  0.25152631  0.24944811  1
  Te  Te33  1  0.25096555  0.24669692  0.75150504  1
  Te  Te34  1  0.25030180  0.74939160  0.25084303  1
  Te  Te35  1  0.24994680  0.74830522  0.74859719  1
  Te  Te36  1  0.75059899  0.25196511  0.24953523  1
  Te  Te37  1  0.74944340  0.25165097  0.75200556  1
  Te  Te38  1  0.74943710  0.74696966  0.25062244  1
  Te  Te39  1  0.75148338  0.74874715  0.75059615  1
  Te  Te40  1  0.24966354  -0.00005276  0.00057251  1
  Te  Te41  1  0.24885647  -0.00187725  0.49962502  1
  Te  Te42  1  0.24889059  0.49873115  0.00408621  1
  Te  Te43  1  0.24702698  0.50151684  0.49925682  1
  Te  Te44  1  0.75020434  0.00897111  0.00055670  1
  Te  Te45  1  0.75106471  -0.01120869  0.50011703  1
  Te  Te46  1  0.75136972  0.49597981  0.00352590  1
  Te  Te47  1  0.75372206  0.50274000  0.49814572  1
  Te  Te48  1  0.00306386  0.25001540  0.00181048  1
  Te  Te49  1  0.00363140  0.25542865  0.49833305  1
  Te  Te50  1  0.00474341  0.74996039  -0.00612169  1
  Te  Te51  1  0.00284645  0.74565431  0.50115963  1
  Te  Te52  1  0.49695987  0.25001609  0.00234662  1
  Te  Te53  1  0.49461087  0.24963125  0.49633840  1
  Te  Te54  1  0.49458333  0.75014805  -0.00506450  1
  Te  Te55  1  0.49807414  0.75018705  0.50305742  1
  Te  Te56  1  0.00476517  0.00780048  0.25017664  1
  Te  Te57  1  0.00532244  -0.00641619  0.74962576  1
  Te  Te58  1  0.00017090  0.49791055  0.25415089  1
  Te  Te59  1  -0.00396444  0.50372972  0.74362352  1
  Te  Te60  1  0.49463416  0.00606177  0.25001343  1
  Te  Te61  1  0.49436457  -0.00560589  0.74967698  1
  Te  Te62  1  0.50031411  0.49630580  0.24977006  1
  Te  Te63  1  0.50872239  0.50473963  0.75003752  1
