# generated using pymatgen
data_AgSbTe2
_symmetry_space_group_name_H-M   'P 1'
_cell_length_a   12.28844110
_cell_length_b   12.30502244
_cell_length_c   12.32009397
_cell_angle_alpha   90.01117118
_cell_angle_beta   90.01464975
_cell_angle_gamma   89.99429004
_symmetry_Int_Tables_number   1
_chemical_formula_structural   AgSbTe2
_chemical_formula_sum   'Ag16 Sb16 Te32'
_cell_volume   1862.91567996
_cell_formula_units_Z   16
loop_
 _symmetry_equiv_pos_site_id
 _symmetry_equiv_pos_as_xyz
  1  'x, y, z'
loop_
 _atom_site_type_symbol
 _atom_site_label
 _atom_site_symmetry_multiplicity
 _atom_site_fract_x
 _atom_site_fract_y
 _atom_site_fract_z
 _atom_site_occupancy
  Ag  Ag0  1  0.23264085  -0.00521678  0.24357729  1
  Ag  Ag1  1  0.75840561  0.51187547  0.24750130  1
  Ag  Ag2  1  -0.00016153  -0.00642979  -0.00804959  1
  Ag  Ag3  1  0.76733416  -0.01075231  0.75807744  1
  Ag  Ag4  1  0.76292206  0.75016496  0.50219615  1
  Ag  Ag5  1  0.23992221  0.51592139  0.75202998  1
  Ag  Ag6  1  0.23490781  -0.01372071  0.75667724  1
  Ag  Ag7  1  -0.00032104  0.50811478  0.50412719  1
  Ag  Ag8  1  0.23517389  0.74979454  0.51508027  1
  Ag  Ag9  1  -0.00196632  0.24143577  0.24795612  1
  Ag  Ag10  1  0.23699762  0.75468101  -0.01232846  1
  Ag  Ag11  1  0.76095624  0.75490583  -0.00216921  1
  Ag  Ag12  1  0.76310843  -0.00681192  0.24477599  1
  Ag  Ag13  1  0.00091217  0.23798490  0.75177329  1
  Ag  Ag14  1  0.50056803  0.50762814  -0.00088508  1
  Ag  Ag15  1  0.00725733  0.75955374  0.75187960  1
  Sb  Sb16  1  0.50099365  0.24938008  0.75276962  1
  Sb  Sb17  1  0.75691542  0.50913276  0.75000868  1
  Sb  Sb18  1  0.50002507  -0.00418697  -0.00010058  1
  Sb  Sb19  1  0.75680350  0.24866603  0.49998525  1
  Sb  Sb20  1  0.50012989  -0.00236472  0.49995029  1
  Sb  Sb21  1  0.24327677  0.50502430  0.24926048  1
  Sb  Sb22  1  -0.00013940  0.50631028  -0.00019123  1
  Sb  Sb23  1  0.75397389  0.24550589  -0.00005861  1
  Sb  Sb24  1  0.49620952  0.74991305  0.74996514  1
  Sb  Sb25  1  0.50163152  0.75009936  0.24969092  1
  Sb  Sb26  1  -0.00047602  -0.00600301  0.50279284  1
  Sb  Sb27  1  0.24311874  0.24737209  0.50241543  1
  Sb  Sb28  1  0.50028056  0.24963753  0.24706640  1
  Sb  Sb29  1  0.24617542  0.24504981  -0.00147905  1
  Sb  Sb30  1  -0.00028046  0.75532538  0.24866316  1
  Sb  Sb31  1  0.49953047  0.50400377  0.50069231  1
  Te  Te32  1  0.24495845  0.23995134  0.25066337  1
  Te  Te33  1  0.24476927  0.24452517  0.74961734  1
  Te  Te34  1  0.25153155  0.75476223  0.24733009  1
  Te  Te35  1  0.24874097  0.75091570  0.75114335  1
  Te  Te36  1  0.75405864  0.24138947  0.25048218  1
  Te  Te37  1  0.75558823  0.23840815  0.74913657  1
  Te  Te38  1  0.74956619  0.75159272  0.24846887  1
  Te  Te39  1  0.75043222  0.75298735  0.75142505  1
  Te  Te40  1  0.25253386  -0.00314181  -0.00128293  1
  Te  Te41  1  0.25012567  -0.00625322  0.50075728  1
  Te  Te42  1  0.24580961  0.50784280  0.00249350  1
  Te  Te43  1  0.25087263  0.50639030  0.49705722  1
  Te  Te44  1  0.74725045  -0.00272894  0.00016596  1
  Te  Te45  1  0.74992306  -0.00654463  0.49561191  1
  Te  Te46  1  0.75375903  0.50688158  0.00000723  1
  Te  Te47  1  0.74993173  0.50555743  0.50115557  1
  Te  Te48  1  0.00002437  0.23478341  -0.00246225  1
  Te  Te49  1  -0.00000813  0.26671153  0.50321452  1
  Te  Te50  1  -0.00035383  0.75921917  -0.00226025  1
  Te  Te51  1  -0.00008764  0.74412645  0.50207428  1
  Te  Te52  1  0.49986230  0.26695607  -0.00038422  1
  Te  Te53  1  0.49992635  0.24857026  0.49997774  1
  Te  Te54  1  0.50272606  0.74630529  -0.00002647  1
  Te  Te55  1  0.50266384  0.75271448  0.49985626  1
  Te  Te56  1  -0.00022743  0.00120189  0.25420604  1
  Te  Te57  1  -0.00040937  -0.00323833  0.74759376  1
  Te  Te58  1  -0.00482994  0.49449627  0.24844316  1
  Te  Te59  1  0.00298937  0.50311085  0.75183541  1
  Te  Te60  1  0.50384205  0.00129881  0.25034655  1
  Te  Te61  1  0.49850158  0.00228097  0.74956115  1
  Te  Te62  1  0.51079036  0.49882624  0.24754571  1
  Te  Te63  1  0.48791244  0.49810642  0.75259548  1
