# generated using pymatgen
data_AgSbTe2
_symmetry_space_group_name_H-M   'P 1'
_cell_length_a   12.26669684
_cell_length_b   12.24667123
_cell_length_c   12.26035274
_cell_angle_alpha   90.00724144
_cell_angle_beta   90.00612731
_cell_angle_gamma   90.00841658
_symmetry_Int_Tables_number   1
_chemical_formula_structural   AgSbTe2
_chemical_formula_sum   'Ag16 Sb16 Te32'
_cell_volume   1841.82619778
_cell_formula_units_Z   16
loop_
 _symmetry_equiv_pos_site_id
 _symmetry_equiv_pos_as_xyz
  1  'x, y, z'
loop_
 _atom_site_type_symbol
 _atom_site_label
 _atom_site_symmetry_multiplicity
 _atom_site_fract_x
 _atom_site_fract_y
 _atom_site_fract_z
 _atom_site_occupancy
  Ag  Ag0  1  0.49428547  0.49724579  0.48754669  1
  Ag  Ag1  1  0.49722718  0.73413498  0.24710041  1
  Ag  Ag2  1  0.01047818  0.25748857  0.25304798  1
  Ag  Ag3  1  0.48892038  0.26561990  0.25273511  1
  Ag  Ag4  1  0.75043956  0.26104647  0.49438123  1
  Ag  Ag5  1  0.24961175  0.26168355  0.48802296  1
  Ag  Ag6  1  0.74980256  0.74000931  0.49772156  1
  Ag  Ag7  1  0.24984812  0.73758524  0.00308184  1
  Ag  Ag8  1  0.48970909  0.50322410  0.01270897  1
  Ag  Ag9  1  0.25007621  0.26276803  0.01079657  1
  Ag  Ag10  1  0.00498600  0.49670885  0.49667170  1
  Ag  Ag11  1  0.24796699  0.50111386  0.75114283  1
  Ag  Ag12  1  0.00275873  -0.00305009  0.00170999  1
  Ag  Ag13  1  0.75115897  0.74504028  0.00230505  1
  Ag  Ag14  1  0.00201602  0.74439358  0.75334052  1
  Ag  Ag15  1  0.25815659  0.49242988  0.24882789  1
  Sb  Sb16  1  0.49757918  -0.00176821  0.00278069  1
  Sb  Sb17  1  0.00095050  0.00075081  0.49738525  1
  Sb  Sb18  1  0.24761582  0.00866467  0.24922334  1
  Sb  Sb19  1  0.49547412  0.74396638  0.75206400  1
  Sb  Sb20  1  0.75362121  -0.00085809  0.75201440  1
  Sb  Sb21  1  0.73880967  0.50131400  0.25272976  1
  Sb  Sb22  1  0.49768299  0.25616268  0.74587507  1
  Sb  Sb23  1  0.01215397  0.50111093  0.00534907  1
  Sb  Sb24  1  0.49889557  0.00166042  0.49689344  1
  Sb  Sb25  1  0.24611453  -0.00517416  0.75111574  1
  Sb  Sb26  1  0.74999952  0.25827243  0.00654497  1
  Sb  Sb27  1  0.00338288  0.25712221  0.74802580  1
  Sb  Sb28  1  0.00389819  0.73912906  0.24916886  1
  Sb  Sb29  1  0.25118314  0.73424754  0.49472079  1
  Sb  Sb30  1  0.75705252  0.50167554  0.74840985  1
  Sb  Sb31  1  0.75264616  -0.00119382  0.24852694  1
  Te  Te32  1  0.25206875  0.25363879  0.24840877  1
  Te  Te33  1  0.24823240  0.25971042  0.75318285  1
  Te  Te34  1  0.25314698  0.74275548  0.24565373  1
  Te  Te35  1  0.24637622  0.74397636  0.75689944  1
  Te  Te36  1  0.74920398  0.25206857  0.25641832  1
  Te  Te37  1  0.75098792  0.25056889  0.73703817  1
  Te  Te38  1  0.74561767  0.74768570  0.25032441  1
  Te  Te39  1  0.75713604  0.74776376  0.74952159  1
  Te  Te40  1  0.24583174  0.00006957  -0.00078651  1
  Te  Te41  1  0.24844252  0.01999127  0.50225285  1
  Te  Te42  1  0.25112192  0.49904468  0.00267398  1
  Te  Te43  1  0.25230991  0.49720994  0.49742214  1
  Te  Te44  1  0.75628160  -0.00992444  -0.00068033  1
  Te  Te45  1  0.75116281  -0.00224252  0.50064176  1
  Te  Te46  1  0.73793421  0.50550512  -0.00358960  1
  Te  Te47  1  0.74889055  0.50079878  0.50116404  1
  Te  Te48  1  -0.00064905  0.25137991  0.00199142  1
  Te  Te49  1  0.00032980  0.25117383  0.49866964  1
  Te  Te50  1  0.00001702  0.74714088  0.00356729  1
  Te  Te51  1  -0.00443159  0.74990320  0.49666610  1
  Te  Te52  1  0.50000282  0.25200267  0.00740627  1
  Te  Te53  1  0.49953151  0.25350720  0.49494028  1
  Te  Te54  1  0.49859501  0.74786973  0.00258758  1
  Te  Te55  1  0.50404925  0.74637530  0.49629904  1
  Te  Te56  1  0.00211161  0.01267279  0.24319948  1
  Te  Te57  1  0.00209845  -0.01266215  0.75845016  1
  Te  Te58  1  0.01105161  0.49458462  0.25551435  1
  Te  Te59  1  0.00818111  0.50592984  0.74138400  1
  Te  Te60  1  0.49782384  -0.00018067  0.24968642  1
  Te  Te61  1  0.49904090  -0.00096558  0.75100300  1
  Te  Te62  1  0.49672218  0.49920487  0.25149533  1
  Te  Te63  1  0.48627852  0.50091852  0.74862477  1
