# generated using pymatgen
data_AgSbTe2
_symmetry_space_group_name_H-M   'P 1'
_cell_length_a   12.22690087
_cell_length_b   12.23123536
_cell_length_c   12.23748251
_cell_angle_alpha   89.99980419
_cell_angle_beta   89.98819563
_cell_angle_gamma   90.00647688
_symmetry_Int_Tables_number   1
_chemical_formula_structural   AgSbTe2
_chemical_formula_sum   'Ag16 Sb16 Te32'
_cell_volume   1830.11670934
_cell_formula_units_Z   16
loop_
 _symmetry_equiv_pos_site_id
 _symmetry_equiv_pos_as_xyz
  1  'x, y, z'
loop_
 _atom_site_type_symbol
 _atom_site_label
 _atom_site_symmetry_multiplicity
 _atom_site_fract_x
 _atom_site_fract_y
 _atom_site_fract_z
 _atom_site_occupancy
  Ag  Ag0  1  0.50163622  0.50133920  0.50115887  1
  Ag  Ag1  1  0.49994218  -0.00132640  0.50309528  1
  Ag  Ag2  1  0.25419786  -0.00472176  0.75548777  1
  Ag  Ag3  1  0.49700758  -0.00431924  -0.00395578  1
  Ag  Ag4  1  0.74668762  0.50527322  0.24617765  1
  Ag  Ag5  1  0.23659983  0.74943055  -0.00382684  1
  Ag  Ag6  1  0.49737824  0.25066211  0.75218280  1
  Ag  Ag7  1  0.25417861  0.50451352  0.75563715  1
  Ag  Ag8  1  0.74756839  0.74783558  0.49898336  1
  Ag  Ag9  1  0.00173339  -0.01585363  -0.00239503  1
  Ag  Ag10  1  -0.00414528  0.74817903  0.23420541  1
  Ag  Ag11  1  0.76400700  0.74689914  0.00082440  1
  Ag  Ag12  1  0.49982216  0.50430599  -0.00122636  1
  Ag  Ag13  1  -0.00002404  0.51544543  -0.00099805  1
  Ag  Ag14  1  0.00293820  0.74957217  0.76515789  1
  Ag  Ag15  1  0.50190468  0.25301625  0.24749636  1
  Sb  Sb16  1  0.74872166  -0.00489610  0.24813350  1
  Sb  Sb17  1  0.74582081  -0.00410274  0.75160285  1
  Sb  Sb18  1  0.25392193  0.25063445  0.50197740  1
  Sb  Sb19  1  -0.00249164  0.25198371  0.24543942  1
  Sb  Sb20  1  0.74456275  0.25209767  0.49847204  1
  Sb  Sb21  1  -0.00163532  0.50505738  0.50169771  1
  Sb  Sb22  1  0.49662402  0.74982360  0.75434505  1
  Sb  Sb23  1  0.25331112  0.25030730  -0.00139669  1
  Sb  Sb24  1  0.00240578  0.25045190  0.75353123  1
  Sb  Sb25  1  0.50345299  0.74789733  0.24627006  1
  Sb  Sb26  1  0.74639879  0.50441236  0.75260784  1
  Sb  Sb27  1  0.00064497  -0.00652666  0.50245764  1
  Sb  Sb28  1  0.74631535  0.25366098  0.00117424  1
  Sb  Sb29  1  0.25231539  0.50296831  0.24471601  1
  Sb  Sb30  1  0.25211019  -0.00347094  0.24441625  1
  Sb  Sb31  1  0.25226307  0.74930049  0.50233399  1
  Te  Te32  1  0.25789182  0.24987220  0.25125735  1
  Te  Te33  1  0.25502013  0.25074493  0.74943541  1
  Te  Te34  1  0.24120312  0.74990624  0.24448207  1
  Te  Te35  1  0.24660451  0.74936356  0.75279495  1
  Te  Te36  1  0.74486640  0.25912728  0.25042525  1
  Te  Te37  1  0.74152051  0.24984206  0.74927577  1
  Te  Te38  1  0.75286388  0.74618007  0.24772465  1
  Te  Te39  1  0.75849615  0.74964728  0.75145164  1
  Te  Te40  1  0.25360523  -0.00262910  -0.00322222  1
  Te  Te41  1  0.25658795  -0.00105845  0.50750789  1
  Te  Te42  1  0.25293799  0.50255746  -0.00302111  1
  Te  Te43  1  0.25711422  0.50089640  0.50726655  1
  Te  Te44  1  0.74833837  -0.00629590  0.00060770  1
  Te  Te45  1  0.74381118  -0.00624195  0.49974810  1
  Te  Te46  1  0.74719195  0.50348334  0.00168183  1
  Te  Te47  1  0.74559840  0.50436972  0.49721256  1
  Te  Te48  1  -0.00167787  0.24942589  0.00059315  1
  Te  Te49  1  -0.00138502  0.24867234  0.49868904  1
  Te  Te50  1  -0.00092406  0.74921651  -0.00113373  1
  Te  Te51  1  -0.00540255  0.75067711  0.49963195  1
  Te  Te52  1  0.50082863  0.24964348  -0.00093517  1
  Te  Te53  1  0.50134233  0.25034596  0.50107395  1
  Te  Te54  1  0.50045314  0.74987851  0.00172493  1
  Te  Te55  1  0.50384005  0.74960143  0.49779243  1
  Te  Te56  1  0.00047208  -0.00099169  0.24550903  1
  Te  Te57  1  0.00477750  0.00020857  0.75408873  1
  Te  Te58  1  -0.00161527  0.50081036  0.24664728  1
  Te  Te59  1  0.00423163  0.50005941  0.75338013  1
  Te  Te60  1  0.49978616  0.00427769  0.24875908  1
  Te  Te61  1  0.49707227  -0.00035388  0.75329233  1
  Te  Te62  1  0.50079648  0.49861605  0.24779196  1
  Te  Te63  1  0.49757822  0.50029692  0.75268310  1
