# generated using pymatgen
data_AgSbTe2
_symmetry_space_group_name_H-M   'P 1'
_cell_length_a   12.21466654
_cell_length_b   12.21574066
_cell_length_c   12.21669003
_cell_angle_alpha   89.99919000
_cell_angle_beta   90.00797744
_cell_angle_gamma   90.00222100
_symmetry_Int_Tables_number   1
_chemical_formula_structural   AgSbTe2
_chemical_formula_sum   'Ag16 Sb16 Te32'
_cell_volume   1822.86694461
_cell_formula_units_Z   16
loop_
 _symmetry_equiv_pos_site_id
 _symmetry_equiv_pos_as_xyz
  1  'x, y, z'
loop_
 _atom_site_type_symbol
 _atom_site_label
 _atom_site_symmetry_multiplicity
 _atom_site_fract_x
 _atom_site_fract_y
 _atom_site_fract_z
 _atom_site_occupancy
  Ag  Ag0  1  0.24703369  0.76384823  0.49967012  1
  Ag  Ag1  1  0.75447918  -0.00722124  0.75161210  1
  Ag  Ag2  1  0.50370893  0.75456833  0.74775821  1
  Ag  Ag3  1  0.75267097  0.24833989  -0.00157508  1
  Ag  Ag4  1  0.00165743  0.75272718  0.25087590  1
  Ag  Ag5  1  0.75426106  0.75145624  -0.00505594  1
  Ag  Ag6  1  0.24573560  -0.00380661  0.26421364  1
  Ag  Ag7  1  0.75159962  0.50732414  0.75231305  1
  Ag  Ag8  1  -0.00400984  0.75701196  0.74957884  1
  Ag  Ag9  1  0.01327244  -0.00461160  0.50346274  1
  Ag  Ag10  1  0.24589753  -0.00451006  0.73639981  1
  Ag  Ag11  1  0.24675299  0.50407782  0.25282960  1
  Ag  Ag12  1  -0.00236414  -0.00458904  -0.00382094  1
  Ag  Ag13  1  0.75302266  0.50375741  0.24808889  1
  Ag  Ag14  1  0.24877580  0.23555374  0.49935811  1
  Ag  Ag15  1  0.48671592  -0.00295884  0.50354476  1
  Sb  Sb16  1  0.24759648  0.50712094  0.74680131  1
  Sb  Sb17  1  0.75474482  0.75304382  0.50751280  1
  Sb  Sb18  1  0.50078300  0.24345905  0.74772795  1
  Sb  Sb19  1  0.50331418  0.50317924  -0.00086118  1
  Sb  Sb20  1  0.75220183  0.24598536  0.50111878  1
  Sb  Sb21  1  0.24406039  0.75380981  0.00100101  1
  Sb  Sb22  1  0.49858068  0.75256188  0.25415744  1
  Sb  Sb23  1  0.00143171  0.50680028  0.49912653  1
  Sb  Sb24  1  0.50328169  -0.00344091  -0.00478642  1
  Sb  Sb25  1  0.75664875  -0.00627996  0.24777281  1
  Sb  Sb26  1  0.49835963  0.50538761  0.50170442  1
  Sb  Sb27  1  0.24532829  0.24494526  0.00089174  1
  Sb  Sb28  1  -0.00080359  0.23881658  0.74963142  1
  Sb  Sb29  1  0.00010925  0.24562800  0.25076178  1
  Sb  Sb30  1  0.50001208  0.24765952  0.25175735  1
  Sb  Sb31  1  -0.00427924  0.50666011  0.00065144  1
  Te  Te32  1  0.24990995  0.24992221  0.25365603  1
  Te  Te33  1  0.25071905  0.24590718  0.74529627  1
  Te  Te34  1  0.24780597  0.75097305  0.25091280  1
  Te  Te35  1  0.24815452  0.75076838  0.74872897  1
  Te  Te36  1  0.75011250  0.25944865  0.24440045  1
  Te  Te37  1  0.74948785  0.25082816  0.75425402  1
  Te  Te38  1  0.75309379  0.74615274  0.24503361  1
  Te  Te39  1  0.75237989  0.75132413  0.74921330  1
  Te  Te40  1  0.24438609  0.00215922  -0.00038323  1
  Te  Te41  1  0.24869716  -0.00162821  0.50058660  1
  Te  Te42  1  0.24985304  0.49717779  0.00979884  1
  Te  Te43  1  0.25035960  0.50031637  0.49372629  1
  Te  Te44  1  0.75306471  -0.00208745  -0.00286665  1
  Te  Te45  1  0.75058483  0.00244274  0.50490611  1
  Te  Te46  1  0.75117396  0.50145829  -0.00033690  1
  Te  Te47  1  0.74959650  0.49721627  0.49911299  1
  Te  Te48  1  -0.00717724  0.23970209  0.00010323  1
  Te  Te49  1  0.00701650  0.23984219  0.49963512  1
  Te  Te50  1  -0.00446526  0.75506948  -0.00018745  1
  Te  Te51  1  0.00363608  0.75497765  0.49958151  1
  Te  Te52  1  0.51167137  0.24887447  -0.00046811  1
  Te  Te53  1  0.49190578  0.24083638  0.50063418  1
  Te  Te54  1  0.51025617  0.75170216  -0.00916593  1
  Te  Te55  1  0.49272075  0.75518050  0.50500374  1
  Te  Te56  1  0.00263637  -0.00509483  0.25076764  1
  Te  Te57  1  -0.00028237  -0.00332731  0.74954676  1
  Te  Te58  1  -0.00027665  0.50812796  0.25031884  1
  Te  Te59  1  -0.00628072  0.51122594  0.74988352  1
  Te  Te60  1  0.49135674  -0.00150733  0.25759557  1
  Te  Te61  1  0.49984548  -0.00493924  0.74679521  1
  Te  Te62  1  0.50043806  0.50102487  0.25056036  1
  Te  Te63  1  0.50703975  0.50962136  0.74913335  1
