# generated using pymatgen
data_AgSbTe2
_symmetry_space_group_name_H-M   'P 1'
_cell_length_a   12.22357676
_cell_length_b   12.23752658
_cell_length_c   12.24315117
_cell_angle_alpha   89.99954962
_cell_angle_beta   89.99987155
_cell_angle_gamma   89.99463646
_symmetry_Int_Tables_number   1
_chemical_formula_structural   AgSbTe2
_chemical_formula_sum   'Ag16 Sb16 Te32'
_cell_volume   1831.40823344
_cell_formula_units_Z   16
loop_
 _symmetry_equiv_pos_site_id
 _symmetry_equiv_pos_as_xyz
  1  'x, y, z'
loop_
 _atom_site_type_symbol
 _atom_site_label
 _atom_site_symmetry_multiplicity
 _atom_site_fract_x
 _atom_site_fract_y
 _atom_site_fract_z
 _atom_site_occupancy
  Ag  Ag0  1  0.49402107  0.50855876  0.00009002  1
  Ag  Ag1  1  0.00717477  0.24901269  0.75203713  1
  Ag  Ag2  1  0.73437496  0.75313245  0.49808693  1
  Ag  Ag3  1  0.49663683  0.75601839  0.26218244  1
  Ag  Ag4  1  0.00840842  0.49961924  -0.00174295  1
  Ag  Ag5  1  0.25387199  0.24211830  0.50221416  1
  Ag  Ag6  1  0.25209855  0.24606193  -0.00224410  1
  Ag  Ag7  1  0.49310504  -0.01339154  0.49520929  1
  Ag  Ag8  1  0.25848737  0.75445723  -0.00001553  1
  Ag  Ag9  1  0.25827918  -0.00381338  0.25033444  1
  Ag  Ag10  1  0.25475220  -0.00086678  0.74955603  1
  Ag  Ag11  1  0.49521968  0.75286260  0.73727945  1
  Ag  Ag12  1  0.73930009  -0.00402977  0.25169943  1
  Ag  Ag13  1  0.49243727  -0.00854123  0.00435751  1
  Ag  Ag14  1  0.49631033  0.51525717  0.50009631  1
  Ag  Ag15  1  0.26283203  0.75708424  0.50016752  1
  Sb  Sb16  1  0.00381286  0.75162898  0.24883056  1
  Sb  Sb17  1  0.74517253  0.50451960  0.25123017  1
  Sb  Sb18  1  0.00487778  0.24900075  0.24842521  1
  Sb  Sb19  1  0.00630747  0.75137178  0.75168572  1
  Sb  Sb20  1  0.74745590  0.24794012  -0.00031501  1
  Sb  Sb21  1  0.25414693  0.50454127  0.24802598  1
  Sb  Sb22  1  0.00871399  0.00000411  0.50052035  1
  Sb  Sb23  1  0.74730822  0.50239960  0.74965218  1
  Sb  Sb24  1  0.73919896  0.75149877  0.00223680  1
  Sb  Sb25  1  0.00991529  0.00011999  -0.00047489  1
  Sb  Sb26  1  0.74525412  0.24679529  0.50028673  1
  Sb  Sb27  1  0.49663031  0.24203642  0.24993053  1
  Sb  Sb28  1  0.49385167  0.24697177  0.75003495  1
  Sb  Sb29  1  0.25192379  0.50142899  0.75199187  1
  Sb  Sb30  1  0.74338734  -0.00281443  0.74908560  1
  Sb  Sb31  1  0.00460175  0.50029917  0.50173238  1
  Te  Te32  1  0.25009686  0.24190181  0.24988403  1
  Te  Te33  1  0.24930203  0.24639505  0.75096823  1
  Te  Te34  1  0.25258622  0.75356231  0.24973896  1
  Te  Te35  1  0.25319619  0.75299702  0.75012538  1
  Te  Te36  1  0.75227135  0.24003771  0.25076767  1
  Te  Te37  1  0.76142035  0.24900231  0.74960955  1
  Te  Te38  1  0.74662335  0.75476176  0.25314398  1
  Te  Te39  1  0.74446027  0.75131328  0.74376608  1
  Te  Te40  1  0.25217338  -0.00088786  0.00040989  1
  Te  Te41  1  0.25133063  -0.00139500  0.49966437  1
  Te  Te42  1  0.25450769  0.49969450  0.00132039  1
  Te  Te43  1  0.25416380  0.50133159  0.49848174  1
  Te  Te44  1  0.74200826  0.00052304  0.00359250  1
  Te  Te45  1  0.74403479  -0.00189746  0.49795036  1
  Te  Te46  1  0.74472413  0.49903188  0.00062860  1
  Te  Te47  1  0.74377244  0.50316756  0.49897386  1
  Te  Te48  1  0.00421643  0.25295035  -0.00212522  1
  Te  Te49  1  0.00722470  0.25217903  0.50376976  1
  Te  Te50  1  0.00721290  0.74517110  -0.00144852  1
  Te  Te51  1  0.00203234  0.74769262  0.50059378  1
  Te  Te52  1  0.49591502  0.25228170  -0.00038079  1
  Te  Te53  1  0.49455526  0.25080287  0.50048341  1
  Te  Te54  1  0.49813412  0.75021966  0.00012394  1
  Te  Te55  1  0.49743947  0.75061091  0.50020693  1
  Te  Te56  1  -0.00039725  -0.00077486  0.24977947  1
  Te  Te57  1  0.00675997  0.00302020  0.75057554  1
  Te  Te58  1  -0.00233333  0.50009320  0.24102987  1
  Te  Te59  1  -0.00063669  0.49661715  0.75570507  1
  Te  Te60  1  0.49724927  -0.00164484  0.24995588  1
  Te  Te61  1  0.49575220  -0.00231106  0.75069816  1
  Te  Te62  1  0.50039626  0.50757538  0.24901429  1
  Te  Te63  1  0.49993890  0.50469461  0.75080561  1
