# generated using pymatgen
data_AgSbTe2
_symmetry_space_group_name_H-M   'P 1'
_cell_length_a   12.22914014
_cell_length_b   12.23364522
_cell_length_c   12.23899207
_cell_angle_alpha   90.00886193
_cell_angle_beta   90.00525367
_cell_angle_gamma   89.98901327
_symmetry_Int_Tables_number   1
_chemical_formula_structural   AgSbTe2
_chemical_formula_sum   'Ag16 Sb16 Te32'
_cell_volume   1831.03835602
_cell_formula_units_Z   16
loop_
 _symmetry_equiv_pos_site_id
 _symmetry_equiv_pos_as_xyz
  1  'x, y, z'
loop_
 _atom_site_type_symbol
 _atom_site_label
 _atom_site_symmetry_multiplicity
 _atom_site_fract_x
 _atom_site_fract_y
 _atom_site_fract_z
 _atom_site_occupancy
  Ag  Ag0  1  -0.00392180  0.50113842  -0.00944115  1
  Ag  Ag1  1  0.24480865  -0.00082978  0.74928193  1
  Ag  Ag2  1  0.00120632  -0.00068182  -0.00807036  1
  Ag  Ag3  1  0.49902938  -0.00041247  0.50678407  1
  Ag  Ag4  1  -0.00259958  0.24710543  0.74499667  1
  Ag  Ag5  1  0.75390669  0.75163202  -0.00747019  1
  Ag  Ag6  1  0.75661864  0.25044681  0.50352259  1
  Ag  Ag7  1  -0.00081016  0.24579974  0.25497923  1
  Ag  Ag8  1  0.24566658  0.00208632  0.25098144  1
  Ag  Ag9  1  -0.00308179  0.75267722  0.75193654  1
  Ag  Ag10  1  0.75724687  0.50192365  0.74669510  1
  Ag  Ag11  1  0.50471872  0.49939923  0.50587979  1
  Ag  Ag12  1  0.00093894  0.00641479  0.50768409  1
  Ag  Ag13  1  0.49900193  -0.00315645  -0.00695051  1
  Ag  Ag14  1  0.50279406  0.75539208  0.74926964  1
  Ag  Ag15  1  -0.00547069  0.49312896  0.50869359  1
  Sb  Sb16  1  0.24550599  0.49765586  0.25195966  1
  Sb  Sb17  1  0.24815597  0.75312842  0.50255475  1
  Sb  Sb18  1  0.24219563  0.24628189  0.50109655  1
  Sb  Sb19  1  0.24647903  0.75361029  -0.00310113  1
  Sb  Sb20  1  0.24633570  0.24623452  -0.00122540  1
  Sb  Sb21  1  0.75157092  0.74910171  0.50539803  1
  Sb  Sb22  1  0.75601910  -0.00283165  0.74971139  1
  Sb  Sb23  1  0.75513678  0.24913550  -0.00428489  1
  Sb  Sb24  1  0.24399979  0.49942679  0.74853769  1
  Sb  Sb25  1  0.50303508  0.24475936  0.74705864  1
  Sb  Sb26  1  -0.00075279  0.75322679  0.24865392  1
  Sb  Sb27  1  0.50036334  0.24659715  0.25399292  1
  Sb  Sb28  1  0.75345805  0.00161282  0.25083205  1
  Sb  Sb29  1  0.75175723  0.49791767  0.25304436  1
  Sb  Sb30  1  0.50417462  0.50366401  -0.00727114  1
  Sb  Sb31  1  0.50109960  0.75279476  0.25086172  1
  Te  Te32  1  0.24331539  0.24334393  0.24918900  1
  Te  Te33  1  0.24209556  0.24326846  0.75058288  1
  Te  Te34  1  0.25063042  0.75989550  0.24966352  1
  Te  Te35  1  0.24974188  0.75606883  0.74975101  1
  Te  Te36  1  0.75655527  0.25083990  0.25795706  1
  Te  Te37  1  0.75485733  0.25844335  0.74533389  1
  Te  Te38  1  0.74968931  0.74925950  0.23695559  1
  Te  Te39  1  0.75184631  0.74551863  0.75314786  1
  Te  Te40  1  0.24809994  -0.00013006  -0.00331801  1
  Te  Te41  1  0.24978176  0.00012012  0.50299501  1
  Te  Te42  1  0.24353907  0.49965285  0.00150173  1
  Te  Te43  1  0.25168973  0.50032134  0.49949620  1
  Te  Te44  1  0.75119976  -0.00142603  0.00101071  1
  Te  Te45  1  0.74994820  0.00165770  0.49922346  1
  Te  Te46  1  0.75347060  0.50176769  -0.00351713  1
  Te  Te47  1  0.75217539  0.50022371  0.50282297  1
  Te  Te48  1  -0.00223355  0.24738261  -0.00230691  1
  Te  Te49  1  -0.00252424  0.24818922  0.50306214  1
  Te  Te50  1  -0.00272486  0.75229430  -0.00185728  1
  Te  Te51  1  -0.00181665  0.75128784  0.50376735  1
  Te  Te52  1  0.50201544  0.24366021  0.00097528  1
  Te  Te53  1  0.50772926  0.24896459  0.49974863  1
  Te  Te54  1  0.50426195  0.75277250  -0.00436826  1
  Te  Te55  1  0.50197881  0.75297047  0.50455761  1
  Te  Te56  1  0.00280540  0.00196469  0.25090521  1
  Te  Te57  1  -0.00155682  -0.00187228  0.74962159  1
  Te  Te58  1  0.00248463  0.49598130  0.25195274  1
  Te  Te59  1  0.00171226  0.50190927  0.74892901  1
  Te  Te60  1  0.49457825  0.00013679  0.25188668  1
  Te  Te61  1  0.49881516  -0.00083392  0.74853727  1
  Te  Te62  1  0.49810521  0.49990503  0.25796432  1
  Te  Te63  1  0.49914702  0.50208194  0.74723731  1
