# generated using pymatgen
data_AgSbTe2
_symmetry_space_group_name_H-M   'P 1'
_cell_length_a   12.26303556
_cell_length_b   12.28682357
_cell_length_c   12.29539985
_cell_angle_alpha   90.00180531
_cell_angle_beta   90.00652473
_cell_angle_gamma   89.99741405
_symmetry_Int_Tables_number   1
_chemical_formula_structural   AgSbTe2
_chemical_formula_sum   'Ag16 Sb16 Te32'
_cell_volume   1852.59404132
_cell_formula_units_Z   16
loop_
 _symmetry_equiv_pos_site_id
 _symmetry_equiv_pos_as_xyz
  1  'x, y, z'
loop_
 _atom_site_type_symbol
 _atom_site_label
 _atom_site_symmetry_multiplicity
 _atom_site_fract_x
 _atom_site_fract_y
 _atom_site_fract_z
 _atom_site_occupancy
  Ag  Ag0  1  0.50185790  -0.00724349  0.50845273  1
  Ag  Ag1  1  0.26267956  -0.01024922  0.75306036  1
  Ag  Ag2  1  0.25973592  0.75738891  0.49923765  1
  Ag  Ag3  1  0.50544999  0.23603470  0.75176231  1
  Ag  Ag4  1  0.50770361  0.76137557  0.74687885  1
  Ag  Ag5  1  0.74018633  0.75635087  0.50672736  1
  Ag  Ag6  1  0.74563452  -0.01026414  0.24044508  1
  Ag  Ag7  1  0.74667975  0.75955756  -0.00615581  1
  Ag  Ag8  1  -0.00666419  -0.00328870  -0.00067323  1
  Ag  Ag9  1  0.74680535  0.51007295  0.24569252  1
  Ag  Ag10  1  0.74440970  0.51100236  0.75450931  1
  Ag  Ag11  1  0.25328926  0.76041933  0.00088394  1
  Ag  Ag12  1  0.74765374  0.23912891  -0.00472354  1
  Ag  Ag13  1  0.25332595  0.51212527  0.24830877  1
  Ag  Ag14  1  0.25497713  -0.01145785  0.24615831  1
  Ag  Ag15  1  0.73791459  -0.00953746  0.75790989  1
  Sb  Sb16  1  0.50215417  0.50295313  0.00052773  1
  Sb  Sb17  1  0.50101701  0.50938865  0.50059711  1
  Sb  Sb18  1  -0.00091366  0.75092979  0.24903530  1
  Sb  Sb19  1  0.25661917  0.24149020  0.50161611  1
  Sb  Sb20  1  -0.00702451  0.24528070  0.75467127  1
  Sb  Sb21  1  0.74464561  0.24283624  0.50461464  1
  Sb  Sb22  1  -0.00209845  0.24779044  0.24569814  1
  Sb  Sb23  1  -0.00996767  0.75219305  0.75096424  1
  Sb  Sb24  1  0.50294963  0.24413992  0.24472980  1
  Sb  Sb25  1  0.50108880  0.75611509  0.25286692  1
  Sb  Sb26  1  0.50746425  -0.00273425  -0.01017973  1
  Sb  Sb27  1  0.25437923  0.23766262  -0.00319476  1
  Sb  Sb28  1  -0.00088135  -0.00119317  0.50051014  1
  Sb  Sb29  1  0.25564448  0.51468664  0.75233519  1
  Sb  Sb30  1  -0.00057419  0.50282633  0.49977718  1
  Sb  Sb31  1  -0.00236201  0.50391263  -0.00017141  1
  Te  Te32  1  0.25249137  0.24963161  0.24920229  1
  Te  Te33  1  0.25929569  0.24575205  0.75190381  1
  Te  Te34  1  0.25359769  0.75384676  0.24759920  1
  Te  Te35  1  0.25454972  0.74922369  0.75154313  1
  Te  Te36  1  0.74684057  0.25029278  0.24454179  1
  Te  Te37  1  0.74571784  0.24586115  0.75135447  1
  Te  Te38  1  0.74666240  0.75181435  0.24711993  1
  Te  Te39  1  0.74820925  0.75395798  0.75174118  1
  Te  Te40  1  0.24960310  -0.00247238  0.00231183  1
  Te  Te41  1  0.24603627  -0.00553105  0.49910781  1
  Te  Te42  1  0.24585776  0.50796453  0.00527657  1
  Te  Te43  1  0.24923321  0.51139406  0.49396107  1
  Te  Te44  1  0.74697466  -0.00667389  0.00210745  1
  Te  Te45  1  0.75250129  -0.00463560  0.49885519  1
  Te  Te46  1  0.75230810  0.50775262  0.00485100  1
  Te  Te47  1  0.74968739  0.50928762  0.49425452  1
  Te  Te48  1  -0.01172724  0.23827685  -0.00042025  1
  Te  Te49  1  0.00078466  0.25136092  0.50104641  1
  Te  Te50  1  0.00028029  0.75848584  -0.00114573  1
  Te  Te51  1  0.00149588  0.75064256  0.50128719  1
  Te  Te52  1  0.50855243  0.25251292  -0.00888423  1
  Te  Te53  1  0.50070689  0.23624149  0.51286317  1
  Te  Te54  1  0.50013251  0.74936826  -0.00970482  1
  Te  Te55  1  0.50160300  0.75625862  0.50400052  1
  Te  Te56  1  -0.00106758  0.00091237  0.24494636  1
  Te  Te57  1  0.00184469  0.00051206  0.75475023  1
  Te  Te58  1  -0.00333355  0.49789683  0.25090264  1
  Te  Te59  1  -0.01403360  0.49662930  0.74965093  1
  Te  Te60  1  0.50000266  -0.00063353  0.26368930  1
  Te  Te61  1  0.50071388  -0.00509404  0.74810400  1
  Te  Te62  1  0.50333466  0.49692322  0.25094718  1
  Te  Te63  1  0.50736450  0.50254646  0.74936350  1
