# generated using pymatgen
data_AgSbTe2
_symmetry_space_group_name_H-M   'P 1'
_cell_length_a   12.25124829
_cell_length_b   12.22429361
_cell_length_c   12.25127502
_cell_angle_alpha   90.00576041
_cell_angle_beta   90.00135694
_cell_angle_gamma   90.00054106
_symmetry_Int_Tables_number   1
_chemical_formula_structural   AgSbTe2
_chemical_formula_sum   'Ag16 Sb16 Te32'
_cell_volume   1834.78593002
_cell_formula_units_Z   16
loop_
 _symmetry_equiv_pos_site_id
 _symmetry_equiv_pos_as_xyz
  1  'x, y, z'
loop_
 _atom_site_type_symbol
 _atom_site_label
 _atom_site_symmetry_multiplicity
 _atom_site_fract_x
 _atom_site_fract_y
 _atom_site_fract_z
 _atom_site_occupancy
  Ag  Ag0  1  0.49488837  0.25926869  0.74717875  1
  Ag  Ag1  1  0.00575772  0.25704713  0.74861086  1
  Ag  Ag2  1  0.00668720  0.49663011  -0.00568302  1
  Ag  Ag3  1  0.00144521  0.49485789  0.50581120  1
  Ag  Ag4  1  0.25357315  0.25877489  -0.00523030  1
  Ag  Ag5  1  0.25288357  0.49320641  0.75092805  1
  Ag  Ag6  1  0.49679401  0.25722795  0.25172412  1
  Ag  Ag7  1  0.74589113  0.49535346  0.74486343  1
  Ag  Ag8  1  0.25487421  0.25707201  0.50580316  1
  Ag  Ag9  1  0.49708843  0.00431289  -0.00194659  1
  Ag  Ag10  1  0.49859026  0.49326151  0.50505257  1
  Ag  Ag11  1  0.25322921  0.49549022  0.24851862  1
  Ag  Ag12  1  0.25285540  0.73894498  -0.00319208  1
  Ag  Ag13  1  0.74565715  0.49578905  0.25485380  1
  Ag  Ag14  1  0.74469747  0.25715092  0.50289488  1
  Ag  Ag15  1  0.49676887  0.73831922  0.75145167  1
  Sb  Sb16  1  0.74817488  0.73821596  0.50189343  1
  Sb  Sb17  1  0.49925542  0.00856099  0.50188606  1
  Sb  Sb18  1  0.25219298  0.00850155  0.75093425  1
  Sb  Sb19  1  0.00297322  0.00482619  -0.00235470  1
  Sb  Sb20  1  0.25385245  0.00683836  0.24740507  1
  Sb  Sb21  1  0.25265129  0.73720668  0.50353194  1
  Sb  Sb22  1  0.00302192  0.25525803  0.25078047  1
  Sb  Sb23  1  0.74597614  0.00627725  0.75000451  1
  Sb  Sb24  1  0.00337814  0.73783668  0.75193550  1
  Sb  Sb25  1  0.00111837  0.00893391  0.50243473  1
  Sb  Sb26  1  0.74588806  0.25568957  -0.00216537  1
  Sb  Sb27  1  0.74491153  0.00813285  0.24998330  1
  Sb  Sb28  1  0.49723004  0.73888145  0.24760835  1
  Sb  Sb29  1  0.74558767  0.74214653  -0.00236815  1
  Sb  Sb30  1  0.00198976  0.74209951  0.24887660  1
  Sb  Sb31  1  0.49063983  0.49597939  -0.00754453  1
  Te  Te32  1  0.25250531  0.25473170  0.24838846  1
  Te  Te33  1  0.25263933  0.25238163  0.75091156  1
  Te  Te34  1  0.25124995  0.74262749  0.24414641  1
  Te  Te35  1  0.25380911  0.74522961  0.75343386  1
  Te  Te36  1  0.74590026  0.25586933  0.25238025  1
  Te  Te37  1  0.74688187  0.25447872  0.74881357  1
  Te  Te38  1  0.74953553  0.74144192  0.25017507  1
  Te  Te39  1  0.74397866  0.74348292  0.74978874  1
  Te  Te40  1  0.25373436  0.00177422  0.00043008  1
  Te  Te41  1  0.24881781  0.01012027  0.49890274  1
  Te  Te42  1  0.24933832  0.49741942  -0.00133150  1
  Te  Te43  1  0.25124414  0.49764057  0.50128148  1
  Te  Te44  1  0.74492476  -0.00173313  0.00116487  1
  Te  Te45  1  0.75147476  0.01061677  0.49877869  1
  Te  Te46  1  0.76174109  0.49991044  0.00005468  1
  Te  Te47  1  0.74891905  0.49633115  0.50186209  1
  Te  Te48  1  0.00484275  0.25234339  -0.00288983  1
  Te  Te49  1  0.00217784  0.25458087  0.50215453  1
  Te  Te50  1  0.00763772  0.74808210  -0.00132840  1
  Te  Te51  1  0.00021482  0.74426646  0.50084456  1
  Te  Te52  1  0.49739376  0.25013051  -0.00134457  1
  Te  Te53  1  0.49801430  0.25227652  0.50255894  1
  Te  Te54  1  0.49538827  0.75408394  -0.00297690  1
  Te  Te55  1  0.49901474  0.74695501  0.50539614  1
  Te  Te56  1  -0.00169096  -0.00230248  0.25010701  1
  Te  Te57  1  -0.00172671  0.01007502  0.74966783  1
  Te  Te58  1  0.00150061  0.49854444  0.25093093  1
  Te  Te59  1  0.00156673  0.49736233  0.74911548  1
  Te  Te60  1  0.50035195  0.00804033  0.24644530  1
  Te  Te61  1  0.50070274  0.00124289  0.75289471  1
  Te  Te62  1  0.49887709  0.49627940  0.25357312  1
  Te  Te63  1  0.49851698  0.49762403  0.75118951  1
