# generated using pymatgen
data_AgSbTe2
_symmetry_space_group_name_H-M   'P 1'
_cell_length_a   12.26893480
_cell_length_b   12.26394087
_cell_length_c   12.24290987
_cell_angle_alpha   89.99684136
_cell_angle_beta   90.00615168
_cell_angle_gamma   90.00493298
_symmetry_Int_Tables_number   1
_chemical_formula_structural   AgSbTe2
_chemical_formula_sum   'Ag16 Sb16 Te32'
_cell_volume   1842.13542262
_cell_formula_units_Z   16
loop_
 _symmetry_equiv_pos_site_id
 _symmetry_equiv_pos_as_xyz
  1  'x, y, z'
loop_
 _atom_site_type_symbol
 _atom_site_label
 _atom_site_symmetry_multiplicity
 _atom_site_fract_x
 _atom_site_fract_y
 _atom_site_fract_z
 _atom_site_occupancy
  Ag  Ag0  1  0.00146162  0.49856414  -0.00677122  1
  Ag  Ag1  1  0.49518098  0.00348136  -0.00162495  1
  Ag  Ag2  1  0.24954859  0.75206386  -0.00204893  1
  Ag  Ag3  1  0.25046739  0.49837393  0.74117136  1
  Ag  Ag4  1  0.74816957  0.25195976  -0.00812388  1
  Ag  Ag5  1  0.50212622  0.25319488  0.74193744  1
  Ag  Ag6  1  0.25270584  -0.00069439  0.24988947  1
  Ag  Ag7  1  0.74909799  0.49369268  0.74152439  1
  Ag  Ag8  1  0.74010262  0.25956963  0.50861288  1
  Ag  Ag9  1  0.25947142  0.25630866  0.50455124  1
  Ag  Ag10  1  0.49567255  0.00659386  0.50263631  1
  Ag  Ag11  1  0.74599549  0.74035136  0.50443079  1
  Ag  Ag12  1  0.49918808  0.49296408  0.50848875  1
  Ag  Ag13  1  0.00506191  0.00121336  0.00094121  1
  Ag  Ag14  1  0.00081880  0.49892705  0.50815567  1
  Ag  Ag15  1  0.25442755  0.74373325  0.50315574  1
  Sb  Sb16  1  0.74774860  0.00074846  0.25153340  1
  Sb  Sb17  1  0.00187025  0.74738474  0.74952255  1
  Sb  Sb18  1  0.49951280  0.49476932  -0.01123392  1
  Sb  Sb19  1  0.25350949  0.25049367  -0.00641619  1
  Sb  Sb20  1  0.00600950  0.00064671  0.50049337  1
  Sb  Sb21  1  0.75078085  0.49919892  0.26035406  1
  Sb  Sb22  1  0.49758588  0.75123351  0.25300892  1
  Sb  Sb23  1  0.74779335  0.00900515  0.74867864  1
  Sb  Sb24  1  0.49948242  0.74496223  0.74628553  1
  Sb  Sb25  1  0.49779595  0.24903032  0.25989021  1
  Sb  Sb26  1  0.25227228  0.00329405  0.74994050  1
  Sb  Sb27  1  0.74950032  0.74598881  -0.00693685  1
  Sb  Sb28  1  0.00223397  0.24889139  0.24988431  1
  Sb  Sb29  1  -0.00296614  0.25375333  0.74963664  1
  Sb  Sb30  1  0.24906238  0.49948660  0.25831953  1
  Sb  Sb31  1  0.00181020  0.75146494  0.25008311  1
  Te  Te32  1  0.25060479  0.24108144  0.26222302  1
  Te  Te33  1  0.25764182  0.25777021  0.74334434  1
  Te  Te34  1  0.25062427  0.75764963  0.25098004  1
  Te  Te35  1  0.25147605  0.73873452  0.74704462  1
  Te  Te36  1  0.74931110  0.24936569  0.24968877  1
  Te  Te37  1  0.74547223  0.25594984  0.74685453  1
  Te  Te38  1  0.74963541  0.75085442  0.26527845  1
  Te  Te39  1  0.74814554  0.73526806  0.74085457  1
  Te  Te40  1  0.25211927  0.00000772  -0.00351052  1
  Te  Te41  1  0.24853372  -0.00349719  0.50303235  1
  Te  Te42  1  0.24806106  0.49983894  -0.00146493  1
  Te  Te43  1  0.24839283  0.50268262  0.49941454  1
  Te  Te44  1  0.74805250  0.00010787  -0.00007558  1
  Te  Te45  1  0.74723524  0.00250132  0.49966962  1
  Te  Te46  1  0.75126089  0.50139219  -0.00585856  1
  Te  Te47  1  0.75143513  0.49650447  0.50223937  1
  Te  Te48  1  -0.00561062  0.25312971  -0.00136024  1
  Te  Te49  1  -0.00204445  0.25398647  0.50162530  1
  Te  Te50  1  0.00323877  0.74769140  -0.00107010  1
  Te  Te51  1  0.00349764  0.74629622  0.50090200  1
  Te  Te52  1  0.50300447  0.24683523  -0.00664515  1
  Te  Te53  1  0.50162455  0.24803791  0.50285833  1
  Te  Te54  1  0.49641559  0.75914939  -0.00206528  1
  Te  Te55  1  0.49569685  0.75324549  0.50313803  1
  Te  Te56  1  0.00991340  0.00046499  0.23876830  1
  Te  Te57  1  -0.00027023  0.00106626  0.76260559  1
  Te  Te58  1  0.00133497  0.49948452  0.24573795  1
  Te  Te59  1  0.00153459  0.49790318  0.74910072  1
  Te  Te60  1  0.49273468  0.00067703  0.25009369  1
  Te  Te61  1  0.49956269  0.01120839  0.74741954  1
  Te  Te62  1  0.49862364  0.49997025  0.26499539  1
  Te  Te63  1  0.49924293  0.49399220  0.74421122  1
