# generated using pymatgen
data_AgSbTe2
_symmetry_space_group_name_H-M   'P 1'
_cell_length_a   12.29856897
_cell_length_b   12.30364913
_cell_length_c   12.29958407
_cell_angle_alpha   89.99439872
_cell_angle_beta   89.99456168
_cell_angle_gamma   89.99976478
_symmetry_Int_Tables_number   1
_chemical_formula_structural   AgSbTe2
_chemical_formula_sum   'Ag16 Sb16 Te32'
_cell_volume   1861.13955853
_cell_formula_units_Z   16
loop_
 _symmetry_equiv_pos_site_id
 _symmetry_equiv_pos_as_xyz
  1  'x, y, z'
loop_
 _atom_site_type_symbol
 _atom_site_label
 _atom_site_symmetry_multiplicity
 _atom_site_fract_x
 _atom_site_fract_y
 _atom_site_fract_z
 _atom_site_occupancy
  Ag  Ag0  1  0.00200711  0.48569883  0.00616421  1
  Ag  Ag1  1  0.24124427  0.24343795  -0.00098135  1
  Ag  Ag2  1  0.24716838  0.24562537  0.50306729  1
  Ag  Ag3  1  0.01034490  0.01195041  0.00607396  1
  Ag  Ag4  1  0.24385134  0.00441076  0.25144542  1
  Ag  Ag5  1  0.48967937  0.01054726  -0.00471191  1
  Ag  Ag6  1  0.00805646  0.01550896  0.49608722  1
  Ag  Ag7  1  -0.00257733  0.48381191  0.49541608  1
  Ag  Ag8  1  0.49508832  0.24619736  0.74003074  1
  Ag  Ag9  1  0.49927299  0.75984671  0.74551026  1
  Ag  Ag10  1  0.50082992  0.48246160  0.50160811  1
  Ag  Ag11  1  0.49328782  0.01391768  0.50591303  1
  Ag  Ag12  1  0.75873726  0.49724407  0.25606647  1
  Ag  Ag13  1  0.00093148  0.75060107  0.25289989  1
  Ag  Ag14  1  0.75320676  0.25327002  0.50169099  1
  Ag  Ag15  1  0.00457668  0.24780057  0.74185810  1
  Sb  Sb16  1  0.24889732  0.49641618  0.25270077  1
  Sb  Sb17  1  0.74955717  0.74734215  0.49884565  1
  Sb  Sb18  1  0.49742892  0.48954206  -0.00081278  1
  Sb  Sb19  1  0.00106527  0.75125620  0.74893525  1
  Sb  Sb20  1  0.00061453  0.24918115  0.25551242  1
  Sb  Sb21  1  0.25022188  0.00260156  0.74829398  1
  Sb  Sb22  1  0.75087720  0.00035086  0.25258442  1
  Sb  Sb23  1  0.49852038  0.24853232  0.25813318  1
  Sb  Sb24  1  0.49937230  0.75259668  0.25041305  1
  Sb  Sb25  1  0.25021017  0.75715760  0.00197309  1
  Sb  Sb26  1  0.25032296  0.75531809  0.49790975  1
  Sb  Sb27  1  0.75049181  0.74952366  0.00101873  1
  Sb  Sb28  1  0.25017733  0.49624071  0.74692356  1
  Sb  Sb29  1  0.74887581  0.00146143  0.74770344  1
  Sb  Sb30  1  0.75341753  0.24997002  -0.00141534  1
  Sb  Sb31  1  0.74990835  0.49697489  0.74815155  1
  Te  Te32  1  0.25174418  0.24406272  0.24748015  1
  Te  Te33  1  0.24545156  0.25038014  0.74797673  1
  Te  Te34  1  0.24248689  0.76048496  0.25052883  1
  Te  Te35  1  0.26029753  0.74811322  0.75064737  1
  Te  Te36  1  0.74815012  0.25558008  0.25843678  1
  Te  Te37  1  0.75404185  0.24984841  0.74240965  1
  Te  Te38  1  0.75941836  0.74333388  0.25062825  1
  Te  Te39  1  0.73773373  0.74912480  0.75015552  1
  Te  Te40  1  0.24933465  0.00429276  0.00050426  1
  Te  Te41  1  0.24829396  0.00311532  0.50057445  1
  Te  Te42  1  0.24427136  0.48865281  0.00145641  1
  Te  Te43  1  0.24949986  0.49152334  0.49993516  1
  Te  Te44  1  0.74989469  -0.00125590  0.00131038  1
  Te  Te45  1  0.74987873  0.00619851  0.50077360  1
  Te  Te46  1  0.75724861  0.50078215  0.00788368  1
  Te  Te47  1  0.75325445  0.49764703  0.49909056  1
  Te  Te48  1  -0.00183662  0.24822868  -0.00406677  1
  Te  Te49  1  0.00494282  0.24879176  0.50183800  1
  Te  Te50  1  0.00007343  0.75379240  -0.00384999  1
  Te  Te51  1  0.00079771  0.75177317  0.50260919  1
  Te  Te52  1  0.50389520  0.24751479  -0.00632521  1
  Te  Te53  1  0.49448180  0.24944918  0.49862694  1
  Te  Te54  1  0.49862012  0.75601706  -0.00343057  1
  Te  Te55  1  0.49926380  0.75497428  0.50245921  1
  Te  Te56  1  0.00095120  0.00035878  0.25131102  1
  Te  Te57  1  -0.00132248  0.00115752  0.74721139  1
  Te  Te58  1  0.00175001  0.50052603  0.25395318  1
  Te  Te59  1  0.00002626  0.50057298  0.74637067  1
  Te  Te60  1  0.50071131  0.00020604  0.24961656  1
  Te  Te61  1  0.50098334  0.00678578  0.74767377  1
  Te  Te62  1  0.50008616  0.50172916  0.25435662  1
  Te  Te63  1  0.49991074  0.48944204  0.74684499  1
