# generated using pymatgen
data_AgSbTe2
_symmetry_space_group_name_H-M   'P 1'
_cell_length_a   12.20869170
_cell_length_b   12.20724002
_cell_length_c   12.21402769
_cell_angle_alpha   90.00384516
_cell_angle_beta   89.98949015
_cell_angle_gamma   90.00563798
_symmetry_Int_Tables_number   1
_chemical_formula_structural   AgSbTe2
_chemical_formula_sum   'Ag16 Sb16 Te32'
_cell_volume   1820.31060991
_cell_formula_units_Z   16
loop_
 _symmetry_equiv_pos_site_id
 _symmetry_equiv_pos_as_xyz
  1  'x, y, z'
loop_
 _atom_site_type_symbol
 _atom_site_label
 _atom_site_symmetry_multiplicity
 _atom_site_fract_x
 _atom_site_fract_y
 _atom_site_fract_z
 _atom_site_occupancy
  Ag  Ag0  1  -0.00125203  0.74934603  0.74699177  1
  Ag  Ag1  1  0.24687399  0.49268425  0.25062942  1
  Ag  Ag2  1  0.49900219  0.49348467  0.00084080  1
  Ag  Ag3  1  0.00267825  0.25080894  0.25298667  1
  Ag  Ag4  1  0.24753856  0.25189019  0.49602783  1
  Ag  Ag5  1  0.25067518  0.25086362  0.00306964  1
  Ag  Ag6  1  0.00112885  0.00251556  0.00245673  1
  Ag  Ag7  1  0.49666676  0.25228694  0.24991742  1
  Ag  Ag8  1  0.75163505  0.49820413  0.74593321  1
  Ag  Ag9  1  -0.00127316  0.74964830  0.25353497  1
  Ag  Ag10  1  0.75633486  0.74707112  0.49932284  1
  Ag  Ag11  1  0.49809292  0.25201367  0.75031171  1
  Ag  Ag12  1  0.75280223  0.25286894  0.49742993  1
  Ag  Ag13  1  0.75458464  0.00385412  0.25124741  1
  Ag  Ag14  1  -0.00265429  0.49813544  0.49769090  1
  Ag  Ag15  1  0.24726515  0.00472790  0.75048649  1
  Sb  Sb16  1  0.00106557  0.25021577  0.74731890  1
  Sb  Sb17  1  0.74965409  0.25104193  0.00251963  1
  Sb  Sb18  1  0.75235840  0.00122083  0.74891434  1
  Sb  Sb19  1  0.24722489  0.74976774  0.00066681  1
  Sb  Sb20  1  0.24908571  0.49553620  0.74903230  1
  Sb  Sb21  1  -0.00052727  0.00246544  0.49727415  1
  Sb  Sb22  1  0.24281582  0.74740054  0.49902755  1
  Sb  Sb23  1  0.75268145  0.74905825  0.00166949  1
  Sb  Sb24  1  0.49994997  0.00462060  0.49889754  1
  Sb  Sb25  1  0.50185381  0.49512844  0.49930224  1
  Sb  Sb26  1  0.24524030  0.00847212  0.24891063  1
  Sb  Sb27  1  0.50166970  0.74761374  0.25086030  1
  Sb  Sb28  1  0.00108604  0.49710071  0.00212600  1
  Sb  Sb29  1  0.50132200  0.74780904  0.74915830  1
  Sb  Sb30  1  0.49786358  0.00644127  0.00083883  1
  Sb  Sb31  1  0.75274223  0.49646187  0.25428244  1
  Te  Te32  1  0.24950811  0.25049417  0.25159659  1
  Te  Te33  1  0.25208052  0.24836492  0.74930231  1
  Te  Te34  1  0.24441325  0.74415140  0.25189971  1
  Te  Te35  1  0.24493420  0.75557580  0.74847735  1
  Te  Te36  1  0.75125976  0.24946191  0.25363843  1
  Te  Te37  1  0.74714101  0.25198854  0.74488703  1
  Te  Te38  1  0.75440122  0.75214301  0.25466439  1
  Te  Te39  1  0.75368160  0.74848965  0.74454289  1
  Te  Te40  1  0.24625274  0.00572649  -0.00270387  1
  Te  Te41  1  0.25031022  0.00674005  0.50526679  1
  Te  Te42  1  0.25236608  0.49388510  0.00297542  1
  Te  Te43  1  0.24527681  0.49530950  0.49697709  1
  Te  Te44  1  0.75591277  -0.00008164  0.00520564  1
  Te  Te45  1  0.74965805  0.00250134  0.49609520  1
  Te  Te46  1  0.74584019  0.49953043  -0.00751433  1
  Te  Te47  1  0.75383225  0.49715370  0.50288968  1
  Te  Te48  1  0.00401067  0.24723153  0.00400218  1
  Te  Te49  1  -0.00075409  0.25277587  0.49714754  1
  Te  Te50  1  0.00041285  0.75400465  0.00095341  1
  Te  Te51  1  -0.00322480  0.74664226  0.49860429  1
  Te  Te52  1  0.49690604  0.25319067  0.00080915  1
  Te  Te53  1  0.50006331  0.25127730  0.49884114  1
  Te  Te54  1  0.49985007  0.74109572  0.00008589  1
  Te  Te55  1  0.51011778  0.74915557  0.49989473  1
  Te  Te56  1  -0.00192901  0.00058862  0.24708137  1
  Te  Te57  1  0.00196458  -0.00319652  0.75457872  1
  Te  Te58  1  0.00167424  0.49873432  0.25147562  1
  Te  Te59  1  -0.00306952  0.50346553  0.74810767  1
  Te  Te60  1  0.50589511  0.00574157  0.24827778  1
  Te  Te61  1  0.49563406  0.00605246  0.75214960  1
  Te  Te62  1  0.49680831  0.49534834  0.24652680  1
  Te  Te63  1  0.50258620  0.49569941  0.75358659  1
