# generated using pymatgen
data_AgSbTe2
_symmetry_space_group_name_H-M   'P 1'
_cell_length_a   12.21265966
_cell_length_b   12.21069280
_cell_length_c   12.21208244
_cell_angle_alpha   90.00249660
_cell_angle_beta   90.01015421
_cell_angle_gamma   89.99770465
_symmetry_Int_Tables_number   1
_chemical_formula_structural   AgSbTe2
_chemical_formula_sum   'Ag16 Sb16 Te32'
_cell_volume   1821.12719294
_cell_formula_units_Z   16
loop_
 _symmetry_equiv_pos_site_id
 _symmetry_equiv_pos_as_xyz
  1  'x, y, z'
loop_
 _atom_site_type_symbol
 _atom_site_label
 _atom_site_symmetry_multiplicity
 _atom_site_fract_x
 _atom_site_fract_y
 _atom_site_fract_z
 _atom_site_occupancy
  Ag  Ag0  1  0.49727228  0.24300704  0.25172332  1
  Ag  Ag1  1  0.50023323  0.75640191  0.24968394  1
  Ag  Ag2  1  0.74867611  0.24300149  0.49933070  1
  Ag  Ag3  1  0.25329151  0.00646379  0.24825038  1
  Ag  Ag4  1  0.25228936  0.75348989  0.00400910  1
  Ag  Ag5  1  -0.00354537  0.24691599  0.75025850  1
  Ag  Ag6  1  0.74710601  0.75766782  0.49839848  1
  Ag  Ag7  1  0.74932978  0.49607853  0.74923306  1
  Ag  Ag8  1  0.00184966  0.00454006  0.00269509  1
  Ag  Ag9  1  0.50569555  0.00341162  0.49364697  1
  Ag  Ag10  1  0.24917311  0.24604983  0.00623294  1
  Ag  Ag11  1  0.49975683  0.49823543  0.00161355  1
  Ag  Ag12  1  0.00279564  0.24396637  0.24928956  1
  Ag  Ag13  1  0.74548134  0.00360110  0.25521782  1
  Ag  Ag14  1  0.25137051  0.24515767  0.49347834  1
  Ag  Ag15  1  0.75052541  0.00388319  0.74472205  1
  Sb  Sb16  1  0.25099533  0.49642153  0.75242894  1
  Sb  Sb17  1  -0.00304391  0.75440963  0.75164343  1
  Sb  Sb18  1  0.25384427  0.75755107  0.49402477  1
  Sb  Sb19  1  0.25194473  0.49149364  0.24864153  1
  Sb  Sb20  1  0.74768895  0.49603076  0.25032003  1
  Sb  Sb21  1  -0.00047438  0.75769303  0.24813213  1
  Sb  Sb22  1  0.24921531  0.00341444  0.75119354  1
  Sb  Sb23  1  0.50466222  0.24797950  0.74898068  1
  Sb  Sb24  1  0.50245579  0.49656868  0.49911694  1
  Sb  Sb25  1  -0.00039959  0.49526819  -0.00141993  1
  Sb  Sb26  1  0.49695667  0.00184976  0.00820770  1
  Sb  Sb27  1  -0.00187157  0.49597066  0.50114843  1
  Sb  Sb28  1  0.74707264  0.75285873  0.00252570  1
  Sb  Sb29  1  0.75052843  0.24762179  0.00097772  1
  Sb  Sb30  1  0.50155942  0.75201826  0.75060619  1
  Sb  Sb31  1  -0.00726746  0.00445002  0.49737098  1
  Te  Te32  1  0.25091661  0.24747513  0.25017118  1
  Te  Te33  1  0.24368113  0.24946894  0.74999940  1
  Te  Te34  1  0.25269148  0.75594223  0.24818390  1
  Te  Te35  1  0.24919501  0.74959461  0.75606161  1
  Te  Te36  1  0.74900135  0.24730734  0.25207366  1
  Te  Te37  1  0.75259257  0.24730913  0.74810025  1
  Te  Te38  1  0.74755526  0.75381689  0.25377428  1
  Te  Te39  1  0.75109423  0.75221132  0.74507531  1
  Te  Te40  1  0.24873680  0.00281981  0.00198025  1
  Te  Te41  1  0.25510367  0.00332008  0.49699519  1
  Te  Te42  1  0.25431129  0.49924757  -0.00072184  1
  Te  Te43  1  0.25066738  0.49265164  0.50101548  1
  Te  Te44  1  0.75350438  -0.00133425  0.00078807  1
  Te  Te45  1  0.74958910  0.00255291  0.49820789  1
  Te  Te46  1  0.74559132  0.50127631  -0.00591592  1
  Te  Te47  1  0.74854220  0.49823892  0.50533347  1
  Te  Te48  1  0.00296111  0.24749877  0.00130791  1
  Te  Te49  1  -0.00024148  0.24891879  0.49936372  1
  Te  Te50  1  0.00686951  0.75451436  0.00094606  1
  Te  Te51  1  -0.00600785  0.74814231  0.49935920  1
  Te  Te52  1  0.49546740  0.25160013  0.00390672  1
  Te  Te53  1  0.50098744  0.24779708  0.49704730  1
  Te  Te54  1  0.49603566  0.74798842  0.00524710  1
  Te  Te55  1  0.50276868  0.75306172  0.49451920  1
  Te  Te56  1  0.00024608  0.00501320  0.24667771  1
  Te  Te57  1  -0.00449815  0.00485442  0.75537973  1
  Te  Te58  1  -0.00090975  0.48971712  0.24895725  1
  Te  Te59  1  -0.00702054  0.49287716  0.75089028  1
  Te  Te60  1  0.50111621  0.00211382  0.25016155  1
  Te  Te61  1  0.50680174  0.00017177  0.74241377  1
  Te  Te62  1  0.50122580  0.50019126  0.24517052  1
  Te  Te63  1  0.50625656  0.50016970  0.75584726  1
