# generated using pymatgen
data_AgSbTe2
_symmetry_space_group_name_H-M   'P 1'
_cell_length_a   12.21896646
_cell_length_b   12.22697335
_cell_length_c   12.22490525
_cell_angle_alpha   90.00875710
_cell_angle_beta   90.00286877
_cell_angle_gamma   90.00035159
_symmetry_Int_Tables_number   1
_chemical_formula_structural   AgSbTe2
_chemical_formula_sum   'Ag16 Sb16 Te32'
_cell_volume   1826.41276764
_cell_formula_units_Z   16
loop_
 _symmetry_equiv_pos_site_id
 _symmetry_equiv_pos_as_xyz
  1  'x, y, z'
loop_
 _atom_site_type_symbol
 _atom_site_label
 _atom_site_symmetry_multiplicity
 _atom_site_fract_x
 _atom_site_fract_y
 _atom_site_fract_z
 _atom_site_occupancy
  Ag  Ag0  1  0.51073429  -0.00076337  -0.00031268  1
  Ag  Ag1  1  0.24942776  0.25137685  0.49925114  1
  Ag  Ag2  1  -0.00969584  -0.00187669  0.00000860  1
  Ag  Ag3  1  0.51088834  0.75114381  0.75168480  1
  Ag  Ag4  1  0.50600824  0.49634746  0.49991133  1
  Ag  Ag5  1  -0.01030576  0.75310884  0.75344220  1
  Ag  Ag6  1  0.75239948  0.75642498  -0.00377022  1
  Ag  Ag7  1  0.75264273  -0.00342825  0.75686660  1
  Ag  Ag8  1  -0.00709303  0.24711216  0.74870126  1
  Ag  Ag9  1  0.50995281  0.24930187  0.25303770  1
  Ag  Ag10  1  -0.00758253  0.75295058  0.24678481  1
  Ag  Ag11  1  -0.00970669  0.24706118  0.25198495  1
  Ag  Ag12  1  0.75030245  0.49451838  0.25214265  1
  Ag  Ag13  1  0.75036178  0.50253191  0.74830980  1
  Ag  Ag14  1  0.75277853  0.00440139  0.24400996  1
  Ag  Ag15  1  0.75021743  0.25206733  0.49585955  1
  Sb  Sb16  1  0.24819611  0.24811607  -0.00004378  1
  Sb  Sb17  1  0.24704056  0.75210242  -0.00048716  1
  Sb  Sb18  1  0.24982973  0.49720555  0.25339314  1
  Sb  Sb19  1  0.24990331  0.49764628  0.74656787  1
  Sb  Sb20  1  0.75111883  0.24030228  0.00642730  1
  Sb  Sb21  1  0.50519615  0.00339768  0.49980813  1
  Sb  Sb22  1  0.25036227  0.74838641  0.50041604  1
  Sb  Sb23  1  -0.00729806  0.49611589  0.50007526  1
  Sb  Sb24  1  0.24655172  0.00151627  0.74995638  1
  Sb  Sb25  1  0.50753249  0.49972125  -0.00035062  1
  Sb  Sb26  1  0.51125162  0.75080460  0.24786339  1
  Sb  Sb27  1  -0.00644408  0.50209541  0.00008546  1
  Sb  Sb28  1  0.74978717  0.74598888  0.50529069  1
  Sb  Sb29  1  0.24621813  0.00170879  0.24993283  1
  Sb  Sb30  1  -0.00531353  0.00253804  0.50011121  1
  Sb  Sb31  1  0.51068178  0.24883044  0.74739832  1
  Te  Te32  1  0.24737949  0.25102819  0.25545041  1
  Te  Te33  1  0.23925208  0.25102216  0.74395877  1
  Te  Te34  1  0.23646295  0.74946564  0.25155151  1
  Te  Te35  1  0.24709791  0.74939246  0.74866961  1
  Te  Te36  1  0.75175929  0.24970422  0.24853402  1
  Te  Te37  1  0.75299456  0.25030819  0.74728414  1
  Te  Te38  1  0.75370616  0.75118056  0.24897519  1
  Te  Te39  1  0.75196560  0.75129162  0.74827918  1
  Te  Te40  1  0.25098461  -0.00028003  0.00007302  1
  Te  Te41  1  0.25255290  0.01005973  0.49981757  1
  Te  Te42  1  0.25174402  0.50036224  -0.00000523  1
  Te  Te43  1  0.26108796  0.49246000  0.50006366  1
  Te  Te44  1  0.75074740  -0.00247910  -0.00062231  1
  Te  Te45  1  0.74929032  0.00807435  0.49933624  1
  Te  Te46  1  0.74977509  0.51167486  -0.00072081  1
  Te  Te47  1  0.74624772  0.49616723  0.49971155  1
  Te  Te48  1  0.00130832  0.24436517  0.00034777  1
  Te  Te49  1  -0.00324594  0.25082922  0.49865351  1
  Te  Te50  1  -0.00238858  0.75334962  -0.00160451  1
  Te  Te51  1  0.00202030  0.74939982  0.50128042  1
  Te  Te52  1  0.49751526  0.24389437  0.00650303  1
  Te  Te53  1  0.50405779  0.25215387  0.49679475  1
  Te  Te54  1  0.50288459  0.75478019  -0.00389482  1
  Te  Te55  1  0.49771660  0.74420896  0.50589616  1
  Te  Te56  1  -0.00340230  0.00177024  0.24766854  1
  Te  Te57  1  -0.00325752  -0.00057019  0.75237308  1
  Te  Te58  1  -0.00630423  0.49797081  0.24997538  1
  Te  Te59  1  -0.00621196  0.50030446  0.75012852  1
  Te  Te60  1  0.50479745  0.00226712  0.24688497  1
  Te  Te61  1  0.50469184  -0.00262437  0.75347170  1
  Te  Te62  1  0.50537659  0.49735147  0.25191438  1
  Te  Te63  1  0.50544950  0.50236222  0.74889367  1
