# generated using pymatgen
data_AgSbTe2
_symmetry_space_group_name_H-M   'P 1'
_cell_length_a   12.20814079
_cell_length_b   12.20673351
_cell_length_c   12.21037806
_cell_angle_alpha   90.00310301
_cell_angle_beta   90.00254513
_cell_angle_gamma   89.99326709
_symmetry_Int_Tables_number   1
_chemical_formula_structural   AgSbTe2
_chemical_formula_sum   'Ag16 Sb16 Te32'
_cell_volume   1819.60909693
_cell_formula_units_Z   16
loop_
 _symmetry_equiv_pos_site_id
 _symmetry_equiv_pos_as_xyz
  1  'x, y, z'
loop_
 _atom_site_type_symbol
 _atom_site_label
 _atom_site_symmetry_multiplicity
 _atom_site_fract_x
 _atom_site_fract_y
 _atom_site_fract_z
 _atom_site_occupancy
  Ag  Ag0  1  0.24946132  0.24827533  0.00054984  1
  Ag  Ag1  1  0.25734992  0.49943376  0.25023123  1
  Ag  Ag2  1  0.49972884  -0.00391383  0.49868179  1
  Ag  Ag3  1  0.25310389  0.00101159  0.24853693  1
  Ag  Ag4  1  0.74297529  0.74419586  0.49835902  1
  Ag  Ag5  1  0.74357703  0.49931891  0.25553260  1
  Ag  Ag6  1  0.50004843  0.74977397  0.74375328  1
  Ag  Ag7  1  0.50534032  0.50448361  0.49363630  1
  Ag  Ag8  1  -0.00514342  0.49797858  0.49842993  1
  Ag  Ag9  1  0.50014359  0.74452755  0.25543828  1
  Ag  Ag10  1  0.74915073  0.25653334  0.49926899  1
  Ag  Ag11  1  0.50050831  0.49883933  0.00610164  1
  Ag  Ag12  1  0.00302569  0.00486696  -0.00057406  1
  Ag  Ag13  1  0.00013678  0.24928855  0.75149383  1
  Ag  Ag14  1  0.75054407  0.25230324  0.00038477  1
  Ag  Ag15  1  0.25114526  0.00208558  0.75134373  1
  Sb  Sb16  1  0.49942098  0.24937386  0.74885277  1
  Sb  Sb17  1  0.49978026  0.25759486  0.25103953  1
  Sb  Sb18  1  -0.00074638  0.49428019  0.00134170  1
  Sb  Sb19  1  -0.00008874  0.25009148  0.24921110  1
  Sb  Sb20  1  0.74499806  0.00063125  0.25041610  1
  Sb  Sb21  1  0.25229448  0.49779208  0.75059416  1
  Sb  Sb22  1  0.25041334  0.25120700  0.49949256  1
  Sb  Sb23  1  0.25159040  0.75052013  0.00112849  1
  Sb  Sb24  1  0.49678995  0.00194837  0.00201548  1
  Sb  Sb25  1  0.74694264  0.74639436  0.00201862  1
  Sb  Sb26  1  0.25908128  0.74921871  0.49945766  1
  Sb  Sb27  1  0.00017438  0.00197644  0.50016100  1
  Sb  Sb28  1  0.74832951  0.49929740  0.74262210  1
  Sb  Sb29  1  -0.00022971  0.74910261  0.25230982  1
  Sb  Sb30  1  0.00062205  0.75108929  0.74689273  1
  Sb  Sb31  1  0.74770878  0.00102173  0.74987463  1
  Te  Te32  1  0.24979393  0.24972625  0.24495907  1
  Te  Te33  1  0.24651115  0.24611824  0.75443676  1
  Te  Te34  1  0.25537718  0.74890149  0.24960511  1
  Te  Te35  1  0.25509486  0.75670998  0.75034896  1
  Te  Te36  1  0.75032426  0.25398337  0.25041789  1
  Te  Te37  1  0.75469144  0.24932217  0.75089615  1
  Te  Te38  1  0.74494426  0.74610614  0.25329259  1
  Te  Te39  1  0.74372439  0.75064829  0.74513751  1
  Te  Te40  1  0.24969771  0.00397488  0.00150524  1
  Te  Te41  1  0.25333102  0.00145147  0.49823767  1
  Te  Te42  1  0.25139600  0.49568666  0.00461841  1
  Te  Te43  1  0.25161452  0.49853772  0.49430940  1
  Te  Te44  1  0.75379650  0.00738952  0.00176148  1
  Te  Te45  1  0.74642995  0.00186748  0.49839044  1
  Te  Te46  1  0.74831828  0.49542974  0.00608713  1
  Te  Te47  1  0.74721061  0.49807079  0.49812888  1
  Te  Te48  1  -0.00060718  0.24787603  -0.00363290  1
  Te  Te49  1  -0.00494055  0.25275530  0.50446327  1
  Te  Te50  1  -0.00181631  0.75815175  -0.00174779  1
  Te  Te51  1  -0.01025791  0.74494958  0.50169483  1
  Te  Te52  1  0.50128213  0.25458769  -0.00257971  1
  Te  Te53  1  0.50563789  0.25029002  0.50225802  1
  Te  Te54  1  0.50200264  0.74430199  0.00065112  1
  Te  Te55  1  0.50271180  0.74856966  0.49917045  1
  Te  Te56  1  0.00866500  -0.00113860  0.24697646  1
  Te  Te57  1  0.00597560  0.00237215  0.75182524  1
  Te  Te58  1  0.00083438  0.50084529  0.25443233  1
  Te  Te59  1  0.00233127  0.49601769  0.74493065  1
  Te  Te60  1  0.49537758  -0.00685298  0.25255149  1
  Te  Te61  1  0.49529000  -0.00398295  0.74748786  1
  Te  Te62  1  0.49927372  0.50154253  0.25164141  1
  Te  Te63  1  0.49780655  0.50524858  0.74914803  1
