# generated using pymatgen
data_AgSbTe2
_symmetry_space_group_name_H-M   'P 1'
_cell_length_a   12.20509273
_cell_length_b   12.21038271
_cell_length_c   12.20524655
_cell_angle_alpha   89.99535503
_cell_angle_beta   89.99964386
_cell_angle_gamma   89.99686468
_symmetry_Int_Tables_number   1
_chemical_formula_structural   AgSbTe2
_chemical_formula_sum   'Ag16 Sb16 Te32'
_cell_volume   1818.93388788
_cell_formula_units_Z   16
loop_
 _symmetry_equiv_pos_site_id
 _symmetry_equiv_pos_as_xyz
  1  'x, y, z'
loop_
 _atom_site_type_symbol
 _atom_site_label
 _atom_site_symmetry_multiplicity
 _atom_site_fract_x
 _atom_site_fract_y
 _atom_site_fract_z
 _atom_site_occupancy
  Ag  Ag0  1  0.49599122  0.75291798  0.75129774  1
  Ag  Ag1  1  0.24969169  0.75206769  -0.00282718  1
  Ag  Ag2  1  0.24684501  0.24954665  0.50212884  1
  Ag  Ag3  1  0.00281746  0.24591834  0.74761266  1
  Ag  Ag4  1  0.75154092  0.00265040  0.24620389  1
  Ag  Ag5  1  0.75048107  0.49712163  0.24901730  1
  Ag  Ag6  1  0.24766184  0.00057867  0.74832179  1
  Ag  Ag7  1  0.24904800  0.49863061  0.25338392  1
  Ag  Ag8  1  0.75071507  0.24730228  0.00300058  1
  Ag  Ag9  1  0.24832427  0.75054633  0.50247386  1
  Ag  Ag10  1  0.50183148  0.25049996  0.24983458  1
  Ag  Ag11  1  -0.00170931  0.00094988  -0.00132439  1
  Ag  Ag12  1  0.49722510  0.24761622  0.74978267  1
  Ag  Ag13  1  0.75093633  0.75300511  0.00084808  1
  Ag  Ag14  1  0.00404259  0.49762915  0.49870508  1
  Ag  Ag15  1  0.00368750  0.00291770  0.50225856  1
  Sb  Sb16  1  0.00057535  0.75017926  0.24964576  1
  Sb  Sb17  1  -0.00161048  0.24970207  0.25241332  1
  Sb  Sb18  1  0.49953090  0.49970942  0.00070717  1
  Sb  Sb19  1  0.24849188  0.00135324  0.25058425  1
  Sb  Sb20  1  0.75327035  0.00136638  0.75354438  1
  Sb  Sb21  1  0.75127533  0.75083270  0.49983786  1
  Sb  Sb22  1  0.00444828  0.75460276  0.75058593  1
  Sb  Sb23  1  0.75212240  0.49939938  0.75015557  1
  Sb  Sb24  1  0.00027557  0.49812411  0.00080018  1
  Sb  Sb25  1  0.24835266  0.49958394  0.74665077  1
  Sb  Sb26  1  0.49552564  0.00102021  0.50122821  1
  Sb  Sb27  1  0.49545579  0.49911291  0.49831398  1
  Sb  Sb28  1  0.49948731  0.75024739  0.24902187  1
  Sb  Sb29  1  0.50186592  0.00016643  -0.00069222  1
  Sb  Sb30  1  0.75289158  0.24947435  0.49699537  1
  Sb  Sb31  1  0.24898919  0.24776148  -0.00133201  1
  Te  Te32  1  0.25413551  0.25230846  0.25155022  1
  Te  Te33  1  0.25157635  0.24873166  0.74887596  1
  Te  Te34  1  0.25285157  0.74685810  0.25041926  1
  Te  Te35  1  0.25275669  0.75141051  0.75017583  1
  Te  Te36  1  0.74751209  0.25080118  0.24758683  1
  Te  Te37  1  0.74693508  0.24972629  0.75449427  1
  Te  Te38  1  0.74696242  0.74917700  0.24454163  1
  Te  Te39  1  0.74267462  0.74979702  0.75603893  1
  Te  Te40  1  0.24430055  -0.00430840  -0.00117710  1
  Te  Te41  1  0.24559772  0.00019950  0.50109573  1
  Te  Te42  1  0.24757986  0.50724198  0.00764890  1
  Te  Te43  1  0.24597002  0.49977568  0.49642412  1
  Te  Te44  1  0.75409917  -0.00010741  0.00248716  1
  Te  Te45  1  0.75920782  -0.00190498  0.49396648  1
  Te  Te46  1  0.75199921  0.50039967  0.00666271  1
  Te  Te47  1  0.75805124  0.50183674  0.49244205  1
  Te  Te48  1  -0.00283213  0.24674376  -0.00482786  1
  Te  Te49  1  0.00310051  0.24811672  0.50284114  1
  Te  Te50  1  -0.00087702  0.75442954  -0.00167135  1
  Te  Te51  1  0.00523680  0.75104502  0.50175354  1
  Te  Te52  1  0.50382339  0.24979311  -0.00195818  1
  Te  Te53  1  0.49499312  0.24965784  0.50290074  1
  Te  Te54  1  0.49925740  0.75013074  -0.00479681  1
  Te  Te55  1  0.49383415  0.75012702  0.50627982  1
  Te  Te56  1  -0.00412864  0.00036424  0.24921337  1
  Te  Te57  1  0.00311043  0.00393947  0.74914853  1
  Te  Te58  1  0.00055704  0.49973937  0.25502086  1
  Te  Te59  1  -0.00059772  0.49155661  0.74347354  1
  Te  Te60  1  0.50627132  0.00669057  0.25060806  1
  Te  Te61  1  0.49433781  0.00280149  0.74952726  1
  Te  Te62  1  0.50094133  0.49401875  0.25066304  1
  Te  Te63  1  0.50068440  0.49636813  0.74941298  1
