# generated using pymatgen
data_AgSbTe2
_symmetry_space_group_name_H-M   'P 1'
_cell_length_a   12.20636154
_cell_length_b   12.20714405
_cell_length_c   12.21150184
_cell_angle_alpha   90.00122520
_cell_angle_beta   90.00395286
_cell_angle_gamma   90.00060242
_symmetry_Int_Tables_number   1
_chemical_formula_structural   AgSbTe2
_chemical_formula_sum   'Ag16 Sb16 Te32'
_cell_volume   1819.57255233
_cell_formula_units_Z   16
loop_
 _symmetry_equiv_pos_site_id
 _symmetry_equiv_pos_as_xyz
  1  'x, y, z'
loop_
 _atom_site_type_symbol
 _atom_site_label
 _atom_site_symmetry_multiplicity
 _atom_site_fract_x
 _atom_site_fract_y
 _atom_site_fract_z
 _atom_site_occupancy
  Ag  Ag0  1  0.00187800  0.00255968  -0.00575139  1
  Ag  Ag1  1  0.25067110  0.49773423  0.24353401  1
  Ag  Ag2  1  0.49837270  0.00080279  0.50133792  1
  Ag  Ag3  1  0.00305941  0.24745570  0.75084375  1
  Ag  Ag4  1  0.24557679  0.25576480  -0.00083852  1
  Ag  Ag5  1  0.00130732  0.75167450  0.75218508  1
  Ag  Ag6  1  0.24702659  0.49751607  0.75612538  1
  Ag  Ag7  1  0.74956561  0.49926304  0.24691264  1
  Ag  Ag8  1  0.75402566  0.49913888  0.75285459  1
  Ag  Ag9  1  0.24868777  0.74417782  -0.00067540  1
  Ag  Ag10  1  0.00428519  0.25134926  0.24911373  1
  Ag  Ag11  1  0.49771873  0.74627605  0.24819305  1
  Ag  Ag12  1  0.00100109  0.00398674  0.50603716  1
  Ag  Ag13  1  0.49422568  0.50059877  0.00184882  1
  Ag  Ag14  1  0.75706636  0.00078861  0.74950991  1
  Ag  Ag15  1  0.24578456  0.24999754  0.50065593  1
  Sb  Sb16  1  0.75492160  0.24883614  0.50106794  1
  Sb  Sb17  1  0.75601191  0.25250122  -0.00106244  1
  Sb  Sb18  1  0.49859123  -0.00051947  -0.00122325  1
  Sb  Sb19  1  0.00867092  0.49658543  -0.00272918  1
  Sb  Sb20  1  0.49613917  0.25362521  0.24978530  1
  Sb  Sb21  1  0.24929080  0.00350076  0.25004691  1
  Sb  Sb22  1  0.24079575  0.00348236  0.75011438  1
  Sb  Sb23  1  0.00185476  0.49503275  0.50242519  1
  Sb  Sb24  1  0.49762117  0.49967117  0.49835036  1
  Sb  Sb25  1  0.49550685  0.25025620  0.74986697  1
  Sb  Sb26  1  0.49730194  0.74974281  0.75181548  1
  Sb  Sb27  1  0.24869075  0.75000127  0.50131763  1
  Sb  Sb28  1  0.75127516  0.00072458  0.25015212  1
  Sb  Sb29  1  0.75304447  0.74718938  -0.00119131  1
  Sb  Sb30  1  0.75109166  0.75074409  0.50073800  1
  Sb  Sb31  1  0.00279029  0.74813130  0.24792317  1
  Te  Te32  1  0.24611946  0.25351783  0.24937887  1
  Te  Te33  1  0.24580407  0.25331533  0.75076047  1
  Te  Te34  1  0.25099056  0.74339742  0.24660384  1
  Te  Te35  1  0.24620571  0.74360153  0.75288301  1
  Te  Te36  1  0.75646333  0.25685471  0.25009073  1
  Te  Te37  1  0.75701563  0.25300256  0.74994647  1
  Te  Te38  1  0.74685576  0.74232884  0.24966525  1
  Te  Te39  1  0.75571459  0.74679768  0.75060072  1
  Te  Te40  1  0.24686447  0.00055254  -0.00003948  1
  Te  Te41  1  0.24917315  0.00503898  0.50019121  1
  Te  Te42  1  0.25016027  0.49924629  -0.00022391  1
  Te  Te43  1  0.25139478  0.49472653  0.50043732  1
  Te  Te44  1  0.75379326  0.00041403  -0.00534953  1
  Te  Te45  1  0.75143003  0.00055484  0.50457852  1
  Te  Te46  1  0.74239570  0.49975081  -0.00184310  1
  Te  Te47  1  0.74854695  0.49969406  0.50229542  1
  Te  Te48  1  0.00521265  0.24677446  -0.00096395  1
  Te  Te49  1  0.00429501  0.24583490  0.50102548  1
  Te  Te50  1  0.00537244  0.75646898  -0.00314809  1
  Te  Te51  1  0.00136842  0.76012658  0.50493324  1
  Te  Te52  1  0.49001485  0.25336135  0.00099961  1
  Te  Te53  1  0.49181961  0.24355091  0.49891147  1
  Te  Te54  1  0.49305673  0.74776369  0.00326373  1
  Te  Te55  1  0.49842666  0.75635341  0.49456098  1
  Te  Te56  1  -0.00223270  0.00356973  0.25026683  1
  Te  Te57  1  -0.00103038  0.00157636  0.74978219  1
  Te  Te58  1  0.00002203  0.49698800  0.25128332  1
  Te  Te59  1  -0.00130050  0.49950651  0.74943713  1
  Te  Te60  1  0.50242805  -0.00549976  0.25307461  1
  Te  Te61  1  0.50929841  -0.00105326  0.74618427  1
  Te  Te62  1  0.49932149  0.50248498  0.24795675  1
  Te  Te63  1  0.50114853  0.50080953  0.75317268  1
