# generated using pymatgen
data_AgSbTe2
_symmetry_space_group_name_H-M   'P 1'
_cell_length_a   12.23406479
_cell_length_b   12.23109221
_cell_length_c   12.23575514
_cell_angle_alpha   90.00128463
_cell_angle_beta   90.00637949
_cell_angle_gamma   90.00748162
_symmetry_Int_Tables_number   1
_chemical_formula_structural   AgSbTe2
_chemical_formula_sum   'Ag16 Sb16 Te32'
_cell_volume   1830.90911753
_cell_formula_units_Z   16
loop_
 _symmetry_equiv_pos_site_id
 _symmetry_equiv_pos_as_xyz
  1  'x, y, z'
loop_
 _atom_site_type_symbol
 _atom_site_label
 _atom_site_symmetry_multiplicity
 _atom_site_fract_x
 _atom_site_fract_y
 _atom_site_fract_z
 _atom_site_occupancy
  Ag  Ag0  1  0.75178906  0.23576207  0.48574082  1
  Ag  Ag1  1  0.25143452  0.75533350  -0.00511758  1
  Ag  Ag2  1  0.74901225  0.24347702  0.01555643  1
  Ag  Ag3  1  0.50243010  0.75837012  0.74891386  1
  Ag  Ag4  1  0.75193119  0.76539768  0.50216494  1
  Ag  Ag5  1  -0.01523937  -0.00011381  0.50191000  1
  Ag  Ag6  1  -0.01481516  0.24771204  0.25404919  1
  Ag  Ag7  1  -0.00751809  0.49939358  0.49856042  1
  Ag  Ag8  1  0.74685513  -0.00238650  0.73492659  1
  Ag  Ag9  1  -0.00288520  0.75571794  0.74584996  1
  Ag  Ag10  1  0.74844686  0.01374877  0.26400407  1
  Ag  Ag11  1  0.75125544  0.48464812  0.25474953  1
  Ag  Ag12  1  0.50530585  -0.00027485  -0.00352548  1
  Ag  Ag13  1  0.51481848  -0.00019953  0.50317843  1
  Ag  Ag14  1  0.25318245  -0.00484823  0.74925092  1
  Ag  Ag15  1  0.51537709  0.24447407  0.25091568  1
  Sb  Sb16  1  -0.00338517  0.49991789  0.00116825  1
  Sb  Sb17  1  0.25124457  0.24549173  0.00065211  1
  Sb  Sb18  1  -0.00435272  0.00048882  -0.00128763  1
  Sb  Sb19  1  0.50397440  0.75501254  0.25098262  1
  Sb  Sb20  1  0.50702822  0.49951921  0.49848049  1
  Sb  Sb21  1  0.24862616  0.75375547  0.50289513  1
  Sb  Sb22  1  0.75132290  0.50162164  0.74665952  1
  Sb  Sb23  1  -0.00396977  0.75182779  0.25388625  1
  Sb  Sb24  1  -0.00408918  0.24481217  0.74596005  1
  Sb  Sb25  1  0.24817007  0.50467865  0.74940921  1
  Sb  Sb26  1  0.24886775  0.24676548  0.49963009  1
  Sb  Sb27  1  0.50337387  0.49968312  0.00113548  1
  Sb  Sb28  1  0.74962235  0.75580032  -0.00225606  1
  Sb  Sb29  1  0.50438990  0.24127985  0.74854294  1
  Sb  Sb30  1  0.25059218  0.00063819  0.25082272  1
  Sb  Sb31  1  0.24876867  0.49913687  0.25120138  1
  Te  Te32  1  0.24972645  0.25131676  0.24868062  1
  Te  Te33  1  0.24962328  0.24258831  0.75138039  1
  Te  Te34  1  0.24999073  0.74891196  0.24075472  1
  Te  Te35  1  0.25036235  0.75407667  0.75218327  1
  Te  Te36  1  0.75031044  0.24710866  0.25160887  1
  Te  Te37  1  0.75005797  0.24698605  0.74885526  1
  Te  Te38  1  0.75041982  0.75197034  0.25356155  1
  Te  Te39  1  0.75051928  0.75218604  0.74802462  1
  Te  Te40  1  0.25455116  -0.00298571  -0.00339609  1
  Te  Te41  1  0.25096545  -0.00033834  0.50437714  1
  Te  Te42  1  0.25013036  0.50674713  -0.00058725  1
  Te  Te43  1  0.23982789  0.50016427  0.50032537  1
  Te  Te44  1  0.74639370  0.00252587  0.00079928  1
  Te  Te45  1  0.74982402  -0.00150560  0.50092905  1
  Te  Te46  1  0.74972580  0.49264923  0.00608988  1
  Te  Te47  1  0.75354942  0.49915740  0.49752337  1
  Te  Te48  1  -0.00366666  0.25066942  0.00584191  1
  Te  Te49  1  -0.00159643  0.24664438  0.49812002  1
  Te  Te50  1  0.00198978  0.74993642  -0.00637967  1
  Te  Te51  1  -0.00142825  0.75450146  0.50213614  1
  Te  Te52  1  0.50295680  0.24642265  0.00155181  1
  Te  Te53  1  0.50270402  0.24792316  0.49826315  1
  Te  Te54  1  0.49964056  0.75387163  -0.00222081  1
  Te  Te55  1  0.50204005  0.75253520  0.50203586  1
  Te  Te56  1  -0.00153169  0.00255796  0.25310026  1
  Te  Te57  1  -0.00271629  -0.00261140  0.74839458  1
  Te  Te58  1  -0.00307061  0.49774172  0.25364983  1
  Te  Te59  1  0.00048302  0.50667464  0.74515901  1
  Te  Te60  1  0.50066621  0.00242547  0.25161396  1
  Te  Te61  1  0.50337613  -0.00149292  0.74836932  1
  Te  Te62  1  0.50406142  0.49269653  0.25100006  1
  Te  Te63  1  0.49854905  0.51130288  0.74924420  1
