# generated using pymatgen
data_AgSbTe2
_symmetry_space_group_name_H-M   'P 1'
_cell_length_a   12.21238217
_cell_length_b   12.20809858
_cell_length_c   12.20983538
_cell_angle_alpha   89.99556214
_cell_angle_beta   90.00123220
_cell_angle_gamma   90.00151591
_symmetry_Int_Tables_number   1
_chemical_formula_structural   AgSbTe2
_chemical_formula_sum   'Ag16 Sb16 Te32'
_cell_volume   1820.36392884
_cell_formula_units_Z   16
loop_
 _symmetry_equiv_pos_site_id
 _symmetry_equiv_pos_as_xyz
  1  'x, y, z'
loop_
 _atom_site_type_symbol
 _atom_site_label
 _atom_site_symmetry_multiplicity
 _atom_site_fract_x
 _atom_site_fract_y
 _atom_site_fract_z
 _atom_site_occupancy
  Ag  Ag0  1  0.25081255  0.00365753  0.25683678  1
  Ag  Ag1  1  0.49639672  0.49766529  -0.00697622  1
  Ag  Ag2  1  0.74710220  0.74993021  0.50217984  1
  Ag  Ag3  1  0.49574148  0.24961711  0.25129895  1
  Ag  Ag4  1  0.74895751  0.00066567  0.25430093  1
  Ag  Ag5  1  0.25079163  0.24653110  0.50432093  1
  Ag  Ag6  1  0.25376948  0.49645590  0.74927639  1
  Ag  Ag7  1  0.00684185  0.25241740  0.74922952  1
  Ag  Ag8  1  0.49671971  0.74384732  0.74547451  1
  Ag  Ag9  1  0.00611750  0.00095578  0.50121314  1
  Ag  Ag10  1  0.25049595  0.25343862  -0.00411030  1
  Ag  Ag11  1  0.25256794  0.75280867  0.50422747  1
  Ag  Ag12  1  0.49643629  0.50165774  0.50664865  1
  Ag  Ag13  1  0.00393391  0.49653158  -0.00549375  1
  Ag  Ag14  1  0.24985700  0.00418776  0.74326964  1
  Ag  Ag15  1  0.74580957  0.50027009  0.74831390  1
  Sb  Sb16  1  0.00368217  0.49803392  0.50596532  1
  Sb  Sb17  1  0.74732919  0.24954107  0.50122754  1
  Sb  Sb18  1  0.00342927  0.74778490  0.74754067  1
  Sb  Sb19  1  0.25264388  0.74598640  -0.00403255  1
  Sb  Sb20  1  0.00132040  0.75117428  0.25202390  1
  Sb  Sb21  1  0.75013674  -0.00064429  0.74423963  1
  Sb  Sb22  1  0.00431803  0.24827264  0.25149281  1
  Sb  Sb23  1  0.74762959  0.49972936  0.25261975  1
  Sb  Sb24  1  0.49830060  0.75048763  0.25437164  1
  Sb  Sb25  1  0.49188758  -0.00062592  0.50056849  1
  Sb  Sb26  1  0.74882815  0.25192746  -0.00132118  1
  Sb  Sb27  1  0.25196958  0.49644161  0.25099383  1
  Sb  Sb28  1  0.49088412  0.25798752  0.74813170  1
  Sb  Sb29  1  0.74731668  0.74797876  -0.00270852  1
  Sb  Sb30  1  0.49730808  0.00385977  -0.00133471  1
  Sb  Sb31  1  0.00367737  0.00342301  -0.00226641  1
  Te  Te32  1  0.25280337  0.24632559  0.25110690  1
  Te  Te33  1  0.24988880  0.25084482  0.74870336  1
  Te  Te34  1  0.25114827  0.75852665  0.25716802  1
  Te  Te35  1  0.25275540  0.74887863  0.74626599  1
  Te  Te36  1  0.74435220  0.24495517  0.25042157  1
  Te  Te37  1  0.75800161  0.25426177  0.74957492  1
  Te  Te38  1  0.74935099  0.75528146  0.25701912  1
  Te  Te39  1  0.74585561  0.74679067  0.74537649  1
  Te  Te40  1  0.24844619  0.00469451  -0.00009941  1
  Te  Te41  1  0.24970193  0.00097327  0.50118196  1
  Te  Te42  1  0.25198333  0.49757728  -0.00157601  1
  Te  Te43  1  0.25063215  0.50015175  0.50174376  1
  Te  Te44  1  0.75109381  -0.00062007  0.00817012  1
  Te  Te45  1  0.75506641  -0.00299470  0.49781202  1
  Te  Te46  1  0.74786789  0.50066771  -0.00481224  1
  Te  Te47  1  0.74834759  0.50364437  0.50370829  1
  Te  Te48  1  0.00538983  0.25403556  -0.00385557  1
  Te  Te49  1  0.00537137  0.24709955  0.50276493  1
  Te  Te50  1  -0.00005185  0.74179356  0.00003676  1
  Te  Te51  1  0.00139712  0.75403767  0.50113429  1
  Te  Te52  1  0.49491143  0.25487004  0.00331650  1
  Te  Te53  1  0.49580859  0.25495499  0.49754039  1
  Te  Te54  1  0.49951161  0.74127698  -0.00590406  1
  Te  Te55  1  0.49822157  0.74626844  0.50279862  1
  Te  Te56  1  0.00174374  0.00092943  0.25354910  1
  Te  Te57  1  0.00359883  0.00373492  0.74697327  1
  Te  Te58  1  -0.00164894  0.49933584  0.24045079  1
  Te  Te59  1  0.00195559  0.49730771  0.75189700  1
  Te  Te60  1  0.49840137  0.00403562  0.24964044  1
  Te  Te61  1  0.49588748  -0.00684957  0.75150393  1
  Te  Te62  1  0.50117321  0.49602401  0.24994951  1
  Te  Te63  1  0.49802077  0.49919049  0.74891698  1
