# generated using pymatgen
data_AgSbTe2
_symmetry_space_group_name_H-M   'P 1'
_cell_length_a   12.22964057
_cell_length_b   12.23114051
_cell_length_c   12.21634537
_cell_angle_alpha   90.00273742
_cell_angle_beta   90.00121785
_cell_angle_gamma   89.99830098
_symmetry_Int_Tables_number   1
_chemical_formula_structural   AgSbTe2
_chemical_formula_sum   'Ag16 Sb16 Te32'
_cell_volume   1827.35089474
_cell_formula_units_Z   16
loop_
 _symmetry_equiv_pos_site_id
 _symmetry_equiv_pos_as_xyz
  1  'x, y, z'
loop_
 _atom_site_type_symbol
 _atom_site_label
 _atom_site_symmetry_multiplicity
 _atom_site_fract_x
 _atom_site_fract_y
 _atom_site_fract_z
 _atom_site_occupancy
  Ag  Ag0  1  0.74762294  0.75067617  0.49517452  1
  Ag  Ag1  1  -0.00447930  0.00093591  0.00383199  1
  Ag  Ag2  1  0.25028507  -0.00275239  0.74796535  1
  Ag  Ag3  1  -0.00591460  0.75132684  0.25185426  1
  Ag  Ag4  1  0.75262462  -0.00202514  0.24822722  1
  Ag  Ag5  1  0.25240689  0.75125813  0.49625425  1
  Ag  Ag6  1  0.50496759  0.75220912  0.74505773  1
  Ag  Ag7  1  0.74811135  0.50444240  0.74915251  1
  Ag  Ag8  1  0.75151644  0.24673519  0.00633632  1
  Ag  Ag9  1  0.50579253  0.74852022  0.25473332  1
  Ag  Ag10  1  0.74980318  -0.00417890  0.75149639  1
  Ag  Ag11  1  0.25034184  0.24890525  0.49482388  1
  Ag  Ag12  1  0.50443098  0.25113015  0.25105575  1
  Ag  Ag13  1  -0.00478022  0.24850381  0.24896762  1
  Ag  Ag14  1  0.25044948  0.50103634  0.25325437  1
  Ag  Ag15  1  0.74958586  0.50250367  0.25051614  1
  Sb  Sb16  1  0.50155649  0.50244682  0.49706865  1
  Sb  Sb17  1  0.50325986  0.49958630  0.00287201  1
  Sb  Sb18  1  0.50413025  0.00076674  0.00177916  1
  Sb  Sb19  1  0.74960248  0.24926310  0.49364200  1
  Sb  Sb20  1  0.50087004  -0.00249072  0.49845332  1
  Sb  Sb21  1  -0.00140518  0.24706302  0.75008089  1
  Sb  Sb22  1  -0.00086711  -0.00054913  0.49596889  1
  Sb  Sb23  1  0.24824764  0.24687338  0.00479757  1
  Sb  Sb24  1  -0.00068128  0.50052115  0.49659865  1
  Sb  Sb25  1  0.50266032  0.24839052  0.74745335  1
  Sb  Sb26  1  -0.00360946  0.49965090  0.00458649  1
  Sb  Sb27  1  0.25219636  0.50358446  0.74669149  1
  Sb  Sb28  1  0.24903247  0.75212164  0.00378890  1
  Sb  Sb29  1  -0.00454647  0.75283357  0.74731339  1
  Sb  Sb30  1  0.24826730  -0.00106682  0.25250749  1
  Sb  Sb31  1  0.75052746  0.75363506  0.00605354  1
  Te  Te32  1  0.25059242  0.24990763  0.25247101  1
  Te  Te33  1  0.25125580  0.24982845  0.74476087  1
  Te  Te34  1  0.25240904  0.74989844  0.25363676  1
  Te  Te35  1  0.25193514  0.74901751  0.74436527  1
  Te  Te36  1  0.75013369  0.25036722  0.25248511  1
  Te  Te37  1  0.74832373  0.24788322  0.75068312  1
  Te  Te38  1  0.74832925  0.74943173  0.24966113  1
  Te  Te39  1  0.74923927  0.75191583  0.74780714  1
  Te  Te40  1  0.24316082  0.00076270  -0.00894438  1
  Te  Te41  1  0.24853320  -0.00257913  0.50565841  1
  Te  Te42  1  0.24802456  0.49936088  0.00685041  1
  Te  Te43  1  0.24854628  0.50196308  0.49537789  1
  Te  Te44  1  0.75309337  0.00330488  0.00062437  1
  Te  Te45  1  0.75071687  -0.00371114  0.50119320  1
  Te  Te46  1  0.75149242  0.49222718  0.00185631  1
  Te  Te47  1  0.75083938  0.50427196  0.49853352  1
  Te  Te48  1  -0.00346287  0.24543562  0.00499188  1
  Te  Te49  1  0.00587954  0.24983616  0.49297542  1
  Te  Te50  1  0.00112838  0.75621055  0.00847350  1
  Te  Te51  1  0.00011080  0.75014826  0.49369096  1
  Te  Te52  1  0.50503634  0.24983283  0.00738441  1
  Te  Te53  1  0.49394653  0.24972748  0.49320863  1
  Te  Te54  1  0.49897859  0.75026387  0.00124316  1
  Te  Te55  1  0.50052915  0.75029114  0.49753280  1
  Te  Te56  1  -0.00235733  -0.00013554  0.24692761  1
  Te  Te57  1  -0.00321530  0.00035809  0.75613927  1
  Te  Te58  1  -0.00236645  0.50039297  0.24845195  1
  Te  Te59  1  -0.00809256  0.49961978  0.75287427  1
  Te  Te60  1  0.50467713  -0.00175601  0.24826307  1
  Te  Te61  1  0.50258346  -0.00360564  0.75187253  1
  Te  Te62  1  0.50216223  0.50211365  0.24874312  1
  Te  Te63  1  0.50583127  0.50555960  0.75184987  1
