# generated using pymatgen
data_AgSbTe2
_symmetry_space_group_name_H-M   'P 1'
_cell_length_a   12.31461643
_cell_length_b   12.31603532
_cell_length_c   12.32157273
_cell_angle_alpha   90.02212746
_cell_angle_beta   89.99168207
_cell_angle_gamma   90.02282818
_symmetry_Int_Tables_number   1
_chemical_formula_structural   AgSbTe2
_chemical_formula_sum   'Ag16 Sb16 Te32'
_cell_volume   1868.77875502
_cell_formula_units_Z   16
loop_
 _symmetry_equiv_pos_site_id
 _symmetry_equiv_pos_as_xyz
  1  'x, y, z'
loop_
 _atom_site_type_symbol
 _atom_site_label
 _atom_site_symmetry_multiplicity
 _atom_site_fract_x
 _atom_site_fract_y
 _atom_site_fract_z
 _atom_site_occupancy
  Ag  Ag0  1  0.26725847  0.75423961  0.49743942  1
  Ag  Ag1  1  -0.00278448  0.24217660  0.74503586  1
  Ag  Ag2  1  0.73603555  0.76093670  0.49158432  1
  Ag  Ag3  1  0.50573581  0.75207899  0.73106739  1
  Ag  Ag4  1  0.25062445  0.24140253  0.50297911  1
  Ag  Ag5  1  -0.01323453  0.75620451  0.26146950  1
  Ag  Ag6  1  0.74575613  0.51394395  0.25521140  1
  Ag  Ag7  1  0.50398790  0.51794335  0.49307376  1
  Ag  Ag8  1  0.51538286  0.74650012  0.26428094  1
  Ag  Ag9  1  -0.00736023  0.50615070  0.00520552  1
  Ag  Ag10  1  0.75439670  -0.01385417  0.26332127  1
  Ag  Ag11  1  -0.00670728  -0.00511709  0.00332985  1
  Ag  Ag12  1  0.51271195  -0.01289278  0.49751207  1
  Ag  Ag13  1  -0.01199252  -0.01174340  0.49692652  1
  Ag  Ag14  1  0.50916306  0.50815778  0.00769776  1
  Ag  Ag15  1  0.75319035  -0.00625959  0.73404949  1
  Sb  Sb16  1  0.24716319  0.25095364  -0.00225175  1
  Sb  Sb17  1  -0.00143185  0.24833191  0.24954417  1
  Sb  Sb18  1  0.74807806  0.50452812  0.74873559  1
  Sb  Sb19  1  0.24980874  0.50107985  0.74690705  1
  Sb  Sb20  1  0.75051814  0.75026224  0.00474574  1
  Sb  Sb21  1  -0.00034950  0.50356162  0.49658487  1
  Sb  Sb22  1  -0.00212162  0.74951130  0.74604226  1
  Sb  Sb23  1  0.74840985  0.24739683  0.49930122  1
  Sb  Sb24  1  0.25246073  0.50309670  0.25289567  1
  Sb  Sb25  1  0.24744994  -0.00292628  0.25485619  1
  Sb  Sb26  1  0.50152929  0.25026766  0.25356983  1
  Sb  Sb27  1  0.24971535  0.74982355  -0.00110123  1
  Sb  Sb28  1  0.75049349  0.24956335  -0.00050885  1
  Sb  Sb29  1  0.24783026  -0.00182161  0.74424717  1
  Sb  Sb30  1  0.50485513  -0.00439647  0.00253581  1
  Sb  Sb31  1  0.50276721  0.25034252  0.74633320  1
  Te  Te32  1  0.25084931  0.25015510  0.26010937  1
  Te  Te33  1  0.24367407  0.25089413  0.74539693  1
  Te  Te34  1  0.24908696  0.74979434  0.25078961  1
  Te  Te35  1  0.25942219  0.74976643  0.74646512  1
  Te  Te36  1  0.74932098  0.25141320  0.24775877  1
  Te  Te37  1  0.75555683  0.24053902  0.75158480  1
  Te  Te38  1  0.75268550  0.74888637  0.24982415  1
  Te  Te39  1  0.74584078  0.75375360  0.74133261  1
  Te  Te40  1  0.23673082  0.00199697  0.00036532  1
  Te  Te41  1  0.25309648  -0.00405467  0.50020782  1
  Te  Te42  1  0.24604118  0.49919979  -0.00102395  1
  Te  Te43  1  0.25283971  0.50776619  0.50049690  1
  Te  Te44  1  0.75543533  0.00021325  0.00393255  1
  Te  Te45  1  0.74962252  0.00094259  0.49817682  1
  Te  Te46  1  0.74995129  0.50022135  0.00138660  1
  Te  Te47  1  0.74617446  0.49916973  0.49645964  1
  Te  Te48  1  0.00055767  0.24883974  -0.00235341  1
  Te  Te49  1  0.00040730  0.25238024  0.50403563  1
  Te  Te50  1  0.00017035  0.74973843  0.00128074  1
  Te  Te51  1  -0.00446489  0.75036398  0.49692952  1
  Te  Te52  1  0.49720235  0.26139430  -0.00015568  1
  Te  Te53  1  0.49649643  0.24517754  0.50057572  1
  Te  Te54  1  0.50042685  0.74566091  0.00508448  1
  Te  Te55  1  0.50048860  0.75256047  0.49874131  1
  Te  Te56  1  -0.00029240  -0.00097174  0.25528995  1
  Te  Te57  1  -0.00094883  -0.00124532  0.74539399  1
  Te  Te58  1  -0.00329077  0.49961861  0.24768210  1
  Te  Te59  1  -0.00108734  0.49948294  0.75838528  1
  Te  Te60  1  0.50405977  -0.00073539  0.24631857  1
  Te  Te61  1  0.50357944  -0.00224883  0.75594678  1
  Te  Te62  1  0.50100335  0.49972401  0.25205319  1
  Te  Te63  1  0.50002310  0.50015997  0.74890762  1
