# generated using pymatgen
data_AgSbTe2
_symmetry_space_group_name_H-M   'P 1'
_cell_length_a   12.22054771
_cell_length_b   12.21599092
_cell_length_c   12.22421456
_cell_angle_alpha   90.01029699
_cell_angle_beta   90.00427664
_cell_angle_gamma   89.99726046
_symmetry_Int_Tables_number   1
_chemical_formula_structural   AgSbTe2
_chemical_formula_sum   'Ag16 Sb16 Te32'
_cell_volume   1824.90527754
_cell_formula_units_Z   16
loop_
 _symmetry_equiv_pos_site_id
 _symmetry_equiv_pos_as_xyz
  1  'x, y, z'
loop_
 _atom_site_type_symbol
 _atom_site_label
 _atom_site_symmetry_multiplicity
 _atom_site_fract_x
 _atom_site_fract_y
 _atom_site_fract_z
 _atom_site_occupancy
  Ag  Ag0  1  0.24507382  -0.00145698  0.75039203  1
  Ag  Ag1  1  0.00492594  0.24872033  0.75138961  1
  Ag  Ag2  1  0.75339581  0.75052057  0.50145536  1
  Ag  Ag3  1  0.75541744  -0.00292529  0.74874394  1
  Ag  Ag4  1  0.75356728  0.74749732  -0.00133495  1
  Ag  Ag5  1  0.24814828  0.50190606  0.76408447  1
  Ag  Ag6  1  0.01434590  0.50402053  -0.00103397  1
  Ag  Ag7  1  0.00389694  0.74776647  0.24876650  1
  Ag  Ag8  1  0.25160484  0.50271472  0.23654448  1
  Ag  Ag9  1  0.49425046  0.50203418  0.49837017  1
  Ag  Ag10  1  0.00136736  -0.00454079  0.50471292  1
  Ag  Ag11  1  0.49526298  0.25623482  0.24811512  1
  Ag  Ag12  1  0.24713508  0.74651332  0.50131879  1
  Ag  Ag13  1  0.24939667  0.26374942  -0.00255891  1
  Ag  Ag14  1  0.48530038  0.50047447  0.00143908  1
  Ag  Ag15  1  0.24663226  0.73577349  -0.00099251  1
  Sb  Sb16  1  0.49918691  -0.00249840  0.50106655  1
  Sb  Sb17  1  0.24962526  0.25301588  0.50241296  1
  Sb  Sb18  1  0.75037223  0.25020949  0.50263830  1
  Sb  Sb19  1  0.49558065  0.25286888  0.75137964  1
  Sb  Sb20  1  0.75204954  -0.00355674  0.25055385  1
  Sb  Sb21  1  0.00391438  0.25228904  0.24880551  1
  Sb  Sb22  1  0.74874115  0.50190937  0.24942083  1
  Sb  Sb23  1  0.49775246  -0.00109271  -0.00057207  1
  Sb  Sb24  1  0.24774422  -0.00253556  0.25008853  1
  Sb  Sb25  1  0.75274950  0.50285315  0.75095555  1
  Sb  Sb26  1  0.75076350  0.25220094  -0.00255707  1
  Sb  Sb27  1  0.00545768  0.50511336  0.50088759  1
  Sb  Sb28  1  0.49711069  0.74808971  0.75100071  1
  Sb  Sb29  1  0.49555928  0.74510468  0.24929723  1
  Sb  Sb30  1  0.00313559  0.75132787  0.75128738  1
  Sb  Sb31  1  0.00188200  -0.00383020  -0.00427829  1
  Te  Te32  1  0.25148768  0.25284293  0.24588182  1
  Te  Te33  1  0.24670367  0.24990309  0.75260901  1
  Te  Te34  1  0.24712982  0.74768868  0.24934381  1
  Te  Te35  1  0.25021848  0.74921407  0.75045333  1
  Te  Te36  1  0.74494367  0.24927314  0.24977905  1
  Te  Te37  1  0.75685555  0.24313142  0.75033242  1
  Te  Te38  1  0.75540119  0.75050281  0.24954446  1
  Te  Te39  1  0.74932091  0.75394172  0.74987317  1
  Te  Te40  1  0.25033531  -0.00160893  -0.00511207  1
  Te  Te41  1  0.24861998  -0.00515639  0.50388139  1
  Te  Te42  1  0.24971822  0.50201753  -0.00139670  1
  Te  Te43  1  0.25185528  0.50404566  0.50075966  1
  Te  Te44  1  0.74952473  -0.00678470  -0.00528759  1
  Te  Te45  1  0.75070756  -0.00537649  0.50387587  1
  Te  Te46  1  0.74990048  0.50540040  -0.00167176  1
  Te  Te47  1  0.74445327  0.50643022  0.50161009  1
  Te  Te48  1  0.00228203  0.25342238  -0.00153943  1
  Te  Te49  1  -0.00111669  0.24402139  0.50272039  1
  Te  Te50  1  0.00196974  0.74795493  0.00253471  1
  Te  Te51  1  0.00117317  0.75108756  0.49748017  1
  Te  Te52  1  0.49772561  0.25458823  0.00233119  1
  Te  Te53  1  0.50052554  0.25646806  0.49597019  1
  Te  Te54  1  0.49887824  0.74514686  0.00156821  1
  Te  Te55  1  0.49907656  0.74574767  0.49820818  1
  Te  Te56  1  0.00034029  -0.00419887  0.25761412  1
  Te  Te57  1  0.00331793  0.00284830  0.74754950  1
  Te  Te58  1  0.00413723  0.50310792  0.24742622  1
  Te  Te59  1  0.00394329  0.49468739  0.75209751  1
  Te  Te60  1  0.49973976  0.01026613  0.25060543  1
  Te  Te61  1  0.49788967  0.00208020  0.74941377  1
  Te  Te62  1  0.49662708  0.49811310  0.24874857  1
  Te  Te63  1  0.49496828  0.49872215  0.75099602  1
