# generated using pymatgen
data_AgSbTe2
_symmetry_space_group_name_H-M   'P 1'
_cell_length_a   12.22360374
_cell_length_b   12.22810388
_cell_length_c   12.22889110
_cell_angle_alpha   89.99844807
_cell_angle_beta   89.99564666
_cell_angle_gamma   90.00557712
_symmetry_Int_Tables_number   1
_chemical_formula_structural   AgSbTe2
_chemical_formula_sum   'Ag16 Sb16 Te32'
_cell_volume   1827.87063696
_cell_formula_units_Z   16
loop_
 _symmetry_equiv_pos_site_id
 _symmetry_equiv_pos_as_xyz
  1  'x, y, z'
loop_
 _atom_site_type_symbol
 _atom_site_label
 _atom_site_symmetry_multiplicity
 _atom_site_fract_x
 _atom_site_fract_y
 _atom_site_fract_z
 _atom_site_occupancy
  Ag  Ag0  1  -0.00115728  0.75097207  0.75298942  1
  Ag  Ag1  1  0.49941742  0.49373356  0.50046869  1
  Ag  Ag2  1  0.00004181  0.24970500  0.75839175  1
  Ag  Ag3  1  0.00407018  0.00490852  0.50326488  1
  Ag  Ag4  1  0.25219777  0.24818365  0.50003390  1
  Ag  Ag5  1  0.26167791  0.24763174  -0.00011156  1
  Ag  Ag6  1  0.73846931  0.25249805  -0.00337480  1
  Ag  Ag7  1  0.49750150  0.74995931  0.24666388  1
  Ag  Ag8  1  0.50119780  0.48524225  -0.00109230  1
  Ag  Ag9  1  0.49991513  0.25317181  0.76401711  1
  Ag  Ag10  1  0.00319514  0.00982963  -0.00342334  1
  Ag  Ag11  1  0.74955559  0.49490675  0.75451486  1
  Ag  Ag12  1  0.49587462  0.24968737  0.23586419  1
  Ag  Ag13  1  0.49738109  0.01443680  0.00244990  1
  Ag  Ag14  1  -0.00110371  0.48966599  -0.00523383  1
  Ag  Ag15  1  0.25272768  0.00517471  0.24632292  1
  Sb  Sb16  1  0.25073230  0.75351071  0.00126431  1
  Sb  Sb17  1  0.75195905  0.00504946  0.75276670  1
  Sb  Sb18  1  0.74857516  0.25145608  0.50338878  1
  Sb  Sb19  1  0.24842442  0.00514935  0.75367920  1
  Sb  Sb20  1  0.75007165  0.74657240  -0.00172811  1
  Sb  Sb21  1  0.00415622  0.24853089  0.24084293  1
  Sb  Sb22  1  0.74722548  0.49650430  0.24552960  1
  Sb  Sb23  1  0.74710925  0.00313035  0.24744820  1
  Sb  Sb24  1  0.49516958  0.00707941  0.49829553  1
  Sb  Sb25  1  0.74963769  0.74880992  0.50161342  1
  Sb  Sb26  1  0.25098356  0.49540455  0.75234482  1
  Sb  Sb27  1  0.00140006  0.49453715  0.50655207  1
  Sb  Sb28  1  0.00233948  0.75260191  0.24805981  1
  Sb  Sb29  1  0.25073902  0.75178424  0.49850492  1
  Sb  Sb30  1  0.25331711  0.49480681  0.24782519  1
  Sb  Sb31  1  0.50136255  0.74671320  0.75232855  1
  Te  Te32  1  0.25317810  0.24642196  0.24886200  1
  Te  Te33  1  0.25034980  0.24941982  0.75107454  1
  Te  Te34  1  0.25599473  0.75844824  0.25057009  1
  Te  Te35  1  0.24152412  0.75024683  0.74922185  1
  Te  Te36  1  0.74153936  0.25033704  0.24327207  1
  Te  Te37  1  0.74993457  0.25350125  0.75349001  1
  Te  Te38  1  0.74059036  0.74977808  0.25036794  1
  Te  Te39  1  0.75542292  0.74169713  0.75002507  1
  Te  Te40  1  0.24979680  0.00321035  0.00242450  1
  Te  Te41  1  0.24652525  0.00514697  0.49530927  1
  Te  Te42  1  0.25060748  0.49405423  0.00169264  1
  Te  Te43  1  0.25478614  0.49292687  0.49809266  1
  Te  Te44  1  0.75079441  0.00559338  -0.00011180  1
  Te  Te45  1  0.76062386  -0.00000959  0.49952586  1
  Te  Te46  1  0.74944194  0.49676523  -0.00330767  1
  Te  Te47  1  0.74497694  0.49966399  0.50636975  1
  Te  Te48  1  0.00204837  0.24930025  -0.00006058  1
  Te  Te49  1  0.00216261  0.24899753  0.50326894  1
  Te  Te50  1  0.00034019  0.75140028  -0.00380314  1
  Te  Te51  1  0.00068683  0.75326015  0.50384168  1
  Te  Te52  1  0.49790851  0.25043607  -0.00247795  1
  Te  Te53  1  0.49774706  0.25150266  0.50243710  1
  Te  Te54  1  0.49933156  0.74962314  0.00227573  1
  Te  Te55  1  0.49922279  0.74486889  0.49802198  1
  Te  Te56  1  0.00369332  -0.00131185  0.24681488  1
  Te  Te57  1  -0.00082849  0.00384809  0.75391098  1
  Te  Te58  1  -0.00065326  0.50251433  0.24258147  1
  Te  Te59  1  -0.00167499  0.49528580  0.75304871  1
  Te  Te60  1  0.49758561  0.00287361  0.24832426  1
  Te  Te61  1  0.50092263  0.00141784  0.75362417  1
  Te  Te62  1  0.49980747  0.49787294  0.24749628  1
  Te  Te63  1  0.50144848  0.49956053  0.75335512  1
