# generated using pymatgen
data_AgSbTe2
_symmetry_space_group_name_H-M   'P 1'
_cell_length_a   12.27596323
_cell_length_b   12.27034642
_cell_length_c   12.26874360
_cell_angle_alpha   89.98781551
_cell_angle_beta   90.00037613
_cell_angle_gamma   90.00877770
_symmetry_Int_Tables_number   1
_chemical_formula_structural   AgSbTe2
_chemical_formula_sum   'Ag16 Sb16 Te32'
_cell_volume   1848.04472920
_cell_formula_units_Z   16
loop_
 _symmetry_equiv_pos_site_id
 _symmetry_equiv_pos_as_xyz
  1  'x, y, z'
loop_
 _atom_site_type_symbol
 _atom_site_label
 _atom_site_symmetry_multiplicity
 _atom_site_fract_x
 _atom_site_fract_y
 _atom_site_fract_z
 _atom_site_occupancy
  Ag  Ag0  1  0.24231491  0.48394503  0.76270888  1
  Ag  Ag1  1  0.24588177  0.01792203  0.24635473  1
  Ag  Ag2  1  0.75703783  0.74816616  0.50856405  1
  Ag  Ag3  1  0.75881817  0.50298927  0.75672952  1
  Ag  Ag4  1  0.49102040  0.49290233  -0.00448663  1
  Ag  Ag5  1  0.00304429  0.00053954  0.50484150  1
  Ag  Ag6  1  0.48138455  0.25398441  0.24047284  1
  Ag  Ag7  1  0.01557339  0.25738356  0.75701221  1
  Ag  Ag8  1  0.00741089  0.49458928  -0.00973009  1
  Ag  Ag9  1  0.75542874  0.74127459  -0.00870737  1
  Ag  Ag10  1  0.48309061  0.25631685  0.75936054  1
  Ag  Ag11  1  0.24321622  0.01603430  0.75275187  1
  Ag  Ag12  1  0.24685142  0.48159397  0.23617453  1
  Ag  Ag13  1  0.01787914  0.25307724  0.24282205  1
  Ag  Ag14  1  -0.00288241  0.74192436  0.75257575  1
  Ag  Ag15  1  0.24836746  0.25869570  -0.00120901  1
  Sb  Sb16  1  0.00266758  0.00502733  -0.00151781  1
  Sb  Sb17  1  0.24736926  0.25104796  0.50030446  1
  Sb  Sb18  1  0.00169764  0.74664138  0.24689673  1
  Sb  Sb19  1  0.49818750  0.00900221  -0.00061965  1
  Sb  Sb20  1  0.49717341  0.00000715  0.50097088  1
  Sb  Sb21  1  0.24457650  0.75015620  0.50348020  1
  Sb  Sb22  1  -0.00077407  0.50089762  0.50754117  1
  Sb  Sb23  1  0.75277676  0.25290361  0.50298183  1
  Sb  Sb24  1  0.49754343  0.74408537  0.24645983  1
  Sb  Sb25  1  0.24439666  0.73972022  -0.00277899  1
  Sb  Sb26  1  0.75270671  0.49859232  0.24464501  1
  Sb  Sb27  1  0.75633102  -0.00131555  0.74991401  1
  Sb  Sb28  1  0.75244790  0.25545107  -0.00316862  1
  Sb  Sb29  1  0.49976364  0.49920174  0.50351930  1
  Sb  Sb30  1  0.50141784  0.74452095  0.75343028  1
  Sb  Sb31  1  0.75575789  0.00247468  0.24975819  1
  Te  Te32  1  0.24753254  0.25262493  0.25678978  1
  Te  Te33  1  0.24704390  0.25292506  0.74533597  1
  Te  Te34  1  0.24982340  0.75187802  0.24898097  1
  Te  Te35  1  0.24448608  0.75035820  0.75250905  1
  Te  Te36  1  0.75031582  0.25040786  0.24897808  1
  Te  Te37  1  0.75204355  0.25456834  0.75242505  1
  Te  Te38  1  0.74998387  0.74985426  0.25027864  1
  Te  Te39  1  0.75265213  0.74818369  0.75230039  1
  Te  Te40  1  0.24961664  0.01027153  -0.00022489  1
  Te  Te41  1  0.24479413  -0.00352980  0.50140746  1
  Te  Te42  1  0.24747456  0.49447310  -0.00207755  1
  Te  Te43  1  0.24974371  0.50507952  0.49932588  1
  Te  Te44  1  0.74887724  -0.01500984  -0.00030923  1
  Te  Te45  1  0.75715150  -0.00805103  0.50063418  1
  Te  Te46  1  0.75395398  0.50156633  -0.00446573  1
  Te  Te47  1  0.75103956  0.50623829  0.50916776  1
  Te  Te48  1  0.00121212  0.25349026  -0.00217664  1
  Te  Te49  1  -0.00370621  0.24500420  0.50098936  1
  Te  Te50  1  -0.00127495  0.74296350  -0.00357764  1
  Te  Te51  1  -0.00360894  0.75223731  0.50420884  1
  Te  Te52  1  0.49850902  0.25492282  -0.00171334  1
  Te  Te53  1  0.50680475  0.24987972  0.49933112  1
  Te  Te54  1  0.50780754  0.73666986  -0.00101868  1
  Te  Te55  1  0.51364030  0.75095683  0.49976611  1
  Te  Te56  1  0.00457333  0.00379040  0.24877910  1
  Te  Te57  1  0.00337490  0.00375799  0.75120679  1
  Te  Te58  1  0.00277182  0.49634636  0.24635531  1
  Te  Te59  1  0.00324035  0.49700123  0.75071167  1
  Te  Te60  1  0.49000238  0.01010361  0.25016220  1
  Te  Te61  1  0.48934053  0.01053043  0.74965416  1
  Te  Te62  1  0.49703104  0.49490104  0.24634321  1
  Te  Te63  1  0.49527234  0.49585308  0.75187042  1
