# generated using pymatgen
data_AgSbTe2
_symmetry_space_group_name_H-M   'P 1'
_cell_length_a   12.31768425
_cell_length_b   12.29189476
_cell_length_c   12.30430958
_cell_angle_alpha   89.98145313
_cell_angle_beta   89.98342637
_cell_angle_gamma   89.99801009
_symmetry_Int_Tables_number   1
_chemical_formula_structural   AgSbTe2
_chemical_formula_sum   'Ag16 Sb16 Te32'
_cell_volume   1862.96677303
_cell_formula_units_Z   16
loop_
 _symmetry_equiv_pos_site_id
 _symmetry_equiv_pos_as_xyz
  1  'x, y, z'
loop_
 _atom_site_type_symbol
 _atom_site_label
 _atom_site_symmetry_multiplicity
 _atom_site_fract_x
 _atom_site_fract_y
 _atom_site_fract_z
 _atom_site_occupancy
  Ag  Ag0  1  0.00781614  0.23615966  0.75697817  1
  Ag  Ag1  1  0.25206165  0.23464449  0.50779148  1
  Ag  Ag2  1  0.74032151  0.75852153  0.49546308  1
  Ag  Ag3  1  0.48758735  -0.00422133  0.00210394  1
  Ag  Ag4  1  0.24658081  0.23253252  -0.00964680  1
  Ag  Ag5  1  0.49191859  -0.00694790  0.49453847  1
  Ag  Ag6  1  0.49689419  0.51589659  0.49619796  1
  Ag  Ag7  1  0.00391321  0.75850358  0.25062816  1
  Ag  Ag8  1  0.75502066  0.23780902  -0.00166503  1
  Ag  Ag9  1  0.24545260  0.76572573  -0.00399923  1
  Ag  Ag10  1  0.49759821  0.75767698  0.26086676  1
  Ag  Ag11  1  0.74720441  -0.00598315  0.24804247  1
  Ag  Ag12  1  0.00753404  0.76111908  0.75184854  1
  Ag  Ag13  1  0.01504328  -0.00281484  -0.00405193  1
  Ag  Ag14  1  0.25585813  0.76092708  0.49952139  1
  Ag  Ag15  1  0.24585835  -0.00182115  0.75791856  1
  Sb  Sb16  1  0.25136806  -0.00259372  0.24860501  1
  Sb  Sb17  1  0.00204859  0.50407592  0.49970455  1
  Sb  Sb18  1  0.00101969  0.23804004  0.24734666  1
  Sb  Sb19  1  0.00754877  -0.00265046  0.50119603  1
  Sb  Sb20  1  0.75239722  0.75632612  -0.00035367  1
  Sb  Sb21  1  0.24854972  0.50247621  0.74974886  1
  Sb  Sb22  1  0.75338471  -0.00141864  0.74850044  1
  Sb  Sb23  1  0.74960096  0.50547052  0.25101679  1
  Sb  Sb24  1  0.49940819  0.24256066  0.24951930  1
  Sb  Sb25  1  0.49382685  0.24644358  0.75039518  1
  Sb  Sb26  1  0.74925237  0.24409254  0.50190282  1
  Sb  Sb27  1  0.00046203  0.50082748  0.00091476  1
  Sb  Sb28  1  0.24968842  0.50307339  0.25039545  1
  Sb  Sb29  1  0.75126304  0.50200257  0.74912973  1
  Sb  Sb30  1  0.49896217  0.50513123  0.00382357  1
  Sb  Sb31  1  0.49394431  0.75293091  0.74748328  1
  Te  Te32  1  0.24960692  0.25274622  0.25334814  1
  Te  Te33  1  0.24802437  0.24803154  0.75024004  1
  Te  Te34  1  0.24936285  0.75039582  0.25224601  1
  Te  Te35  1  0.24845986  0.75131495  0.75270393  1
  Te  Te36  1  0.75037401  0.24347067  0.24841488  1
  Te  Te37  1  0.76192573  0.25116052  0.75282811  1
  Te  Te38  1  0.74891149  0.75309008  0.25150165  1
  Te  Te39  1  0.76244138  0.74914527  0.74608856  1
  Te  Te40  1  0.24975986  -0.00399923  0.00019425  1
  Te  Te41  1  0.25106905  -0.00033362  0.49865381  1
  Te  Te42  1  0.25133720  0.49799670  0.00029699  1
  Te  Te43  1  0.25211519  0.50164052  0.50000277  1
  Te  Te44  1  0.74503900  0.00239670  -0.00254905  1
  Te  Te45  1  0.74361484  -0.00365832  0.50063548  1
  Te  Te46  1  0.74741831  0.47961217  -0.00029314  1
  Te  Te47  1  0.74430959  0.50459362  0.49960204  1
  Te  Te48  1  0.00855136  0.25085006  0.00114533  1
  Te  Te49  1  0.00600081  0.25068206  0.49983234  1
  Te  Te50  1  -0.00077334  0.75055860  -0.00217870  1
  Te  Te51  1  0.00829075  0.75125404  0.50006697  1
  Te  Te52  1  0.49058130  0.24853177  0.00111251  1
  Te  Te53  1  0.49555691  0.23835518  0.49940693  1
  Te  Te54  1  0.50099742  0.75230668  -0.00282889  1
  Te  Te55  1  0.49624597  0.75660192  0.50268345  1
  Te  Te56  1  -0.00700111  -0.00430139  0.24450988  1
  Te  Te57  1  0.00533489  -0.00054677  0.75065873  1
  Te  Te58  1  -0.00064389  0.52014703  0.25139465  1
  Te  Te59  1  -0.00053706  0.50256762  0.74967741  1
  Te  Te60  1  0.50177047  -0.00318215  0.24781831  1
  Te  Te61  1  0.49077851  0.00001713  0.75587857  1
  Te  Te62  1  0.50030575  0.51478008  0.25451566  1
  Te  Te63  1  0.50138339  0.49925833  0.74052764  1
