# generated using pymatgen
data_AgSbTe2
_symmetry_space_group_name_H-M   'P 1'
_cell_length_a   12.22037740
_cell_length_b   12.22045563
_cell_length_c   12.23203773
_cell_angle_alpha   89.99335481
_cell_angle_beta   89.99682228
_cell_angle_gamma   89.99244418
_symmetry_Int_Tables_number   1
_chemical_formula_structural   AgSbTe2
_chemical_formula_sum   'Ag16 Sb16 Te32'
_cell_volume   1826.71511009
_cell_formula_units_Z   16
loop_
 _symmetry_equiv_pos_site_id
 _symmetry_equiv_pos_as_xyz
  1  'x, y, z'
loop_
 _atom_site_type_symbol
 _atom_site_label
 _atom_site_symmetry_multiplicity
 _atom_site_fract_x
 _atom_site_fract_y
 _atom_site_fract_z
 _atom_site_occupancy
  Ag  Ag0  1  0.49538641  0.00564421  0.00528585  1
  Ag  Ag1  1  0.00788619  0.50048982  0.50517919  1
  Ag  Ag2  1  0.00926125  -0.00033256  0.49912508  1
  Ag  Ag3  1  0.25323478  0.25131328  0.00278274  1
  Ag  Ag4  1  0.75589419  0.49832220  0.74843108  1
  Ag  Ag5  1  0.24900772  0.49281324  0.25499233  1
  Ag  Ag6  1  0.25190923  0.24924331  0.49642960  1
  Ag  Ag7  1  0.74464340  0.00314699  0.25235373  1
  Ag  Ag8  1  0.00348201  0.74412216  0.74571542  1
  Ag  Ag9  1  0.25461514  0.00753162  0.25673195  1
  Ag  Ag10  1  0.24659475  0.75045087  0.50086913  1
  Ag  Ag11  1  0.49259211  0.24375533  0.25129295  1
  Ag  Ag12  1  0.24486522  0.49685301  0.74511853  1
  Ag  Ag13  1  0.49419083  0.24978327  0.74858240  1
  Ag  Ag14  1  0.49156557  0.00472840  0.49445056  1
  Ag  Ag15  1  0.00524824  0.49882103  -0.00607468  1
  Sb  Sb16  1  0.49683666  0.74926995  0.74677919  1
  Sb  Sb17  1  0.74969548  0.00221257  0.74835655  1
  Sb  Sb18  1  0.48991177  0.49443718  0.50015975  1
  Sb  Sb19  1  0.49681595  0.75734855  0.25273376  1
  Sb  Sb20  1  0.75111716  0.74976884  -0.00146707  1
  Sb  Sb21  1  0.24891669  0.74908783  -0.00192326  1
  Sb  Sb22  1  0.74748003  0.24984990  -0.00044118  1
  Sb  Sb23  1  0.25024884  0.00404693  0.74219307  1
  Sb  Sb24  1  0.75048147  0.49591062  0.25109864  1
  Sb  Sb25  1  0.00596306  0.25669101  0.74791135  1
  Sb  Sb26  1  0.00357590  0.75015761  0.25444851  1
  Sb  Sb27  1  0.75349335  0.74990102  0.50201084  1
  Sb  Sb28  1  0.00922798  0.24993322  0.25170946  1
  Sb  Sb29  1  0.49388164  0.49447533  -0.00056682  1
  Sb  Sb30  1  0.74760396  0.25000779  0.50011804  1
  Sb  Sb31  1  0.00499416  0.00098039  0.00036928  1
  Te  Te32  1  0.25192566  0.25008817  0.25185206  1
  Te  Te33  1  0.25369275  0.25303223  0.74935575  1
  Te  Te34  1  0.25012498  0.74806795  0.25562370  1
  Te  Te35  1  0.24720850  0.74357399  0.74615789  1
  Te  Te36  1  0.73929930  0.24561805  0.24992492  1
  Te  Te37  1  0.74068031  0.25512692  0.75022235  1
  Te  Te38  1  0.74942839  0.75630746  0.25011118  1
  Te  Te39  1  0.75401707  0.74270150  0.74984855  1
  Te  Te40  1  0.25060505  0.00257442  0.00510377  1
  Te  Te41  1  0.24883149  0.00241157  0.50016171  1
  Te  Te42  1  0.24782718  0.49850772  0.00113135  1
  Te  Te43  1  0.24915293  0.49829486  0.49893881  1
  Te  Te44  1  0.74762885  0.00051298  0.00509946  1
  Te  Te45  1  0.75105614  0.00031781  0.49637273  1
  Te  Te46  1  0.75739251  0.49995559  -0.00171376  1
  Te  Te47  1  0.75934097  0.50073459  0.50209982  1
  Te  Te48  1  0.00770323  0.25425321  -0.00093137  1
  Te  Te49  1  0.00579743  0.24891002  0.50109736  1
  Te  Te50  1  0.00048529  0.74499120  -0.00776383  1
  Te  Te51  1  0.00395355  0.75000152  0.50305933  1
  Te  Te52  1  0.49501436  0.24680893  -0.00055107  1
  Te  Te53  1  0.49636310  0.24726269  0.50042631  1
  Te  Te54  1  0.49994114  0.76066137  -0.00104202  1
  Te  Te55  1  0.49282969  0.75857829  0.50094336  1
  Te  Te56  1  0.00249697  0.00005076  0.25321275  1
  Te  Te57  1  -0.00162129  -0.00572691  0.74601216  1
  Te  Te58  1  0.00270403  0.49985535  0.25215641  1
  Te  Te59  1  0.00268782  0.49933081  0.74767695  1
  Te  Te60  1  0.49603616  0.00169300  0.25210563  1
  Te  Te61  1  0.50104069  0.00337567  0.74918361  1
  Te  Te62  1  0.49709712  0.49400994  0.24936878  1
  Te  Te63  1  0.49863752  0.49735344  0.74999939  1
