# generated using pymatgen
data_AgSbTe2
_symmetry_space_group_name_H-M   'P 1'
_cell_length_a   12.25187354
_cell_length_b   12.24487702
_cell_length_c   12.25043774
_cell_angle_alpha   90.00001127
_cell_angle_beta   89.99790294
_cell_angle_gamma   89.99772961
_symmetry_Int_Tables_number   1
_chemical_formula_structural   AgSbTe2
_chemical_formula_sum   'Ag16 Sb16 Te32'
_cell_volume   1837.84355665
_cell_formula_units_Z   16
loop_
 _symmetry_equiv_pos_site_id
 _symmetry_equiv_pos_as_xyz
  1  'x, y, z'
loop_
 _atom_site_type_symbol
 _atom_site_label
 _atom_site_symmetry_multiplicity
 _atom_site_fract_x
 _atom_site_fract_y
 _atom_site_fract_z
 _atom_site_occupancy
  Ag  Ag0  1  0.74948251  0.24877231  0.00557190  1
  Ag  Ag1  1  -0.01086827  0.49715724  0.00383894  1
  Ag  Ag2  1  0.25406122  -0.00275365  0.74920256  1
  Ag  Ag3  1  0.50972862  -0.00291725  0.49929210  1
  Ag  Ag4  1  0.74959952  0.49737650  0.25427710  1
  Ag  Ag5  1  0.74603010  0.75111898  0.49815192  1
  Ag  Ag6  1  0.50232174  0.75461643  0.74665646  1
  Ag  Ag7  1  0.74947243  0.24871936  0.49408113  1
  Ag  Ag8  1  0.74932587  0.00301369  0.25485165  1
  Ag  Ag9  1  0.50568177  0.00017490  0.00057916  1
  Ag  Ag10  1  -0.01434197  0.49937545  0.49600949  1
  Ag  Ag11  1  -0.00605402  0.00272404  0.00404810  1
  Ag  Ag12  1  0.25095055  0.00014127  0.25074778  1
  Ag  Ag13  1  0.51406395  0.50286781  0.49797956  1
  Ag  Ag14  1  -0.01005412  0.00057175  0.49565546  1
  Ag  Ag15  1  0.51041981  0.49941909  0.00187542  1
  Sb  Sb16  1  -0.00114856  0.24679494  0.74972062  1
  Sb  Sb17  1  0.50580523  0.24673948  0.25052046  1
  Sb  Sb18  1  0.74700018  0.75059161  0.00213627  1
  Sb  Sb19  1  0.25661722  0.75526597  0.50186918  1
  Sb  Sb20  1  0.74351515  -0.00211279  0.74289168  1
  Sb  Sb21  1  0.25009821  0.49928596  0.25056663  1
  Sb  Sb22  1  -0.00556744  0.24714723  0.25044704  1
  Sb  Sb23  1  0.74694296  0.50182874  0.74342698  1
  Sb  Sb24  1  0.50379577  0.75306889  0.25623140  1
  Sb  Sb25  1  0.25057791  0.24481794  0.49829558  1
  Sb  Sb26  1  -0.00313964  0.75306466  0.25314840  1
  Sb  Sb27  1  0.25049906  0.24525482  0.00158078  1
  Sb  Sb28  1  0.25355591  0.50379193  0.74971105  1
  Sb  Sb29  1  -0.00420063  0.75372913  0.74695425  1
  Sb  Sb30  1  0.50048214  0.24342477  0.74941837  1
  Sb  Sb31  1  0.25234233  0.75491186  -0.00153609  1
  Te  Te32  1  0.25027608  0.23448975  0.25026112  1
  Te  Te33  1  0.25072969  0.23434038  0.74985326  1
  Te  Te34  1  0.25003694  0.76598662  0.25043609  1
  Te  Te35  1  0.26301593  0.76148521  0.74932699  1
  Te  Te36  1  0.74944397  0.24997361  0.25091547  1
  Te  Te37  1  0.74936851  0.24979702  0.75097045  1
  Te  Te38  1  0.74903647  0.74950378  0.26203550  1
  Te  Te39  1  0.73939044  0.75069703  0.73523928  1
  Te  Te40  1  0.25020805  0.00298652  0.00275373  1
  Te  Te41  1  0.24971136  0.00125329  0.49745703  1
  Te  Te42  1  0.24953596  0.49654700  0.00404821  1
  Te  Te43  1  0.24908981  0.49828341  0.49587321  1
  Te  Te44  1  0.74989420  -0.00144075  0.00421937  1
  Te  Te45  1  0.74988062  0.00276362  0.49993831  1
  Te  Te46  1  0.75000990  0.50160912  0.00475210  1
  Te  Te47  1  0.74975226  0.49715835  0.49913727  1
  Te  Te48  1  -0.01040367  0.25020834  -0.00214371  1
  Te  Te49  1  -0.01047587  0.25018822  0.50169042  1
  Te  Te50  1  -0.00180310  0.74918446  -0.00476817  1
  Te  Te51  1  -0.00909578  0.74973979  0.50369390  1
  Te  Te52  1  0.51001436  0.25085219  -0.00196760  1
  Te  Te53  1  0.51000085  0.25080927  0.50173795  1
  Te  Te54  1  0.50307862  0.75011901  -0.00949374  1
  Te  Te55  1  0.50394297  0.75085225  0.50348407  1
  Te  Te56  1  -0.00435134  -0.00170349  0.24983762  1
  Te  Te57  1  0.01113617  -0.00387630  0.75111080  1
  Te  Te58  1  -0.00227476  0.50183461  0.24975457  1
  Te  Te59  1  0.00745574  0.50375962  0.75131306  1
  Te  Te60  1  0.50435375  -0.00251443  0.24955354  1
  Te  Te61  1  0.49579187  -0.00352612  0.75048919  1
  Te  Te62  1  0.50240844  0.50290971  0.24952803  1
  Te  Te63  1  0.49384605  0.50774584  0.75076137  1
