# generated using pymatgen
data_AgSbTe2
_symmetry_space_group_name_H-M   'P 1'
_cell_length_a   12.21707655
_cell_length_b   12.22297960
_cell_length_c   12.22148647
_cell_angle_alpha   89.99799649
_cell_angle_beta   89.99771196
_cell_angle_gamma   90.00078195
_symmetry_Int_Tables_number   1
_chemical_formula_structural   AgSbTe2
_chemical_formula_sum   'Ag16 Sb16 Te32'
_cell_volume   1825.02329695
_cell_formula_units_Z   16
loop_
 _symmetry_equiv_pos_site_id
 _symmetry_equiv_pos_as_xyz
  1  'x, y, z'
loop_
 _atom_site_type_symbol
 _atom_site_label
 _atom_site_symmetry_multiplicity
 _atom_site_fract_x
 _atom_site_fract_y
 _atom_site_fract_z
 _atom_site_occupancy
  Ag  Ag0  1  0.50433300  0.75001591  0.73578305  1
  Ag  Ag1  1  0.74755371  0.50528287  0.74535542  1
  Ag  Ag2  1  0.50345664  0.51484839  0.50323487  1
  Ag  Ag3  1  0.50345714  0.24997768  0.74648005  1
  Ag  Ag4  1  -0.00207676  -0.00572926  0.00337242  1
  Ag  Ag5  1  -0.00213669  0.75010250  0.25078783  1
  Ag  Ag6  1  0.74666842  -0.00519191  0.74625797  1
  Ag  Ag7  1  0.75217373  -0.00579821  0.25305607  1
  Ag  Ag8  1  0.50430682  -0.01448975  0.50187610  1
  Ag  Ag9  1  -0.00366907  0.50622830  0.49829261  1
  Ag  Ag10  1  0.73725441  0.74997211  0.50054840  1
  Ag  Ag11  1  0.50226478  0.75128001  0.26419078  1
  Ag  Ag12  1  -0.00281192  0.25004476  0.25041652  1
  Ag  Ag13  1  0.26293398  0.74926127  0.49880657  1
  Ag  Ag14  1  -0.00128015  0.50568405  0.00243148  1
  Ag  Ag15  1  0.24708146  0.74988970  0.00162850  1
  Sb  Sb16  1  0.25442715  -0.00432014  0.74909138  1
  Sb  Sb17  1  0.50401146  0.24806795  0.25419573  1
  Sb  Sb18  1  0.24714462  0.50463859  0.25104369  1
  Sb  Sb19  1  0.24752006  -0.00503952  0.25045148  1
  Sb  Sb20  1  0.25339583  0.50416702  0.74878005  1
  Sb  Sb21  1  0.75172304  0.25000586  -0.00018723  1
  Sb  Sb22  1  -0.00567008  0.74953586  0.74904140  1
  Sb  Sb23  1  0.75004869  0.25104139  0.50049886  1
  Sb  Sb24  1  0.50288548  -0.00513557  -0.00137312  1
  Sb  Sb25  1  -0.00633608  -0.00866616  0.49612335  1
  Sb  Sb26  1  -0.00433996  0.25069275  0.74857418  1
  Sb  Sb27  1  0.50251391  0.50593581  -0.00337094  1
  Sb  Sb28  1  0.75343929  0.50801905  0.25646286  1
  Sb  Sb29  1  0.75467938  0.75034259  -0.00011322  1
  Sb  Sb30  1  0.24729919  0.25020613  -0.00015995  1
  Sb  Sb31  1  0.24980969  0.25023004  0.50001199  1
  Te  Te32  1  0.24204335  0.24934289  0.24952188  1
  Te  Te33  1  0.26067565  0.24902722  0.74991353  1
  Te  Te34  1  0.25018719  0.75040869  0.25127487  1
  Te  Te35  1  0.25795964  0.75034586  0.74815195  1
  Te  Te36  1  0.75473184  0.23969673  0.24982282  1
  Te  Te37  1  0.74416622  0.24839773  0.75009374  1
  Te  Te38  1  0.75058637  0.75307199  0.25191284  1
  Te  Te39  1  0.74709887  0.75085822  0.74808240  1
  Te  Te40  1  0.24166612  -0.00644897  -0.00029133  1
  Te  Te41  1  0.25759064  -0.00659312  0.50047433  1
  Te  Te42  1  0.24135198  0.50654022  -0.00071083  1
  Te  Te43  1  0.24959127  0.50623468  0.50052631  1
  Te  Te44  1  0.75490523  -0.00016497  -0.00068349  1
  Te  Te45  1  0.74813687  -0.00345791  0.50154625  1
  Te  Te46  1  0.75633792  0.50026504  -0.00873306  1
  Te  Te47  1  0.75020930  0.50300218  0.50292356  1
  Te  Te48  1  0.00174501  0.25149557  0.00537229  1
  Te  Te49  1  0.00188965  0.25907010  0.49488871  1
  Te  Te50  1  0.00253880  0.74916403  0.00159462  1
  Te  Te51  1  -0.00067039  0.74718948  0.49812564  1
  Te  Te52  1  0.49771273  0.25126356  -0.00532641  1
  Te  Te53  1  0.49853080  0.25109506  0.50242263  1
  Te  Te54  1  0.49206283  0.74887520  0.00234095  1
  Te  Te55  1  0.50131517  0.74955440  0.49871365  1
  Te  Te56  1  -0.00372714  -0.00400075  0.24890350  1
  Te  Te57  1  -0.00858736  0.00241561  0.75486698  1
  Te  Te58  1  -0.00233538  0.50343525  0.25052100  1
  Te  Te59  1  -0.00621144  0.49787941  0.74848362  1
  Te  Te60  1  0.50580244  -0.00114888  0.25211355  1
  Te  Te61  1  0.50459189  -0.00319657  0.74876850  1
  Te  Te62  1  0.50213046  0.50206934  0.25509225  1
  Te  Te63  1  0.50391230  0.50321261  0.74770356  1
