# generated using pymatgen
data_AgSbTe2
_symmetry_space_group_name_H-M   'P 1'
_cell_length_a   12.20806691
_cell_length_b   12.21263445
_cell_length_c   12.21158343
_cell_angle_alpha   90.00446933
_cell_angle_beta   90.00198972
_cell_angle_gamma   90.00633332
_symmetry_Int_Tables_number   1
_chemical_formula_structural   AgSbTe2
_chemical_formula_sum   'Ag16 Sb16 Te32'
_cell_volume   1820.65742174
_cell_formula_units_Z   16
loop_
 _symmetry_equiv_pos_site_id
 _symmetry_equiv_pos_as_xyz
  1  'x, y, z'
loop_
 _atom_site_type_symbol
 _atom_site_label
 _atom_site_symmetry_multiplicity
 _atom_site_fract_x
 _atom_site_fract_y
 _atom_site_fract_z
 _atom_site_occupancy
  Ag  Ag0  1  0.75151198  0.49834788  0.25234634  1
  Ag  Ag1  1  0.50321314  0.50032757  0.00197703  1
  Ag  Ag2  1  0.24835446  0.24905532  0.00490872  1
  Ag  Ag3  1  0.75297597  0.25536928  0.49681672  1
  Ag  Ag4  1  0.50122915  0.25229429  0.24776741  1
  Ag  Ag5  1  0.75412960  -0.00599336  0.75128195  1
  Ag  Ag6  1  0.00098328  -0.00309509  0.00088153  1
  Ag  Ag7  1  -0.00143015  0.25053181  0.24906106  1
  Ag  Ag8  1  0.24721192  0.00067130  0.24613095  1
  Ag  Ag9  1  0.75563147  0.74380837  0.50492808  1
  Ag  Ag10  1  -0.00643130  0.74947923  0.75041586  1
  Ag  Ag11  1  0.75406765  0.74756826  -0.00470835  1
  Ag  Ag12  1  0.75274138  0.50566541  0.74773834  1
  Ag  Ag13  1  0.24512572  0.74878613  0.49919981  1
  Ag  Ag14  1  0.24558833  0.75156191  0.00106555  1
  Ag  Ag15  1  -0.00657054  0.50348123  0.49918343  1
  Sb  Sb16  1  0.50810884  0.49921814  0.49754531  1
  Sb  Sb17  1  -0.00054671  0.74919212  0.24986324  1
  Sb  Sb18  1  0.75120157  0.25198853  0.00362121  1
  Sb  Sb19  1  0.75250200  0.00079479  0.24880373  1
  Sb  Sb20  1  0.24685672  0.50291207  0.75061189  1
  Sb  Sb21  1  0.50083443  0.00029716  0.49821387  1
  Sb  Sb22  1  0.50304294  0.25291419  0.75255707  1
  Sb  Sb23  1  0.24897619  0.49882297  0.24855468  1
  Sb  Sb24  1  -0.00176626  -0.00343840  0.49960440  1
  Sb  Sb25  1  0.50835895  0.74823066  0.75123118  1
  Sb  Sb26  1  -0.00378924  0.50295080  0.00078994  1
  Sb  Sb27  1  0.24566410  -0.00411173  0.75350116  1
  Sb  Sb28  1  0.24683899  0.25126350  0.49481456  1
  Sb  Sb29  1  0.50087393  0.74704105  0.24794596  1
  Sb  Sb30  1  0.49888129  0.00022710  0.00209822  1
  Sb  Sb31  1  -0.00333525  0.25050742  0.75119364  1
  Te  Te32  1  0.24860905  0.24838050  0.24767282  1
  Te  Te33  1  0.25031241  0.24931237  0.75679414  1
  Te  Te34  1  0.25045724  0.75365945  0.24784296  1
  Te  Te35  1  0.24308367  0.75124138  0.75141340  1
  Te  Te36  1  0.75165142  0.25156325  0.25220901  1
  Te  Te37  1  0.75068727  0.25132582  0.74460038  1
  Te  Te38  1  0.74950825  0.74753824  0.25008423  1
  Te  Te39  1  0.75273516  0.74846796  0.74986494  1
  Te  Te40  1  0.24790564  -0.00277238  0.00187376  1
  Te  Te41  1  0.24974379  -0.00588937  0.49628536  1
  Te  Te42  1  0.25325459  0.50249280  0.00015762  1
  Te  Te43  1  0.24410769  0.50604651  0.50063624  1
  Te  Te44  1  0.75319905  -0.00397142  -0.00188027  1
  Te  Te45  1  0.75121699  -0.00186429  0.50273126  1
  Te  Te46  1  0.74938598  0.50278615  0.00077521  1
  Te  Te47  1  0.75102040  0.50217896  0.49928762  1
  Te  Te48  1  0.00342866  0.24766618  0.00317678  1
  Te  Te49  1  -0.00302285  0.25353549  0.49628370  1
  Te  Te50  1  0.00024412  0.75123501  -0.00066779  1
  Te  Te51  1  -0.00227678  0.74758550  0.50076348  1
  Te  Te52  1  0.49644238  0.25381273  0.00458103  1
  Te  Te53  1  0.50433171  0.25104810  0.49335118  1
  Te  Te54  1  0.49915180  0.74483668  0.00102502  1
  Te  Te55  1  0.49891365  0.74895404  0.49953190  1
  Te  Te56  1  0.00382242  0.00584415  0.24472138  1
  Te  Te57  1  -0.00545178  -0.00458082  0.75532774  1
  Te  Te58  1  -0.00539124  0.49467479  0.25322728  1
  Te  Te59  1  -0.00578376  0.50455493  0.74611782  1
  Te  Te60  1  0.49343584  0.00890816  0.24935027  1
  Te  Te61  1  0.51046619  0.00110640  0.74981367  1
  Te  Te62  1  0.50546274  0.49469979  0.24575239  1
  Te  Te63  1  0.50831376  0.49895302  0.75735100  1
