# generated using pymatgen
data_AgSbTe2
_symmetry_space_group_name_H-M   'P 1'
_cell_length_a   12.22023159
_cell_length_b   12.22552448
_cell_length_c   12.22401568
_cell_angle_alpha   89.98843969
_cell_angle_beta   90.00838829
_cell_angle_gamma   90.00072684
_symmetry_Int_Tables_number   1
_chemical_formula_structural   AgSbTe2
_chemical_formula_sum   'Ag16 Sb16 Te32'
_cell_volume   1826.25248870
_cell_formula_units_Z   16
loop_
 _symmetry_equiv_pos_site_id
 _symmetry_equiv_pos_as_xyz
  1  'x, y, z'
loop_
 _atom_site_type_symbol
 _atom_site_label
 _atom_site_symmetry_multiplicity
 _atom_site_fract_x
 _atom_site_fract_y
 _atom_site_fract_z
 _atom_site_occupancy
  Ag  Ag0  1  0.00508847  0.50488870  0.50379610  1
  Ag  Ag1  1  0.25306157  0.50574665  0.75184155  1
  Ag  Ag2  1  0.49035669  0.75145083  0.75303483  1
  Ag  Ag3  1  0.25583495  0.75169342  -0.00761490  1
  Ag  Ag4  1  0.49552228  -0.00042370  0.49680152  1
  Ag  Ag5  1  0.24910107  0.75372133  0.50739870  1
  Ag  Ag6  1  0.49563417  0.48633381  -0.00311148  1
  Ag  Ag7  1  0.49585579  0.01318043  0.00267422  1
  Ag  Ag8  1  0.26411065  0.24784501  -0.00186319  1
  Ag  Ag9  1  0.01042305  0.74977948  0.74626096  1
  Ag  Ag10  1  0.25675241  0.00071558  0.24981480  1
  Ag  Ag11  1  0.73560303  0.24738713  0.00098460  1
  Ag  Ag12  1  0.74181268  0.00309007  0.24870917  1
  Ag  Ag13  1  0.49834954  0.24308189  0.23650070  1
  Ag  Ag14  1  0.49585890  0.24835943  0.76458219  1
  Ag  Ag15  1  0.00556875  -0.00397821  0.50011195  1
  Sb  Sb16  1  0.74704580  0.24768309  0.49938420  1
  Sb  Sb17  1  0.25364128  -0.00594780  0.75029819  1
  Sb  Sb18  1  0.25288708  0.24523542  0.50230533  1
  Sb  Sb19  1  0.00563830  0.24938183  0.75059157  1
  Sb  Sb20  1  0.49687346  0.75804705  0.24746711  1
  Sb  Sb21  1  0.74664443  0.49615630  0.24772870  1
  Sb  Sb22  1  0.00243113  0.24742381  0.24926763  1
  Sb  Sb23  1  0.74939722  0.75227189  0.50105681  1
  Sb  Sb24  1  0.25276837  0.49842312  0.24871101  1
  Sb  Sb25  1  0.00497285  0.50223436  -0.00317932  1
  Sb  Sb26  1  0.00347416  0.75177531  0.25394125  1
  Sb  Sb27  1  0.49512181  0.50149911  0.50304075  1
  Sb  Sb28  1  0.74657326  0.00139605  0.75194009  1
  Sb  Sb29  1  0.74689979  0.49848435  0.75140263  1
  Sb  Sb30  1  0.00419085  -0.00215161  -0.00055854  1
  Sb  Sb31  1  0.74277290  0.75207513  -0.00144610  1
  Te  Te32  1  0.25308692  0.24644663  0.24584872  1
  Te  Te33  1  0.25380202  0.25620637  0.75338929  1
  Te  Te34  1  0.25026268  0.75437623  0.24975980  1
  Te  Te35  1  0.25187062  0.74914457  0.75005360  1
  Te  Te36  1  0.74628805  0.24568152  0.24573166  1
  Te  Te37  1  0.74309231  0.25023658  0.75624236  1
  Te  Te38  1  0.75108722  0.75824510  0.24882973  1
  Te  Te39  1  0.74928922  0.74963218  0.75122915  1
  Te  Te40  1  0.25087855  -0.00031961  0.00228181  1
  Te  Te41  1  0.25194914  -0.00218734  0.49747167  1
  Te  Te42  1  0.25265350  0.50112726  -0.00137678  1
  Te  Te43  1  0.24752240  0.50489971  0.50192460  1
  Te  Te44  1  0.74822275  0.00314168  0.00426446  1
  Te  Te45  1  0.74750371  0.00039349  0.49399340  1
  Te  Te46  1  0.74475714  0.49548777  0.00126398  1
  Te  Te47  1  0.75885870  0.50008649  0.49898378  1
  Te  Te48  1  0.00079435  0.25067708  -0.00156759  1
  Te  Te49  1  -0.00026236  0.24652767  0.50139046  1
  Te  Te50  1  0.00673545  0.74924413  -0.00711363  1
  Te  Te51  1  0.00252814  0.75300225  0.50346529  1
  Te  Te52  1  0.49705427  0.24724360  -0.00177227  1
  Te  Te53  1  0.49974478  0.24579987  0.50091578  1
  Te  Te54  1  0.49633795  0.75200178  -0.00264019  1
  Te  Te55  1  0.49672325  0.75288829  0.50414700  1
  Te  Te56  1  0.00251919  0.00051103  0.25490366  1
  Te  Te57  1  -0.00221215  -0.00368874  0.74390214  1
  Te  Te58  1  -0.00093269  0.49995382  0.25819109  1
  Te  Te59  1  0.00418863  0.50280797  0.74641422  1
  Te  Te60  1  0.49764233  0.00130063  0.24988547  1
  Te  Te61  1  0.50023729  -0.00015588  0.75053064  1
  Te  Te62  1  0.50076831  0.49154889  0.24637983  1
  Te  Te63  1  0.49674162  0.50087968  0.75120384  1
