# generated using pymatgen
data_AgSbTe2
_symmetry_space_group_name_H-M   'P 1'
_cell_length_a   12.22125297
_cell_length_b   12.22797826
_cell_length_c   12.23265688
_cell_angle_alpha   89.99260769
_cell_angle_beta   89.99336606
_cell_angle_gamma   89.99192521
_symmetry_Int_Tables_number   1
_chemical_formula_structural   AgSbTe2
_chemical_formula_sum   'Ag16 Sb16 Te32'
_cell_volume   1828.06306874
_cell_formula_units_Z   16
loop_
 _symmetry_equiv_pos_site_id
 _symmetry_equiv_pos_as_xyz
  1  'x, y, z'
loop_
 _atom_site_type_symbol
 _atom_site_label
 _atom_site_symmetry_multiplicity
 _atom_site_fract_x
 _atom_site_fract_y
 _atom_site_fract_z
 _atom_site_occupancy
  Ag  Ag0  1  0.49626295  0.25428001  0.74482643  1
  Ag  Ag1  1  0.24992904  -0.00142442  0.25981093  1
  Ag  Ag2  1  0.25780048  0.50463776  0.75100077  1
  Ag  Ag3  1  0.74877093  0.49663371  0.25225898  1
  Ag  Ag4  1  0.00918302  0.49995909  0.00326127  1
  Ag  Ag5  1  0.25117381  0.50152602  0.24836586  1
  Ag  Ag6  1  0.01165816  0.00178159  0.49866598  1
  Ag  Ag7  1  0.48967169  -0.00003537  0.50320022  1
  Ag  Ag8  1  0.25419936  0.75290440  0.50368593  1
  Ag  Ag9  1  0.49122476  0.74531246  0.74662920  1
  Ag  Ag10  1  0.74689005  0.25231096  0.49838716  1
  Ag  Ag11  1  0.25440318  -0.00494918  0.74076490  1
  Ag  Ag12  1  0.00278641  0.25363240  0.25297563  1
  Ag  Ag13  1  0.49356371  0.49930367  0.50396711  1
  Ag  Ag14  1  0.25248239  0.74256081  -0.00347981  1
  Ag  Ag15  1  0.49108480  0.50141352  -0.00329331  1
  Sb  Sb16  1  0.74669293  0.74475299  -0.00075957  1
  Sb  Sb17  1  0.49778059  0.25381682  0.25449915  1
  Sb  Sb18  1  0.00281761  0.25137265  0.74800976  1
  Sb  Sb19  1  0.25351836  0.24644584  0.50018809  1
  Sb  Sb20  1  0.01009911  0.74911297  0.74886354  1
  Sb  Sb21  1  0.74191080  0.49813273  0.74781470  1
  Sb  Sb22  1  0.49467787  0.74770714  0.25299580  1
  Sb  Sb23  1  0.74808376  0.25376309  0.00154494  1
  Sb  Sb24  1  0.00767975  0.00054533  0.00115210  1
  Sb  Sb25  1  0.74676741  0.74804214  0.50037846  1
  Sb  Sb26  1  0.49364909  -0.00095798  -0.00212810  1
  Sb  Sb27  1  0.74598236  0.00178269  0.74645948  1
  Sb  Sb28  1  0.75086387  0.00273369  0.25505863  1
  Sb  Sb29  1  0.00509803  0.74700121  0.25031997  1
  Sb  Sb30  1  0.00734538  0.49852692  0.49809732  1
  Sb  Sb31  1  0.25092791  0.25977734  0.00000510  1
  Te  Te32  1  0.24624811  0.25105853  0.24914179  1
  Te  Te33  1  0.25429765  0.25076358  0.75086210  1
  Te  Te34  1  0.25054778  0.74878352  0.25155994  1
  Te  Te35  1  0.25277163  0.74843907  0.74748871  1
  Te  Te36  1  0.75330974  0.25469072  0.25378826  1
  Te  Te37  1  0.74455284  0.24990831  0.74367183  1
  Te  Te38  1  0.75060877  0.74109965  0.24994524  1
  Te  Te39  1  0.73876780  0.75007285  0.74981089  1
  Te  Te40  1  0.24970361  -0.00934582  0.00091162  1
  Te  Te41  1  0.25176948  -0.00066261  0.49938264  1
  Te  Te42  1  0.25227037  0.50273785  0.00139980  1
  Te  Te43  1  0.25183697  0.50270851  0.49916682  1
  Te  Te44  1  0.75121589  -0.00077910  0.00085426  1
  Te  Te45  1  0.74810515  0.00303410  0.49883554  1
  Te  Te46  1  0.74923281  0.50098401  0.00568370  1
  Te  Te47  1  0.74714686  0.49742560  0.49635566  1
  Te  Te48  1  -0.00131122  0.25556467  0.00460851  1
  Te  Te49  1  -0.00638637  0.24691916  0.49720662  1
  Te  Te50  1  0.00478315  0.74381507  -0.00090627  1
  Te  Te51  1  0.00417602  0.75660896  0.50115372  1
  Te  Te52  1  0.50153817  0.25550411  -0.00745850  1
  Te  Te53  1  0.50305653  0.25202215  0.50236745  1
  Te  Te54  1  0.49594206  0.74575959  -0.00474963  1
  Te  Te55  1  0.49658441  0.74906590  0.50226793  1
  Te  Te56  1  0.00337304  0.00450122  0.25328420  1
  Te  Te57  1  0.00601855  0.00111232  0.74575808  1
  Te  Te58  1  0.00496185  0.49701384  0.24920280  1
  Te  Te59  1  0.00596114  0.49848307  0.75440754  1
  Te  Te60  1  0.49452258  0.00176682  0.25451919  1
  Te  Te61  1  0.49611449  0.00100810  0.74725917  1
  Te  Te62  1  0.49517767  0.49806781  0.25125251  1
  Te  Te63  1  0.49812289  0.49946544  0.74744128  1
