# generated using pymatgen
data_AgSbTe2
_symmetry_space_group_name_H-M   'P 1'
_cell_length_a   12.22386656
_cell_length_b   12.21969940
_cell_length_c   12.23291758
_cell_angle_alpha   89.99819847
_cell_angle_beta   89.99441315
_cell_angle_gamma   89.98898259
_symmetry_Int_Tables_number   1
_chemical_formula_structural   AgSbTe2
_chemical_formula_sum   'Ag16 Sb16 Te32'
_cell_volume   1827.25501384
_cell_formula_units_Z   16
loop_
 _symmetry_equiv_pos_site_id
 _symmetry_equiv_pos_as_xyz
  1  'x, y, z'
loop_
 _atom_site_type_symbol
 _atom_site_label
 _atom_site_symmetry_multiplicity
 _atom_site_fract_x
 _atom_site_fract_y
 _atom_site_fract_z
 _atom_site_occupancy
  Ag  Ag0  1  0.74020916  -0.00681062  0.74649836  1
  Ag  Ag1  1  0.25915616  -0.00338419  0.75257365  1
  Ag  Ag2  1  0.49357816  -0.00457254  -0.00124021  1
  Ag  Ag3  1  0.00153554  0.75271041  0.25248185  1
  Ag  Ag4  1  0.49893522  0.75706994  0.74918973  1
  Ag  Ag5  1  0.74245237  -0.00618712  0.25263009  1
  Ag  Ag6  1  0.25275059  0.24208678  -0.00209557  1
  Ag  Ag7  1  0.25114674  0.24573802  0.50234075  1
  Ag  Ag8  1  0.00132449  0.50347761  0.50176710  1
  Ag  Ag9  1  0.74803769  0.50661310  0.74645922  1
  Ag  Ag10  1  0.74682219  0.75375734  0.50213089  1
  Ag  Ag11  1  0.25446345  0.75714398  -0.00150200  1
  Ag  Ag12  1  0.49838699  0.75814099  0.25074332  1
  Ag  Ag13  1  0.25705616  -0.00458569  0.24727938  1
  Ag  Ag14  1  0.49855144  -0.00478799  0.50132282  1
  Ag  Ag15  1  0.25197247  0.50307982  0.74852759  1
  Sb  Sb16  1  0.75034401  0.50778204  0.25387221  1
  Sb  Sb17  1  0.49769737  0.23967987  0.25048295  1
  Sb  Sb18  1  0.00078257  0.75006259  0.74740368  1
  Sb  Sb19  1  0.49652261  0.24098417  0.74987871  1
  Sb  Sb20  1  0.00350145  0.25002126  0.74847335  1
  Sb  Sb21  1  0.74629643  0.75329595  -0.00126948  1
  Sb  Sb22  1  0.00218066  0.50338224  -0.00124266  1
  Sb  Sb23  1  0.00101052  -0.00277924  0.49911436  1
  Sb  Sb24  1  0.00794221  -0.00263147  0.00065642  1
  Sb  Sb25  1  0.49935316  0.50449778  0.50316989  1
  Sb  Sb26  1  0.49777381  0.50492341  -0.00267677  1
  Sb  Sb27  1  0.00309541  0.24718032  0.25218422  1
  Sb  Sb28  1  0.25030041  0.50467372  0.25190672  1
  Sb  Sb29  1  0.74845001  0.24666126  0.50133915  1
  Sb  Sb30  1  0.25349397  0.75405703  0.50085506  1
  Sb  Sb31  1  0.74647006  0.24487342  -0.00157987  1
  Te  Te32  1  0.24943643  0.24567166  0.25002315  1
  Te  Te33  1  0.25039923  0.24898697  0.74960690  1
  Te  Te34  1  0.25247943  0.75223755  0.25051566  1
  Te  Te35  1  0.25029676  0.75188804  0.75014514  1
  Te  Te36  1  0.75034415  0.24142108  0.24921840  1
  Te  Te37  1  0.75061269  0.24909837  0.75032057  1
  Te  Te38  1  0.74800610  0.75373056  0.25017142  1
  Te  Te39  1  0.74989378  0.75290001  0.74913619  1
  Te  Te40  1  0.25193564  -0.00189315  -0.00133097  1
  Te  Te41  1  0.25091366  0.00087282  0.50147806  1
  Te  Te42  1  0.25021418  0.49993663  -0.00580937  1
  Te  Te43  1  0.24894358  0.49656485  0.50397670  1
  Te  Te44  1  0.74363072  0.00139242  -0.00144437  1
  Te  Te45  1  0.74921530  -0.00122028  0.50177330  1
  Te  Te46  1  0.74987646  0.49748262  -0.00940662  1
  Te  Te47  1  0.75086939  0.50091929  0.50480344  1
  Te  Te48  1  0.01001869  0.25125105  0.00129371  1
  Te  Te49  1  0.00589004  0.25766011  0.49873331  1
  Te  Te50  1  0.00806111  0.74957959  0.00835483  1
  Te  Te51  1  -0.00566194  0.74646963  0.49624802  1
  Te  Te52  1  0.49311080  0.24328625  0.00096764  1
  Te  Te53  1  0.49431642  0.24283776  0.49886239  1
  Te  Te54  1  0.49629184  0.75367366  -0.00124590  1
  Te  Te55  1  0.50337401  0.75439792  0.50156689  1
  Te  Te56  1  0.00057257  -0.00521246  0.25016854  1
  Te  Te57  1  -0.00138897  -0.00062932  0.74986561  1
  Te  Te58  1  -0.00121473  0.50655173  0.25532080  1
  Te  Te59  1  0.00104763  0.50053989  0.74589432  1
  Te  Te60  1  0.49801724  -0.00359753  0.25095375  1
  Te  Te61  1  0.49868180  -0.00380416  0.74891400  1
  Te  Te62  1  0.50139678  0.51133999  0.24967139  1
  Te  Te63  1  0.49882575  0.50951226  0.74957818  1
