# generated using pymatgen
data_AgSbTe2
_symmetry_space_group_name_H-M   'P 1'
_cell_length_a   12.28436001
_cell_length_b   12.27861153
_cell_length_c   12.29908237
_cell_angle_alpha   90.00483107
_cell_angle_beta   89.99994607
_cell_angle_gamma   90.00835354
_symmetry_Int_Tables_number   1
_chemical_formula_structural   AgSbTe2
_chemical_formula_sum   'Ag16 Sb16 Te32'
_cell_volume   1855.13064127
_cell_formula_units_Z   16
loop_
 _symmetry_equiv_pos_site_id
 _symmetry_equiv_pos_as_xyz
  1  'x, y, z'
loop_
 _atom_site_type_symbol
 _atom_site_label
 _atom_site_symmetry_multiplicity
 _atom_site_fract_x
 _atom_site_fract_y
 _atom_site_fract_z
 _atom_site_occupancy
  Ag  Ag0  1  0.24511386  -0.00095626  0.75556999  1
  Ag  Ag1  1  0.24855159  0.24741668  -0.00379640  1
  Ag  Ag2  1  0.51288053  0.49932135  0.00586854  1
  Ag  Ag3  1  0.50862804  0.50704272  0.49416533  1
  Ag  Ag4  1  -0.00885083  0.51086431  0.49980799  1
  Ag  Ag5  1  0.49875205  0.00106946  0.00089232  1
  Ag  Ag6  1  -0.01255655  0.50342478  0.00032122  1
  Ag  Ag7  1  0.75129047  0.25721779  -0.00052008  1
  Ag  Ag8  1  -0.00390041  0.74554183  0.24734344  1
  Ag  Ag9  1  0.50532712  0.74527712  0.24765440  1
  Ag  Ag10  1  0.00236071  -0.00313232  -0.00466411  1
  Ag  Ag11  1  0.75075131  0.50294200  0.24115387  1
  Ag  Ag12  1  0.00119096  -0.01030966  0.50369121  1
  Ag  Ag13  1  0.75547931  0.50082568  0.75954475  1
  Ag  Ag14  1  -0.00073006  0.74907116  0.75340599  1
  Ag  Ag15  1  0.49956641  -0.00652138  0.49818318  1
  Sb  Sb16  1  0.75088246  -0.00351430  0.24593052  1
  Sb  Sb17  1  -0.00245498  0.25562857  0.24787655  1
  Sb  Sb18  1  0.24919944  0.00036524  0.24677863  1
  Sb  Sb19  1  0.24916945  0.75103832  0.50041536  1
  Sb  Sb20  1  0.75163590  -0.00232868  0.75423380  1
  Sb  Sb21  1  -0.00073343  0.25191721  0.75196415  1
  Sb  Sb22  1  0.24855994  0.75265721  -0.00033482  1
  Sb  Sb23  1  0.50224674  0.74848553  0.75128646  1
  Sb  Sb24  1  0.24919244  0.24896950  0.50430938  1
  Sb  Sb25  1  0.24928663  0.50077677  0.24718316  1
  Sb  Sb26  1  0.75060139  0.25247799  0.50203109  1
  Sb  Sb27  1  0.24729250  0.50212819  0.75358720  1
  Sb  Sb28  1  0.50262284  0.25508649  0.24812431  1
  Sb  Sb29  1  0.75080124  0.74745159  0.49958061  1
  Sb  Sb30  1  0.75152779  0.74335550  0.00023130  1
  Sb  Sb31  1  0.50039025  0.25080882  0.75169093  1
  Te  Te32  1  0.24955708  0.24908526  0.23614261  1
  Te  Te33  1  0.25104057  0.23934075  0.75691064  1
  Te  Te34  1  0.24874374  0.74999785  0.25073391  1
  Te  Te35  1  0.23730413  0.75829700  0.74941218  1
  Te  Te36  1  0.75039190  0.26384137  0.24135559  1
  Te  Te37  1  0.74922328  0.26285030  0.75722702  1
  Te  Te38  1  0.74973752  0.74286624  0.25066961  1
  Te  Te39  1  0.76004017  0.74117700  0.74950472  1
  Te  Te40  1  0.24928282  0.00185217  -0.00218306  1
  Te  Te41  1  0.24961531  0.00302864  0.50560743  1
  Te  Te42  1  0.25148108  0.49288911  -0.00248905  1
  Te  Te43  1  0.25179867  0.49498990  0.50236086  1
  Te  Te44  1  0.74829959  0.01037099  -0.00004889  1
  Te  Te45  1  0.74847782  0.00607085  0.50067008  1
  Te  Te46  1  0.75028336  0.49964737  -0.00027205  1
  Te  Te47  1  0.75004622  0.49805076  0.50001413  1
  Te  Te48  1  -0.00193867  0.24849937  0.00072473  1
  Te  Te49  1  0.00100619  0.24744799  0.49872479  1
  Te  Te50  1  -0.00047178  0.75065057  0.00441514  1
  Te  Te51  1  -0.00017831  0.74974712  0.49470552  1
  Te  Te52  1  0.50200780  0.24845437  -0.00012055  1
  Te  Te53  1  0.49923216  0.24760128  0.49989316  1
  Te  Te54  1  0.50027343  0.75086136  0.00091136  1
  Te  Te55  1  0.50040953  0.74993727  0.49899467  1
  Te  Te56  1  -0.00204471  -0.01029354  0.25177361  1
  Te  Te57  1  -0.00428976  -0.00264529  0.75091805  1
  Te  Te58  1  0.00224713  0.50447121  0.25010602  1
  Te  Te59  1  0.00123158  0.50144128  0.74964450  1
  Te  Te60  1  0.50179410  -0.00969557  0.25122954  1
  Te  Te61  1  0.50380195  -0.00362207  0.75030607  1
  Te  Te62  1  0.49767255  0.50499410  0.25014850  1
  Te  Te63  1  0.49984845  0.50339577  0.74849889  1
