# generated using pymatgen
data_AgSbTe2
_symmetry_space_group_name_H-M   'P 1'
_cell_length_a   12.30483495
_cell_length_b   12.28219675
_cell_length_c   12.30119782
_cell_angle_alpha   90.00580549
_cell_angle_beta   90.00000006
_cell_angle_gamma   89.99999994
_symmetry_Int_Tables_number   1
_chemical_formula_structural   AgSbTe2
_chemical_formula_sum   'Ag16 Sb16 Te32'
_cell_volume   1859.08498458
_cell_formula_units_Z   16
loop_
 _symmetry_equiv_pos_site_id
 _symmetry_equiv_pos_as_xyz
  1  'x, y, z'
loop_
 _atom_site_type_symbol
 _atom_site_label
 _atom_site_symmetry_multiplicity
 _atom_site_fract_x
 _atom_site_fract_y
 _atom_site_fract_z
 _atom_site_occupancy
  Ag  Ag0  1  0.49999993  0.01973430  -0.00741398  1
  Ag  Ag1  1  0.72971658  0.25376680  -0.01912743  1
  Ag  Ag2  1  0.00000003  0.74731405  0.25018130  1
  Ag  Ag3  1  -0.00000009  0.48952768  0.50688901  1
  Ag  Ag4  1  0.49999995  0.25064470  0.76598796  1
  Ag  Ag5  1  0.25231800  0.01981646  0.75074294  1
  Ag  Ag6  1  0.27028340  0.25376694  -0.01912771  1
  Ag  Ag7  1  0.75038420  0.48193137  0.75418300  1
  Ag  Ag8  1  0.75183368  0.25088667  0.51859475  1
  Ag  Ag9  1  0.00000001  0.01282736  0.50607056  1
  Ag  Ag10  1  0.74768192  0.01981626  0.75074293  1
  Ag  Ag11  1  0.24816630  0.25088681  0.51859553  1
  Ag  Ag12  1  0.00000002  0.49109747  -0.00927405  1
  Ag  Ag13  1  0.49999999  0.25019392  0.22709378  1
  Ag  Ag14  1  0.49999993  0.48202627  -0.00780055  1
  Ag  Ag15  1  0.24961581  0.48193183  0.75418314  1
  Sb  Sb16  1  0.00000003  0.24999261  0.25094765  1
  Sb  Sb17  1  0.49999998  0.00725511  0.50832309  1
  Sb  Sb18  1  -0.00000031  0.25411025  0.74845158  1
  Sb  Sb19  1  -0.00000000  0.74748343  0.75215171  1
  Sb  Sb20  1  0.24984541  0.49540873  0.24746389  1
  Sb  Sb21  1  0.50000002  0.49278475  0.50927989  1
  Sb  Sb22  1  0.49999998  0.74945992  0.24425471  1
  Sb  Sb23  1  0.74958646  0.00494006  0.25042964  1
  Sb  Sb24  1  0.75015460  0.49540873  0.24746389  1
  Sb  Sb25  1  0.75407860  0.74765223  0.50335281  1
  Sb  Sb26  1  0.50000002  0.74936508  0.75165059  1
  Sb  Sb27  1  0.24592138  0.74765220  0.50335281  1
  Sb  Sb28  1  0.00000001  0.00948145  -0.00432734  1
  Sb  Sb29  1  0.75137392  0.74615570  -0.00265727  1
  Sb  Sb30  1  0.25041353  0.00494008  0.25042964  1
  Sb  Sb31  1  0.24862609  0.74615568  -0.00265727  1
  Te  Te32  1  0.25977530  0.24994379  0.25128300  1
  Te  Te33  1  0.24084112  0.25076874  0.74980943  1
  Te  Te34  1  0.24389439  0.75110663  0.25066442  1
  Te  Te35  1  0.25205155  0.75120217  0.74959466  1
  Te  Te36  1  0.74022470  0.24994380  0.25128322  1
  Te  Te37  1  0.75915921  0.25076960  0.74980956  1
  Te  Te38  1  0.75610558  0.75110667  0.25066441  1
  Te  Te39  1  0.74794847  0.75120212  0.74959462  1
  Te  Te40  1  0.24539541  0.00447816  -0.00565998  1
  Te  Te41  1  0.24946681  0.00416032  0.50524857  1
  Te  Te42  1  0.24699038  0.49744343  -0.00296611  1
  Te  Te43  1  0.24883984  0.49621510  0.50588143  1
  Te  Te44  1  0.75460461  0.00447811  -0.00565991  1
  Te  Te45  1  0.75053317  0.00416037  0.50524857  1
  Te  Te46  1  0.75300964  0.49744350  -0.00296601  1
  Te  Te47  1  0.75116021  0.49621514  0.50588145  1
  Te  Te48  1  0.00000009  0.25594560  0.00837543  1
  Te  Te49  1  -0.00000008  0.25143166  0.49643304  1
  Te  Te50  1  -0.00000000  0.73911660  0.00550694  1
  Te  Te51  1  0.00000000  0.74532172  0.49574851  1
  Te  Te52  1  0.49999998  0.24988423  -0.00363643  1
  Te  Te53  1  0.50000009  0.25134173  0.50585533  1
  Te  Te54  1  0.50000001  0.74967522  0.00096440  1
  Te  Te55  1  0.50000003  0.74989454  0.49430954  1
  Te  Te56  1  0.00000002  -0.00162372  0.25722829  1
  Te  Te57  1  0.00000004  -0.00605614  0.74591961  1
  Te  Te58  1  -0.00000001  0.49999185  0.25424271  1
  Te  Te59  1  -0.00000002  0.50113357  0.75014330  1
  Te  Te60  1  0.49999999  0.00042474  0.23752339  1
  Te  Te61  1  0.50000002  0.00141356  0.75387170  1
  Te  Te62  1  0.50000002  0.49892998  0.23789704  1
  Te  Te63  1  0.50000005  0.49812231  0.75347467  1
