# generated using pymatgen
data_AgSbTe2
_symmetry_space_group_name_H-M   'P 1'
_cell_length_a   12.22535245
_cell_length_b   12.21865336
_cell_length_c   12.22168763
_cell_angle_alpha   90.00293566
_cell_angle_beta   89.99931519
_cell_angle_gamma   90.01084536
_symmetry_Int_Tables_number   1
_chemical_formula_structural   AgSbTe2
_chemical_formula_sum   'Ag16 Sb16 Te32'
_cell_volume   1825.64319976
_cell_formula_units_Z   16
loop_
 _symmetry_equiv_pos_site_id
 _symmetry_equiv_pos_as_xyz
  1  'x, y, z'
loop_
 _atom_site_type_symbol
 _atom_site_label
 _atom_site_symmetry_multiplicity
 _atom_site_fract_x
 _atom_site_fract_y
 _atom_site_fract_z
 _atom_site_occupancy
  Ag  Ag0  1  0.75086813  0.00702722  0.75301360  1
  Ag  Ag1  1  0.49625611  0.75000801  0.24919957  1
  Ag  Ag2  1  0.75500913  0.25007195  0.50552844  1
  Ag  Ag3  1  0.24875419  0.74655732  0.49604582  1
  Ag  Ag4  1  0.24571784  0.50138466  0.24697491  1
  Ag  Ag5  1  0.00018138  0.49665493  0.49797416  1
  Ag  Ag6  1  -0.00516013  0.24951596  0.76352496  1
  Ag  Ag7  1  0.23592226  0.25063199  0.00059005  1
  Ag  Ag8  1  0.00015162  0.25326883  0.23616235  1
  Ag  Ag9  1  0.00329707  0.48611091  0.00198864  1
  Ag  Ag10  1  0.50618002  0.24678620  0.75507635  1
  Ag  Ag11  1  0.50005934  0.00408218  -0.00165457  1
  Ag  Ag12  1  0.75181762  0.74940945  0.49994716  1
  Ag  Ag13  1  0.76317773  0.24700465  -0.00540481  1
  Ag  Ag14  1  -0.00012987  0.01393702  -0.00120630  1
  Ag  Ag15  1  0.24836660  0.74907134  0.00407158  1
  Sb  Sb16  1  0.75123527  0.00066772  0.24701833  1
  Sb  Sb17  1  0.24858577  0.00185689  0.75356272  1
  Sb  Sb18  1  0.24912819  -0.00128200  0.24675567  1
  Sb  Sb19  1  0.49960025  0.49964279  0.49817342  1
  Sb  Sb20  1  0.50006531  0.24956379  0.24599055  1
  Sb  Sb21  1  0.24470825  0.25368451  0.49964012  1
  Sb  Sb22  1  0.00281145  0.74717174  0.24949601  1
  Sb  Sb23  1  0.50171857  0.00133723  0.50139209  1
  Sb  Sb24  1  0.75483575  0.49888588  0.24975804  1
  Sb  Sb25  1  0.49690290  0.49730134  0.00179931  1
  Sb  Sb26  1  -0.00202646  0.00300612  0.50089475  1
  Sb  Sb27  1  -0.00137357  0.75105294  0.75083299  1
  Sb  Sb28  1  0.75095308  0.75207492  -0.00001245  1
  Sb  Sb29  1  0.50152223  0.75366650  0.75087866  1
  Sb  Sb30  1  0.75233178  0.49240369  0.74977386  1
  Sb  Sb31  1  0.24716569  0.49922901  0.75305355  1
  Te  Te32  1  0.24804193  0.25337656  0.24718816  1
  Te  Te33  1  0.24846627  0.24929266  0.75301094  1
  Te  Te34  1  0.25128022  0.74806146  0.24805575  1
  Te  Te35  1  0.25092407  0.75041124  0.75046786  1
  Te  Te36  1  0.75179447  0.25060594  0.25093363  1
  Te  Te37  1  0.75194353  0.24814956  0.75085253  1
  Te  Te38  1  0.74496318  0.74960175  0.25598813  1
  Te  Te39  1  0.74862033  0.75723363  0.74408497  1
  Te  Te40  1  0.24887590  0.00020819  -0.00048040  1
  Te  Te41  1  0.24991155  -0.00963059  0.50028481  1
  Te  Te42  1  0.24695420  0.50038228  0.00214664  1
  Te  Te43  1  0.24572784  0.50370093  0.49621465  1
  Te  Te44  1  0.75118049  0.00087868  -0.00263286  1
  Te  Te45  1  0.75061079  0.00099566  0.50450118  1
  Te  Te46  1  0.75674805  0.49709988  0.00053571  1
  Te  Te47  1  0.75499608  0.49983872  0.49984147  1
  Te  Te48  1  0.00061869  0.25007951  -0.00001575  1
  Te  Te49  1  -0.00169981  0.25203833  0.50046174  1
  Te  Te50  1  0.00378516  0.74954524  0.00016545  1
  Te  Te51  1  -0.00073173  0.74724561  0.49989576  1
  Te  Te52  1  0.50057964  0.24745488  -0.00078150  1
  Te  Te53  1  0.50538658  0.24934268  0.50296676  1
  Te  Te54  1  0.49760040  0.75196564  0.00189405  1
  Te  Te55  1  0.49984137  0.75024856  0.49804835  1
  Te  Te56  1  -0.00040571  0.00735759  0.24373490  1
  Te  Te57  1  -0.00389373  0.00435629  0.75415748  1
  Te  Te58  1  0.00358363  0.49726417  0.24939942  1
  Te  Te59  1  0.00010382  0.49485183  0.74997422  1
  Te  Te60  1  0.50029293  -0.00428418  0.24328187  1
  Te  Te61  1  0.50406124  0.00455297  0.75514532  1
  Te  Te62  1  0.49138656  0.50520439  0.24987070  1
  Te  Te63  1  0.49981856  0.49078425  0.74996851  1
