# generated using pymatgen
data_AgSbTe2
_symmetry_space_group_name_H-M   'P 1'
_cell_length_a   12.21678816
_cell_length_b   12.21833562
_cell_length_c   12.22196122
_cell_angle_alpha   89.99935311
_cell_angle_beta   90.00503031
_cell_angle_gamma   90.00030693
_symmetry_Int_Tables_number   1
_chemical_formula_structural   AgSbTe2
_chemical_formula_sum   'Ag16 Sb16 Te32'
_cell_volume   1824.35769744
_cell_formula_units_Z   16
loop_
 _symmetry_equiv_pos_site_id
 _symmetry_equiv_pos_as_xyz
  1  'x, y, z'
loop_
 _atom_site_type_symbol
 _atom_site_label
 _atom_site_symmetry_multiplicity
 _atom_site_fract_x
 _atom_site_fract_y
 _atom_site_fract_z
 _atom_site_occupancy
  Ag  Ag0  1  0.25137116  0.24879076  0.49901262  1
  Ag  Ag1  1  0.50580119  0.24362722  0.75358708  1
  Ag  Ag2  1  0.25001952  0.49627976  0.24889926  1
  Ag  Ag3  1  -0.00534074  0.24798123  0.75358048  1
  Ag  Ag4  1  0.74314923  0.00471016  0.75757588  1
  Ag  Ag5  1  0.50690580  0.00093591  -0.00285313  1
  Ag  Ag6  1  -0.00335497  0.75188353  0.24704069  1
  Ag  Ag7  1  0.74686115  -0.00066138  0.24314835  1
  Ag  Ag8  1  0.74761812  0.49435141  0.75370587  1
  Ag  Ag9  1  0.25080131  0.24835591  0.00102485  1
  Ag  Ag10  1  0.74537093  0.75754596  0.00111812  1
  Ag  Ag11  1  0.50379139  0.75459276  0.24618384  1
  Ag  Ag12  1  0.74836058  0.24303468  -0.00516047  1
  Ag  Ag13  1  0.00029256  0.24835281  0.24671395  1
  Ag  Ag14  1  0.50502309  0.75702914  0.75364888  1
  Ag  Ag15  1  0.50180391  0.00160106  0.50279521  1
  Sb  Sb16  1  -0.00826049  0.75188668  0.75407088  1
  Sb  Sb17  1  -0.00058314  0.49690532  0.00034871  1
  Sb  Sb18  1  0.25363162  0.75203685  0.49787709  1
  Sb  Sb19  1  0.25198003  0.49500821  0.75143488  1
  Sb  Sb20  1  -0.00105084  0.00293627  0.49992751  1
  Sb  Sb21  1  0.25518654  0.75291596  0.00248272  1
  Sb  Sb22  1  0.50078713  0.24468975  0.24614754  1
  Sb  Sb23  1  -0.00879767  0.00354043  0.00115660  1
  Sb  Sb24  1  0.74755618  0.75251164  0.49806523  1
  Sb  Sb25  1  0.50085652  0.49793443  -0.00021609  1
  Sb  Sb26  1  0.25266694  0.00398051  0.24841204  1
  Sb  Sb27  1  0.74736026  0.24726602  0.50545489  1
  Sb  Sb28  1  0.74984158  0.49937306  0.24629703  1
  Sb  Sb29  1  0.00091979  0.49765637  0.49956077  1
  Sb  Sb30  1  0.25869791  0.00383142  0.75113237  1
  Sb  Sb31  1  0.49853026  0.49635971  0.49969169  1
  Te  Te32  1  0.24861651  0.25138690  0.24760601  1
  Te  Te33  1  0.24900673  0.25158255  0.75245443  1
  Te  Te34  1  0.24929118  0.74551202  0.24887963  1
  Te  Te35  1  0.25531492  0.74763201  0.75049673  1
  Te  Te36  1  0.75250110  0.25058869  0.24659144  1
  Te  Te37  1  0.74913612  0.24724568  0.75047705  1
  Te  Te38  1  0.74881035  0.74944510  0.24714253  1
  Te  Te39  1  0.74895382  0.75290512  0.75368234  1
  Te  Te40  1  0.26038477  0.00612698  -0.00022627  1
  Te  Te41  1  0.25747380  0.00600842  0.50031138  1
  Te  Te42  1  0.25040942  0.49205252  0.00534499  1
  Te  Te43  1  0.25025495  0.49293125  0.49421324  1
  Te  Te44  1  0.74662606  0.00124158  0.00047596  1
  Te  Te45  1  0.74330223  0.00054833  0.49813507  1
  Te  Te46  1  0.74963216  0.49860759  -0.00536691  1
  Te  Te47  1  0.74969333  0.50021871  0.50955106  1
  Te  Te48  1  -0.00045674  0.24848938  0.00045147  1
  Te  Te49  1  0.00667751  0.24847273  0.49859012  1
  Te  Te50  1  -0.00425613  0.75110043  0.00509049  1
  Te  Te51  1  0.00185629  0.75095761  0.49145246  1
  Te  Te52  1  0.50254787  0.24724878  -0.00190739  1
  Te  Te53  1  0.49643520  0.24593078  0.50404253  1
  Te  Te54  1  0.50191442  0.75380511  -0.00052844  1
  Te  Te55  1  0.49841036  0.75642279  0.50085120  1
  Te  Te56  1  -0.00597541  0.00137649  0.25103374  1
  Te  Te57  1  -0.00840752  0.00414612  0.74823502  1
  Te  Te58  1  0.00183424  0.49821965  0.25067697  1
  Te  Te59  1  -0.00515519  0.49568925  0.74922624  1
  Te  Te60  1  0.50356541  -0.00267468  0.24917950  1
  Te  Te61  1  0.50227449  0.00062065  0.75130259  1
  Te  Te62  1  0.49798737  0.50900062  0.25150799  1
  Te  Te63  1  0.50354351  0.49991728  0.74916147  1
