# generated using pymatgen
data_AgSbTe2
_symmetry_space_group_name_H-M   'P 1'
_cell_length_a   12.22140155
_cell_length_b   12.21875411
_cell_length_c   12.21634345
_cell_angle_alpha   90.00441836
_cell_angle_beta   90.00495202
_cell_angle_gamma   90.00338786
_symmetry_Int_Tables_number   1
_chemical_formula_structural   AgSbTe2
_chemical_formula_sum   'Ag16 Sb16 Te32'
_cell_volume   1824.27022141
_cell_formula_units_Z   16
loop_
 _symmetry_equiv_pos_site_id
 _symmetry_equiv_pos_as_xyz
  1  'x, y, z'
loop_
 _atom_site_type_symbol
 _atom_site_label
 _atom_site_symmetry_multiplicity
 _atom_site_fract_x
 _atom_site_fract_y
 _atom_site_fract_z
 _atom_site_occupancy
  Ag  Ag0  1  0.24608885  0.74988196  0.49912549  1
  Ag  Ag1  1  0.75428956  0.49316119  0.75464168  1
  Ag  Ag2  1  0.24611257  0.49615223  0.75201721  1
  Ag  Ag3  1  -0.00125002  0.49814424  -0.00319714  1
  Ag  Ag4  1  0.75391339  0.25110445  0.50630515  1
  Ag  Ag5  1  0.75690381  0.25098012  -0.00542677  1
  Ag  Ag6  1  0.50150585  0.25065252  0.75248233  1
  Ag  Ag7  1  0.24616121  0.25042058  0.50271006  1
  Ag  Ag8  1  0.75760217  0.74954776  -0.00112235  1
  Ag  Ag9  1  0.00141002  0.00106733  0.00264949  1
  Ag  Ag10  1  0.00409338  0.75224266  0.24261261  1
  Ag  Ag11  1  0.49863818  0.00213831  -0.00079313  1
  Ag  Ag12  1  0.00113694  0.24779739  0.24443549  1
  Ag  Ag13  1  0.24239615  0.75213867  0.00143495  1
  Ag  Ag14  1  -0.00264589  0.25317688  0.75518984  1
  Ag  Ag15  1  0.24528435  -0.00054360  0.24606608  1
  Sb  Sb16  1  0.00088838  0.49704837  0.50530543  1
  Sb  Sb17  1  0.49673733  0.00332288  0.50186652  1
  Sb  Sb18  1  0.24557243  0.50021354  0.24696030  1
  Sb  Sb19  1  0.49921554  0.49789980  0.50279529  1
  Sb  Sb20  1  0.49863837  0.75112582  0.75294632  1
  Sb  Sb21  1  0.00248539  0.00282347  0.49715272  1
  Sb  Sb22  1  0.50045641  0.49687085  -0.00344426  1
  Sb  Sb23  1  0.49784528  0.24641781  0.24619792  1
  Sb  Sb24  1  0.75612687  0.00103058  0.24507963  1
  Sb  Sb25  1  0.75602851  0.74820019  0.50140711  1
  Sb  Sb26  1  0.75212017  0.00864969  0.75420125  1
  Sb  Sb27  1  0.24158339  0.24826118  -0.00250528  1
  Sb  Sb28  1  0.49516625  0.75335226  0.24667176  1
  Sb  Sb29  1  0.75484134  0.49823246  0.24381133  1
  Sb  Sb30  1  0.00146094  0.74589607  0.75942286  1
  Sb  Sb31  1  0.24768537  0.00352632  0.75442259  1
  Te  Te32  1  0.24647996  0.24925086  0.25510412  1
  Te  Te33  1  0.24867727  0.25252921  0.74752066  1
  Te  Te34  1  0.24627093  0.75020308  0.24869061  1
  Te  Te35  1  0.24975961  0.74501693  0.74930907  1
  Te  Te36  1  0.75472431  0.25021322  0.24944001  1
  Te  Te37  1  0.75256530  0.25186993  0.75151478  1
  Te  Te38  1  0.75647248  0.74972701  0.24768492  1
  Te  Te39  1  0.75002286  0.74160521  0.75195702  1
  Te  Te40  1  0.24731511  -0.00218278  0.00202998  1
  Te  Te41  1  0.25047576  -0.00035380  0.49504674  1
  Te  Te42  1  0.24783796  0.50450751  -0.00406786  1
  Te  Te43  1  0.24935464  0.49933976  0.50589368  1
  Te  Te44  1  0.75200073  -0.00077707  0.00046568  1
  Te  Te45  1  0.74908133  0.00514694  0.49911909  1
  Te  Te46  1  0.75165818  0.49920543  -0.00383622  1
  Te  Te47  1  0.74995066  0.49560754  0.50838342  1
  Te  Te48  1  -0.00014495  0.25028588  0.00060738  1
  Te  Te49  1  0.00067949  0.24987261  0.49958821  1
  Te  Te50  1  -0.00009348  0.75098608  0.00084770  1
  Te  Te51  1  0.00365063  0.75092013  0.49193327  1
  Te  Te52  1  0.50637204  0.24648558  -0.00258249  1
  Te  Te53  1  0.49944108  0.24827586  0.50436952  1
  Te  Te54  1  0.50090900  0.75568734  -0.00023042  1
  Te  Te55  1  0.49303149  0.75103049  0.49962853  1
  Te  Te56  1  0.00436299  0.00175711  0.24542667  1
  Te  Te57  1  0.00048931  0.00788868  0.75802568  1
  Te  Te58  1  0.00023902  0.49829604  0.24121188  1
  Te  Te59  1  0.00102298  0.49644021  0.75477476  1
  Te  Te60  1  0.49061655  0.00069875  0.24194221  1
  Te  Te61  1  0.49948589  0.00675886  0.75720953  1
  Te  Te62  1  0.50049594  0.49989688  0.25022311  1
  Te  Te63  1  0.49830241  0.49287655  0.75134628  1
