# generated using pymatgen
data_AgSbTe2
_symmetry_space_group_name_H-M   'P 1'
_cell_length_a   12.22456079
_cell_length_b   12.23148454
_cell_length_c   12.23501726
_cell_angle_alpha   89.99568559
_cell_angle_beta   89.99701677
_cell_angle_gamma   89.99134886
_symmetry_Int_Tables_number   1
_chemical_formula_structural   AgSbTe2
_chemical_formula_sum   'Ag16 Sb16 Te32'
_cell_volume   1829.43513111
_cell_formula_units_Z   16
loop_
 _symmetry_equiv_pos_site_id
 _symmetry_equiv_pos_as_xyz
  1  'x, y, z'
loop_
 _atom_site_type_symbol
 _atom_site_label
 _atom_site_symmetry_multiplicity
 _atom_site_fract_x
 _atom_site_fract_y
 _atom_site_fract_z
 _atom_site_occupancy
  Ag  Ag0  1  0.49607860  0.24516535  0.74582597  1
  Ag  Ag1  1  0.25874460  -0.00167250  0.74211557  1
  Ag  Ag2  1  0.25161837  0.50189079  0.25863773  1
  Ag  Ag3  1  0.74641801  0.74993515  0.50412763  1
  Ag  Ag4  1  0.49860242  -0.00163238  -0.00973561  1
  Ag  Ag5  1  0.49292170  -0.00185736  0.50769287  1
  Ag  Ag6  1  0.00133780  0.74934841  0.74931046  1
  Ag  Ag7  1  0.25426149  -0.00178408  0.25892596  1
  Ag  Ag8  1  0.00087468  0.50463880  -0.00144229  1
  Ag  Ag9  1  0.74146805  -0.00549479  0.74762017  1
  Ag  Ag10  1  0.25434541  0.74984026  0.50403368  1
  Ag  Ag11  1  0.74900754  0.50440254  0.25237396  1
  Ag  Ag12  1  0.75016829  0.74977256  -0.00478840  1
  Ag  Ag13  1  0.25282158  0.50287107  0.74103716  1
  Ag  Ag14  1  0.25575385  0.25016339  0.50382047  1
  Ag  Ag15  1  0.49265107  0.50278532  0.50268271  1
  Sb  Sb16  1  0.25070196  0.75021839  -0.00455458  1
  Sb  Sb17  1  0.49797219  0.75524358  0.74716775  1
  Sb  Sb18  1  0.00243839  0.25043998  0.74964337  1
  Sb  Sb19  1  0.74697839  0.24996725  -0.00239077  1
  Sb  Sb20  1  0.49796745  0.74916393  0.25243093  1
  Sb  Sb21  1  0.00267881  0.25222386  0.25036202  1
  Sb  Sb22  1  0.25253715  0.24978274  -0.00292277  1
  Sb  Sb23  1  0.00754362  -0.00311786  0.50226235  1
  Sb  Sb24  1  0.74763138  0.50650272  0.74742124  1
  Sb  Sb25  1  0.49758076  0.25025795  0.25408671  1
  Sb  Sb26  1  0.49942372  0.50196750  -0.00310517  1
  Sb  Sb27  1  0.00191733  0.74801387  0.24985320  1
  Sb  Sb28  1  0.00668599  0.50316011  0.50126100  1
  Sb  Sb29  1  0.74438919  0.25039862  0.50303525  1
  Sb  Sb30  1  0.00041902  -0.00319327  -0.00374991  1
  Sb  Sb31  1  0.74613741  -0.00349972  0.25329088  1
  Te  Te32  1  0.25013053  0.25175369  0.25539967  1
  Te  Te33  1  0.25195145  0.24900895  0.74714617  1
  Te  Te34  1  0.24802716  0.74821964  0.25530972  1
  Te  Te35  1  0.24687025  0.74936787  0.74808735  1
  Te  Te36  1  0.75079667  0.25861292  0.25037738  1
  Te  Te37  1  0.74700899  0.24034503  0.74927954  1
  Te  Te38  1  0.75203809  0.74545921  0.25368816  1
  Te  Te39  1  0.75434496  0.75284020  0.74700864  1
  Te  Te40  1  0.25275288  -0.00123310  -0.00129401  1
  Te  Te41  1  0.25173035  -0.00409836  0.50174422  1
  Te  Te42  1  0.24997483  0.50112521  0.00196211  1
  Te  Te43  1  0.25132550  0.50432271  0.50041862  1
  Te  Te44  1  0.74828541  -0.00375821  0.00096979  1
  Te  Te45  1  0.74519588  -0.00214446  0.49909717  1
  Te  Te46  1  0.74971210  0.50387635  0.00148440  1
  Te  Te47  1  0.74571773  0.50189138  0.49841789  1
  Te  Te48  1  -0.00046762  0.26004347  0.00012875  1
  Te  Te49  1  0.00959443  0.24975356  0.50014564  1
  Te  Te50  1  -0.00441015  0.74614302  -0.00494014  1
  Te  Te51  1  -0.00232552  0.75019224  0.50585286  1
  Te  Te52  1  0.50025856  0.24277292  -0.00828725  1
  Te  Te53  1  0.49571618  0.25000071  0.50369395  1
  Te  Te54  1  0.50665285  0.75557160  0.00075771  1
  Te  Te55  1  0.49935924  0.74854284  0.49995336  1
  Te  Te56  1  0.00891975  0.00054263  0.24789359  1
  Te  Te57  1  0.00036444  -0.00300543  0.75137840  1
  Te  Te58  1  0.00261141  0.50014019  0.24551532  1
  Te  Te59  1  0.00304604  0.50240769  0.75282549  1
  Te  Te60  1  0.49419108  0.00137137  0.25235412  1
  Te  Te61  1  0.49824663  0.00044410  0.74752132  1
  Te  Te62  1  0.49638773  0.49891592  0.25188714  1
  Te  Te63  1  0.49591599  0.49467194  0.74789333  1
