# generated using pymatgen
data_AgSbTe2
_symmetry_space_group_name_H-M   'P 1'
_cell_length_a   12.20907712
_cell_length_b   12.21097218
_cell_length_c   12.21188861
_cell_angle_alpha   89.99729032
_cell_angle_beta   89.99619843
_cell_angle_gamma   89.98671749
_symmetry_Int_Tables_number   1
_chemical_formula_structural   AgSbTe2
_chemical_formula_sum   'Ag16 Sb16 Te32'
_cell_volume   1820.60570748
_cell_formula_units_Z   16
loop_
 _symmetry_equiv_pos_site_id
 _symmetry_equiv_pos_as_xyz
  1  'x, y, z'
loop_
 _atom_site_type_symbol
 _atom_site_label
 _atom_site_symmetry_multiplicity
 _atom_site_fract_x
 _atom_site_fract_y
 _atom_site_fract_z
 _atom_site_occupancy
  Ag  Ag0  1  0.75431828  0.50581102  0.74722674  1
  Ag  Ag1  1  0.49348103  0.24669442  0.25242187  1
  Ag  Ag2  1  0.74996183  0.74996115  0.50580362  1
  Ag  Ag3  1  0.49690124  0.00002407  0.49866620  1
  Ag  Ag4  1  0.24430063  0.49633301  0.74603806  1
  Ag  Ag5  1  0.00304849  0.49996498  0.50681994  1
  Ag  Ag6  1  -0.00248231  0.74465019  0.74745900  1
  Ag  Ag7  1  0.25046574  0.00365025  0.74652764  1
  Ag  Ag8  1  0.25365518  0.00626944  0.25408462  1
  Ag  Ag9  1  0.25006298  0.24993812  0.50080734  1
  Ag  Ag10  1  0.50211914  0.75003344  0.74756386  1
  Ag  Ag11  1  0.74997565  0.75003529  -0.00626099  1
  Ag  Ag12  1  0.25006760  0.49373247  0.25339841  1
  Ag  Ag13  1  0.74694835  -0.00037828  0.25280659  1
  Ag  Ag14  1  0.00642222  0.25460193  0.74742516  1
  Ag  Ag15  1  0.24995169  0.25003580  -0.00085934  1
  Sb  Sb16  1  0.00008526  0.74839919  0.25291716  1
  Sb  Sb17  1  0.00786519  0.25139450  0.25286928  1
  Sb  Sb18  1  0.24979074  0.74992156  -0.00472360  1
  Sb  Sb19  1  0.74824704  -0.00679099  0.74729032  1
  Sb  Sb20  1  0.00312949  -0.00000685  0.50253692  1
  Sb  Sb21  1  0.75021328  0.24917788  -0.00245003  1
  Sb  Sb22  1  0.49986863  0.75340276  0.25313819  1
  Sb  Sb23  1  0.00099932  0.49996059  -0.00888913  1
  Sb  Sb24  1  0.49656430  0.50009377  0.50192469  1
  Sb  Sb25  1  0.49908366  0.50008527  -0.00143925  1
  Sb  Sb26  1  0.00067148  -0.00008277  -0.00170253  1
  Sb  Sb27  1  0.49252860  0.24878393  0.74751434  1
  Sb  Sb28  1  0.75009126  0.24919982  0.50164836  1
  Sb  Sb29  1  0.74998606  0.49969055  0.25264427  1
  Sb  Sb30  1  0.24984865  0.75009750  0.50404140  1
  Sb  Sb31  1  0.49884838  -0.00015157  0.00095735  1
  Te  Te32  1  0.25027157  0.24864728  0.25166312  1
  Te  Te33  1  0.25047535  0.25081962  0.74824860  1
  Te  Te34  1  0.25045155  0.75116769  0.24806232  1
  Te  Te35  1  0.24960729  0.74919203  0.75140869  1
  Te  Te36  1  0.74489957  0.24583755  0.24842029  1
  Te  Te37  1  0.75501877  0.25539207  0.75215350  1
  Te  Te38  1  0.74954295  0.75304218  0.25108055  1
  Te  Te39  1  0.75080513  0.75025197  0.74838528  1
  Te  Te40  1  0.25034596  0.00389147  0.00013674  1
  Te  Te41  1  0.25209532  0.00057415  0.49970868  1
  Te  Te42  1  0.24980485  0.49604748  -0.00011921  1
  Te  Te43  1  0.24817797  0.49942987  0.50207621  1
  Te  Te44  1  0.74980839  -0.00411984  0.00616083  1
  Te  Te45  1  0.74667145  -0.00216173  0.49653675  1
  Te  Te46  1  0.75009548  0.50521204  -0.00352336  1
  Te  Te47  1  0.75325152  0.50294725  0.50277817  1
  Te  Te48  1  0.00615934  0.24973261  -0.00711452  1
  Te  Te49  1  0.00410322  0.25391238  0.50474783  1
  Te  Te50  1  -0.00589653  0.75021170  -0.00742969  1
  Te  Te51  1  -0.00445243  0.74631962  0.50479760  1
  Te  Te52  1  0.49387858  0.24998686  0.00597639  1
  Te  Te53  1  0.49592416  0.24520530  0.49675267  1
  Te  Te54  1  0.50576892  0.75005543  -0.00747632  1
  Te  Te55  1  0.50451335  0.75421379  0.50423323  1
  Te  Te56  1  0.00194172  -0.00001896  0.25092057  1
  Te  Te57  1  0.00535631  -0.00021030  0.74839339  1
  Te  Te58  1  0.00532433  0.50008996  0.25894210  1
  Te  Te59  1  0.00235502  0.50127422  0.74714740  1
  Te  Te60  1  0.49647709  0.00134125  0.25365139  1
  Te  Te61  1  0.49626965  -0.00239729  0.74538093  1
  Te  Te62  1  0.49433140  0.49565922  0.25134424  1
  Te  Te63  1  0.49960369  0.50392069  0.74834916  1
