# generated using pymatgen
data_AgSbTe2
_symmetry_space_group_name_H-M   'P 1'
_cell_length_a   12.21657878
_cell_length_b   12.21975239
_cell_length_c   12.21635999
_cell_angle_alpha   89.99716129
_cell_angle_beta   89.99815546
_cell_angle_gamma   90.01100434
_symmetry_Int_Tables_number   1
_chemical_formula_structural   AgSbTe2
_chemical_formula_sum   'Ag16 Sb16 Te32'
_cell_volume   1823.70176892
_cell_formula_units_Z   16
loop_
 _symmetry_equiv_pos_site_id
 _symmetry_equiv_pos_as_xyz
  1  'x, y, z'
loop_
 _atom_site_type_symbol
 _atom_site_label
 _atom_site_symmetry_multiplicity
 _atom_site_fract_x
 _atom_site_fract_y
 _atom_site_fract_z
 _atom_site_occupancy
  Ag  Ag0  1  0.24454775  0.50320404  0.24464759  1
  Ag  Ag1  1  0.75132570  0.25436996  -0.00196139  1
  Ag  Ag2  1  0.50326957  0.25132697  0.75564427  1
  Ag  Ag3  1  0.49770203  -0.00071005  -0.00146147  1
  Ag  Ag4  1  -0.00185481  0.49919840  0.49682342  1
  Ag  Ag5  1  -0.00014764  0.50383063  0.00388799  1
  Ag  Ag6  1  0.50085557  0.50061859  0.00074118  1
  Ag  Ag7  1  0.49650270  0.74647844  0.24242041  1
  Ag  Ag8  1  -0.00075278  0.25692042  0.24508417  1
  Ag  Ag9  1  0.75250710  0.25446153  0.50217642  1
  Ag  Ag10  1  0.75252513  0.49652018  0.75458454  1
  Ag  Ag11  1  0.00375796  0.74283509  0.24139326  1
  Ag  Ag12  1  0.00154686  0.74694879  0.75906345  1
  Ag  Ag13  1  0.24520013  0.74892376  0.00228990  1
  Ag  Ag14  1  0.24871382  -0.00091937  0.75725433  1
  Ag  Ag15  1  0.00253221  -0.00430826  -0.00067438  1
  Sb  Sb16  1  0.49838538  0.74930610  0.75828161  1
  Sb  Sb17  1  0.75271628  0.74509497  0.50160083  1
  Sb  Sb18  1  -0.00313496  0.25278931  0.75490176  1
  Sb  Sb19  1  -0.00017051  0.00119803  0.50112074  1
  Sb  Sb20  1  0.75630349  0.74501148  -0.00066131  1
  Sb  Sb21  1  0.24762437  0.50097615  0.75569626  1
  Sb  Sb22  1  0.24718548  0.25276002  0.50037764  1
  Sb  Sb23  1  0.24879307  -0.00351816  0.24317825  1
  Sb  Sb24  1  0.50002846  0.00159801  0.50146346  1
  Sb  Sb25  1  0.75116831  0.00298242  0.75421877  1
  Sb  Sb26  1  0.75726542  0.49890106  0.24528821  1
  Sb  Sb27  1  0.24838791  0.74783401  0.49754729  1
  Sb  Sb28  1  0.50247622  0.49810522  0.49844412  1
  Sb  Sb29  1  0.24833053  0.25100986  -0.00017590  1
  Sb  Sb30  1  0.75089842  0.00065460  0.24592090  1
  Sb  Sb31  1  0.50075322  0.25284387  0.24423777  1
  Te  Te32  1  0.24429087  0.25517940  0.25106144  1
  Te  Te33  1  0.25645763  0.24614737  0.74930192  1
  Te  Te34  1  0.24683000  0.74736847  0.24590113  1
  Te  Te35  1  0.24624275  0.75227727  0.75472996  1
  Te  Te36  1  0.75408651  0.24981158  0.24798783  1
  Te  Te37  1  0.74788482  0.25314261  0.75341338  1
  Te  Te38  1  0.75137275  0.75028314  0.25119819  1
  Te  Te39  1  0.75556010  0.74359716  0.74847752  1
  Te  Te40  1  0.24877793  -0.00293432  -0.00288870  1
  Te  Te41  1  0.25007870  0.00029843  0.51028574  1
  Te  Te42  1  0.24880731  0.50273887  0.00251036  1
  Te  Te43  1  0.24355309  0.49988330  0.49329708  1
  Te  Te44  1  0.75022153  0.00820524  -0.00098266  1
  Te  Te45  1  0.75002772  0.01036091  0.50136539  1
  Te  Te46  1  0.75015288  0.49571906  -0.00373077  1
  Te  Te47  1  0.75407764  0.49498913  0.50652418  1
  Te  Te48  1  -0.00176569  0.25114417  0.00140463  1
  Te  Te49  1  -0.00389253  0.25300839  0.49656714  1
  Te  Te50  1  -0.00067855  0.74913753  0.00101110  1
  Te  Te51  1  -0.00101558  0.74592655  0.49800114  1
  Te  Te52  1  0.50193138  0.25119522  -0.00144968  1
  Te  Te53  1  0.50632391  0.24983315  0.50447014  1
  Te  Te54  1  0.49829204  0.74909981  0.00271182  1
  Te  Te55  1  0.50080818  0.75049330  0.48978701  1
  Te  Te56  1  0.00134412  -0.00116673  0.24494887  1
  Te  Te57  1  0.00216817  -0.00306297  0.75364518  1
  Te  Te58  1  -0.00044213  0.50110206  0.24627405  1
  Te  Te59  1  0.00002699  0.50138179  0.75271342  1
  Te  Te60  1  0.49854355  -0.00381795  0.24314875  1
  Te  Te61  1  0.49760532  0.00093717  0.75511815  1
  Te  Te62  1  0.49587368  0.50233192  0.24643961  1
  Te  Te63  1  0.50121252  0.49814289  0.75340258  1
