# generated using pymatgen
data_AgSbTe2
_symmetry_space_group_name_H-M   'P 1'
_cell_length_a   12.31877672
_cell_length_b   12.32426201
_cell_length_c   12.31891388
_cell_angle_alpha   89.99971085
_cell_angle_beta   90.00250795
_cell_angle_gamma   89.99324828
_symmetry_Int_Tables_number   1
_chemical_formula_structural   AgSbTe2
_chemical_formula_sum   'Ag16 Sb16 Te32'
_cell_volume   1870.25542138
_cell_formula_units_Z   16
loop_
 _symmetry_equiv_pos_site_id
 _symmetry_equiv_pos_as_xyz
  1  'x, y, z'
loop_
 _atom_site_type_symbol
 _atom_site_label
 _atom_site_symmetry_multiplicity
 _atom_site_fract_x
 _atom_site_fract_y
 _atom_site_fract_z
 _atom_site_occupancy
  Ag  Ag0  1  0.51606996  0.73823909  0.73786866  1
  Ag  Ag1  1  0.25977435  0.50855022  0.74105876  1
  Ag  Ag2  1  0.51035183  0.74279855  0.26308017  1
  Ag  Ag3  1  0.74797046  0.74630163  -0.01824372  1
  Ag  Ag4  1  0.74694256  0.51250498  0.25961812  1
  Ag  Ag5  1  -0.02100429  0.74123747  0.74306111  1
  Ag  Ag6  1  0.74970138  0.25601610  -0.00410155  1
  Ag  Ag7  1  0.74953253  -0.01434322  0.25057838  1
  Ag  Ag8  1  0.51092987  0.50809149  0.50765740  1
  Ag  Ag9  1  -0.01378163  0.50623116  0.50448912  1
  Ag  Ag10  1  0.74458911  0.74108222  0.51845841  1
  Ag  Ag11  1  0.51154882  0.26563635  0.74661080  1
  Ag  Ag12  1  0.25858957  0.74245802  0.50763822  1
  Ag  Ag13  1  -0.01226046  0.25610909  0.25281794  1
  Ag  Ag14  1  0.74456464  0.51690030  0.73757135  1
  Ag  Ag15  1  0.74747630  -0.02099693  0.74934440  1
  Sb  Sb16  1  0.50802829  0.25761223  0.25325868  1
  Sb  Sb17  1  0.50438785  -0.00149905  -0.00080605  1
  Sb  Sb18  1  0.25029541  -0.00501914  0.25459415  1
  Sb  Sb19  1  0.25142244  0.50330049  0.25835258  1
  Sb  Sb20  1  0.25336774  0.74752375  -0.00359007  1
  Sb  Sb21  1  -0.00845447  0.25584342  0.75001994  1
  Sb  Sb22  1  0.74920826  0.25756326  0.50265672  1
  Sb  Sb23  1  0.50444363  -0.00991969  0.50036573  1
  Sb  Sb24  1  0.25084084  0.25479621  -0.00293894  1
  Sb  Sb25  1  -0.01277911  0.74691027  0.25543044  1
  Sb  Sb26  1  0.25392449  -0.00528509  0.74681881  1
  Sb  Sb27  1  0.25074009  0.25897178  0.50254270  1
  Sb  Sb28  1  0.50514971  0.50088029  -0.00791162  1
  Sb  Sb29  1  -0.00641876  -0.00173054  -0.00013796  1
  Sb  Sb30  1  -0.00497550  0.50250614  -0.00294274  1
  Sb  Sb31  1  -0.00553649  -0.00615674  0.50162698  1
  Te  Te32  1  0.24357840  0.24809971  0.24815559  1
  Te  Te33  1  0.25666305  0.24975231  0.75061589  1
  Te  Te34  1  0.26141267  0.75119926  0.24793797  1
  Te  Te35  1  0.25699377  0.74806584  0.74909299  1
  Te  Te36  1  0.75022498  0.25281758  0.24934166  1
  Te  Te37  1  0.74674282  0.25167986  0.75122264  1
  Te  Te38  1  0.74959672  0.74676388  0.24793577  1
  Te  Te39  1  0.75035466  0.75085130  0.75237176  1
  Te  Te40  1  0.24880705  0.00226153  0.00212852  1
  Te  Te41  1  0.24912466  -0.01368168  0.49850023  1
  Te  Te42  1  0.24859833  0.49884343  -0.01450531  1
  Te  Te43  1  0.25044520  0.50380357  0.50424805  1
  Te  Te44  1  0.74889319  -0.00486726  -0.00045215  1
  Te  Te45  1  0.74933548  -0.01097576  0.50037916  1
  Te  Te46  1  0.74828344  0.50245679  0.00501112  1
  Te  Te47  1  0.75003922  0.50174161  0.49893824  1
  Te  Te48  1  -0.00543978  0.24982699  0.00270633  1
  Te  Te49  1  0.00142917  0.25931828  0.49796064  1
  Te  Te50  1  -0.00249233  0.74946405  -0.00793059  1
  Te  Te51  1  -0.00546394  0.74679917  0.50195495  1
  Te  Te52  1  0.50499856  0.24971477  -0.00396917  1
  Te  Te53  1  0.49797022  0.26121494  0.50418416  1
  Te  Te54  1  0.50313606  0.74942888  0.00049799  1
  Te  Te55  1  0.50492976  0.74762348  0.50118692  1
  Te  Te56  1  -0.00577530  0.00416854  0.25050751  1
  Te  Te57  1  -0.00380462  -0.00205967  0.74902913  1
  Te  Te58  1  0.00072606  0.50017220  0.25456514  1
  Te  Te59  1  -0.00937827  0.50137185  0.74823944  1
  Te  Te60  1  0.50546908  -0.00154365  0.25076810  1
  Te  Te61  1  0.50359056  -0.00163461  0.74922611  1
  Te  Te62  1  0.50000320  0.50212638  0.25602381  1
  Te  Te63  1  0.50636846  0.50208232  0.74928044  1
