# generated using pymatgen
data_AgSbTe2
_symmetry_space_group_name_H-M   'P 1'
_cell_length_a   12.31056852
_cell_length_b   12.30430441
_cell_length_c   12.27939537
_cell_angle_alpha   90.00159850
_cell_angle_beta   90.01148814
_cell_angle_gamma   89.99610567
_symmetry_Int_Tables_number   1
_chemical_formula_structural   AgSbTe2
_chemical_formula_sum   'Ag16 Sb16 Te32'
_cell_volume   1859.99659709
_cell_formula_units_Z   16
loop_
 _symmetry_equiv_pos_site_id
 _symmetry_equiv_pos_as_xyz
  1  'x, y, z'
loop_
 _atom_site_type_symbol
 _atom_site_label
 _atom_site_symmetry_multiplicity
 _atom_site_fract_x
 _atom_site_fract_y
 _atom_site_fract_z
 _atom_site_occupancy
  Ag  Ag0  1  0.50045874  0.75302818  0.75180081  1
  Ag  Ag1  1  0.77028024  0.01505175  0.25027871  1
  Ag  Ag2  1  -0.00115637  0.77194278  0.25245296  1
  Ag  Ag3  1  0.23775279  0.48988427  0.25305264  1
  Ag  Ag4  1  0.23934299  0.24576249  0.48926938  1
  Ag  Ag5  1  0.50506772  0.00282052  0.01160784  1
  Ag  Ag6  1  -0.00176839  0.01258398  0.48199732  1
  Ag  Ag7  1  -0.00733940  0.00555952  0.02242426  1
  Ag  Ag8  1  0.50430927  0.49576984  0.00799053  1
  Ag  Ag9  1  0.22924304  0.00871433  0.25439158  1
  Ag  Ag10  1  0.76009609  0.24546564  0.48451674  1
  Ag  Ag11  1  0.76100004  0.48460684  0.25151462  1
  Ag  Ag12  1  0.75230124  0.24401520  0.01650341  1
  Ag  Ag13  1  0.50235129  0.00411053  0.48586506  1
  Ag  Ag14  1  -0.00156314  0.48669376  0.49009585  1
  Ag  Ag15  1  -0.00766440  0.23351629  0.25941792  1
  Sb  Sb16  1  0.50161017  0.49597063  0.49298536  1
  Sb  Sb17  1  0.74969232  0.00256368  0.74906674  1
  Sb  Sb18  1  -0.00507283  0.49351197  0.01489518  1
  Sb  Sb19  1  0.75017815  0.75606396  0.00418446  1
  Sb  Sb20  1  0.74980980  0.49710059  0.74897812  1
  Sb  Sb21  1  -0.00037576  0.75099453  0.74846481  1
  Sb  Sb22  1  0.25008514  0.75104454  0.00392785  1
  Sb  Sb23  1  0.24909192  0.75379977  0.49605068  1
  Sb  Sb24  1  0.50025286  0.24948937  0.75092874  1
  Sb  Sb25  1  -0.00102505  0.24946939  0.74393479  1
  Sb  Sb26  1  0.25138175  0.49783541  0.74632593  1
  Sb  Sb27  1  0.50753146  0.24466028  0.25004233  1
  Sb  Sb28  1  0.24638748  0.24827150  0.01301257  1
  Sb  Sb29  1  0.75101053  0.75605715  0.49617794  1
  Sb  Sb30  1  0.50098501  0.75434215  0.24995638  1
  Sb  Sb31  1  0.25042271  0.00173248  0.74525448  1
  Te  Te32  1  0.24484863  0.24859799  0.25487307  1
  Te  Te33  1  0.24899621  0.25117499  0.72987488  1
  Te  Te34  1  0.24031629  0.74984183  0.25041713  1
  Te  Te35  1  0.25717898  0.74889481  0.75004263  1
  Te  Te36  1  0.75001409  0.24800538  0.25058215  1
  Te  Te37  1  0.75140915  0.25117660  0.75029572  1
  Te  Te38  1  0.75813786  0.74830983  0.25039555  1
  Te  Te39  1  0.74291094  0.74829364  0.74986694  1
  Te  Te40  1  0.25569829  0.00241785  0.00636984  1
  Te  Te41  1  0.25015610  0.00137237  0.49590619  1
  Te  Te42  1  0.25512062  0.49744639  0.00654961  1
  Te  Te43  1  0.25405808  0.49604834  0.49373035  1
  Te  Te44  1  0.74701330  0.00267122  0.00095177  1
  Te  Te45  1  0.74973214  0.00235361  0.49899700  1
  Te  Te46  1  0.74927938  0.49403002  0.00336107  1
  Te  Te47  1  0.74662712  0.49362968  0.49583075  1
  Te  Te48  1  -0.00282997  0.24577442  -0.00004673  1
  Te  Te49  1  -0.00439125  0.24752595  0.49902682  1
  Te  Te50  1  0.00005746  0.75978580  0.00021316  1
  Te  Te51  1  -0.00066606  0.75329478  0.49901322  1
  Te  Te52  1  0.50437589  0.24440580  0.00130693  1
  Te  Te53  1  0.50492076  0.24434466  0.49914884  1
  Te  Te54  1  0.49980184  0.75696219  0.00159059  1
  Te  Te55  1  0.50067386  0.75819576  0.50023390  1
  Te  Te56  1  -0.00056155  0.00054360  0.25019612  1
  Te  Te57  1  0.00173244  -0.00173102  0.74913234  1
  Te  Te58  1  -0.00111556  0.49536638  0.25168382  1
  Te  Te59  1  0.00153549  0.50352100  0.73327923  1
  Te  Te60  1  0.50050427  -0.00119815  0.24953539  1
  Te  Te61  1  0.49904840  -0.00111738  0.75537742  1
  Te  Te62  1  0.50133830  0.50495381  0.24614820  1
  Te  Te63  1  0.49940108  0.50267457  0.75875014  1
