# generated using pymatgen
data_AgSbTe2
_symmetry_space_group_name_H-M   'P 1'
_cell_length_a   12.21067727
_cell_length_b   12.21133885
_cell_length_c   12.20909409
_cell_angle_alpha   90.00088548
_cell_angle_beta   89.99658431
_cell_angle_gamma   89.99582389
_symmetry_Int_Tables_number   1
_chemical_formula_structural   AgSbTe2
_chemical_formula_sum   'Ag16 Sb16 Te32'
_cell_volume   1820.48235598
_cell_formula_units_Z   16
loop_
 _symmetry_equiv_pos_site_id
 _symmetry_equiv_pos_as_xyz
  1  'x, y, z'
loop_
 _atom_site_type_symbol
 _atom_site_label
 _atom_site_symmetry_multiplicity
 _atom_site_fract_x
 _atom_site_fract_y
 _atom_site_fract_z
 _atom_site_occupancy
  Ag  Ag0  1  0.50148958  0.00009154  0.49575669  1
  Ag  Ag1  1  0.50358417  0.74533392  0.74830431  1
  Ag  Ag2  1  0.25108120  0.50112231  0.74815567  1
  Ag  Ag3  1  0.74994567  0.74400346  -0.00017778  1
  Ag  Ag4  1  0.74807876  0.25312682  0.49445881  1
  Ag  Ag5  1  -0.00698490  0.50020418  -0.00131422  1
  Ag  Ag6  1  0.74909480  0.49603125  0.24756553  1
  Ag  Ag7  1  0.75186363  0.25640807  0.00602327  1
  Ag  Ag8  1  0.74702074  0.00347707  0.25154724  1
  Ag  Ag9  1  0.25306210  0.00163798  0.25361054  1
  Ag  Ag10  1  0.50357834  0.49987769  0.50135733  1
  Ag  Ag11  1  -0.00397808  0.74447179  0.75184913  1
  Ag  Ag12  1  -0.00613917  0.25143736  0.25027829  1
  Ag  Ag13  1  0.25232264  0.25093913  0.49753777  1
  Ag  Ag14  1  0.50467696  0.75087445  0.25189386  1
  Ag  Ag15  1  0.74929240  0.50299722  0.75255842  1
  Sb  Sb16  1  0.24773013  0.25336295  0.00308507  1
  Sb  Sb17  1  0.25336616  -0.00018864  0.74585114  1
  Sb  Sb18  1  -0.00558575  0.74804027  0.24770852  1
  Sb  Sb19  1  0.25359313  0.74867249  0.49987019  1
  Sb  Sb20  1  0.50814014  0.24920271  0.25400448  1
  Sb  Sb21  1  0.74572433  0.74632905  0.49983122  1
  Sb  Sb22  1  0.74731827  -0.00298298  0.74727831  1
  Sb  Sb23  1  -0.00399096  0.49795474  0.50158696  1
  Sb  Sb24  1  -0.00266506  0.00007076  0.00129044  1
  Sb  Sb25  1  -0.00249536  0.25528808  0.75103729  1
  Sb  Sb26  1  -0.00258576  0.00205242  0.49830630  1
  Sb  Sb27  1  0.50871318  0.50175623  -0.00076033  1
  Sb  Sb28  1  0.24969774  0.74757820  0.00022585  1
  Sb  Sb29  1  0.50141009  0.25638060  0.74577723  1
  Sb  Sb30  1  0.50234670  -0.00212058  0.00539056  1
  Sb  Sb31  1  0.25204398  0.49768951  0.25259046  1
  Te  Te32  1  0.24496297  0.24798035  0.25323410  1
  Te  Te33  1  0.24912201  0.25459252  0.74509195  1
  Te  Te34  1  0.25447059  0.75457941  0.24932690  1
  Te  Te35  1  0.25231390  0.74527207  0.75047611  1
  Te  Te36  1  0.75030622  0.25137685  0.25103450  1
  Te  Te37  1  0.75160928  0.25392115  0.74892990  1
  Te  Te38  1  0.74878755  0.74949987  0.24829082  1
  Te  Te39  1  0.74792704  0.74765623  0.75178662  1
  Te  Te40  1  0.25018891  0.00118811  0.00818607  1
  Te  Te41  1  0.25465361  0.00581193  0.49537206  1
  Te  Te42  1  0.24202992  0.49858109  -0.00583722  1
  Te  Te43  1  0.25496527  0.49512846  0.50329066  1
  Te  Te44  1  0.74978746  0.00025526  0.00554014  1
  Te  Te45  1  0.74605720  0.00625217  0.49591347  1
  Te  Te46  1  0.75113486  0.50023482  0.00007259  1
  Te  Te47  1  0.74664584  0.49661384  0.49992531  1
  Te  Te48  1  -0.00490756  0.25423725  0.00364485  1
  Te  Te49  1  -0.00135762  0.25041636  0.49555105  1
  Te  Te50  1  -0.00547782  0.74516584  -0.00318980  1
  Te  Te51  1  0.00095929  0.75016710  0.50693508  1
  Te  Te52  1  0.50776550  0.24931991  -0.00201473  1
  Te  Te53  1  0.50104492  0.25073353  0.50009384  1
  Te  Te54  1  0.50572186  0.74978935  -0.00018790  1
  Te  Te55  1  0.50063072  0.74924597  0.49958976  1
  Te  Te56  1  -0.00202935  0.00280789  0.25031561  1
  Te  Te57  1  0.00108143  -0.00969213  0.74997201  1
  Te  Te58  1  -0.00339078  0.49803106  0.24723215  1
  Te  Te59  1  -0.00259465  0.50326271  0.75151707  1
  Te  Te60  1  0.50267598  -0.00337250  0.25418306  1
  Te  Te61  1  0.49901656  -0.00990870  0.74222877  1
  Te  Te62  1  0.50296482  0.50514475  0.25377458  1
  Te  Te63  1  0.50218427  0.50458748  0.74724208  1
