# generated using pymatgen
data_AgSbTe2
_symmetry_space_group_name_H-M   'P 1'
_cell_length_a   12.31069967
_cell_length_b   12.30559602
_cell_length_c   12.31265708
_cell_angle_alpha   90.00220031
_cell_angle_beta   90.00119341
_cell_angle_gamma   89.99770753
_symmetry_Int_Tables_number   1
_chemical_formula_structural   AgSbTe2
_chemical_formula_sum   'Ag16 Sb16 Te32'
_cell_volume   1865.25053629
_cell_formula_units_Z   16
loop_
 _symmetry_equiv_pos_site_id
 _symmetry_equiv_pos_as_xyz
  1  'x, y, z'
loop_
 _atom_site_type_symbol
 _atom_site_label
 _atom_site_symmetry_multiplicity
 _atom_site_fract_x
 _atom_site_fract_y
 _atom_site_fract_z
 _atom_site_occupancy
  Ag  Ag0  1  0.00706835  0.76178821  0.74473362  1
  Ag  Ag1  1  0.49662308  -0.00982806  -0.01842180  1
  Ag  Ag2  1  0.25330027  -0.00785037  0.26113496  1
  Ag  Ag3  1  0.49397587  0.76188454  0.75035453  1
  Ag  Ag4  1  0.00197974  0.24554002  0.25070355  1
  Ag  Ag5  1  -0.00415569  0.50659765  0.00698202  1
  Ag  Ag6  1  0.00655154  0.75363545  0.25323301  1
  Ag  Ag7  1  0.01247854  -0.00832991  0.50020289  1
  Ag  Ag8  1  0.49834792  0.22691835  0.75210236  1
  Ag  Ag9  1  0.48752601  -0.00801329  0.51731087  1
  Ag  Ag10  1  0.72992809  -0.00353163  0.74755102  1
  Ag  Ag11  1  0.50077934  0.50933634  0.00029448  1
  Ag  Ag12  1  0.25065356  0.75779203  0.49930417  1
  Ag  Ag13  1  0.26535016  -0.00712923  0.73858518  1
  Ag  Ag14  1  0.49255776  0.76180901  0.24867786  1
  Ag  Ag15  1  0.75305626  0.50533856  0.24483475  1
  Sb  Sb16  1  0.74883989  0.75227101  0.50007403  1
  Sb  Sb17  1  0.00110820  0.24188924  0.75024973  1
  Sb  Sb18  1  0.00234146  -0.00396796  0.00032793  1
  Sb  Sb19  1  0.25039196  0.24096857  0.49916920  1
  Sb  Sb20  1  0.25101164  0.24824442  0.00003681  1
  Sb  Sb21  1  0.25016252  0.50751139  0.24962615  1
  Sb  Sb22  1  0.49783132  0.24507962  0.24986564  1
  Sb  Sb23  1  0.00066186  0.50763635  0.49962811  1
  Sb  Sb24  1  0.74978785  0.24603753  0.49955484  1
  Sb  Sb25  1  0.74903995  0.24935451  0.00018074  1
  Sb  Sb26  1  0.49970731  0.50695057  0.50153644  1
  Sb  Sb27  1  0.74721937  -0.00039066  0.25071716  1
  Sb  Sb28  1  0.25109860  0.75112380  0.00014372  1
  Sb  Sb29  1  0.25123748  0.50778968  0.75014800  1
  Sb  Sb30  1  0.74819736  0.50232832  0.75223360  1
  Sb  Sb31  1  0.74768326  0.75016803  0.00069604  1
  Te  Te32  1  0.24415021  0.23832112  0.25108503  1
  Te  Te33  1  0.25305540  0.24224737  0.74914311  1
  Te  Te34  1  0.25275462  0.75518872  0.24993332  1
  Te  Te35  1  0.24891096  0.75230324  0.74936042  1
  Te  Te36  1  0.75763053  0.25363554  0.24957470  1
  Te  Te37  1  0.74701717  0.24672952  0.75032170  1
  Te  Te38  1  0.75003887  0.74679625  0.24963232  1
  Te  Te39  1  0.75060843  0.75228844  0.75089178  1
  Te  Te40  1  0.25404751  0.00085141  0.00203299  1
  Te  Te41  1  0.24823738  -0.00388699  0.49751252  1
  Te  Te42  1  0.25568811  0.49768491  -0.00142267  1
  Te  Te43  1  0.25038805  0.51529355  0.50158354  1
  Te  Te44  1  0.74200527  0.00046286  -0.00570257  1
  Te  Te45  1  0.75121897  0.00030522  0.50319200  1
  Te  Te46  1  0.74824453  0.49953662  0.00441914  1
  Te  Te47  1  0.74980228  0.49768280  0.48773489  1
  Te  Te48  1  -0.00033388  0.25867337  0.00480736  1
  Te  Te49  1  0.00047349  0.24331627  0.49661353  1
  Te  Te50  1  0.00003948  0.74565818  0.00240515  1
  Te  Te51  1  -0.00139756  0.75386729  0.50112084  1
  Te  Te52  1  0.50036760  0.25256135  -0.00122588  1
  Te  Te53  1  0.49901055  0.24521798  0.50253462  1
  Te  Te54  1  0.50053065  0.75015070  0.00302324  1
  Te  Te55  1  0.50130532  0.75212359  0.49764742  1
  Te  Te56  1  -0.00469661  -0.00898528  0.24412117  1
  Te  Te57  1  0.00497891  -0.00410319  0.75482414  1
  Te  Te58  1  0.00349464  0.51003362  0.24929545  1
  Te  Te59  1  -0.00072759  0.50335725  0.75164363  1
  Te  Te60  1  0.50329682  -0.00210604  0.25133973  1
  Te  Te61  1  0.50031169  -0.00088714  0.75000397  1
  Te  Te62  1  0.49678605  0.49761661  0.24845322  1
  Te  Te63  1  0.50042135  0.50911278  0.75232858  1
