# generated using pymatgen
data_AgSbTe2
_symmetry_space_group_name_H-M   'P 1'
_cell_length_a   12.33979536
_cell_length_b   12.32489157
_cell_length_c   12.30948719
_cell_angle_alpha   89.96920210
_cell_angle_beta   90.00278707
_cell_angle_gamma   90.00545446
_symmetry_Int_Tables_number   1
_chemical_formula_structural   AgSbTe2
_chemical_formula_sum   'Ag16 Sb16 Te32'
_cell_volume   1872.10826468
_cell_formula_units_Z   16
loop_
 _symmetry_equiv_pos_site_id
 _symmetry_equiv_pos_as_xyz
  1  'x, y, z'
loop_
 _atom_site_type_symbol
 _atom_site_label
 _atom_site_symmetry_multiplicity
 _atom_site_fract_x
 _atom_site_fract_y
 _atom_site_fract_z
 _atom_site_occupancy
  Ag  Ag0  1  0.00383975  0.23802915  0.76008379  1
  Ag  Ag1  1  0.48893576  0.00908626  -0.00427434  1
  Ag  Ag2  1  0.49011374  0.24587827  0.23543878  1
  Ag  Ag3  1  0.00556340  0.76528382  0.76202164  1
  Ag  Ag4  1  0.25739910  0.23493271  -0.00547839  1
  Ag  Ag5  1  0.24351450  0.01637417  0.75890785  1
  Ag  Ag6  1  0.76029116  0.01030794  0.75828220  1
  Ag  Ag7  1  0.25389983  0.49867308  0.24418044  1
  Ag  Ag8  1  0.48659335  0.75364216  0.23901474  1
  Ag  Ag9  1  0.25222333  0.24801949  0.51163402  1
  Ag  Ag10  1  0.01352902  0.75311697  0.23362273  1
  Ag  Ag11  1  0.75326474  0.48452744  0.75459030  1
  Ag  Ag12  1  0.74076151  0.24222195  -0.01154524  1
  Ag  Ag13  1  0.49496319  0.24061391  0.76298170  1
  Ag  Ag14  1  0.01316533  0.00078114  -0.00863574  1
  Ag  Ag15  1  0.24468611  0.76078893  0.00300643  1
  Sb  Sb16  1  0.00222906  0.50102330  -0.00319432  1
  Sb  Sb17  1  0.00221571  0.49908485  0.50205487  1
  Sb  Sb18  1  0.49841836  0.49851872  0.49906537  1
  Sb  Sb19  1  0.25019112  0.49518605  0.75288749  1
  Sb  Sb20  1  0.49902507  0.00190753  0.50329768  1
  Sb  Sb21  1  0.00079060  0.00205263  0.50649154  1
  Sb  Sb22  1  0.74809185  0.24940191  0.50722847  1
  Sb  Sb23  1  0.00427789  0.24687527  0.24142236  1
  Sb  Sb24  1  0.49849153  0.49361522  -0.00038670  1
  Sb  Sb25  1  0.24942867  0.75365542  0.50003246  1
  Sb  Sb26  1  0.75000580  0.49813395  0.24624526  1
  Sb  Sb27  1  0.75063362  0.75393269  -0.00209211  1
  Sb  Sb28  1  0.25202931  0.00039426  0.24505921  1
  Sb  Sb29  1  0.74814992  0.00076565  0.24421906  1
  Sb  Sb30  1  0.74919479  0.75083619  0.50280137  1
  Sb  Sb31  1  0.49948554  0.75361777  0.75780977  1
  Te  Te32  1  0.25080073  0.24611203  0.23939550  1
  Te  Te33  1  0.25153984  0.25366350  0.75557827  1
  Te  Te34  1  0.24870567  0.75412099  0.25045103  1
  Te  Te35  1  0.24629935  0.74115105  0.74938006  1
  Te  Te36  1  0.74567916  0.24947679  0.25180671  1
  Te  Te37  1  0.74999293  0.24861352  0.74965638  1
  Te  Te38  1  0.75111903  0.75067450  0.25142748  1
  Te  Te39  1  0.75101075  0.75285461  0.75018234  1
  Te  Te40  1  0.24936471  -0.00523612  0.00000875  1
  Te  Te41  1  0.24998344  0.00471950  0.51704253  1
  Te  Te42  1  0.25155912  0.51050447  0.00700496  1
  Te  Te43  1  0.25044923  0.49342690  0.48762375  1
  Te  Te44  1  0.74894686  0.00379828  -0.00082161  1
  Te  Te45  1  0.75040835  -0.00097299  0.51528033  1
  Te  Te46  1  0.74865758  0.48918133  -0.00518338  1
  Te  Te47  1  0.75099541  0.50149603  0.51319892  1
  Te  Te48  1  0.00434600  0.24969393  -0.00174605  1
  Te  Te49  1  0.00266496  0.24926533  0.50467695  1
  Te  Te50  1  -0.00058714  0.74864516  -0.00256945  1
  Te  Te51  1  -0.00057446  0.74963618  0.50006299  1
  Te  Te52  1  0.49741346  0.24951298  -0.00229302  1
  Te  Te53  1  0.49689022  0.25061542  0.49689682  1
  Te  Te54  1  0.49926826  0.75593250  0.00292964  1
  Te  Te55  1  0.50059315  0.74912481  0.48020560  1
  Te  Te56  1  -0.00094023  -0.00497619  0.24370926  1
  Te  Te57  1  0.00401041  0.00041491  0.75174384  1
  Te  Te58  1  0.00091590  0.50686210  0.25088117  1
  Te  Te59  1  -0.00057947  0.49972154  0.74886639  1
  Te  Te60  1  0.50098631  0.00419422  0.24687518  1
  Te  Te61  1  0.49378627  0.00020004  0.75199091  1
  Te  Te62  1  0.49831036  0.49817114  0.24966213  1
  Te  Te63  1  0.50258121  0.49812276  0.74930293  1
