# generated using pymatgen
data_AgSbTe2
_symmetry_space_group_name_H-M   'P 1'
_cell_length_a   12.23305340
_cell_length_b   12.22012521
_cell_length_c   12.21878457
_cell_angle_alpha   90.01260480
_cell_angle_beta   89.99534754
_cell_angle_gamma   90.00289511
_symmetry_Int_Tables_number   1
_chemical_formula_structural   AgSbTe2
_chemical_formula_sum   'Ag16 Sb16 Te32'
_cell_volume   1826.57926214
_cell_formula_units_Z   16
loop_
 _symmetry_equiv_pos_site_id
 _symmetry_equiv_pos_as_xyz
  1  'x, y, z'
loop_
 _atom_site_type_symbol
 _atom_site_label
 _atom_site_symmetry_multiplicity
 _atom_site_fract_x
 _atom_site_fract_y
 _atom_site_fract_z
 _atom_site_occupancy
  Ag  Ag0  1  0.00416480  0.74867108  0.25142188  1
  Ag  Ag1  1  0.00499127  0.00516379  0.49788417  1
  Ag  Ag2  1  0.75109968  0.00665351  0.74869941  1
  Ag  Ag3  1  0.24691019  0.49708963  0.24725762  1
  Ag  Ag4  1  0.75041090  0.25150923  0.00002951  1
  Ag  Ag5  1  0.49944541  0.49262467  0.00454707  1
  Ag  Ag6  1  0.24867221  0.00307699  0.25602867  1
  Ag  Ag7  1  0.75266730  0.49622332  0.24605937  1
  Ag  Ag8  1  0.00048393  0.49415978  0.00567668  1
  Ag  Ag9  1  0.75352248  0.24560268  0.50068819  1
  Ag  Ag10  1  0.24995595  0.25087722  0.00438860  1
  Ag  Ag11  1  0.24685331  0.24300024  0.49516431  1
  Ag  Ag12  1  0.49847462  0.00614725  0.00164888  1
  Ag  Ag13  1  -0.00206617  0.24815370  0.74920479  1
  Ag  Ag14  1  0.24751218  0.75723143  0.49336001  1
  Ag  Ag15  1  0.49484777  0.00381308  0.49854399  1
  Sb  Sb16  1  0.00235497  0.25143017  0.25057753  1
  Sb  Sb17  1  0.24848770  0.75034285  0.00530725  1
  Sb  Sb18  1  0.49812822  0.49620120  0.49621563  1
  Sb  Sb19  1  0.49613423  0.75080713  0.25100674  1
  Sb  Sb20  1  0.75157908  0.00434460  0.25079633  1
  Sb  Sb21  1  0.75157163  0.75346275  0.49614463  1
  Sb  Sb22  1  0.24919152  0.00352905  0.74504210  1
  Sb  Sb23  1  0.00106614  0.49562355  0.49517039  1
  Sb  Sb24  1  0.75092920  0.74871969  0.00264486  1
  Sb  Sb25  1  0.00141451  0.00642951  0.00150516  1
  Sb  Sb26  1  0.24838469  0.49619132  0.75374155  1
  Sb  Sb27  1  0.75279743  0.49363588  0.75256723  1
  Sb  Sb28  1  0.49963495  0.75295331  0.74922908  1
  Sb  Sb29  1  0.49728228  0.24905283  0.24737497  1
  Sb  Sb30  1  0.50247121  0.24795559  0.75215242  1
  Sb  Sb31  1  0.00004006  0.75159417  0.74917068  1
  Te  Te32  1  0.24966358  0.24937985  0.24965135  1
  Te  Te33  1  0.24237373  0.25041634  0.75033166  1
  Te  Te34  1  0.24637299  0.75036132  0.25403131  1
  Te  Te35  1  0.24880229  0.74865719  0.73824067  1
  Te  Te36  1  0.75037507  0.25520839  0.24905722  1
  Te  Te37  1  0.75467132  0.24634239  0.74967773  1
  Te  Te38  1  0.75792048  0.74119822  0.25061008  1
  Te  Te39  1  0.75067381  0.75982192  0.74943123  1
  Te  Te40  1  0.25295642  0.00254020  0.00242366  1
  Te  Te41  1  0.25017189  0.00520285  0.49959916  1
  Te  Te42  1  0.25066010  0.49813624  0.00416806  1
  Te  Te43  1  0.25226735  0.49507482  0.49354137  1
  Te  Te44  1  0.74728960  0.00525629  0.00080342  1
  Te  Te45  1  0.74957318  0.00421869  0.49798165  1
  Te  Te46  1  0.74943890  0.49601208  0.00240801  1
  Te  Te47  1  0.74766239  0.49416150  0.49645297  1
  Te  Te48  1  0.00032170  0.25185500  -0.00325988  1
  Te  Te49  1  0.00026928  0.24804150  0.50332281  1
  Te  Te50  1  0.00071181  0.74275637  0.00356628  1
  Te  Te51  1  0.00323319  0.75310416  0.49751606  1
  Te  Te52  1  0.49904781  0.24823027  -0.00167673  1
  Te  Te53  1  0.49908160  0.24476270  0.50223407  1
  Te  Te54  1  0.49951492  0.75342013  -0.00045766  1
  Te  Te55  1  0.49541793  0.75649265  0.50029446  1
  Te  Te56  1  0.00342494  -0.00604884  0.25310932  1
  Te  Te57  1  -0.00438073  0.00305014  0.74704232  1
  Te  Te58  1  0.00273063  0.50360387  0.24763904  1
  Te  Te59  1  -0.00081862  0.49557804  0.75753600  1
  Te  Te60  1  0.49580396  -0.00135668  0.24943449  1
  Te  Te61  1  0.50563734  -0.00078563  0.75098929  1
  Te  Te62  1  0.49885169  0.50156338  0.24431908  1
  Te  Te63  1  0.50086584  0.50147346  0.76073182  1
