# generated using pymatgen
data_AgSbTe2
_symmetry_space_group_name_H-M   'P 1'
_cell_length_a   12.21849002
_cell_length_b   12.21723176
_cell_length_c   12.21244031
_cell_angle_alpha   90.00138275
_cell_angle_beta   89.99968930
_cell_angle_gamma   89.99628933
_symmetry_Int_Tables_number   1
_chemical_formula_structural   AgSbTe2
_chemical_formula_sum   'Ag16 Sb16 Te32'
_cell_volume   1823.02575321
_cell_formula_units_Z   16
loop_
 _symmetry_equiv_pos_site_id
 _symmetry_equiv_pos_as_xyz
  1  'x, y, z'
loop_
 _atom_site_type_symbol
 _atom_site_label
 _atom_site_symmetry_multiplicity
 _atom_site_fract_x
 _atom_site_fract_y
 _atom_site_fract_z
 _atom_site_occupancy
  Ag  Ag0  1  0.49443505  0.75389717  0.75382454  1
  Ag  Ag1  1  0.25326337  0.74961801  -0.00643587  1
  Ag  Ag2  1  0.25506508  0.50514844  0.75685409  1
  Ag  Ag3  1  0.00283623  0.00044057  -0.00247114  1
  Ag  Ag4  1  0.49678590  0.00407011  -0.00613141  1
  Ag  Ag5  1  0.25417356  0.49886928  0.24417058  1
  Ag  Ag6  1  0.74655202  0.75006095  0.50142212  1
  Ag  Ag7  1  0.49667824  0.49583705  0.00008139  1
  Ag  Ag8  1  0.49821899  0.24628589  0.75799814  1
  Ag  Ag9  1  0.74325572  0.25065538  0.00297142  1
  Ag  Ag10  1  0.00553584  0.75176183  0.75353092  1
  Ag  Ag11  1  0.25662520  -0.00468986  0.75559997  1
  Ag  Ag12  1  0.50151813  0.25323516  0.24144420  1
  Ag  Ag13  1  -0.00064209  0.25113156  0.24463958  1
  Ag  Ag14  1  0.49951679  -0.00088520  0.50606341  1
  Ag  Ag15  1  0.74600546  0.49627814  0.24655681  1
  Sb  Sb16  1  -0.00049045  0.50119161  0.50025685  1
  Sb  Sb17  1  0.00082672  -0.00159596  0.50323590  1
  Sb  Sb18  1  0.74452234  0.50074536  0.75352009  1
  Sb  Sb19  1  0.49919774  0.74715539  0.24701030  1
  Sb  Sb20  1  0.25282857  0.75100821  0.50754347  1
  Sb  Sb21  1  0.74617654  0.25039084  0.49759679  1
  Sb  Sb22  1  0.00160591  0.24777731  0.75682484  1
  Sb  Sb23  1  0.25263750  0.24920143  0.49979814  1
  Sb  Sb24  1  0.25265910  0.00016382  0.24362213  1
  Sb  Sb25  1  0.74695599  0.74920374  -0.00042637  1
  Sb  Sb26  1  0.74131816  -0.00088678  0.75083234  1
  Sb  Sb27  1  0.00410157  0.49904451  -0.00003345  1
  Sb  Sb28  1  0.50029576  0.50148858  0.50040062  1
  Sb  Sb29  1  0.74842399  0.00378848  0.24797063  1
  Sb  Sb30  1  0.00089634  0.74989819  0.24713209  1
  Sb  Sb31  1  0.25854657  0.25171753  -0.00000018  1
  Te  Te32  1  0.25156829  0.25566266  0.25038735  1
  Te  Te33  1  0.25447545  0.25128524  0.74932255  1
  Te  Te34  1  0.24850477  0.74341420  0.24386453  1
  Te  Te35  1  0.25259830  0.74914544  0.75157183  1
  Te  Te36  1  0.74666455  0.25362504  0.24736119  1
  Te  Te37  1  0.74528576  0.25208050  0.75482123  1
  Te  Te38  1  0.75137173  0.74242887  0.25363037  1
  Te  Te39  1  0.74937088  0.74823054  0.74746194  1
  Te  Te40  1  0.25282371  -0.00425246  -0.00284077  1
  Te  Te41  1  0.25580414  -0.00097933  0.50692274  1
  Te  Te42  1  0.25355000  0.50321080  -0.00112582  1
  Te  Te43  1  0.25013896  0.50053676  0.49866880  1
  Te  Te44  1  0.74833037  0.00310098  0.00058110  1
  Te  Te45  1  0.74434927  -0.00546776  0.49908323  1
  Te  Te46  1  0.74502623  0.49737754  0.00442439  1
  Te  Te47  1  0.74953158  0.50455505  0.49292555  1
  Te  Te48  1  -0.00723400  0.24601074  0.00250750  1
  Te  Te49  1  -0.00210307  0.24827043  0.49148774  1
  Te  Te50  1  0.00140953  0.75449697  -0.00437904  1
  Te  Te51  1  -0.00553142  0.75205170  0.50592961  1
  Te  Te52  1  0.50115764  0.24962192  0.00002023  1
  Te  Te53  1  0.50162044  0.24348425  0.50076743  1
  Te  Te54  1  0.49901820  0.75080290  -0.00299640  1
  Te  Te55  1  0.50328196  0.75487797  0.50397202  1
  Te  Te56  1  0.00128314  0.00464235  0.24499630  1
  Te  Te57  1  0.00680984  -0.00164317  0.75389824  1
  Te  Te58  1  0.00175458  0.49582073  0.24962765  1
  Te  Te59  1  0.00772544  0.50331389  0.75051694  1
  Te  Te60  1  0.49793705  0.00521948  0.24709762  1
  Te  Te61  1  0.49815180  -0.00005858  0.75381182  1
  Te  Te62  1  0.49821542  0.49716872  0.24845208  1
  Te  Te63  1  0.49678359  0.49995887  0.75182710  1
