# generated using pymatgen
data_AgSbTe2
_symmetry_space_group_name_H-M   'P 1'
_cell_length_a   12.20441092
_cell_length_b   12.20161382
_cell_length_c   12.20425214
_cell_angle_alpha   90.00256264
_cell_angle_beta   89.99840287
_cell_angle_gamma   89.99555960
_symmetry_Int_Tables_number   1
_chemical_formula_structural   AgSbTe2
_chemical_formula_sum   'Ag16 Sb16 Te32'
_cell_volume   1817.37800126
_cell_formula_units_Z   16
loop_
 _symmetry_equiv_pos_site_id
 _symmetry_equiv_pos_as_xyz
  1  'x, y, z'
loop_
 _atom_site_type_symbol
 _atom_site_label
 _atom_site_symmetry_multiplicity
 _atom_site_fract_x
 _atom_site_fract_y
 _atom_site_fract_z
 _atom_site_occupancy
  Ag  Ag0  1  0.00037511  -0.00187074  0.49757314  1
  Ag  Ag1  1  0.49997730  0.00005207  0.49938140  1
  Ag  Ag2  1  0.00256160  0.74959456  0.74782864  1
  Ag  Ag3  1  0.00744318  0.75004292  0.25308746  1
  Ag  Ag4  1  0.49244164  0.74991187  0.25189549  1
  Ag  Ag5  1  0.00210540  0.49960020  0.00232741  1
  Ag  Ag6  1  0.00068048  0.25024922  0.25059452  1
  Ag  Ag7  1  0.75034028  0.00329088  0.74634916  1
  Ag  Ag8  1  0.24751823  -0.00546196  0.25447318  1
  Ag  Ag9  1  0.75043889  0.25081748  -0.00121494  1
  Ag  Ag10  1  0.24761524  0.50532340  0.24879522  1
  Ag  Ag11  1  0.49782830  0.49875275  0.00046538  1
  Ag  Ag12  1  0.50251153  0.25012921  0.74939690  1
  Ag  Ag13  1  0.24915202  0.50158068  0.75110702  1
  Ag  Ag14  1  0.24764774  0.75213191  0.49443962  1
  Ag  Ag15  1  0.75048485  0.24552489  0.50165978  1
  Sb  Sb16  1  0.75123026  0.74998622  -0.00077706  1
  Sb  Sb17  1  0.00275808  0.50246675  0.49755457  1
  Sb  Sb18  1  -0.00226115  0.25041905  0.74912206  1
  Sb  Sb19  1  0.49656578  0.74956292  0.74838606  1
  Sb  Sb20  1  -0.00114803  0.00111526  0.00254515  1
  Sb  Sb21  1  0.50148615  0.00183154  0.00134395  1
  Sb  Sb22  1  0.24881267  0.24670350  0.49878340  1
  Sb  Sb23  1  0.49899740  0.25040273  0.25039404  1
  Sb  Sb24  1  0.75225508  0.75466079  0.50087968  1
  Sb  Sb25  1  0.24918219  0.25393892  0.00041864  1
  Sb  Sb26  1  0.75110068  0.49702187  0.75171324  1
  Sb  Sb27  1  0.75236183  0.00185129  0.25419313  1
  Sb  Sb28  1  0.49704862  0.50018482  0.49842328  1
  Sb  Sb29  1  0.24939650  -0.00233976  0.74484544  1
  Sb  Sb30  1  0.75327411  0.49912993  0.24847254  1
  Sb  Sb31  1  0.24902549  0.74630774  0.00760942  1
  Te  Te32  1  0.24474396  0.25170535  0.25118145  1
  Te  Te33  1  0.25565936  0.25549026  0.74918354  1
  Te  Te34  1  0.24797655  0.74872155  0.25209588  1
  Te  Te35  1  0.24612616  0.74674423  0.74377594  1
  Te  Te36  1  0.75513796  0.24906961  0.24985103  1
  Te  Te37  1  0.74728011  0.24700440  0.74932251  1
  Te  Te38  1  0.75168986  0.75041486  0.25097575  1
  Te  Te39  1  0.75569314  0.75589774  0.74900650  1
  Te  Te40  1  0.25055464  0.00196416  0.00854905  1
  Te  Te41  1  0.24919490  -0.00334177  0.49664198  1
  Te  Te42  1  0.24950300  0.49912909  0.00057104  1
  Te  Te43  1  0.25025814  0.50548570  0.49925311  1
  Te  Te44  1  0.74942779  0.00772821  -0.00760618  1
  Te  Te45  1  0.75011915  0.00405684  0.50353876  1
  Te  Te46  1  0.75011038  0.49349355  -0.00077114  1
  Te  Te47  1  0.74959415  0.48986451  0.50079727  1
  Te  Te48  1  -0.00507904  0.25409025  0.00341476  1
  Te  Te49  1  -0.00313546  0.24506329  0.49696906  1
  Te  Te50  1  -0.00184708  0.74459773  0.00076148  1
  Te  Te51  1  0.00172849  0.75303993  0.49781898  1
  Te  Te52  1  0.50564053  0.25361957  -0.00246661  1
  Te  Te53  1  0.50389335  0.24506426  0.50242800  1
  Te  Te54  1  0.50231121  0.74380634  0.00534097  1
  Te  Te55  1  0.49753961  0.75463046  0.49602479  1
  Te  Te56  1  0.00240490  -0.00161897  0.25282623  1
  Te  Te57  1  -0.00105510  -0.00289445  0.74653034  1
  Te  Te58  1  0.00342342  0.50128964  0.24734243  1
  Te  Te59  1  0.00387094  0.50282249  0.75392836  1
  Te  Te60  1  0.49649681  -0.00267805  0.25316243  1
  Te  Te61  1  0.50116159  0.00192744  0.74666015  1
  Te  Te62  1  0.49447360  0.50270253  0.24659944  1
  Te  Te63  1  0.49589559  0.49819635  0.75422579  1
