# generated using pymatgen
data_AgSbTe2
_symmetry_space_group_name_H-M   'P 1'
_cell_length_a   12.29627132
_cell_length_b   12.26480129
_cell_length_c   12.31003150
_cell_angle_alpha   90.00741176
_cell_angle_beta   90.00073308
_cell_angle_gamma   90.00880042
_symmetry_Int_Tables_number   1
_chemical_formula_structural   AgSbTe2
_chemical_formula_sum   'Ag16 Sb16 Te32'
_cell_volume   1856.49211702
_cell_formula_units_Z   16
loop_
 _symmetry_equiv_pos_site_id
 _symmetry_equiv_pos_as_xyz
  1  'x, y, z'
loop_
 _atom_site_type_symbol
 _atom_site_label
 _atom_site_symmetry_multiplicity
 _atom_site_fract_x
 _atom_site_fract_y
 _atom_site_fract_z
 _atom_site_occupancy
  Ag  Ag0  1  0.74152828  0.25351618  -0.00220323  1
  Ag  Ag1  1  0.25314190  0.74538606  -0.00854521  1
  Ag  Ag2  1  0.74157993  0.25708422  0.50281055  1
  Ag  Ag3  1  0.24813864  0.50895977  0.74775615  1
  Ag  Ag4  1  0.25489014  0.25982614  0.50467651  1
  Ag  Ag5  1  0.00184327  0.51204328  -0.00460900  1
  Ag  Ag6  1  0.00734369  0.74440812  0.24165313  1
  Ag  Ag7  1  0.01362448  0.74077267  0.75764546  1
  Ag  Ag8  1  0.74668586  0.74633435  -0.00167181  1
  Ag  Ag9  1  0.50098978  0.25053730  0.24696290  1
  Ag  Ag10  1  0.49809979  0.25274928  0.75223193  1
  Ag  Ag11  1  0.50103218  -0.00829908  -0.00074467  1
  Ag  Ag12  1  0.00759810  0.50541424  0.50602964  1
  Ag  Ag13  1  0.49447825  0.75007588  0.23652354  1
  Ag  Ag14  1  0.24814220  0.74024680  0.50871511  1
  Ag  Ag15  1  0.48992216  0.74644953  0.76239292  1
  Sb  Sb16  1  0.75101472  0.50030200  0.75161824  1
  Sb  Sb17  1  0.74891007  0.00000535  0.24912552  1
  Sb  Sb18  1  0.49955386  -0.00028229  0.50099687  1
  Sb  Sb19  1  0.25107868  -0.00690538  0.75083530  1
  Sb  Sb20  1  0.75048635  0.74284421  0.50036217  1
  Sb  Sb21  1  0.25147358  -0.00249414  0.24897223  1
  Sb  Sb22  1  0.74905562  0.00034141  0.75084235  1
  Sb  Sb23  1  0.49823941  0.50437877  -0.00185431  1
  Sb  Sb24  1  0.24949495  0.50316620  0.25150827  1
  Sb  Sb25  1  0.49411841  0.49918376  0.50251898  1
  Sb  Sb26  1  0.00115570  0.25555007  0.24900422  1
  Sb  Sb27  1  -0.00038799  -0.00719482  -0.00051355  1
  Sb  Sb28  1  0.00406996  0.25778184  0.75041117  1
  Sb  Sb29  1  0.25690716  0.25731857  -0.00287629  1
  Sb  Sb30  1  0.00087203  -0.00381008  0.50036015  1
  Sb  Sb31  1  0.75025461  0.49981176  0.24792744  1
  Te  Te32  1  0.25529287  0.25063896  0.25477340  1
  Te  Te33  1  0.25201920  0.25443302  0.74787529  1
  Te  Te34  1  0.25581781  0.74877655  0.25247096  1
  Te  Te35  1  0.25373060  0.74805726  0.74790426  1
  Te  Te36  1  0.74421691  0.24995112  0.24555172  1
  Te  Te37  1  0.74425669  0.25053539  0.75434708  1
  Te  Te38  1  0.74142207  0.74994008  0.24876319  1
  Te  Te39  1  0.74075627  0.74979945  0.75171325  1
  Te  Te40  1  0.25496328  -0.00918579  -0.00041129  1
  Te  Te41  1  0.24977390  0.00209553  0.50045109  1
  Te  Te42  1  0.24346078  0.50490535  -0.00508343  1
  Te  Te43  1  0.24697865  0.50345988  0.50207957  1
  Te  Te44  1  0.74521383  0.00082237  0.00003538  1
  Te  Te45  1  0.75068822  0.01862396  0.50023782  1
  Te  Te46  1  0.75864135  0.50177298  -0.00052141  1
  Te  Te47  1  0.76342519  0.49356117  0.50099909  1
  Te  Te48  1  -0.00569871  0.24899182  0.00264706  1
  Te  Te49  1  0.00579073  0.25173992  0.49830527  1
  Te  Te50  1  -0.00182314  0.75024264  -0.00039884  1
  Te  Te51  1  -0.00261658  0.74809334  0.50077840  1
  Te  Te52  1  0.50038477  0.25548241  -0.00050599  1
  Te  Te53  1  0.49818115  0.25018444  0.50140896  1
  Te  Te54  1  0.50193702  0.74629081  -0.00000793  1
  Te  Te55  1  0.50058726  0.75071532  0.49994811  1
  Te  Te56  1  0.00046966  -0.01643069  0.25023092  1
  Te  Te57  1  -0.00007371  -0.01691168  0.75031943  1
  Te  Te58  1  -0.00044957  0.50560599  0.24753080  1
  Te  Te59  1  0.00319016  0.50269200  0.75046571  1
  Te  Te60  1  0.50015501  -0.00269123  0.24319630  1
  Te  Te61  1  0.49991762  0.00020304  0.75572029  1
  Te  Te62  1  0.50047603  0.50064604  0.25154742  1
  Te  Te63  1  0.49357894  0.50145655  0.74876547  1
