# generated using pymatgen
data_AgSbTe2
_symmetry_space_group_name_H-M   'P 1'
_cell_length_a   12.21142551
_cell_length_b   12.21476824
_cell_length_c   12.21904463
_cell_angle_alpha   89.99978483
_cell_angle_beta   90.00031360
_cell_angle_gamma   90.00610450
_symmetry_Int_Tables_number   1
_chemical_formula_structural   AgSbTe2
_chemical_formula_sum   'Ag16 Sb16 Te32'
_cell_volume   1822.58941758
_cell_formula_units_Z   16
loop_
 _symmetry_equiv_pos_site_id
 _symmetry_equiv_pos_as_xyz
  1  'x, y, z'
loop_
 _atom_site_type_symbol
 _atom_site_label
 _atom_site_symmetry_multiplicity
 _atom_site_fract_x
 _atom_site_fract_y
 _atom_site_fract_z
 _atom_site_occupancy
  Ag  Ag0  1  0.00352802  0.25071734  0.75499520  1
  Ag  Ag1  1  0.75364297  0.00356210  0.24704060  1
  Ag  Ag2  1  0.49367583  0.49644527  0.50244308  1
  Ag  Ag3  1  0.25040283  0.74512346  0.00029249  1
  Ag  Ag4  1  0.49805480  0.74694721  0.75269773  1
  Ag  Ag5  1  0.00941563  0.49171799  0.00153995  1
  Ag  Ag6  1  0.49668240  0.25287035  0.75156412  1
  Ag  Ag7  1  0.00692677  0.24993658  0.24496368  1
  Ag  Ag8  1  0.49068237  0.49763005  -0.00236889  1
  Ag  Ag9  1  0.24789943  0.25512035  0.49715719  1
  Ag  Ag10  1  0.24718800  0.49346035  0.24574676  1
  Ag  Ag11  1  0.75118137  0.00293711  0.75311203  1
  Ag  Ag12  1  0.24577097  0.00749092  0.24568407  1
  Ag  Ag13  1  0.00337142  0.00756175  0.00242520  1
  Ag  Ag14  1  0.24443436  0.25471123  0.00339414  1
  Ag  Ag15  1  0.00679702  0.49397713  0.49885672  1
  Sb  Sb16  1  0.00293153  0.74931619  0.75375455  1
  Sb  Sb17  1  0.74799255  0.49572612  0.75085139  1
  Sb  Sb18  1  0.49468264  0.00456671  -0.00212828  1
  Sb  Sb19  1  0.75457531  0.49418298  0.24854642  1
  Sb  Sb20  1  0.74774387  0.75273138  -0.00198423  1
  Sb  Sb21  1  0.74843642  0.75015616  0.50154685  1
  Sb  Sb22  1  0.75196486  0.25010404  0.50016740  1
  Sb  Sb23  1  0.49705670  0.74767106  0.24519244  1
  Sb  Sb24  1  0.25210681  0.74164510  0.50074040  1
  Sb  Sb25  1  0.49652158  0.00616424  0.50247215  1
  Sb  Sb26  1  0.00318595  0.00857489  0.49724846  1
  Sb  Sb27  1  0.25229060  0.49537780  0.75834300  1
  Sb  Sb28  1  0.24684321  0.00518573  0.75614979  1
  Sb  Sb29  1  0.48968483  0.25214530  0.24693197  1
  Sb  Sb30  1  0.00267857  0.75062934  0.24737850  1
  Sb  Sb31  1  0.75809371  0.24736274  -0.00033383  1
  Te  Te32  1  0.24809308  0.25118615  0.24849765  1
  Te  Te33  1  0.24904650  0.24773339  0.75010381  1
  Te  Te34  1  0.25060369  0.74959698  0.24344728  1
  Te  Te35  1  0.25654751  0.75391789  0.75633329  1
  Te  Te36  1  0.75982967  0.24240346  0.25061112  1
  Te  Te37  1  0.74989865  0.24328807  0.74986946  1
  Te  Te38  1  0.74907071  0.76303045  0.25016058  1
  Te  Te39  1  0.74184543  0.76043549  0.75023755  1
  Te  Te40  1  0.24639968  0.00200947  0.00506518  1
  Te  Te41  1  0.24962259  0.00668176  0.48904966  1
  Te  Te42  1  0.24890907  0.49780003  0.00080347  1
  Te  Te43  1  0.24988193  0.49765300  0.49377154  1
  Te  Te44  1  0.75685619  -0.00132236  0.00089696  1
  Te  Te45  1  0.75019190  -0.00034315  0.49878597  1
  Te  Te46  1  0.75026061  0.50154242  0.00249473  1
  Te  Te47  1  0.74901674  0.50010409  0.49790906  1
  Te  Te48  1  0.00185300  0.25096107  -0.00077243  1
  Te  Te49  1  0.00484673  0.25521796  0.50131426  1
  Te  Te50  1  0.00765104  0.74872350  -0.00207593  1
  Te  Te51  1  0.00100355  0.73614519  0.50218463  1
  Te  Te52  1  0.49288887  0.25465347  -0.00507559  1
  Te  Te53  1  0.49375955  0.25606788  0.50669372  1
  Te  Te54  1  0.49405403  0.74334786  -0.00511963  1
  Te  Te55  1  0.49854010  0.73950520  0.50951453  1
  Te  Te56  1  0.00191974  0.00288330  0.24746173  1
  Te  Te57  1  -0.00417300  0.00415088  0.75355080  1
  Te  Te58  1  0.00193603  0.49648724  0.24796610  1
  Te  Te59  1  -0.00259279  0.49504242  0.75139374  1
  Te  Te60  1  0.50080094  -0.00007386  0.25016772  1
  Te  Te61  1  0.50664830  0.00228815  0.75013812  1
  Te  Te62  1  0.49650291  0.49958627  0.24949470  1
  Te  Te63  1  0.50184371  0.49754739  0.75070518  1
