# generated using pymatgen
data_AgSbTe2
_symmetry_space_group_name_H-M   'P 1'
_cell_length_a   12.22339102
_cell_length_b   12.22932558
_cell_length_c   12.23905855
_cell_angle_alpha   89.98593548
_cell_angle_beta   89.99673520
_cell_angle_gamma   90.00475681
_symmetry_Int_Tables_number   1
_chemical_formula_structural   AgSbTe2
_chemical_formula_sum   'Ag16 Sb16 Te32'
_cell_volume   1829.54126517
_cell_formula_units_Z   16
loop_
 _symmetry_equiv_pos_site_id
 _symmetry_equiv_pos_as_xyz
  1  'x, y, z'
loop_
 _atom_site_type_symbol
 _atom_site_label
 _atom_site_symmetry_multiplicity
 _atom_site_fract_x
 _atom_site_fract_y
 _atom_site_fract_z
 _atom_site_occupancy
  Ag  Ag0  1  0.49591352  0.50277102  0.50035994  1
  Ag  Ag1  1  0.49689244  0.25434694  0.74919792  1
  Ag  Ag2  1  0.25381965  0.25284140  -0.00720419  1
  Ag  Ag3  1  0.00302726  0.25222121  0.74938921  1
  Ag  Ag4  1  0.25782897  0.50133472  0.25947306  1
  Ag  Ag5  1  0.74298309  0.74488240  0.49628111  1
  Ag  Ag6  1  0.74435330  0.50042362  0.74565133  1
  Ag  Ag7  1  0.74441517  -0.00853953  0.24882746  1
  Ag  Ag8  1  0.25570969  0.49322389  0.74214827  1
  Ag  Ag9  1  0.74455123  0.75118180  0.00287010  1
  Ag  Ag10  1  0.25409559  0.26100335  0.50637835  1
  Ag  Ag11  1  0.74612356  -0.00105539  0.75135565  1
  Ag  Ag12  1  0.74276315  0.50752357  0.25443926  1
  Ag  Ag13  1  0.50422102  -0.00008750  -0.00088930  1
  Ag  Ag14  1  0.25726670  0.73942494  0.49936410  1
  Ag  Ag15  1  0.50615888  0.74584605  0.25342783  1
  Sb  Sb16  1  -0.00545810  0.74909783  0.25102098  1
  Sb  Sb17  1  0.74707888  0.24945194  -0.00298930  1
  Sb  Sb18  1  -0.00246870  0.74842841  0.74881297  1
  Sb  Sb19  1  -0.00070981  0.49830266  -0.00139365  1
  Sb  Sb20  1  -0.00375151  0.00226671  -0.00236062  1
  Sb  Sb21  1  0.74690419  0.25628882  0.50309586  1
  Sb  Sb22  1  -0.00195669  0.00145377  0.50189966  1
  Sb  Sb23  1  0.49890207  0.25320480  0.25105314  1
  Sb  Sb24  1  0.50265773  -0.00181600  0.50069672  1
  Sb  Sb25  1  0.25532784  0.74771735  0.00008691  1
  Sb  Sb26  1  0.50090995  0.49960668  -0.00095223  1
  Sb  Sb27  1  0.00405457  0.49962772  0.50108975  1
  Sb  Sb28  1  0.00163132  0.25106928  0.25074273  1
  Sb  Sb29  1  0.50186079  0.74699748  0.74707028  1
  Sb  Sb30  1  0.25391607  0.00585790  0.74967209  1
  Sb  Sb31  1  0.25520818  -0.00167610  0.25050356  1
  Te  Te32  1  0.24942233  0.25376019  0.25202228  1
  Te  Te33  1  0.25360117  0.24994811  0.74869460  1
  Te  Te34  1  0.25304756  0.74589456  0.25166930  1
  Te  Te35  1  0.24924351  0.74552565  0.74704895  1
  Te  Te36  1  0.75137156  0.25373375  0.25022108  1
  Te  Te37  1  0.74725875  0.25347076  0.74949759  1
  Te  Te38  1  0.74864451  0.74676180  0.25267029  1
  Te  Te39  1  0.74991506  0.74730879  0.74813662  1
  Te  Te40  1  0.25570741  0.00229959  0.00076302  1
  Te  Te41  1  0.24984742  -0.00359319  0.49924703  1
  Te  Te42  1  0.24986074  0.49756461  -0.00111032  1
  Te  Te43  1  0.25232188  0.50124247  0.50028582  1
  Te  Te44  1  0.74622954  -0.00068588  -0.00138166  1
  Te  Te45  1  0.74857382  -0.00554275  0.50066219  1
  Te  Te46  1  0.74974356  0.50277745  -0.00057263  1
  Te  Te47  1  0.74641793  0.50213320  0.50087249  1
  Te  Te48  1  0.00930505  0.24901620  -0.00548270  1
  Te  Te49  1  0.00904290  0.24915732  0.50560502  1
  Te  Te50  1  -0.00935125  0.75136298  -0.00069678  1
  Te  Te51  1  0.00149805  0.75096276  0.50041324  1
  Te  Te52  1  0.49579693  0.24606061  -0.00319099  1
  Te  Te53  1  0.49554338  0.25457872  0.50337953  1
  Te  Te54  1  0.50439490  0.75472169  0.00446600  1
  Te  Te55  1  0.50049094  0.74679896  0.49745228  1
  Te  Te56  1  -0.01157698  0.00088973  0.24954662  1
  Te  Te57  1  -0.00859608  0.00607221  0.75050951  1
  Te  Te58  1  -0.00182681  0.49920581  0.24948074  1
  Te  Te59  1  -0.00207453  0.49487923  0.75038383  1
  Te  Te60  1  0.50511900  -0.00248297  0.24766038  1
  Te  Te61  1  0.50486286  0.00355573  0.75246490  1
  Te  Te62  1  0.50082307  0.50159606  0.25176267  1
  Te  Te63  1  0.50111182  0.49780405  0.74840016  1
