# generated using pymatgen
data_AgSbTe2
_symmetry_space_group_name_H-M   'P 1'
_cell_length_a   12.21459182
_cell_length_b   12.21999699
_cell_length_c   12.21906921
_cell_angle_alpha   90.00011046
_cell_angle_beta   89.99935541
_cell_angle_gamma   89.99940453
_symmetry_Int_Tables_number   1
_chemical_formula_structural   AgSbTe2
_chemical_formula_sum   'Ag16 Sb16 Te32'
_cell_volume   1823.84607079
_cell_formula_units_Z   16
loop_
 _symmetry_equiv_pos_site_id
 _symmetry_equiv_pos_as_xyz
  1  'x, y, z'
loop_
 _atom_site_type_symbol
 _atom_site_label
 _atom_site_symmetry_multiplicity
 _atom_site_fract_x
 _atom_site_fract_y
 _atom_site_fract_z
 _atom_site_occupancy
  Ag  Ag0  1  0.74625060  0.25763464  0.49616006  1
  Ag  Ag1  1  -0.00269066  0.00027553  0.00303092  1
  Ag  Ag2  1  0.74465729  0.74174036  0.49812752  1
  Ag  Ag3  1  0.74711250  0.74678986  0.00122908  1
  Ag  Ag4  1  0.75017721  -0.00142971  0.74908085  1
  Ag  Ag5  1  0.50475813  0.50021316  0.49536967  1
  Ag  Ag6  1  0.25376517  0.25466360  0.49530450  1
  Ag  Ag7  1  0.50340585  0.74274549  0.25378445  1
  Ag  Ag8  1  0.25552646  0.74492996  0.49708695  1
  Ag  Ag9  1  0.25050275  0.00216265  0.25208534  1
  Ag  Ag10  1  0.25469602  0.50009287  0.74436968  1
  Ag  Ag11  1  0.50435502  0.50156449  0.00503330  1
  Ag  Ag12  1  0.74568167  0.50191412  0.74416265  1
  Ag  Ag13  1  0.74248595  0.50002177  0.25573868  1
  Ag  Ag14  1  -0.00044616  0.25017089  0.25193180  1
  Ag  Ag15  1  0.50159807  0.25684775  0.25491937  1
  Sb  Sb16  1  0.25173934  0.25181217  0.00505976  1
  Sb  Sb17  1  -0.00178073  0.24996947  0.74900049  1
  Sb  Sb18  1  -0.00129010  0.00182647  0.49667264  1
  Sb  Sb19  1  -0.00554583  0.49888956  0.49789726  1
  Sb  Sb20  1  0.50110836  -0.00052342  0.49690353  1
  Sb  Sb21  1  -0.00203186  0.74898964  0.24962949  1
  Sb  Sb22  1  0.50223364  0.74549076  0.74503071  1
  Sb  Sb23  1  0.50231818  -0.00231585  0.00347081  1
  Sb  Sb24  1  0.74827172  0.25293757  0.00359044  1
  Sb  Sb25  1  0.25843194  0.49854889  0.25776720  1
  Sb  Sb26  1  0.50083056  0.25462932  0.74386805  1
  Sb  Sb27  1  0.25376873  0.74692210  0.00270257  1
  Sb  Sb28  1  0.24882755  -0.00016135  0.74806051  1
  Sb  Sb29  1  -0.00279147  0.75020489  0.75030605  1
  Sb  Sb30  1  -0.00314429  0.49985076  0.00228957  1
  Sb  Sb31  1  0.75040749  -0.00001751  0.25041121  1
  Te  Te32  1  0.25123658  0.24917784  0.25444698  1
  Te  Te33  1  0.24956647  0.25288930  0.74119251  1
  Te  Te34  1  0.25225767  0.75193489  0.25427544  1
  Te  Te35  1  0.25040320  0.74680319  0.74327600  1
  Te  Te36  1  0.74737395  0.25024148  0.25374987  1
  Te  Te37  1  0.75076112  0.25252963  0.74352288  1
  Te  Te38  1  0.74784022  0.74954257  0.25288669  1
  Te  Te39  1  0.74902306  0.74670754  0.74761909  1
  Te  Te40  1  0.24608690  -0.00098857  0.00142298  1
  Te  Te41  1  0.24973568  0.00004087  0.49856813  1
  Te  Te42  1  0.25505008  0.50173720  -0.00929424  1
  Te  Te43  1  0.25307660  0.50028993  0.50195429  1
  Te  Te44  1  0.75229716  -0.00377006  -0.00301315  1
  Te  Te45  1  0.75032329  -0.00101146  0.50441222  1
  Te  Te46  1  0.74655716  0.50288980  -0.00144650  1
  Te  Te47  1  0.74903718  0.50097937  0.50044475  1
  Te  Te48  1  0.00019360  0.24525789  0.00716143  1
  Te  Te49  1  -0.00023967  0.24914036  0.49345745  1
  Te  Te50  1  -0.00628890  0.75453659  0.00108392  1
  Te  Te51  1  -0.00044529  0.75080418  0.49917611  1
  Te  Te52  1  0.49998724  0.25590558  0.00958751  1
  Te  Te53  1  0.50105098  0.25243651  0.49530328  1
  Te  Te54  1  0.50454919  0.74611861  0.00734819  1
  Te  Te55  1  0.50204249  0.74766994  0.49570757  1
  Te  Te56  1  0.00386454  0.00461920  0.24641607  1
  Te  Te57  1  -0.00472109  0.00074779  0.75773902  1
  Te  Te58  1  -0.00868804  0.49376682  0.24751561  1
  Te  Te59  1  -0.00197884  0.49925884  0.75261516  1
  Te  Te60  1  0.49479328  0.00077574  0.24882501  1
  Te  Te61  1  0.50725299  0.00198919  0.75277325  1
  Te  Te62  1  0.50180677  0.50023782  0.25244688  1
  Te  Te63  1  0.50300532  0.49935052  0.74875046  1
