# generated using pymatgen
data_AgSbTe2
_symmetry_space_group_name_H-M   'P 1'
_cell_length_a   12.33340775
_cell_length_b   12.30069091
_cell_length_c   12.31548324
_cell_angle_alpha   90.02327488
_cell_angle_beta   89.99822571
_cell_angle_gamma   90.00908423
_symmetry_Int_Tables_number   1
_chemical_formula_structural   AgSbTe2
_chemical_formula_sum   'Ag16 Sb16 Te32'
_cell_volume   1868.37484447
_cell_formula_units_Z   16
loop_
 _symmetry_equiv_pos_site_id
 _symmetry_equiv_pos_as_xyz
  1  'x, y, z'
loop_
 _atom_site_type_symbol
 _atom_site_label
 _atom_site_symmetry_multiplicity
 _atom_site_fract_x
 _atom_site_fract_y
 _atom_site_fract_z
 _atom_site_occupancy
  Ag  Ag0  1  0.49673115  -0.01825943  0.00843763  1
  Ag  Ag1  1  0.25160376  0.51759782  0.24041504  1
  Ag  Ag2  1  0.74838497  0.75187960  0.47843001  1
  Ag  Ag3  1  0.49740469  0.74759008  0.77185226  1
  Ag  Ag4  1  0.74740652  0.51743570  0.24323513  1
  Ag  Ag5  1  0.24779867  0.25045011  0.49442725  1
  Ag  Ag6  1  0.00874784  0.51078349  0.00777778  1
  Ag  Ag7  1  0.00181980  -0.00701130  0.49025358  1
  Ag  Ag8  1  0.49147674  0.51475519  0.00693982  1
  Ag  Ag9  1  0.25234691  -0.01717392  0.24605243  1
  Ag  Ag10  1  0.25356466  0.50719083  0.76281674  1
  Ag  Ag11  1  0.26667421  0.73895039  0.01408526  1
  Ag  Ag12  1  0.74709899  -0.01844522  0.24870216  1
  Ag  Ag13  1  0.52100713  0.74914149  0.23472319  1
  Ag  Ag14  1  -0.01871836  0.74823285  0.24398303  1
  Ag  Ag15  1  0.72568313  0.74546722  0.01895619  1
  Sb  Sb16  1  0.00180321  0.25180985  0.24841118  1
  Sb  Sb17  1  0.00366207  0.74878867  0.75355265  1
  Sb  Sb18  1  0.49921637  0.50445104  0.49299030  1
  Sb  Sb19  1  0.24941547  0.74916603  0.48936742  1
  Sb  Sb20  1  0.75141622  0.24926430  0.49485705  1
  Sb  Sb21  1  0.00135344  -0.01100173  0.00589318  1
  Sb  Sb22  1  0.00511000  0.25261886  0.74985782  1
  Sb  Sb23  1  0.49533766  0.25491817  0.75293309  1
  Sb  Sb24  1  0.74755057  0.50727605  0.75811187  1
  Sb  Sb25  1  0.74934730  0.25217937  0.00231963  1
  Sb  Sb26  1  0.50059948  -0.00494446  0.49184277  1
  Sb  Sb27  1  0.25054522  0.25501129  0.00288495  1
  Sb  Sb28  1  0.25295649  -0.00669772  0.75201041  1
  Sb  Sb29  1  0.00059301  0.50404930  0.49440294  1
  Sb  Sb30  1  0.74788870  -0.00798699  0.75350154  1
  Sb  Sb31  1  0.49865420  0.25202013  0.24835756  1
  Te  Te32  1  0.24974992  0.24868318  0.25335137  1
  Te  Te33  1  0.24956159  0.25874422  0.74418541  1
  Te  Te34  1  0.25160030  0.75058363  0.24878667  1
  Te  Te35  1  0.25291830  0.74614795  0.75468442  1
  Te  Te36  1  0.75018671  0.24936642  0.24915459  1
  Te  Te37  1  0.75029752  0.25058819  0.74850871  1
  Te  Te38  1  0.75285313  0.74994551  0.24929015  1
  Te  Te39  1  0.74457466  0.74919131  0.75266434  1
  Te  Te40  1  0.24700674  0.00259735  0.00368513  1
  Te  Te41  1  0.25060509  -0.00209138  0.49724432  1
  Te  Te42  1  0.25384554  0.49986270  0.00553611  1
  Te  Te43  1  0.25018634  0.50151840  0.49321592  1
  Te  Te44  1  0.75458675  0.00040253  0.00369595  1
  Te  Te45  1  0.74829945  -0.00108028  0.49490311  1
  Te  Te46  1  0.74523344  0.50012802  0.00354822  1
  Te  Te47  1  0.75061266  0.50027921  0.49214104  1
  Te  Te48  1  -0.00096384  0.26600071  -0.00263572  1
  Te  Te49  1  0.00359970  0.24234221  0.50047446  1
  Te  Te50  1  0.00222318  0.74644156  0.00176718  1
  Te  Te51  1  -0.00315465  0.75310028  0.49795844  1
  Te  Te52  1  0.50049998  0.24773799  -0.00136282  1
  Te  Te53  1  0.49311202  0.24977959  0.50247118  1
  Te  Te54  1  0.49719058  0.75057368  0.00161044  1
  Te  Te55  1  0.50631375  0.74889452  0.49624814  1
  Te  Te56  1  0.00365638  -0.00228554  0.25033844  1
  Te  Te57  1  0.00026862  0.00203647  0.73973521  1
  Te  Te58  1  0.00400269  0.50232782  0.24870725  1
  Te  Te59  1  0.00613730  0.49985048  0.75530626  1
  Te  Te60  1  0.49689430  -0.00003839  0.24615725  1
  Te  Te61  1  0.49980330  -0.00500463  0.76199030  1
  Te  Te62  1  0.49700642  0.50076512  0.24888454  1
  Te  Te63  1  0.49681192  0.50310412  0.75537216  1
