# generated using pymatgen
data_AgSbTe2
_symmetry_space_group_name_H-M   'P 1'
_cell_length_a   12.20986273
_cell_length_b   12.20927078
_cell_length_c   12.21116822
_cell_angle_alpha   89.99781407
_cell_angle_beta   90.00595667
_cell_angle_gamma   90.00415827
_symmetry_Int_Tables_number   1
_chemical_formula_structural   AgSbTe2
_chemical_formula_sum   'Ag16 Sb16 Te32'
_cell_volume   1820.36181603
_cell_formula_units_Z   16
loop_
 _symmetry_equiv_pos_site_id
 _symmetry_equiv_pos_as_xyz
  1  'x, y, z'
loop_
 _atom_site_type_symbol
 _atom_site_label
 _atom_site_symmetry_multiplicity
 _atom_site_fract_x
 _atom_site_fract_y
 _atom_site_fract_z
 _atom_site_occupancy
  Ag  Ag0  1  0.24639751  0.25059050  -0.00173427  1
  Ag  Ag1  1  0.00162857  0.25071528  0.75293956  1
  Ag  Ag2  1  0.00292043  0.75087590  0.24963668  1
  Ag  Ag3  1  0.75032697  0.50722411  0.74980749  1
  Ag  Ag4  1  0.75366379  -0.00774403  0.75008923  1
  Ag  Ag5  1  0.50384914  0.74572345  0.74589866  1
  Ag  Ag6  1  -0.00488885  0.74921249  0.75070120  1
  Ag  Ag7  1  0.49928219  0.50727061  0.50314585  1
  Ag  Ag8  1  0.74748447  0.74818734  0.50671642  1
  Ag  Ag9  1  0.49920603  0.50307226  -0.00327431  1
  Ag  Ag10  1  0.24957271  0.25052867  0.50158958  1
  Ag  Ag11  1  0.24821839  -0.00420428  0.24997319  1
  Ag  Ag12  1  0.49738272  0.74844149  0.25423071  1
  Ag  Ag13  1  0.00192347  -0.00190851  -0.00301824  1
  Ag  Ag14  1  0.25291209  0.74935727  0.49898682  1
  Ag  Ag15  1  0.00091085  0.50183969  -0.00444366  1
  Sb  Sb16  1  0.75027627  0.25241031  0.50437236  1
  Sb  Sb17  1  0.75240858  -0.00659664  0.24920933  1
  Sb  Sb18  1  0.75405547  0.25140398  -0.00276942  1
  Sb  Sb19  1  0.24968618  0.50548543  0.25032305  1
  Sb  Sb20  1  0.75082188  0.50501238  0.25043213  1
  Sb  Sb21  1  0.00069372  -0.00303194  0.50378165  1
  Sb  Sb22  1  0.49600057  0.25093170  0.25073450  1
  Sb  Sb23  1  0.75199095  0.74926980  -0.00997299  1
  Sb  Sb24  1  0.49740651  0.25452136  0.74970170  1
  Sb  Sb25  1  0.00428298  0.24923819  0.24752782  1
  Sb  Sb26  1  0.24905593  0.50230856  0.75034001  1
  Sb  Sb27  1  0.49902442  -0.00895570  0.50138505  1
  Sb  Sb28  1  0.00035624  0.50362377  0.50595591  1
  Sb  Sb29  1  0.24610536  -0.00243052  0.75077147  1
  Sb  Sb30  1  0.24716250  0.74961852  0.00234947  1
  Sb  Sb31  1  0.49795026  -0.00259219  -0.00161688  1
  Te  Te32  1  0.24963066  0.24290087  0.25178821  1
  Te  Te33  1  0.24516678  0.24795167  0.74887860  1
  Te  Te34  1  0.24890184  0.75358209  0.25294661  1
  Te  Te35  1  0.24969815  0.75232875  0.74386116  1
  Te  Te36  1  0.74978737  0.24811500  0.25173422  1
  Te  Te37  1  0.75634927  0.25030560  0.74811456  1
  Te  Te38  1  0.75013350  0.75116022  0.25989258  1
  Te  Te39  1  0.75165206  0.74887565  0.74770274  1
  Te  Te40  1  0.24650129  0.00444829  0.00271506  1
  Te  Te41  1  0.25014147  -0.00006047  0.49553885  1
  Te  Te42  1  0.24956621  0.49477455  0.00067294  1
  Te  Te43  1  0.25467287  0.50086646  0.49957620  1
  Te  Te44  1  0.75581703  0.00145224  -0.00552081  1
  Te  Te45  1  0.74963435  -0.00461952  0.50604687  1
  Te  Te46  1  0.74963292  0.49894258  -0.00546182  1
  Te  Te47  1  0.74559949  0.50364053  0.50483136  1
  Te  Te48  1  0.00365937  0.25162307  -0.00286333  1
  Te  Te49  1  0.00647840  0.25180672  0.50427911  1
  Te  Te50  1  0.00202376  0.74866761  -0.00176459  1
  Te  Te51  1  0.00163182  0.74841403  0.50108548  1
  Te  Te52  1  0.49289584  0.25659604  -0.00006344  1
  Te  Te53  1  0.49324351  0.25863103  0.50010675  1
  Te  Te54  1  0.49804811  0.74471139  -0.00065514  1
  Te  Te55  1  0.49812619  0.74762953  0.50121827  1
  Te  Te56  1  0.00270890  -0.00511047  0.24381807  1
  Te  Te57  1  -0.00261931  -0.00241768  0.75363777  1
  Te  Te58  1  -0.00108538  0.50641455  0.24098167  1
  Te  Te59  1  -0.00287000  0.50262776  0.75343389  1
  Te  Te60  1  0.49603651  -0.00699765  0.24799745  1
  Te  Te61  1  0.50709341  -0.00583631  0.75218827  1
  Te  Te62  1  0.50027172  0.50652241  0.24835886  1
  Te  Te63  1  0.50340362  0.50265423  0.75115350  1
