# generated using pymatgen
data_AgSbTe2
_symmetry_space_group_name_H-M   'P 1'
_cell_length_a   12.23237368
_cell_length_b   12.22443377
_cell_length_c   12.23415223
_cell_angle_alpha   90.00966709
_cell_angle_beta   89.99788575
_cell_angle_gamma   90.00405927
_symmetry_Int_Tables_number   1
_chemical_formula_structural   AgSbTe2
_chemical_formula_sum   'Ag16 Sb16 Te32'
_cell_volume   1829.41975340
_cell_formula_units_Z   16
loop_
 _symmetry_equiv_pos_site_id
 _symmetry_equiv_pos_as_xyz
  1  'x, y, z'
loop_
 _atom_site_type_symbol
 _atom_site_label
 _atom_site_symmetry_multiplicity
 _atom_site_fract_x
 _atom_site_fract_y
 _atom_site_fract_z
 _atom_site_occupancy
  Ag  Ag0  1  0.25708768  0.24468232  -0.00263388  1
  Ag  Ag1  1  0.50395741  0.23689270  0.75033193  1
  Ag  Ag2  1  -0.00677766  0.49757413  0.50112205  1
  Ag  Ag3  1  0.50629909  0.49184485  0.50114728  1
  Ag  Ag4  1  0.50690037  0.24634036  0.25041128  1
  Ag  Ag5  1  0.74723467  0.49046305  0.25436609  1
  Ag  Ag6  1  0.50176545  0.76481772  0.74899065  1
  Ag  Ag7  1  0.74357161  0.24303353  0.00191419  1
  Ag  Ag8  1  -0.00280951  0.75508577  0.74992295  1
  Ag  Ag9  1  -0.00537782  0.00246255  -0.00479615  1
  Ag  Ag10  1  0.50486712  0.00690635  -0.01328241  1
  Ag  Ag11  1  0.74481377  0.00880774  0.24642350  1
  Ag  Ag12  1  0.26362630  0.00208411  0.75299572  1
  Ag  Ag13  1  0.74284099  0.24913307  0.49752029  1
  Ag  Ag14  1  0.73668232  0.00401211  0.75339906  1
  Ag  Ag15  1  0.50495531  0.00648958  0.51375690  1
  Sb  Sb16  1  0.25940057  0.24765416  0.50365602  1
  Sb  Sb17  1  -0.00506969  0.49810143  -0.00150571  1
  Sb  Sb18  1  0.74889790  0.75974304  -0.00319227  1
  Sb  Sb19  1  -0.00979720  0.24954258  0.24954491  1
  Sb  Sb20  1  -0.00380312  0.75202052  0.25003869  1
  Sb  Sb21  1  0.74869001  0.75082901  0.50285721  1
  Sb  Sb22  1  0.50392314  0.49113232  -0.00124796  1
  Sb  Sb23  1  0.50290085  0.75362741  0.25043864  1
  Sb  Sb24  1  0.74813700  0.49417030  0.74548794  1
  Sb  Sb25  1  0.25187966  0.49655124  0.75020919  1
  Sb  Sb26  1  0.25111497  0.75208603  0.50359308  1
  Sb  Sb27  1  0.25354609  0.49412127  0.25120709  1
  Sb  Sb28  1  -0.00348623  0.24476055  0.75013407  1
  Sb  Sb29  1  0.25191705  0.75667254  -0.00452831  1
  Sb  Sb30  1  0.25617730  0.00489538  0.24652658  1
  Sb  Sb31  1  -0.00724289  0.00174943  0.50482788  1
  Te  Te32  1  0.26064618  0.24924259  0.24252755  1
  Te  Te33  1  0.25489639  0.24577134  0.75390961  1
  Te  Te34  1  0.24929802  0.74924427  0.24855762  1
  Te  Te35  1  0.25246876  0.75622426  0.75063951  1
  Te  Te36  1  0.74699224  0.24779467  0.25079149  1
  Te  Te37  1  0.74688124  0.24721106  0.74983182  1
  Te  Te38  1  0.74984251  0.75007240  0.24924221  1
  Te  Te39  1  0.74837979  0.75600211  0.75032368  1
  Te  Te40  1  0.25108746  0.00476111  -0.00270812  1
  Te  Te41  1  0.25562315  0.00117757  0.50535834  1
  Te  Te42  1  0.24843687  0.48959038  0.00078656  1
  Te  Te43  1  0.25048808  0.49918174  0.49940306  1
  Te  Te44  1  0.74823815  0.00272949  -0.00078528  1
  Te  Te45  1  0.74806188  0.00305296  0.50033175  1
  Te  Te46  1  0.75092929  0.48966747  0.00800415  1
  Te  Te47  1  0.74740883  0.49685351  0.49832151  1
  Te  Te48  1  -0.00211209  0.24596009  -0.00028307  1
  Te  Te49  1  -0.00667510  0.25471501  0.50031016  1
  Te  Te50  1  0.00074183  0.75494581  -0.00601753  1
  Te  Te51  1  0.00074073  0.74540161  0.50560310  1
  Te  Te52  1  0.50355993  0.24896309  -0.00149217  1
  Te  Te53  1  0.50162618  0.24897204  0.50102318  1
  Te  Te54  1  0.49925031  0.75650433  -0.00566189  1
  Te  Te55  1  0.49956361  0.75106265  0.50462718  1
  Te  Te56  1  -0.00646308  -0.00167391  0.24518811  1
  Te  Te57  1  -0.00144457  -0.00273602  0.75164236  1
  Te  Te58  1  -0.00523613  0.50119937  0.25545618  1
  Te  Te59  1  0.00036031  0.50794873  0.74589995  1
  Te  Te60  1  0.50372478  0.00129592  0.25007745  1
  Te  Te61  1  0.50206574  0.00135284  0.74984034  1
  Te  Te62  1  0.50397394  0.49893257  0.25445848  1
  Te  Te63  1  0.49982223  0.50029178  0.74515622  1
