# generated using pymatgen
data_AgSbTe2
_symmetry_space_group_name_H-M   'P 1'
_cell_length_a   12.20980815
_cell_length_b   12.20691169
_cell_length_c   12.20939255
_cell_angle_alpha   90.00759689
_cell_angle_beta   90.00313004
_cell_angle_gamma   89.99109050
_symmetry_Int_Tables_number   1
_chemical_formula_structural   AgSbTe2
_chemical_formula_sum   'Ag16 Sb16 Te32'
_cell_volume   1819.73727131
_cell_formula_units_Z   16
loop_
 _symmetry_equiv_pos_site_id
 _symmetry_equiv_pos_as_xyz
  1  'x, y, z'
loop_
 _atom_site_type_symbol
 _atom_site_label
 _atom_site_symmetry_multiplicity
 _atom_site_fract_x
 _atom_site_fract_y
 _atom_site_fract_z
 _atom_site_occupancy
  Ag  Ag0  1  0.74703997  -0.00688009  0.75468345  1
  Ag  Ag1  1  0.75169564  0.50536797  0.74901547  1
  Ag  Ag2  1  0.50538633  0.75228030  0.75289286  1
  Ag  Ag3  1  0.74581757  -0.00137086  0.24558740  1
  Ag  Ag4  1  -0.00167865  0.50005582  -0.00538185  1
  Ag  Ag5  1  0.50440722  0.50218866  0.50294972  1
  Ag  Ag6  1  0.74792630  0.74759644  0.50671002  1
  Ag  Ag7  1  0.49936125  0.24565540  0.24759669  1
  Ag  Ag8  1  0.49717394  -0.00221578  -0.00070085  1
  Ag  Ag9  1  -0.00032898  0.25231177  0.75245688  1
  Ag  Ag10  1  0.25473073  0.00102372  0.24080812  1
  Ag  Ag11  1  0.25229166  0.75712673  -0.00334943  1
  Ag  Ag12  1  -0.00418425  0.50059357  0.50520367  1
  Ag  Ag13  1  0.25245051  -0.00148364  0.75898727  1
  Ag  Ag14  1  0.25054654  0.24323398  -0.00108731  1
  Ag  Ag15  1  0.74774048  0.75346955  -0.00650324  1
  Sb  Sb16  1  -0.00286320  -0.00078752  0.50383309  1
  Sb  Sb17  1  0.50253367  0.50183587  -0.00319096  1
  Sb  Sb18  1  0.25038067  0.24945418  0.50151971  1
  Sb  Sb19  1  0.50261826  -0.00209571  0.50103730  1
  Sb  Sb20  1  -0.00018772  0.75043228  0.24914899  1
  Sb  Sb21  1  -0.00708364  0.74624281  0.75098152  1
  Sb  Sb22  1  0.25198434  0.75036762  0.50359310  1
  Sb  Sb23  1  0.00341155  -0.00037333  -0.00322142  1
  Sb  Sb24  1  0.74806673  0.50171947  0.25030101  1
  Sb  Sb25  1  0.49943453  0.24777390  0.75190152  1
  Sb  Sb26  1  0.75001309  0.24587716  -0.00140224  1
  Sb  Sb27  1  0.50071219  0.75488697  0.24670659  1
  Sb  Sb28  1  0.74971533  0.25373082  0.50103987  1
  Sb  Sb29  1  0.25229403  0.49997018  0.24716417  1
  Sb  Sb30  1  0.24784792  0.50189104  0.75241424  1
  Sb  Sb31  1  0.00142454  0.24966531  0.24750532  1
  Te  Te32  1  0.25232442  0.24416884  0.24548871  1
  Te  Te33  1  0.24814530  0.24527555  0.75407901  1
  Te  Te34  1  0.25070974  0.75719585  0.24395215  1
  Te  Te35  1  0.25540281  0.75437390  0.75414002  1
  Te  Te36  1  0.74592202  0.24222226  0.24995662  1
  Te  Te37  1  0.75291876  0.24984174  0.75061220  1
  Te  Te38  1  0.74904520  0.75581774  0.24809623  1
  Te  Te39  1  0.74937207  0.75121779  0.75161683  1
  Te  Te40  1  0.24864802  -0.00118904  -0.00099981  1
  Te  Te41  1  0.24959728  -0.00170752  0.49998317  1
  Te  Te42  1  0.24672258  0.50102424  0.00021905  1
  Te  Te43  1  0.24877420  0.50167935  0.49955217  1
  Te  Te44  1  0.74938028  -0.00248305  -0.00218407  1
  Te  Te45  1  0.75011464  -0.00669427  0.50171940  1
  Te  Te46  1  0.75217997  0.50434270  -0.00209900  1
  Te  Te47  1  0.75032587  0.50349962  0.50124051  1
  Te  Te48  1  0.00431998  0.25604453  -0.00348838  1
  Te  Te49  1  0.00066738  0.25795750  0.50542566  1
  Te  Te50  1  -0.00020002  0.74339912  -0.00039851  1
  Te  Te51  1  -0.00491937  0.74230745  0.49979570  1
  Te  Te52  1  0.49520162  0.24726879  0.00287866  1
  Te  Te53  1  0.49906543  0.25693634  0.49512055  1
  Te  Te54  1  0.50060572  0.75246880  -0.00301646  1
  Te  Te55  1  0.50322501  0.74553120  0.50443685  1
  Te  Te56  1  -0.00090992  0.00170852  0.25171432  1
  Te  Te57  1  -0.00083163  0.00644900  0.74890329  1
  Te  Te58  1  -0.00012628  0.49820849  0.25078672  1
  Te  Te59  1  -0.00248241  0.49706487  0.75047953  1
  Te  Te60  1  0.49997939  0.00249347  0.24821782  1
  Te  Te61  1  0.50149533  -0.00099162  0.75171820  1
  Te  Te62  1  0.50047630  0.49334422  0.25550450  1
  Te  Te63  1  0.50417176  0.50167903  0.74734771  1
