# generated using pymatgen
data_AgSbTe2
_symmetry_space_group_name_H-M   'P 1'
_cell_length_a   12.20816788
_cell_length_b   12.21148572
_cell_length_c   12.20602909
_cell_angle_alpha   89.99919165
_cell_angle_beta   90.00724744
_cell_angle_gamma   90.00303382
_symmetry_Int_Tables_number   1
_chemical_formula_structural   AgSbTe2
_chemical_formula_sum   'Ag16 Sb16 Te32'
_cell_volume   1819.67318586
_cell_formula_units_Z   16
loop_
 _symmetry_equiv_pos_site_id
 _symmetry_equiv_pos_as_xyz
  1  'x, y, z'
loop_
 _atom_site_type_symbol
 _atom_site_label
 _atom_site_symmetry_multiplicity
 _atom_site_fract_x
 _atom_site_fract_y
 _atom_site_fract_z
 _atom_site_occupancy
  Ag  Ag0  1  0.50282001  0.74769527  0.74538247  1
  Ag  Ag1  1  -0.00038525  0.25039110  0.25046074  1
  Ag  Ag2  1  0.50254185  -0.00410240  0.50142351  1
  Ag  Ag3  1  0.25124982  0.50179514  0.74344938  1
  Ag  Ag4  1  0.75221306  0.24927919  0.00026222  1
  Ag  Ag5  1  0.24936478  0.74433941  0.50005494  1
  Ag  Ag6  1  -0.00264378  -0.00284881  0.49686547  1
  Ag  Ag7  1  0.49642109  0.50486796  0.50330180  1
  Ag  Ag8  1  0.24640993  0.50039052  0.25564112  1
  Ag  Ag9  1  -0.00096764  0.74972821  0.25491274  1
  Ag  Ag10  1  0.75078211  0.75058293  -0.00225984  1
  Ag  Ag11  1  0.00376526  0.50306398  0.49789670  1
  Ag  Ag12  1  0.75345965  -0.00084184  0.25218176  1
  Ag  Ag13  1  0.74916212  -0.00267095  0.74800135  1
  Ag  Ag14  1  0.24723268  0.25257524  0.00155862  1
  Ag  Ag15  1  0.74844686  0.50296216  0.74856690  1
  Sb  Sb16  1  0.24655756  0.00048194  0.25338561  1
  Sb  Sb17  1  0.25138302  -0.00134981  0.74595610  1
  Sb  Sb18  1  0.50076218  0.50154854  -0.00408776  1
  Sb  Sb19  1  0.75357419  0.50060804  0.25191655  1
  Sb  Sb20  1  0.50164598  0.74940445  0.25583844  1
  Sb  Sb21  1  0.50066182  0.25293127  0.74921412  1
  Sb  Sb22  1  0.50342883  -0.00165729  -0.00177857  1
  Sb  Sb23  1  0.75199483  0.24830059  0.49884969  1
  Sb  Sb24  1  -0.00296445  0.74883958  0.74461095  1
  Sb  Sb25  1  0.50084214  0.25063784  0.25015069  1
  Sb  Sb26  1  -0.00096997  0.25087521  0.74976497  1
  Sb  Sb27  1  0.24884488  0.74772560  0.00000345  1
  Sb  Sb28  1  0.24760267  0.25825052  0.49848198  1
  Sb  Sb29  1  0.75089263  0.75121506  0.50238966  1
  Sb  Sb30  1  -0.00033295  0.49967915  0.00254880  1
  Sb  Sb31  1  -0.00345487  0.00005177  0.00373397  1
  Te  Te32  1  0.24550019  0.25333558  0.24576033  1
  Te  Te33  1  0.24932072  0.25591493  0.75672079  1
  Te  Te34  1  0.24606312  0.74642725  0.25115688  1
  Te  Te35  1  0.25307937  0.74567925  0.74881531  1
  Te  Te36  1  0.75408243  0.24795092  0.24427216  1
  Te  Te37  1  0.75110136  0.25000039  0.75740364  1
  Te  Te38  1  0.75302774  0.75213804  0.24474676  1
  Te  Te39  1  0.74866162  0.74956279  0.75290514  1
  Te  Te40  1  0.25066246  0.00678953  -0.00030717  1
  Te  Te41  1  0.24986324  -0.00595899  0.50068842  1
  Te  Te42  1  0.25001233  0.49647838  -0.00027708  1
  Te  Te43  1  0.24923681  0.50123461  0.50101737  1
  Te  Te44  1  0.74975767  0.00060673  -0.00122834  1
  Te  Te45  1  0.75063849  0.00069769  0.50041862  1
  Te  Te46  1  0.75015059  0.49951514  -0.00498790  1
  Te  Te47  1  0.74994727  0.49902173  0.50455695  1
  Te  Te48  1  -0.00156738  0.24995184  0.00606137  1
  Te  Te49  1  0.00064038  0.24970613  0.49354200  1
  Te  Te50  1  -0.00455800  0.75022909  0.00776150  1
  Te  Te51  1  0.00260150  0.74936033  0.49657061  1
  Te  Te52  1  0.50191933  0.24982892  0.00059960  1
  Te  Te53  1  0.49955073  0.24872495  0.49972333  1
  Te  Te54  1  0.50516606  0.75017542  -0.00716311  1
  Te  Te55  1  0.49685735  0.74897275  0.50294707  1
  Te  Te56  1  -0.00365935  -0.00022500  0.25430972  1
  Te  Te57  1  -0.00619206  -0.00005722  0.74149016  1
  Te  Te58  1  0.00170949  0.50024771  0.25450534  1
  Te  Te59  1  -0.00053337  0.50040450  0.74291413  1
  Te  Te60  1  0.50686992  -0.00046003  0.25814422  1
  Te  Te61  1  0.50448403  -0.00417710  0.74387275  1
  Te  Te62  1  0.49416453  0.50059007  0.25884354  1
  Te  Te63  1  0.50110035  0.50258409  0.74553732  1
