# generated using pymatgen
data_AgSbTe2
_symmetry_space_group_name_H-M   'P 1'
_cell_length_a   12.21731891
_cell_length_b   12.22324889
_cell_length_c   12.21265877
_cell_angle_alpha   90.00722599
_cell_angle_beta   89.98983359
_cell_angle_gamma   90.00394719
_symmetry_Int_Tables_number   1
_chemical_formula_structural   AgSbTe2
_chemical_formula_sum   'Ag16 Sb16 Te32'
_cell_volume   1823.78137777
_cell_formula_units_Z   16
loop_
 _symmetry_equiv_pos_site_id
 _symmetry_equiv_pos_as_xyz
  1  'x, y, z'
loop_
 _atom_site_type_symbol
 _atom_site_label
 _atom_site_symmetry_multiplicity
 _atom_site_fract_x
 _atom_site_fract_y
 _atom_site_fract_z
 _atom_site_occupancy
  Ag  Ag0  1  0.74984691  0.25127065  0.00238915  1
  Ag  Ag1  1  0.25121454  0.00386927  0.74454814  1
  Ag  Ag2  1  0.74930560  0.74846717  0.00414246  1
  Ag  Ag3  1  0.50031739  0.25125333  0.25390117  1
  Ag  Ag4  1  0.00033875  0.00305511  -0.00028761  1
  Ag  Ag5  1  0.25086539  0.24714982  -0.00137273  1
  Ag  Ag6  1  -0.00368667  0.49718261  0.00238952  1
  Ag  Ag7  1  0.49437691  0.00052076  0.49961435  1
  Ag  Ag8  1  0.25726379  0.24361669  0.50152103  1
  Ag  Ag9  1  0.50390040  0.74878227  0.25681285  1
  Ag  Ag10  1  0.25614420  0.75674062  0.49901201  1
  Ag  Ag11  1  0.49642821  0.24798785  0.74666894  1
  Ag  Ag12  1  0.74558054  0.50169064  0.24832671  1
  Ag  Ag13  1  0.00581902  0.00008726  0.50074095  1
  Ag  Ag14  1  0.74281584  0.75061223  0.49515209  1
  Ag  Ag15  1  0.50030527  0.49994923  0.49589160  1
  Sb  Sb16  1  0.00336987  0.24719651  0.75129068  1
  Sb  Sb17  1  0.74738426  0.49852945  0.75193397  1
  Sb  Sb18  1  0.74813101  0.00183301  0.74929740  1
  Sb  Sb19  1  -0.00134281  0.25049684  0.24827359  1
  Sb  Sb20  1  0.25151082  0.00123611  0.25687364  1
  Sb  Sb21  1  0.50311890  0.49738645  0.00401982  1
  Sb  Sb22  1  0.74784275  -0.00204349  0.24985465  1
  Sb  Sb23  1  0.25310026  0.49559008  0.75003831  1
  Sb  Sb24  1  -0.00093302  0.49978226  0.49786362  1
  Sb  Sb25  1  0.74194718  0.24920252  0.49684621  1
  Sb  Sb26  1  -0.00488301  0.74931055  0.25076635  1
  Sb  Sb27  1  0.00057738  0.75222963  0.74962475  1
  Sb  Sb28  1  0.25530211  0.49875604  0.25032110  1
  Sb  Sb29  1  0.49922309  0.75185744  0.74249272  1
  Sb  Sb30  1  0.49834845  0.00266399  -0.00044982  1
  Sb  Sb31  1  0.25025884  0.75367948  0.00152770  1
  Te  Te32  1  0.25713630  0.25126663  0.24913080  1
  Te  Te33  1  0.25435876  0.24680082  0.75013434  1
  Te  Te34  1  0.25884284  0.74836941  0.25514698  1
  Te  Te35  1  0.25137001  0.75690433  0.74477174  1
  Te  Te36  1  0.74424709  0.25463088  0.24533312  1
  Te  Te37  1  0.74210364  0.24951565  0.75779941  1
  Te  Te38  1  0.74604369  0.74738527  0.25007544  1
  Te  Te39  1  0.74865004  0.75022348  0.75173205  1
  Te  Te40  1  0.24653195  0.00246713  -0.00499458  1
  Te  Te41  1  0.25025246  0.00154086  0.50075776  1
  Te  Te42  1  0.24440853  0.49601261  -0.00029771  1
  Te  Te43  1  0.25128675  0.49877729  0.50011227  1
  Te  Te44  1  0.75474680  0.00020508  -0.00089934  1
  Te  Te45  1  0.75109537  -0.00351359  0.50099287  1
  Te  Te46  1  0.75166541  0.50015074  0.00175817  1
  Te  Te47  1  0.74957771  0.50332217  0.49657202  1
  Te  Te48  1  0.00024404  0.24710889  0.00084453  1
  Te  Te49  1  0.00603604  0.24562417  0.49951108  1
  Te  Te50  1  -0.00326494  0.75253908  0.00045138  1
  Te  Te51  1  0.00039290  0.75328583  0.49913012  1
  Te  Te52  1  0.49858638  0.24963976  0.00180823  1
  Te  Te53  1  0.50002634  0.24887982  0.49784789  1
  Te  Te54  1  0.50477780  0.74998319  0.00544085  1
  Te  Te55  1  0.50092306  0.75063440  0.49927615  1
  Te  Te56  1  -0.00050652  0.00016011  0.24961480  1
  Te  Te57  1  0.00568107  0.00082860  0.74891670  1
  Te  Te58  1  -0.00920732  0.49985573  0.24443617  1
  Te  Te59  1  0.00032144  0.49937908  0.75830316  1
  Te  Te60  1  0.50079160  0.00092295  0.25551201  1
  Te  Te61  1  0.49544363  0.00468308  0.74535096  1
  Te  Te62  1  0.50406153  0.49935953  0.25402945  1
  Te  Te63  1  0.49958345  0.49311465  0.74137585  1
