# generated using pymatgen
data_AgSbTe2
_symmetry_space_group_name_H-M   'P 1'
_cell_length_a   12.22026678
_cell_length_b   12.22011452
_cell_length_c   12.22303058
_cell_angle_alpha   89.99867729
_cell_angle_beta   90.00261531
_cell_angle_gamma   89.99089244
_symmetry_Int_Tables_number   1
_chemical_formula_structural   AgSbTe2
_chemical_formula_sum   'Ag16 Sb16 Te32'
_cell_volume   1825.30252847
_cell_formula_units_Z   16
loop_
 _symmetry_equiv_pos_site_id
 _symmetry_equiv_pos_as_xyz
  1  'x, y, z'
loop_
 _atom_site_type_symbol
 _atom_site_label
 _atom_site_symmetry_multiplicity
 _atom_site_fract_x
 _atom_site_fract_y
 _atom_site_fract_z
 _atom_site_occupancy
  Ag  Ag0  1  0.00379677  0.25217944  0.25185315  1
  Ag  Ag1  1  0.24995908  0.25867949  0.49442997  1
  Ag  Ag2  1  0.24689732  -0.01291413  0.25015046  1
  Ag  Ag3  1  0.75132590  0.00101223  0.74890354  1
  Ag  Ag4  1  0.24986029  0.74658883  0.01425315  1
  Ag  Ag5  1  0.74738366  0.49872797  0.74597457  1
  Ag  Ag6  1  0.25135331  0.74187619  0.48581497  1
  Ag  Ag7  1  0.75018672  0.25608546  0.49825682  1
  Ag  Ag8  1  0.74638847  0.49996037  0.25387714  1
  Ag  Ag9  1  0.01390955  0.74861621  0.24912512  1
  Ag  Ag10  1  0.25295713  0.50153389  0.74476136  1
  Ag  Ag11  1  0.49551153  0.50071474  0.49509894  1
  Ag  Ag12  1  0.48637610  0.74311105  0.25045797  1
  Ag  Ag13  1  0.25371343  0.51257698  0.25483280  1
  Ag  Ag14  1  0.00228316  -0.00212730  0.00438307  1
  Ag  Ag15  1  0.49671033  0.50304447  0.00569924  1
  Sb  Sb16  1  0.00029417  -0.00029643  0.49512717  1
  Sb  Sb17  1  0.24791573  0.25466834  0.00735828  1
  Sb  Sb18  1  0.75366606  0.00086378  0.25113575  1
  Sb  Sb19  1  0.49806474  -0.00503689  0.00385109  1
  Sb  Sb20  1  0.50064415  0.25381868  0.74775396  1
  Sb  Sb21  1  0.75185391  0.25261658  0.00352769  1
  Sb  Sb22  1  0.24869816  -0.00046064  0.75016965  1
  Sb  Sb23  1  0.74847927  0.74151709  0.49700286  1
  Sb  Sb24  1  0.49587279  0.25968712  0.25265637  1
  Sb  Sb25  1  0.00248604  0.74916066  0.75023764  1
  Sb  Sb26  1  -0.00033763  0.25088720  0.74764475  1
  Sb  Sb27  1  0.49811892  0.74566463  0.74914560  1
  Sb  Sb28  1  0.75017452  0.74798637  0.00227757  1
  Sb  Sb29  1  0.49948533  -0.00239656  0.49731166  1
  Sb  Sb30  1  0.00392706  0.50357071  0.00495433  1
  Sb  Sb31  1  0.00701227  0.49991108  0.49552540  1
  Te  Te32  1  0.24725877  0.25133271  0.25382167  1
  Te  Te33  1  0.24892421  0.25481915  0.74075930  1
  Te  Te34  1  0.24920769  0.74861673  0.25051063  1
  Te  Te35  1  0.24898145  0.74530655  0.74892387  1
  Te  Te36  1  0.75459865  0.25369790  0.25413492  1
  Te  Te37  1  0.75079371  0.25509903  0.74363186  1
  Te  Te38  1  0.75109382  0.74518915  0.25120622  1
  Te  Te39  1  0.75071386  0.74604279  0.74920230  1
  Te  Te40  1  0.24811035  -0.00409026  0.00114193  1
  Te  Te41  1  0.25119530  0.00067046  0.49771990  1
  Te  Te42  1  0.25279101  0.50226588  0.00059296  1
  Te  Te43  1  0.25036622  0.50000197  0.49891048  1
  Te  Te44  1  0.75269953  0.00043189  -0.00483661  1
  Te  Te45  1  0.74914275  0.00748343  0.50497552  1
  Te  Te46  1  0.74405046  0.49988357  -0.00072804  1
  Te  Te47  1  0.74594214  0.49828521  0.49995351  1
  Te  Te48  1  0.00066301  0.24234491  0.00849973  1
  Te  Te49  1  0.00072942  0.24963118  0.49394926  1
  Te  Te50  1  0.00487657  0.75344409  0.00524630  1
  Te  Te51  1  0.00703002  0.75099374  0.49308859  1
  Te  Te52  1  0.49978063  0.25941284  0.00022828  1
  Te  Te53  1  0.49933595  0.25624648  0.49887487  1
  Te  Te54  1  0.49473423  0.74475771  0.00527889  1
  Te  Te55  1  0.49523969  0.74498223  0.49516855  1
  Te  Te56  1  0.00210698  -0.00143547  0.24672033  1
  Te  Te57  1  -0.00514202  -0.00006375  0.75825170  1
  Te  Te58  1  -0.00019193  0.50067907  0.24778909  1
  Te  Te59  1  -0.00233635  0.50005185  0.75373167  1
  Te  Te60  1  0.49458792  -0.00975808  0.24852545  1
  Te  Te61  1  0.50796227  -0.00097441  0.75117153  1
  Te  Te62  1  0.49948692  0.50157058  0.25163611  1
  Te  Te63  1  0.50029857  0.50125324  0.74836717  1
