# generated using pymatgen
data_AgSbTe2
_symmetry_space_group_name_H-M   'P 1'
_cell_length_a   12.22997460
_cell_length_b   12.22829398
_cell_length_c   12.21681425
_cell_angle_alpha   89.99294839
_cell_angle_beta   89.99898835
_cell_angle_gamma   90.00385891
_symmetry_Int_Tables_number   1
_chemical_formula_structural   AgSbTe2
_chemical_formula_sum   'Ag16 Sb16 Te32'
_cell_volume   1827.04562304
_cell_formula_units_Z   16
loop_
 _symmetry_equiv_pos_site_id
 _symmetry_equiv_pos_as_xyz
  1  'x, y, z'
loop_
 _atom_site_type_symbol
 _atom_site_label
 _atom_site_symmetry_multiplicity
 _atom_site_fract_x
 _atom_site_fract_y
 _atom_site_fract_z
 _atom_site_occupancy
  Ag  Ag0  1  0.75426802  0.00111348  0.74714722  1
  Ag  Ag1  1  0.75696153  0.25183793  0.49878622  1
  Ag  Ag2  1  -0.00210256  -0.00021632  -0.00133006  1
  Ag  Ag3  1  0.24516816  0.50247754  0.25895606  1
  Ag  Ag4  1  0.00011599  0.25477805  0.25983039  1
  Ag  Ag5  1  0.50091391  -0.00148576  0.49832288  1
  Ag  Ag6  1  0.00268950  0.74469611  0.25718504  1
  Ag  Ag7  1  0.24341703  0.25499628  0.49740828  1
  Ag  Ag8  1  -0.00149907  0.24803902  0.74041886  1
  Ag  Ag9  1  0.75488796  0.49985411  0.25741655  1
  Ag  Ag10  1  0.24704560  0.74522471  0.49531085  1
  Ag  Ag11  1  0.49600737  0.50139508  0.49425139  1
  Ag  Ag12  1  0.00019030  0.75245182  0.74389509  1
  Ag  Ag13  1  0.50154748  -0.00206331  0.00163895  1
  Ag  Ag14  1  0.00346711  0.49664707  0.49275585  1
  Ag  Ag15  1  0.49824823  0.74869187  0.25669227  1
  Sb  Sb16  1  0.24575176  0.00000735  0.74692578  1
  Sb  Sb17  1  0.75413271  0.49824345  0.74232554  1
  Sb  Sb18  1  -0.00019750  0.50052764  0.00690555  1
  Sb  Sb19  1  0.50011218  0.50272708  0.00618747  1
  Sb  Sb20  1  0.24739124  0.49980764  0.73957086  1
  Sb  Sb21  1  0.49906610  0.75309004  0.74316679  1
  Sb  Sb22  1  0.75218011  0.24738053  0.00095946  1
  Sb  Sb23  1  -0.00209113  0.00238563  0.50106327  1
  Sb  Sb24  1  0.75131218  0.00097350  0.25273645  1
  Sb  Sb25  1  0.24645100  0.24912380  0.00295680  1
  Sb  Sb26  1  0.50037071  0.24784587  0.74521713  1
  Sb  Sb27  1  0.24906405  -0.00195342  0.25405411  1
  Sb  Sb28  1  0.49932410  0.25145817  0.25455702  1
  Sb  Sb29  1  0.75088255  0.75240170  0.00083537  1
  Sb  Sb30  1  0.24829917  0.75094652  0.00492853  1
  Sb  Sb31  1  0.75321356  0.74822095  0.49869498  1
  Te  Te32  1  0.24557272  0.25358053  0.25485711  1
  Te  Te33  1  0.24281982  0.25103006  0.74383736  1
  Te  Te34  1  0.24797662  0.74814784  0.25421876  1
  Te  Te35  1  0.24308479  0.74893522  0.74289837  1
  Te  Te36  1  0.75420396  0.25268991  0.25513962  1
  Te  Te37  1  0.75542737  0.24770023  0.74522289  1
  Te  Te38  1  0.75133549  0.74647641  0.25008404  1
  Te  Te39  1  0.75707505  0.75418662  0.75036299  1
  Te  Te40  1  0.25201747  0.00066690  -0.00112838  1
  Te  Te41  1  0.25864174  0.00049491  0.50021818  1
  Te  Te42  1  0.25232638  0.49954540  0.01130311  1
  Te  Te43  1  0.24791282  0.49964876  0.49678598  1
  Te  Te44  1  0.75014604  0.00120473  -0.00499092  1
  Te  Te45  1  0.74425545  0.00511113  0.50343744  1
  Te  Te46  1  0.74779040  0.49917191  0.01013501  1
  Te  Te47  1  0.75201334  0.49651886  0.49627501  1
  Te  Te48  1  0.00101313  0.24523184  -0.00024394  1
  Te  Te49  1  0.00053044  0.24712550  0.49838254  1
  Te  Te50  1  0.00092573  0.75469328  0.00077195  1
  Te  Te51  1  0.00170526  0.75189186  0.49683158  1
  Te  Te52  1  0.49935580  0.24148597  -0.00117679  1
  Te  Te53  1  0.49854738  0.25057939  0.49986843  1
  Te  Te54  1  0.49938727  0.75501584  0.00524898  1
  Te  Te55  1  0.49802199  0.74928005  0.49747702  1
  Te  Te56  1  -0.00136797  -0.00111859  0.24570716  1
  Te  Te57  1  -0.00337050  -0.00026575  0.75158840  1
  Te  Te58  1  -0.00018345  0.50114571  0.25154744  1
  Te  Te59  1  -0.00129254  0.50003918  0.74673813  1
  Te  Te60  1  0.50089733  -0.00398765  0.25114826  1
  Te  Te61  1  0.50555768  -0.00132751  0.74954474  1
  Te  Te62  1  0.50031369  0.50249088  0.25385235  1
  Te  Te63  1  0.50076996  0.50098647  0.74428621  1
