# generated using pymatgen
data_AgSbTe2
_symmetry_space_group_name_H-M   'P 1'
_cell_length_a   12.22645050
_cell_length_b   12.23352693
_cell_length_c   12.22757006
_cell_angle_alpha   89.99804503
_cell_angle_beta   89.99631888
_cell_angle_gamma   89.99759445
_symmetry_Int_Tables_number   1
_chemical_formula_structural   AgSbTe2
_chemical_formula_sum   'Ag16 Sb16 Te32'
_cell_volume   1828.90957839
_cell_formula_units_Z   16
loop_
 _symmetry_equiv_pos_site_id
 _symmetry_equiv_pos_as_xyz
  1  'x, y, z'
loop_
 _atom_site_type_symbol
 _atom_site_label
 _atom_site_symmetry_multiplicity
 _atom_site_fract_x
 _atom_site_fract_y
 _atom_site_fract_z
 _atom_site_occupancy
  Ag  Ag0  1  0.75192235  0.24756551  0.01459580  1
  Ag  Ag1  1  0.75171460  0.01349745  0.25512602  1
  Ag  Ag2  1  0.74890420  0.75226574  0.00154375  1
  Ag  Ag3  1  0.74669564  0.50159677  0.74497009  1
  Ag  Ag4  1  -0.01020274  0.00085373  0.49452421  1
  Ag  Ag5  1  -0.00691627  0.00431555  0.00587833  1
  Ag  Ag6  1  0.74463456  0.75185111  0.49899809  1
  Ag  Ag7  1  0.25595311  0.75175242  0.49991669  1
  Ag  Ag8  1  0.74800718  0.48626356  0.25470098  1
  Ag  Ag9  1  0.51456868  0.24925668  0.25304129  1
  Ag  Ag10  1  0.50729697  0.50285702  0.49885652  1
  Ag  Ag11  1  0.50942115  -0.00289728  0.49715790  1
  Ag  Ag12  1  -0.01448044  0.24573338  0.24904791  1
  Ag  Ag13  1  0.74726637  0.24728877  0.48650320  1
  Ag  Ag14  1  0.24883980  0.24811858  0.00373927  1
  Ag  Ag15  1  0.50550832  0.74914816  0.74343787  1
  Sb  Sb16  1  -0.00651689  0.75532190  0.25126904  1
  Sb  Sb17  1  0.50578955  0.75146920  0.25773749  1
  Sb  Sb18  1  0.25367649  0.49683447  0.25266859  1
  Sb  Sb19  1  0.24854703  0.00191380  0.25130626  1
  Sb  Sb20  1  0.25201413  0.24883965  0.49693160  1
  Sb  Sb21  1  -0.00519007  0.24868807  0.75068031  1
  Sb  Sb22  1  -0.00658550  0.75056304  0.74826222  1
  Sb  Sb23  1  -0.01006769  0.49859855  0.49721761  1
  Sb  Sb24  1  -0.00520066  0.49506085  0.00327407  1
  Sb  Sb25  1  0.25077932  0.75291609  -0.00056685  1
  Sb  Sb26  1  0.50857247  0.00122741  0.00446200  1
  Sb  Sb27  1  0.74874272  -0.00235772  0.74377581  1
  Sb  Sb28  1  0.25570654  0.50100582  0.74703613  1
  Sb  Sb29  1  0.50490177  0.49919356  0.00288983  1
  Sb  Sb30  1  0.25153440  -0.00039210  0.74932672  1
  Sb  Sb31  1  0.50491308  0.25052275  0.74698156  1
  Te  Te32  1  0.25000490  0.25125700  0.24454507  1
  Te  Te33  1  0.25091539  0.25155438  0.75972326  1
  Te  Te34  1  0.24977385  0.74864982  0.25441681  1
  Te  Te35  1  0.25746673  0.74875171  0.74638447  1
  Te  Te36  1  0.74941906  0.24825723  0.25108511  1
  Te  Te37  1  0.74898256  0.25722473  0.75021405  1
  Te  Te38  1  0.74917595  0.75032093  0.24941932  1
  Te  Te39  1  0.74669245  0.74674255  0.74933712  1
  Te  Te40  1  0.24211961  0.00274237  -0.00006663  1
  Te  Te41  1  0.24978773  -0.00405887  0.49932558  1
  Te  Te42  1  0.24909265  0.49572925  -0.00034001  1
  Te  Te43  1  0.25797199  0.50508564  0.50036577  1
  Te  Te44  1  0.75207581  0.00029180  0.00244326  1
  Te  Te45  1  0.75023794  0.00034252  0.49996930  1
  Te  Te46  1  0.74999186  0.50096013  0.00282112  1
  Te  Te47  1  0.74900555  0.50040199  0.49728876  1
  Te  Te48  1  -0.00516104  0.24645892  0.00124235  1
  Te  Te49  1  -0.00036787  0.24569506  0.49774689  1
  Te  Te50  1  -0.00294828  0.75749470  -0.00017542  1
  Te  Te51  1  -0.00242661  0.75551633  0.49997269  1
  Te  Te52  1  0.50339814  0.24901555  0.00367062  1
  Te  Te53  1  0.49998431  0.24867899  0.49811334  1
  Te  Te54  1  0.50325141  0.75080635  -0.00651940  1
  Te  Te55  1  0.50445541  0.75110711  0.49937097  1
  Te  Te56  1  -0.00338733  0.00365134  0.25166192  1
  Te  Te57  1  0.00055833  0.00002528  0.74807550  1
  Te  Te58  1  -0.00667834  0.49095575  0.25058556  1
  Te  Te59  1  -0.00905340  0.50015966  0.74971773  1
  Te  Te60  1  0.50505148  0.00373143  0.25488579  1
  Te  Te61  1  0.50003879  -0.00484785  0.74113290  1
  Te  Te62  1  0.50458562  0.49537373  0.25421733  1
  Te  Te63  1  0.50523519  0.50305199  0.74407858  1
