# generated using pymatgen
data_AgSbTe2
_symmetry_space_group_name_H-M   'P 1'
_cell_length_a   12.21344023
_cell_length_b   12.20757125
_cell_length_c   12.21178979
_cell_angle_alpha   89.99115982
_cell_angle_beta   89.99645306
_cell_angle_gamma   90.00135235
_symmetry_Int_Tables_number   1
_chemical_formula_structural   AgSbTe2
_chemical_formula_sum   'Ag16 Sb16 Te32'
_cell_volume   1820.73438059
_cell_formula_units_Z   16
loop_
 _symmetry_equiv_pos_site_id
 _symmetry_equiv_pos_as_xyz
  1  'x, y, z'
loop_
 _atom_site_type_symbol
 _atom_site_label
 _atom_site_symmetry_multiplicity
 _atom_site_fract_x
 _atom_site_fract_y
 _atom_site_fract_z
 _atom_site_occupancy
  Ag  Ag0  1  0.24602842  0.75175339  0.00180150  1
  Ag  Ag1  1  0.50712277  0.24918832  0.25050179  1
  Ag  Ag2  1  0.75327626  0.24725986  0.00109849  1
  Ag  Ag3  1  -0.00294560  0.00190117  -0.00098627  1
  Ag  Ag4  1  0.50258500  0.75069008  0.24777843  1
  Ag  Ag5  1  0.24685744  0.00488635  0.75223239  1
  Ag  Ag6  1  0.75326015  0.00820904  0.75287188  1
  Ag  Ag7  1  -0.00387806  0.24674722  0.75036096  1
  Ag  Ag8  1  0.75138000  0.00556604  0.24745875  1
  Ag  Ag9  1  0.75344159  0.49499465  0.24934546  1
  Ag  Ag10  1  -0.00208647  0.74870484  0.24631214  1
  Ag  Ag11  1  -0.00234837  0.49492925  0.49745075  1
  Ag  Ag12  1  0.50407290  0.24704697  0.74931450  1
  Ag  Ag13  1  0.75185624  0.24993566  0.49893156  1
  Ag  Ag14  1  -0.00249513  0.49821072  0.00292173  1
  Ag  Ag15  1  0.24789400  0.24962646  0.50197723  1
  Sb  Sb16  1  0.75201486  0.74936155  0.49689671  1
  Sb  Sb17  1  0.50399854  0.49808930  0.00279270  1
  Sb  Sb18  1  0.50434011  0.00154411  0.00095411  1
  Sb  Sb19  1  0.50119128  0.00343590  0.49903429  1
  Sb  Sb20  1  0.24685052  0.75099382  0.49890611  1
  Sb  Sb21  1  0.24774398  0.49438698  0.75056579  1
  Sb  Sb22  1  0.24715671  0.00226510  0.24728706  1
  Sb  Sb23  1  0.50340845  0.49543945  0.49732179  1
  Sb  Sb24  1  -0.00926162  0.25171185  0.24944742  1
  Sb  Sb25  1  0.49985119  0.75317446  0.75273655  1
  Sb  Sb26  1  0.75298673  0.48995572  0.75096583  1
  Sb  Sb27  1  -0.00000261  0.75363269  0.75346045  1
  Sb  Sb28  1  0.24512071  0.49860297  0.24937736  1
  Sb  Sb29  1  0.24552615  0.24838682  -0.00136029  1
  Sb  Sb30  1  -0.00184988  0.00618608  0.50063438  1
  Sb  Sb31  1  0.75386285  0.75262334  0.00366557  1
  Te  Te32  1  0.26061936  0.24852755  0.25445152  1
  Te  Te33  1  0.24967887  0.24564277  0.74822377  1
  Te  Te34  1  0.25047690  0.75064432  0.24715795  1
  Te  Te35  1  0.25253043  0.75825714  0.75387636  1
  Te  Te36  1  0.74921611  0.24841616  0.24987692  1
  Te  Te37  1  0.75069841  0.24751066  0.75012681  1
  Te  Te38  1  0.74971236  0.75125656  0.24991064  1
  Te  Te39  1  0.74707790  0.76103232  0.74926953  1
  Te  Te40  1  0.24321106  -0.00197130  -0.00332987  1
  Te  Te41  1  0.24862080  0.00569228  0.50663945  1
  Te  Te42  1  0.24095927  0.50458575  -0.00036632  1
  Te  Te43  1  0.24222866  0.49383255  0.50055622  1
  Te  Te44  1  0.75390461  0.00272770  0.00105791  1
  Te  Te45  1  0.75129640  0.00642322  0.49900480  1
  Te  Te46  1  0.75569573  0.49630832  0.00380819  1
  Te  Te47  1  0.75520051  0.49456084  0.49586954  1
  Te  Te48  1  -0.00154857  0.24937424  -0.00154083  1
  Te  Te49  1  -0.00150388  0.25293312  0.50163406  1
  Te  Te50  1  0.00214711  0.74980385  0.00269486  1
  Te  Te51  1  0.00150026  0.74103423  0.49382673  1
  Te  Te52  1  0.50400521  0.25087360  0.00078871  1
  Te  Te53  1  0.50151638  0.25135793  0.49972088  1
  Te  Te54  1  0.49360534  0.74917032  0.00563031  1
  Te  Te55  1  0.49842453  0.74744658  0.49141406  1
  Te  Te56  1  -0.00361965  -0.00355290  0.24648833  1
  Te  Te57  1  -0.00187104  0.00233123  0.75253835  1
  Te  Te58  1  -0.00403257  0.50134465  0.24790924  1
  Te  Te59  1  -0.00119640  0.49655235  0.75121398  1
  Te  Te60  1  0.50555678  0.00081485  0.24942769  1
  Te  Te61  1  0.50142197  0.00579811  0.75046553  1
  Te  Te62  1  0.50716889  0.49906182  0.24942930  1
  Te  Te63  1  0.50033917  0.49276904  0.75016826  1
