# generated using pymatgen
data_AgSbTe2
_symmetry_space_group_name_H-M   'P 1'
_cell_length_a   12.20976057
_cell_length_b   12.20400687
_cell_length_c   12.21069117
_cell_angle_alpha   89.99796884
_cell_angle_beta   89.99848405
_cell_angle_gamma   89.99919062
_symmetry_Int_Tables_number   1
_chemical_formula_structural   AgSbTe2
_chemical_formula_sum   'Ag16 Sb16 Te32'
_cell_volume   1819.49069133
_cell_formula_units_Z   16
loop_
 _symmetry_equiv_pos_site_id
 _symmetry_equiv_pos_as_xyz
  1  'x, y, z'
loop_
 _atom_site_type_symbol
 _atom_site_label
 _atom_site_symmetry_multiplicity
 _atom_site_fract_x
 _atom_site_fract_y
 _atom_site_fract_z
 _atom_site_occupancy
  Ag  Ag0  1  0.49919518  0.25366348  0.74908482  1
  Ag  Ag1  1  0.75488300  0.74876410  0.00210585  1
  Ag  Ag2  1  0.00080705  0.25395384  0.74806205  1
  Ag  Ag3  1  0.24679621  0.50552253  0.25220258  1
  Ag  Ag4  1  0.75374848  0.50085009  0.74817116  1
  Ag  Ag5  1  0.24517847  0.74786506  0.00580363  1
  Ag  Ag6  1  0.75756782  0.74726647  0.49800095  1
  Ag  Ag7  1  0.00056876  -0.00494905  0.49780801  1
  Ag  Ag8  1  0.49572013  0.74713848  0.25051199  1
  Ag  Ag9  1  0.00247211  0.25160378  0.25219302  1
  Ag  Ag10  1  0.00052587  -0.00404354  0.00206880  1
  Ag  Ag11  1  0.00225254  0.50501922  0.50000152  1
  Ag  Ag12  1  0.24268957  0.74564072  0.49436554  1
  Ag  Ag13  1  0.00417533  0.74842762  0.25333348  1
  Ag  Ag14  1  0.24595069  0.50044817  0.74745254  1
  Ag  Ag15  1  0.49759119  0.25298944  0.25098394  1
  Sb  Sb16  1  0.75702030  -0.00529662  0.25074375  1
  Sb  Sb17  1  0.49570756  0.50140739  0.49879025  1
  Sb  Sb18  1  0.49913510  -0.00323524  0.00157094  1
  Sb  Sb19  1  0.00118960  0.50817502  -0.00066107  1
  Sb  Sb20  1  0.49921616  0.74450282  0.74934402  1
  Sb  Sb21  1  0.75578058  0.25530536  0.50109262  1
  Sb  Sb22  1  0.75562705  0.50586447  0.25358530  1
  Sb  Sb23  1  0.00053260  0.74213975  0.74312481  1
  Sb  Sb24  1  0.49940342  0.50242794  0.00149847  1
  Sb  Sb25  1  0.75401181  0.25269916  -0.00111608  1
  Sb  Sb26  1  0.49892106  -0.00243487  0.49835304  1
  Sb  Sb27  1  0.75490775  -0.00205729  0.74940844  1
  Sb  Sb28  1  0.24436071  0.25709889  0.49881054  1
  Sb  Sb29  1  0.24633684  0.25338579  0.00184537  1
  Sb  Sb30  1  0.24494139  -0.00058743  0.74929779  1
  Sb  Sb31  1  0.24330109  -0.01000935  0.25067984  1
  Te  Te32  1  0.25001720  0.25927485  0.24898004  1
  Te  Te33  1  0.24940517  0.25833711  0.75052250  1
  Te  Te34  1  0.24909668  0.74787007  0.25031493  1
  Te  Te35  1  0.25367287  0.74190479  0.74999992  1
  Te  Te36  1  0.74897292  0.25255392  0.24931369  1
  Te  Te37  1  0.75044400  0.25815096  0.75070988  1
  Te  Te38  1  0.75026810  0.74733956  0.25016418  1
  Te  Te39  1  0.74638207  0.74313434  0.74990858  1
  Te  Te40  1  0.24081740  -0.01182560  -0.00186800  1
  Te  Te41  1  0.24023972  -0.01250079  0.50169899  1
  Te  Te42  1  0.24948362  0.50878561  -0.00021340  1
  Te  Te43  1  0.24503725  0.50598891  0.50012999  1
  Te  Te44  1  0.75954213  -0.01178515  -0.00173972  1
  Te  Te45  1  0.76023280  -0.01232204  0.50146461  1
  Te  Te46  1  0.75014028  0.50995171  -0.01057592  1
  Te  Te47  1  0.75800850  0.50756982  0.50680909  1
  Te  Te48  1  -0.00072482  0.24024109  0.00129992  1
  Te  Te49  1  -0.00066708  0.24976907  0.49865127  1
  Te  Te50  1  0.00029549  0.75339804  0.00433609  1
  Te  Te51  1  0.00021301  0.74929325  0.50034791  1
  Te  Te52  1  0.50079179  0.24680161  0.00222768  1
  Te  Te53  1  0.50115684  0.24789193  0.49769058  1
  Te  Te54  1  0.49994573  0.75288074  0.00808663  1
  Te  Te55  1  0.50016726  0.75209859  0.49233517  1
  Te  Te56  1  -0.00037848  0.00129667  0.25094340  1
  Te  Te57  1  -0.00011004  0.01287683  0.74933890  1
  Te  Te58  1  0.00344672  0.49983616  0.25427199  1
  Te  Te59  1  0.00144622  0.49415745  0.74630889  1
  Te  Te60  1  0.50032125  0.00279757  0.25005654  1
  Te  Te61  1  0.50025154  0.01469619  0.74999030  1
  Te  Te62  1  0.49257346  0.49878154  0.25094972  1
  Te  Te63  1  0.49899501  0.49120902  0.74902776  1
