# generated using pymatgen
data_AgSbTe2
_symmetry_space_group_name_H-M   'P 1'
_cell_length_a   12.21905008
_cell_length_b   12.21765843
_cell_length_c   12.21915780
_cell_angle_alpha   90.00443516
_cell_angle_beta   89.99595971
_cell_angle_gamma   89.99623922
_symmetry_Int_Tables_number   1
_chemical_formula_structural   AgSbTe2
_chemical_formula_sum   'Ag16 Sb16 Te32'
_cell_volume   1824.17581792
_cell_formula_units_Z   16
loop_
 _symmetry_equiv_pos_site_id
 _symmetry_equiv_pos_as_xyz
  1  'x, y, z'
loop_
 _atom_site_type_symbol
 _atom_site_label
 _atom_site_symmetry_multiplicity
 _atom_site_fract_x
 _atom_site_fract_y
 _atom_site_fract_z
 _atom_site_occupancy
  Ag  Ag0  1  0.25525890  -0.00008346  0.75374566  1
  Ag  Ag1  1  0.50163299  0.24866803  0.24471582  1
  Ag  Ag2  1  0.50001912  0.00593208  -0.00792184  1
  Ag  Ag3  1  0.00303914  0.50242388  -0.00199300  1
  Ag  Ag4  1  0.50256207  0.00136345  0.50801994  1
  Ag  Ag5  1  0.00078146  -0.00251594  -0.00362729  1
  Ag  Ag6  1  0.74895007  0.75470751  0.50132220  1
  Ag  Ag7  1  -0.00247711  -0.00276797  0.50337951  1
  Ag  Ag8  1  0.49974979  0.49838466  0.50450056  1
  Ag  Ag9  1  -0.00020169  0.75242214  0.24661716  1
  Ag  Ag10  1  0.74371293  0.24688001  -0.00230272  1
  Ag  Ag11  1  0.74456470  0.00114250  0.75085069  1
  Ag  Ag12  1  0.25521719  0.50063705  0.75474811  1
  Ag  Ag13  1  0.49710820  0.49444375  -0.00513701  1
  Ag  Ag14  1  0.50029227  0.24564949  0.75464951  1
  Ag  Ag15  1  0.24897216  0.75093227  -0.00221853  1
  Sb  Sb16  1  0.74561866  0.24503055  0.50364454  1
  Sb  Sb17  1  0.25071644  0.75239114  0.50224498  1
  Sb  Sb18  1  0.25309117  0.24816438  0.50260667  1
  Sb  Sb19  1  -0.00187733  0.24866676  0.24529194  1
  Sb  Sb20  1  0.49982664  0.75596863  0.75130042  1
  Sb  Sb21  1  0.74859775  0.49977420  0.24861565  1
  Sb  Sb22  1  0.50052009  0.75144449  0.24887260  1
  Sb  Sb23  1  0.25084196  -0.00158369  0.24447731  1
  Sb  Sb24  1  0.00069029  0.75265191  0.75339884  1
  Sb  Sb25  1  0.74943973  0.00024804  0.24931732  1
  Sb  Sb26  1  0.75079710  0.75371886  -0.00143647  1
  Sb  Sb27  1  -0.00132230  0.24718308  0.75306461  1
  Sb  Sb28  1  0.74291816  0.49845717  0.75180762  1
  Sb  Sb29  1  0.25786066  0.24879239  -0.00289970  1
  Sb  Sb30  1  0.00047899  0.50407713  0.50226090  1
  Sb  Sb31  1  0.25194935  0.50180159  0.24388474  1
  Te  Te32  1  0.25922617  0.25030621  0.25158233  1
  Te  Te33  1  0.25666349  0.24846953  0.74997219  1
  Te  Te34  1  0.24373667  0.75010697  0.24203639  1
  Te  Te35  1  0.24997208  0.75074348  0.75609194  1
  Te  Te36  1  0.74303618  0.25036211  0.24198509  1
  Te  Te37  1  0.74458444  0.24441918  0.75452684  1
  Te  Te38  1  0.75584554  0.74974418  0.25615197  1
  Te  Te39  1  0.75046874  0.75761893  0.74436186  1
  Te  Te40  1  0.24942083  -0.00178207  -0.00420269  1
  Te  Te41  1  0.25116350  -0.00170164  0.50796673  1
  Te  Te42  1  0.25152059  0.50200694  -0.00418984  1
  Te  Te43  1  0.25463533  0.50148414  0.50848219  1
  Te  Te44  1  0.74943901  -0.00046599  -0.00329854  1
  Te  Te45  1  0.74842080  -0.00155769  0.50338300  1
  Te  Te46  1  0.74863631  0.49844013  -0.00205489  1
  Te  Te47  1  0.74599747  0.50519432  0.50196618  1
  Te  Te48  1  -0.00751467  0.24840521  0.00203815  1
  Te  Te49  1  -0.00214554  0.24306986  0.49719899  1
  Te  Te50  1  -0.00049805  0.75182684  0.00248211  1
  Te  Te51  1  -0.00192192  0.75286105  0.49532053  1
  Te  Te52  1  0.50139352  0.24917225  -0.00191143  1
  Te  Te53  1  0.50238186  0.24871344  0.50133585  1
  Te  Te54  1  0.49876082  0.74940012  0.00313239  1
  Te  Te55  1  0.50220799  0.75157273  0.49665151  1
  Te  Te56  1  0.00058580  -0.00227516  0.24885866  1
  Te  Te57  1  0.00184674  0.00206869  0.75169213  1
  Te  Te58  1  0.00087957  0.50282661  0.24524919  1
  Te  Te59  1  0.00645454  0.49759470  0.75488700  1
  Te  Te60  1  0.49910279  0.00339169  0.25036468  1
  Te  Te61  1  0.49885241  0.00021935  0.75053050  1
  Te  Te62  1  0.49899971  0.49607802  0.24972656  1
  Te  Te63  1  0.49851775  0.49667980  0.75188173  1
