# generated using pymatgen
data_AgSbTe2
_symmetry_space_group_name_H-M   'P 1'
_cell_length_a   12.24104380
_cell_length_b   12.21596000
_cell_length_c   12.23617070
_cell_angle_alpha   90.00654249
_cell_angle_beta   90.00104984
_cell_angle_gamma   89.99918202
_symmetry_Int_Tables_number   1
_chemical_formula_structural   AgSbTe2
_chemical_formula_sum   'Ag16 Sb16 Te32'
_cell_volume   1829.74925028
_cell_formula_units_Z   16
loop_
 _symmetry_equiv_pos_site_id
 _symmetry_equiv_pos_as_xyz
  1  'x, y, z'
loop_
 _atom_site_type_symbol
 _atom_site_label
 _atom_site_symmetry_multiplicity
 _atom_site_fract_x
 _atom_site_fract_y
 _atom_site_fract_z
 _atom_site_occupancy
  Ag  Ag0  1  0.00098893  0.50553387  -0.00957031  1
  Ag  Ag1  1  0.49892485  0.49922648  0.50468724  1
  Ag  Ag2  1  0.24496741  0.50255469  0.74984378  1
  Ag  Ag3  1  0.75364726  -0.00289999  0.75001717  1
  Ag  Ag4  1  0.24951383  -0.00076495  0.25038266  1
  Ag  Ag5  1  0.75070464  0.50090894  0.24987394  1
  Ag  Ag6  1  0.24943905  0.24981772  0.50164077  1
  Ag  Ag7  1  0.75565701  0.50274038  0.75003166  1
  Ag  Ag8  1  0.49633680  -0.00328635  -0.00293806  1
  Ag  Ag9  1  0.00363198  -0.00562826  -0.00597260  1
  Ag  Ag10  1  0.00107759  0.50110098  0.50938311  1
  Ag  Ag11  1  0.24685055  0.74992439  -0.00325530  1
  Ag  Ag12  1  0.00104470  0.74608142  0.75285398  1
  Ag  Ag13  1  0.00384263  -0.00086548  0.50569857  1
  Ag  Ag14  1  0.49590654  0.00082522  0.50291334  1
  Ag  Ag15  1  0.49921415  0.50322021  -0.00468544  1
  Sb  Sb16  1  0.49709235  0.74781379  0.75276252  1
  Sb  Sb17  1  0.00258466  0.25714047  0.74751279  1
  Sb  Sb18  1  0.75020134  -0.00160504  0.24992519  1
  Sb  Sb19  1  0.49712145  0.25166924  0.74720972  1
  Sb  Sb20  1  0.49685317  0.25054474  0.25252573  1
  Sb  Sb21  1  0.75034441  0.25347510  -0.00142202  1
  Sb  Sb22  1  0.75098850  0.25356066  0.50135859  1
  Sb  Sb23  1  0.24968934  0.50120111  0.25094137  1
  Sb  Sb24  1  0.49708278  0.74943811  0.24793182  1
  Sb  Sb25  1  0.00325132  0.25063407  0.25250643  1
  Sb  Sb26  1  0.24384528  -0.00485646  0.74981431  1
  Sb  Sb27  1  0.00286545  0.74896403  0.24375339  1
  Sb  Sb28  1  0.24623530  0.75014119  0.50592410  1
  Sb  Sb29  1  0.75290457  0.74659007  0.50464094  1
  Sb  Sb30  1  0.24965514  0.24990537  -0.00307456  1
  Sb  Sb31  1  0.75620158  0.74704374  -0.00528944  1
  Te  Te32  1  0.25002651  0.23780045  0.26278753  1
  Te  Te33  1  0.25033007  0.26438540  0.73927466  1
  Te  Te34  1  0.24865438  0.76114539  0.23521511  1
  Te  Te35  1  0.24005574  0.74104089  0.75881474  1
  Te  Te36  1  0.74984581  0.26416443  0.25141308  1
  Te  Te37  1  0.74965674  0.25060334  0.74842061  1
  Te  Te38  1  0.75130995  0.73714926  0.24960472  1
  Te  Te39  1  0.76286781  0.74880789  0.75120875  1
  Te  Te40  1  0.25008982  0.00116999  -0.00042941  1
  Te  Te41  1  0.25018460  -0.00032439  0.50030223  1
  Te  Te42  1  0.25020745  0.49907109  -0.00012448  1
  Te  Te43  1  0.25026017  0.50023889  0.49930964  1
  Te  Te44  1  0.74958450  -0.00062314  -0.00253456  1
  Te  Te45  1  0.74991801  0.00284112  0.50251133  1
  Te  Te46  1  0.74933272  0.50068480  -0.00478458  1
  Te  Te47  1  0.74958294  0.49738359  0.50479713  1
  Te  Te48  1  0.00361492  0.24886702  0.00093461  1
  Te  Te49  1  0.00888117  0.24906683  0.49951228  1
  Te  Te50  1  0.00508110  0.74997699  -0.00490114  1
  Te  Te51  1  0.00299348  0.75016240  0.50972732  1
  Te  Te52  1  0.49647475  0.24932191  0.00075566  1
  Te  Te53  1  0.49054084  0.24948701  0.49988411  1
  Te  Te54  1  0.48921034  0.75042342  -0.00232419  1
  Te  Te55  1  0.49752742  0.75059527  0.50158672  1
  Te  Te56  1  0.00112635  -0.00116239  0.25050926  1
  Te  Te57  1  -0.00215584  -0.00415836  0.75012728  1
  Te  Te58  1  -0.00428882  0.50158468  0.25052092  1
  Te  Te59  1  -0.00257833  0.50012826  0.74986380  1
  Te  Te60  1  0.49893447  -0.00022845  0.25004916  1
  Te  Te61  1  0.50711682  -0.00274228  0.75002522  1
  Te  Te62  1  0.50430408  0.50024768  0.25002760  1
  Te  Te63  1  0.50264548  0.50274159  0.74998949  1
