# generated using pymatgen
data_AgSbTe2
_symmetry_space_group_name_H-M   'P 1'
_cell_length_a   12.21919272
_cell_length_b   12.22964015
_cell_length_c   12.22686833
_cell_angle_alpha   89.99838757
_cell_angle_beta   89.99442195
_cell_angle_gamma   89.99022317
_symmetry_Int_Tables_number   1
_chemical_formula_structural   AgSbTe2
_chemical_formula_sum   'Ag16 Sb16 Te32'
_cell_volume   1827.13829307
_cell_formula_units_Z   16
loop_
 _symmetry_equiv_pos_site_id
 _symmetry_equiv_pos_as_xyz
  1  'x, y, z'
loop_
 _atom_site_type_symbol
 _atom_site_label
 _atom_site_symmetry_multiplicity
 _atom_site_fract_x
 _atom_site_fract_y
 _atom_site_fract_z
 _atom_site_occupancy
  Ag  Ag0  1  0.24672590  0.50138524  0.74063328  1
  Ag  Ag1  1  0.00262220  -0.00082286  0.00573629  1
  Ag  Ag2  1  0.75666708  0.00432089  0.25039143  1
  Ag  Ag3  1  0.75390835  0.24614735  0.00667275  1
  Ag  Ag4  1  0.49748197  0.24828384  0.25535477  1
  Ag  Ag5  1  0.48745218  0.49475993  0.49711995  1
  Ag  Ag6  1  0.00415350  0.75498609  0.25129736  1
  Ag  Ag7  1  0.24458471  -0.00178219  0.74521032  1
  Ag  Ag8  1  0.24369870  0.75206767  -0.00048163  1
  Ag  Ag9  1  0.01146523  0.49776563  0.49643660  1
  Ag  Ag10  1  0.00170526  0.24474020  0.25338066  1
  Ag  Ag11  1  0.00689067  0.75295591  0.74917455  1
  Ag  Ag12  1  0.24855147  0.25374022  0.49566137  1
  Ag  Ag13  1  0.49292150  0.00473522  0.49658065  1
  Ag  Ag14  1  0.24584610  0.49723549  0.25997079  1
  Ag  Ag15  1  0.00614254  0.00133658  0.49479106  1
  Sb  Sb16  1  0.49238285  0.75025403  0.74783082  1
  Sb  Sb17  1  0.24343266  0.00149821  0.25614894  1
  Sb  Sb18  1  0.75316920  0.50002401  0.74722499  1
  Sb  Sb19  1  0.75312041  0.49713165  0.25154185  1
  Sb  Sb20  1  0.75391953  0.75133947  0.49771152  1
  Sb  Sb21  1  0.00307457  0.50053001  0.00245048  1
  Sb  Sb22  1  0.49727321  0.00259030  0.00282999  1
  Sb  Sb23  1  0.49479403  0.75107338  0.25211399  1
  Sb  Sb24  1  0.49564162  0.49699926  0.00241061  1
  Sb  Sb25  1  0.24578422  0.74690325  0.50039795  1
  Sb  Sb26  1  0.00320620  0.24855652  0.74630965  1
  Sb  Sb27  1  0.24742398  0.24792372  0.00457870  1
  Sb  Sb28  1  0.75148870  0.24779018  0.49558086  1
  Sb  Sb29  1  0.75375449  -0.00026845  0.74887044  1
  Sb  Sb30  1  0.49686428  0.24983989  0.74391063  1
  Sb  Sb31  1  0.75627377  0.75304397  0.00356109  1
  Te  Te32  1  0.24830827  0.25274188  0.25361892  1
  Te  Te33  1  0.25024710  0.25082001  0.74525549  1
  Te  Te34  1  0.24476030  0.74511670  0.24459484  1
  Te  Te35  1  0.24516505  0.75034539  0.75346049  1
  Te  Te36  1  0.75250768  0.24687505  0.24744359  1
  Te  Te37  1  0.74888486  0.25009154  0.76122014  1
  Te  Te38  1  0.75778989  0.75655980  0.24818806  1
  Te  Te39  1  0.76033532  0.74926766  0.75265409  1
  Te  Te40  1  0.24618807  -0.00180675  -0.00569944  1
  Te  Te41  1  0.24761254  0.00206001  0.50147738  1
  Te  Te42  1  0.25047887  0.50235827  -0.00204613  1
  Te  Te43  1  0.24808468  0.49902002  0.49922864  1
  Te  Te44  1  0.75314614  0.00315901  0.00293610  1
  Te  Te45  1  0.75162595  0.00088986  0.49686709  1
  Te  Te46  1  0.74888945  0.49386390  -0.00087255  1
  Te  Te47  1  0.74974401  0.49982717  0.50077142  1
  Te  Te48  1  -0.00073878  0.24601443  0.00539668  1
  Te  Te49  1  0.00179073  0.24936870  0.49648444  1
  Te  Te50  1  0.00339863  0.75270679  0.00162617  1
  Te  Te51  1  -0.00040133  0.75191295  0.49763673  1
  Te  Te52  1  0.50306452  0.24918916  0.00965667  1
  Te  Te53  1  0.49836666  0.24953030  0.49516327  1
  Te  Te54  1  0.49336007  0.74995009  0.00017033  1
  Te  Te55  1  0.50284182  0.75105366  0.49955415  1
  Te  Te56  1  0.00161072  0.00101658  0.25203724  1
  Te  Te57  1  0.00301329  -0.00149473  0.74751303  1
  Te  Te58  1  0.00193831  0.49915559  0.25315891  1
  Te  Te59  1  0.00445964  0.50247400  0.74546148  1
  Te  Te60  1  0.50352728  0.00203779  0.25446494  1
  Te  Te61  1  0.49547596  -0.00078224  0.74364939  1
  Te  Te62  1  0.49776762  0.49881050  0.25448800  1
  Te  Te63  1  0.49433560  0.50078229  0.74303772  1
