# generated using pymatgen
data_AgSbTe2
_symmetry_space_group_name_H-M   'P 1'
_cell_length_a   12.21775338
_cell_length_b   12.21849087
_cell_length_c   12.22021345
_cell_angle_alpha   89.99913644
_cell_angle_beta   90.00328184
_cell_angle_gamma   90.00270689
_symmetry_Int_Tables_number   1
_chemical_formula_structural   AgSbTe2
_chemical_formula_sum   'Ag16 Sb16 Te32'
_cell_volume   1824.26410771
_cell_formula_units_Z   16
loop_
 _symmetry_equiv_pos_site_id
 _symmetry_equiv_pos_as_xyz
  1  'x, y, z'
loop_
 _atom_site_type_symbol
 _atom_site_label
 _atom_site_symmetry_multiplicity
 _atom_site_fract_x
 _atom_site_fract_y
 _atom_site_fract_z
 _atom_site_occupancy
  Ag  Ag0  1  0.00608486  0.49527825  -0.00703959  1
  Ag  Ag1  1  0.49580020  0.00576369  0.00425032  1
  Ag  Ag2  1  0.00445659  0.00449753  0.00068774  1
  Ag  Ag3  1  0.00589844  0.25378647  0.75025259  1
  Ag  Ag4  1  0.49457335  0.49454408  -0.00017805  1
  Ag  Ag5  1  0.00161119  0.00154094  0.49968284  1
  Ag  Ag6  1  0.00109226  0.74681560  0.74743976  1
  Ag  Ag7  1  0.24670300  0.25242260  0.50015626  1
  Ag  Ag8  1  0.24913783  0.25011454  0.00033900  1
  Ag  Ag9  1  0.49534581  0.24805096  0.24759237  1
  Ag  Ag10  1  0.00457100  0.49813840  0.50684286  1
  Ag  Ag11  1  0.75426173  0.75021650  0.49987130  1
  Ag  Ag12  1  0.24404546  0.49564744  0.75032443  1
  Ag  Ag13  1  0.49592874  0.49698225  0.50047121  1
  Ag  Ag14  1  0.24898379  0.00629759  0.24741191  1
  Ag  Ag15  1  0.75178458  0.00137862  0.25008480  1
  Sb  Sb16  1  0.75727663  0.50082931  0.74892067  1
  Sb  Sb17  1  0.75282644  0.75172125  0.00020166  1
  Sb  Sb18  1  -0.00089505  0.75225715  0.25328819  1
  Sb  Sb19  1  0.00494301  0.24696967  0.24950031  1
  Sb  Sb20  1  0.25097147  0.49442448  0.24975761  1
  Sb  Sb21  1  0.74990230  0.49822354  0.25177987  1
  Sb  Sb22  1  0.75149499  0.24878331  0.00175135  1
  Sb  Sb23  1  0.75299858  -0.00101561  0.74884992  1
  Sb  Sb24  1  0.75371484  0.24914400  0.49767486  1
  Sb  Sb25  1  0.24654011  0.74755882  0.50198211  1
  Sb  Sb26  1  0.49440768  0.25272836  0.75195302  1
  Sb  Sb27  1  0.49884611  0.74723993  0.74850035  1
  Sb  Sb28  1  0.50068715  0.75193547  0.25068077  1
  Sb  Sb29  1  0.24805015  0.74965838  -0.00120792  1
  Sb  Sb30  1  0.24633515  0.00467451  0.75150737  1
  Sb  Sb31  1  0.49809528  0.00343804  0.49538955  1
  Te  Te32  1  0.25450629  0.24538367  0.24906204  1
  Te  Te33  1  0.24489252  0.25427026  0.75002091  1
  Te  Te34  1  0.25029816  0.76340647  0.25059676  1
  Te  Te35  1  0.24328198  0.74076425  0.74922646  1
  Te  Te36  1  0.73915224  0.24275462  0.25073481  1
  Te  Te37  1  0.76144498  0.24932588  0.74961447  1
  Te  Te38  1  0.74980774  0.75796756  0.25653654  1
  Te  Te39  1  0.75732587  0.75047196  0.74295411  1
  Te  Te40  1  0.24750150  0.00295057  0.00057275  1
  Te  Te41  1  0.24665070  0.00391333  0.49899618  1
  Te  Te42  1  0.24881131  0.49707153  0.00134311  1
  Te  Te43  1  0.24782712  0.49735193  0.49845818  1
  Te  Te44  1  0.75170346  -0.00121112  0.00559722  1
  Te  Te45  1  0.75346937  -0.00216504  0.49637247  1
  Te  Te46  1  0.74899145  0.50089251  0.00106550  1
  Te  Te47  1  0.75081653  0.50339499  0.49847499  1
  Te  Te48  1  0.00270589  0.24987638  0.00007709  1
  Te  Te49  1  0.00333599  0.25063364  0.49994886  1
  Te  Te50  1  -0.00139727  0.74978751  -0.00579798  1
  Te  Te51  1  -0.00188405  0.74962874  0.50281994  1
  Te  Te52  1  0.49709975  0.25142155  -0.00016002  1
  Te  Te53  1  0.49569599  0.25418319  0.49983475  1
  Te  Te54  1  0.50105698  0.74721510  -0.00124965  1
  Te  Te55  1  0.50495835  0.74310828  0.50168915  1
  Te  Te56  1  0.00019718  0.00066888  0.24871264  1
  Te  Te57  1  0.00096929  0.00018013  0.75056746  1
  Te  Te58  1  -0.00085885  0.50016866  0.24915330  1
  Te  Te59  1  0.00230230  0.49864585  0.75028540  1
  Te  Te60  1  0.49874157  0.00243138  0.24687658  1
  Te  Te61  1  0.50031471  -0.00048457  0.75926542  1
  Te  Te62  1  0.50007732  0.49582990  0.24794298  1
  Te  Te63  1  0.49372997  0.50011594  0.75168812  1
