# generated using pymatgen
data_AgSbTe2
_symmetry_space_group_name_H-M   'P 1'
_cell_length_a   12.22388638
_cell_length_b   12.21717037
_cell_length_c   12.21458232
_cell_angle_alpha   89.99819130
_cell_angle_beta   89.98714772
_cell_angle_gamma   90.00262932
_symmetry_Int_Tables_number   1
_chemical_formula_structural   AgSbTe2
_chemical_formula_sum   'Ag16 Sb16 Te32'
_cell_volume   1824.14158398
_cell_formula_units_Z   16
loop_
 _symmetry_equiv_pos_site_id
 _symmetry_equiv_pos_as_xyz
  1  'x, y, z'
loop_
 _atom_site_type_symbol
 _atom_site_label
 _atom_site_symmetry_multiplicity
 _atom_site_fract_x
 _atom_site_fract_y
 _atom_site_fract_z
 _atom_site_occupancy
  Ag  Ag0  1  0.00297316  0.00464665  0.00506870  1
  Ag  Ag1  1  0.50071589  0.25206183  0.75390596  1
  Ag  Ag2  1  0.24436514  0.25227788  0.49403327  1
  Ag  Ag3  1  0.00745795  0.25102091  0.25139608  1
  Ag  Ag4  1  0.75057277  0.49433966  0.75110881  1
  Ag  Ag5  1  0.49904467  0.74926593  0.24403511  1
  Ag  Ag6  1  0.49691223  0.00259195  0.00300627  1
  Ag  Ag7  1  0.49951684  0.49756329  0.00174447  1
  Ag  Ag8  1  0.24666285  0.49380788  0.24860929  1
  Ag  Ag9  1  0.00048704  0.49185017  0.49636849  1
  Ag  Ag10  1  0.24881812  0.24820970  0.00569295  1
  Ag  Ag11  1  0.24672429  0.00633658  0.24503906  1
  Ag  Ag12  1  0.75551824  0.25376366  0.50179983  1
  Ag  Ag13  1  0.00207838  0.74970834  0.24718214  1
  Ag  Ag14  1  -0.00074018  0.25208965  0.74760190  1
  Ag  Ag15  1  0.74875455  0.74871604  0.00272705  1
  Sb  Sb16  1  0.75041383  0.25151636  -0.00098061  1
  Sb  Sb17  1  -0.00275676  0.74802163  0.75299709  1
  Sb  Sb18  1  0.24933212  0.49437483  0.75192776  1
  Sb  Sb19  1  0.75212021  0.49829186  0.24888900  1
  Sb  Sb20  1  0.49873586  0.49644578  0.49800389  1
  Sb  Sb21  1  0.24937065  0.00620394  0.75581214  1
  Sb  Sb22  1  0.75267006  0.74653082  0.49771103  1
  Sb  Sb23  1  0.49201581  0.25047630  0.24483981  1
  Sb  Sb24  1  0.24765083  0.74726880  0.49333874  1
  Sb  Sb25  1  0.49682252  0.00406704  0.49633785  1
  Sb  Sb26  1  0.50312963  0.74797779  0.75648222  1
  Sb  Sb27  1  0.25078975  0.75150897  0.00508970  1
  Sb  Sb28  1  0.00149802  0.49638500  0.00325188  1
  Sb  Sb29  1  0.00292191  0.00908618  0.49516173  1
  Sb  Sb30  1  0.75047277  0.00612868  0.75292580  1
  Sb  Sb31  1  0.75229849  0.00148413  0.24702126  1
  Te  Te32  1  0.24929755  0.25111628  0.24799156  1
  Te  Te33  1  0.24868048  0.25034323  0.75109001  1
  Te  Te34  1  0.24754875  0.74877542  0.25076743  1
  Te  Te35  1  0.24999220  0.75061316  0.74698379  1
  Te  Te36  1  0.75765816  0.25049521  0.25530922  1
  Te  Te37  1  0.75153492  0.25461923  0.74876396  1
  Te  Te38  1  0.75052435  0.74982225  0.24585020  1
  Te  Te39  1  0.75029013  0.74168736  0.75523650  1
  Te  Te40  1  0.25001509  0.00356804  0.00446384  1
  Te  Te41  1  0.24997450  0.00704720  0.49123826  1
  Te  Te42  1  0.25396058  0.49523364  0.00396785  1
  Te  Te43  1  0.24606173  0.49462788  0.49504699  1
  Te  Te44  1  0.74891578  -0.00539203  -0.00069708  1
  Te  Te45  1  0.74962866  0.00750947  0.50104141  1
  Te  Te46  1  0.74570800  0.50346938  -0.00292093  1
  Te  Te47  1  0.75356243  0.49512678  0.50412779  1
  Te  Te48  1  0.00089818  0.24836512  0.00136839  1
  Te  Te49  1  0.00221506  0.25131829  0.49978301  1
  Te  Te50  1  -0.00250274  0.75291744  0.00480761  1
  Te  Te51  1  -0.00145159  0.74319128  0.49380008  1
  Te  Te52  1  0.49966816  0.24976389  -0.00222630  1
  Te  Te53  1  0.49911332  0.24973103  0.50654124  1
  Te  Te54  1  0.50154461  0.75021055  0.00352208  1
  Te  Te55  1  0.50105687  0.75083633  0.49179273  1
  Te  Te56  1  0.00315805  0.00045999  0.24630204  1
  Te  Te57  1  0.00024454  0.00542183  0.75737228  1
  Te  Te58  1  0.00268370  0.49863765  0.25107543  1
  Te  Te59  1  -0.00221023  0.49558185  0.74733711  1
  Te  Te60  1  0.49591410  -0.00305393  0.24450770  1
  Te  Te61  1  0.49979550  0.00507406  0.75744730  1
  Te  Te62  1  0.49650877  0.50282785  0.24565123  1
  Te  Te63  1  0.50266276  0.49603605  0.75452862  1
