# generated using pymatgen
data_AgSbTe2
_symmetry_space_group_name_H-M   'P 1'
_cell_length_a   12.21751646
_cell_length_b   12.22025543
_cell_length_c   12.21378908
_cell_angle_alpha   90.00254012
_cell_angle_beta   89.99394405
_cell_angle_gamma   89.99687776
_symmetry_Int_Tables_number   1
_chemical_formula_structural   AgSbTe2
_chemical_formula_sum   'Ag16 Sb16 Te32'
_cell_volume   1823.53300780
_cell_formula_units_Z   16
loop_
 _symmetry_equiv_pos_site_id
 _symmetry_equiv_pos_as_xyz
  1  'x, y, z'
loop_
 _atom_site_type_symbol
 _atom_site_label
 _atom_site_symmetry_multiplicity
 _atom_site_fract_x
 _atom_site_fract_y
 _atom_site_fract_z
 _atom_site_occupancy
  Ag  Ag0  1  0.24992715  0.00548859  0.75062371  1
  Ag  Ag1  1  0.75165108  0.74343166  -0.00033856  1
  Ag  Ag2  1  0.24872480  0.74865043  -0.00314187  1
  Ag  Ag3  1  0.50161702  0.25023406  0.74688844  1
  Ag  Ag4  1  0.74991968  0.50229673  0.24609274  1
  Ag  Ag5  1  0.75218932  0.49389468  0.75466389  1
  Ag  Ag6  1  0.50114092  0.00298991  0.50312286  1
  Ag  Ag7  1  -0.00213447  0.25265032  0.75295778  1
  Ag  Ag8  1  0.74744295  0.25257480  0.50845379  1
  Ag  Ag9  1  0.74703616  0.74737738  0.50046428  1
  Ag  Ag10  1  0.75313168  0.25638051  -0.00791969  1
  Ag  Ag11  1  0.50459756  0.74949505  0.24958497  1
  Ag  Ag12  1  0.25229399  0.24943919  0.50862035  1
  Ag  Ag13  1  -0.00611458  0.49926340  -0.00511204  1
  Ag  Ag14  1  -0.00126201  0.00061923  -0.00507699  1
  Ag  Ag15  1  0.24805836  0.49451358  0.75243069  1
  Sb  Sb16  1  -0.00299166  0.49801004  0.50592610  1
  Sb  Sb17  1  0.50293254  0.49678638  0.50180630  1
  Sb  Sb18  1  0.50744680  0.49986724  -0.00158670  1
  Sb  Sb19  1  0.75067123  0.00808415  0.75106940  1
  Sb  Sb20  1  0.50006342  0.00015156  -0.00358465  1
  Sb  Sb21  1  -0.00016781  0.00309728  0.50524640  1
  Sb  Sb22  1  0.74861488  -0.00339736  0.24957744  1
  Sb  Sb23  1  -0.00420744  0.74787372  0.24664881  1
  Sb  Sb24  1  -0.00197027  0.25185564  0.24629606  1
  Sb  Sb25  1  0.24991383  0.50064147  0.24617393  1
  Sb  Sb26  1  0.24698797  0.25208540  -0.00943498  1
  Sb  Sb27  1  0.50295344  0.75050759  0.74961043  1
  Sb  Sb28  1  0.50357869  0.25016136  0.25212259  1
  Sb  Sb29  1  0.25140571  -0.00030244  0.24792110  1
  Sb  Sb30  1  -0.00173011  0.74750409  0.75397183  1
  Sb  Sb31  1  0.25352750  0.74988557  0.50277803  1
  Te  Te32  1  0.25066175  0.25200086  0.26145682  1
  Te  Te33  1  0.25052782  0.25177261  0.74881083  1
  Te  Te34  1  0.25633225  0.74806635  0.24553204  1
  Te  Te35  1  0.25066514  0.74791423  0.75370013  1
  Te  Te36  1  0.74899642  0.25622652  0.25136411  1
  Te  Te37  1  0.75015329  0.25046096  0.74917553  1
  Te  Te38  1  0.74652186  0.74662805  0.24861071  1
  Te  Te39  1  0.74883744  0.74381104  0.75134528  1
  Te  Te40  1  0.24745950  -0.00273176  -0.00310595  1
  Te  Te41  1  0.25085813  0.00158272  0.50420809  1
  Te  Te42  1  0.24437495  0.50231355  -0.00339789  1
  Te  Te43  1  0.24752925  0.49733875  0.50538545  1
  Te  Te44  1  0.75362765  -0.00207184  -0.00076232  1
  Te  Te45  1  0.74848031  0.00082666  0.50041609  1
  Te  Te46  1  0.75101645  0.50113989  -0.00354778  1
  Te  Te47  1  0.75183169  0.49919307  0.50225617  1
  Te  Te48  1  -0.00296610  0.25065910  -0.00359911  1
  Te  Te49  1  -0.00264768  0.24851255  0.50538851  1
  Te  Te50  1  -0.00256282  0.74982748  -0.00077563  1
  Te  Te51  1  -0.00850805  0.75157206  0.49875224  1
  Te  Te52  1  0.50608105  0.24787914  -0.00372914  1
  Te  Te53  1  0.50298366  0.24687985  0.50239403  1
  Te  Te54  1  0.50209083  0.75187235  0.00241017  1
  Te  Te55  1  0.50441695  0.75522149  0.49830536  1
  Te  Te56  1  0.00065484  -0.00009708  0.23921859  1
  Te  Te57  1  0.00519127  0.00528722  0.75509451  1
  Te  Te58  1  -0.00613974  0.49972326  0.24042899  1
  Te  Te59  1  -0.00136367  0.49682946  0.75444897  1
  Te  Te60  1  0.49918566  -0.00492782  0.25757098  1
  Te  Te61  1  0.49482280  0.00473868  0.74545520  1
  Te  Te62  1  0.50594902  0.50550625  0.25053658  1
  Te  Te63  1  0.49968976  0.49393316  0.74979603  1
