# generated using pymatgen
data_AgSbTe2
_symmetry_space_group_name_H-M   'P 1'
_cell_length_a   12.22843975
_cell_length_b   12.21879638
_cell_length_c   12.22681193
_cell_angle_alpha   89.99881951
_cell_angle_beta   89.99961159
_cell_angle_gamma   89.99688069
_symmetry_Int_Tables_number   1
_chemical_formula_structural   AgSbTe2
_chemical_formula_sum   'Ag16 Sb16 Te32'
_cell_volume   1826.89129671
_cell_formula_units_Z   16
loop_
 _symmetry_equiv_pos_site_id
 _symmetry_equiv_pos_as_xyz
  1  'x, y, z'
loop_
 _atom_site_type_symbol
 _atom_site_label
 _atom_site_symmetry_multiplicity
 _atom_site_fract_x
 _atom_site_fract_y
 _atom_site_fract_z
 _atom_site_occupancy
  Ag  Ag0  1  0.00212347  0.25134489  0.75594820  1
  Ag  Ag1  1  0.00421448  0.74812470  0.74864364  1
  Ag  Ag2  1  0.00124615  0.00703492  -0.00312422  1
  Ag  Ag3  1  0.25471341  0.49879863  0.74794653  1
  Ag  Ag4  1  0.49518325  0.74261060  0.25334112  1
  Ag  Ag5  1  0.74592061  0.49647122  0.74980356  1
  Ag  Ag6  1  0.25493690  0.49647991  0.25161327  1
  Ag  Ag7  1  0.49543788  0.50110310  0.50407543  1
  Ag  Ag8  1  0.75366413  0.25097401  -0.00353903  1
  Ag  Ag9  1  0.24621427  0.25238293  -0.00123036  1
  Ag  Ag10  1  0.25246124  0.74524849  0.50332887  1
  Ag  Ag11  1  0.49504673  0.73985555  0.74630462  1
  Ag  Ag12  1  0.00342591  0.00150226  0.50367780  1
  Ag  Ag13  1  0.49494303  0.25659707  0.24821404  1
  Ag  Ag14  1  0.00398480  0.25099827  0.24425655  1
  Ag  Ag15  1  0.49774333  0.25996668  0.75164589  1
  Sb  Sb16  1  0.24884893  0.74675995  -0.00319017  1
  Sb  Sb17  1  0.00581693  0.74921963  0.25058109  1
  Sb  Sb18  1  0.00473354  0.49988219  0.50380817  1
  Sb  Sb19  1  0.75254587  0.00418381  0.75139777  1
  Sb  Sb20  1  0.24883324  0.00476642  0.24995799  1
  Sb  Sb21  1  0.75034199  0.25198151  0.50390590  1
  Sb  Sb22  1  0.49841172  0.00429920  -0.00067350  1
  Sb  Sb23  1  0.49607285  -0.00070418  0.50115353  1
  Sb  Sb24  1  0.00079159  0.49201584  -0.00278819  1
  Sb  Sb25  1  0.75095851  0.00205917  0.24872011  1
  Sb  Sb26  1  0.75165156  0.74863122  -0.00371210  1
  Sb  Sb27  1  0.24713161  0.00286244  0.74999489  1
  Sb  Sb28  1  0.74805034  0.74786789  0.50202268  1
  Sb  Sb29  1  0.74474474  0.49655436  0.25030523  1
  Sb  Sb30  1  0.24961208  0.25483482  0.50094374  1
  Sb  Sb31  1  0.49931077  0.49699544  -0.00566708  1
  Te  Te32  1  0.25150551  0.25375451  0.25062673  1
  Te  Te33  1  0.25014295  0.25314902  0.74992754  1
  Te  Te34  1  0.25356768  0.74364240  0.25034372  1
  Te  Te35  1  0.25069186  0.74541417  0.75046052  1
  Te  Te36  1  0.74968796  0.25172788  0.24392819  1
  Te  Te37  1  0.74985912  0.25390868  0.75303943  1
  Te  Te38  1  0.74081893  0.74852583  0.24871964  1
  Te  Te39  1  0.74954034  0.74286995  0.75202683  1
  Te  Te40  1  0.24411352  0.00879339  0.00058318  1
  Te  Te41  1  0.24444195  -0.01026081  0.49937623  1
  Te  Te42  1  0.24967986  0.49453626  0.00015037  1
  Te  Te43  1  0.25452088  0.50388297  0.50168286  1
  Te  Te44  1  0.75717578  0.00751987  0.00027051  1
  Te  Te45  1  0.76100619  -0.00009436  0.49956820  1
  Te  Te46  1  0.75069393  0.49369695  -0.00675903  1
  Te  Te47  1  0.74031042  0.49967955  0.50657458  1
  Te  Te48  1  0.00196455  0.24887772  -0.00199931  1
  Te  Te49  1  0.00057627  0.24695539  0.50117916  1
  Te  Te50  1  -0.00069325  0.75916203  -0.00420876  1
  Te  Te51  1  0.00282318  0.75185569  0.50331816  1
  Te  Te52  1  0.49836897  0.24731594  -0.00049454  1
  Te  Te53  1  0.49985324  0.25024571  0.50049440  1
  Te  Te54  1  0.50030055  0.75406601  -0.00107127  1
  Te  Te55  1  0.49776609  0.75000126  0.50254612  1
  Te  Te56  1  0.00015108  0.00405258  0.25022213  1
  Te  Te57  1  -0.00036014  0.00178798  0.74960887  1
  Te  Te58  1  0.00373430  0.49522541  0.25205600  1
  Te  Te59  1  0.00255238  0.49915362  0.74790546  1
  Te  Te60  1  0.50003546  0.00236899  0.25128938  1
  Te  Te61  1  0.50125449  -0.00005898  0.74828570  1
  Te  Te62  1  0.49836307  0.49776427  0.25307646  1
  Te  Te63  1  0.49643703  0.49877718  0.74960655  1
