# generated using pymatgen
data_AgSbTe2
_symmetry_space_group_name_H-M   'P 1'
_cell_length_a   12.30516749
_cell_length_b   12.30107856
_cell_length_c   12.30025408
_cell_angle_alpha   89.99470966
_cell_angle_beta   90.00536198
_cell_angle_gamma   90.02757300
_symmetry_Int_Tables_number   1
_chemical_formula_structural   AgSbTe2
_chemical_formula_sum   'Ag16 Sb16 Te32'
_cell_volume   1861.85026174
_cell_formula_units_Z   16
loop_
 _symmetry_equiv_pos_site_id
 _symmetry_equiv_pos_as_xyz
  1  'x, y, z'
loop_
 _atom_site_type_symbol
 _atom_site_label
 _atom_site_symmetry_multiplicity
 _atom_site_fract_x
 _atom_site_fract_y
 _atom_site_fract_z
 _atom_site_occupancy
  Ag  Ag0  1  0.75316765  0.00174589  0.76014875  1
  Ag  Ag1  1  0.00401449  0.48550277  -0.00086652  1
  Ag  Ag2  1  0.00608031  0.25148810  0.76958543  1
  Ag  Ag3  1  0.00306558  0.74777434  0.23966164  1
  Ag  Ag4  1  0.00741142  0.25128431  0.23374015  1
  Ag  Ag5  1  0.75262058  0.74900192  0.00000210  1
  Ag  Ag6  1  0.49779698  0.74522609  0.24178499  1
  Ag  Ag7  1  0.25085920  0.74401902  0.50010510  1
  Ag  Ag8  1  0.49789841  0.49786977  -0.00030732  1
  Ag  Ag9  1  0.24910269  0.49458486  0.75712298  1
  Ag  Ag10  1  0.22984242  0.25723026  0.00051749  1
  Ag  Ag11  1  0.49786814  0.74561105  0.76420595  1
  Ag  Ag12  1  -0.00482863  0.02021608  -0.00130589  1
  Ag  Ag13  1  0.49172623  0.25594363  0.23899713  1
  Ag  Ag14  1  0.24658313  0.25399336  0.49955664  1
  Ag  Ag15  1  0.76585297  0.25043255  -0.00114570  1
  Sb  Sb16  1  0.49488894  0.49894455  0.50022647  1
  Sb  Sb17  1  0.49849691  0.00045339  0.50070428  1
  Sb  Sb18  1  0.00192141  0.00006549  0.50011058  1
  Sb  Sb19  1  0.25072048  0.00072693  0.75316290  1
  Sb  Sb20  1  0.00021897  0.74904989  0.75897191  1
  Sb  Sb21  1  0.24893692  0.74791811  0.00035985  1
  Sb  Sb22  1  0.50146629  0.00089292  -0.00070964  1
  Sb  Sb23  1  0.75218120  0.00037727  0.24493220  1
  Sb  Sb24  1  0.75058218  0.75291054  0.49874454  1
  Sb  Sb25  1  0.75037029  0.49997373  0.24586933  1
  Sb  Sb26  1  0.75196157  0.24730273  0.49810611  1
  Sb  Sb27  1  0.49751163  0.25339171  0.75959415  1
  Sb  Sb28  1  0.75061889  0.49966180  0.75802162  1
  Sb  Sb29  1  0.00463101  0.49963146  0.50010628  1
  Sb  Sb30  1  0.24999353  0.49806300  0.24486144  1
  Sb  Sb31  1  0.25002851  0.00108903  0.24700063  1
  Te  Te32  1  0.24958344  0.25097640  0.24936801  1
  Te  Te33  1  0.25200581  0.25018969  0.74991979  1
  Te  Te34  1  0.25188595  0.74803656  0.25139094  1
  Te  Te35  1  0.25233445  0.75076227  0.74936282  1
  Te  Te36  1  0.75140067  0.24881279  0.24903702  1
  Te  Te37  1  0.74836788  0.24931231  0.75053617  1
  Te  Te38  1  0.74807005  0.75059381  0.24681929  1
  Te  Te39  1  0.74969547  0.74910493  0.75246113  1
  Te  Te40  1  0.24061497  0.01316488  0.00273349  1
  Te  Te41  1  0.24976482  0.00272629  0.49919644  1
  Te  Te42  1  0.25138517  0.49695573  -0.00325012  1
  Te  Te43  1  0.25007091  0.49932552  0.51312173  1
  Te  Te44  1  0.75178839  -0.00153295  -0.00136383  1
  Te  Te45  1  0.74957613  0.00046828  0.51908902  1
  Te  Te46  1  0.74853395  0.50122530  0.00231416  1
  Te  Te47  1  0.74935133  0.49985935  0.50058144  1
  Te  Te48  1  -0.00281050  0.25117466  -0.00169700  1
  Te  Te49  1  0.00346394  0.25082451  0.49333575  1
  Te  Te50  1  0.00084591  0.74434588  0.00379238  1
  Te  Te51  1  0.00369848  0.74942006  0.48553168  1
  Te  Te52  1  0.50356847  0.24907444  0.00322368  1
  Te  Te53  1  0.49587122  0.25110674  0.48627373  1
  Te  Te54  1  0.49775204  0.75228395  0.00141008  1
  Te  Te55  1  0.49682275  0.74976891  0.48954766  1
  Te  Te56  1  -0.00030796  0.00116465  0.24641197  1
  Te  Te57  1  -0.00177057  0.00055901  0.75185780  1
  Te  Te58  1  0.00078503  0.49917003  0.24507587  1
  Te  Te59  1  0.00369077  0.49744647  0.75280769  1
  Te  Te60  1  0.50091984  -0.00409148  0.25148788  1
  Te  Te61  1  0.50303767  -0.01081557  0.74949671  1
  Te  Te62  1  0.49909351  0.50134577  0.24310839  1
  Te  Te63  1  0.49731974  0.50486428  0.75515271  1
