# generated using pymatgen
data_AgSbTe2
_symmetry_space_group_name_H-M   'P 1'
_cell_length_a   12.21184864
_cell_length_b   12.21930066
_cell_length_c   12.22221589
_cell_angle_alpha   90.00806401
_cell_angle_beta   90.00248798
_cell_angle_gamma   90.00628079
_symmetry_Int_Tables_number   1
_chemical_formula_structural   AgSbTe2
_chemical_formula_sum   'Ag16 Sb16 Te32'
_cell_volume   1823.80208291
_cell_formula_units_Z   16
loop_
 _symmetry_equiv_pos_site_id
 _symmetry_equiv_pos_as_xyz
  1  'x, y, z'
loop_
 _atom_site_type_symbol
 _atom_site_label
 _atom_site_symmetry_multiplicity
 _atom_site_fract_x
 _atom_site_fract_y
 _atom_site_fract_z
 _atom_site_occupancy
  Ag  Ag0  1  0.75294808  0.25035344  0.50604662  1
  Ag  Ag1  1  0.24711004  0.74735058  -0.00079019  1
  Ag  Ag2  1  -0.00805933  0.50317205  -0.00055733  1
  Ag  Ag3  1  0.75366232  0.49513767  0.75238086  1
  Ag  Ag4  1  0.75336008  0.74429499  0.00043180  1
  Ag  Ag5  1  -0.00493720  0.74754551  0.25071384  1
  Ag  Ag6  1  -0.01096368  0.25404706  0.74742608  1
  Ag  Ag7  1  0.75264594  -0.00154389  0.25365985  1
  Ag  Ag8  1  0.50507925  -0.00091990  0.50196963  1
  Ag  Ag9  1  -0.00523840  -0.00145979  0.49927337  1
  Ag  Ag10  1  0.50381547  0.74971146  0.74887058  1
  Ag  Ag11  1  0.75536928  0.50207283  0.24733587  1
  Ag  Ag12  1  0.51085617  0.25067298  0.74793308  1
  Ag  Ag13  1  0.24674087  0.75013882  0.50078081  1
  Ag  Ag14  1  0.75259763  0.25574740  -0.00613819  1
  Ag  Ag15  1  -0.00574139  0.50130763  0.50092077  1
  Sb  Sb16  1  0.24613396  -0.00345795  0.25283139  1
  Sb  Sb17  1  0.24548836  0.50265949  0.74993511  1
  Sb  Sb18  1  0.24347875  0.50406207  0.25059195  1
  Sb  Sb19  1  0.50941788  0.50043412  -0.00224640  1
  Sb  Sb20  1  0.50379148  -0.00081829  -0.00184600  1
  Sb  Sb21  1  0.24962754  -0.00302537  0.74853783  1
  Sb  Sb22  1  -0.00556068  0.74714435  0.74995067  1
  Sb  Sb23  1  0.75027793  0.00523493  0.74537846  1
  Sb  Sb24  1  0.24751234  0.25097275  0.50273702  1
  Sb  Sb25  1  0.24682494  0.25360984  -0.00312598  1
  Sb  Sb26  1  -0.00410145  -0.00191530  0.00022908  1
  Sb  Sb27  1  0.75274208  0.75036668  0.50007945  1
  Sb  Sb28  1  0.50643788  0.50106178  0.50314163  1
  Sb  Sb29  1  0.50671933  0.24812809  0.25256179  1
  Sb  Sb30  1  0.50541372  0.75142026  0.25130229  1
  Sb  Sb31  1  -0.00529282  0.25256612  0.25204539  1
  Te  Te32  1  0.25249945  0.25008835  0.24791449  1
  Te  Te33  1  0.25254415  0.25096442  0.75109625  1
  Te  Te34  1  0.24429409  0.74965063  0.24958620  1
  Te  Te35  1  0.25650842  0.74877836  0.75026952  1
  Te  Te36  1  0.75001907  0.25069231  0.24978124  1
  Te  Te37  1  0.75028018  0.25001983  0.74922898  1
  Te  Te38  1  0.75353631  0.74849126  0.24796546  1
  Te  Te39  1  0.74716287  0.74655155  0.75346392  1
  Te  Te40  1  0.24998462  -0.00865603  0.00113941  1
  Te  Te41  1  0.24863921  -0.00494374  0.49887728  1
  Te  Te42  1  0.24056350  0.50588686  0.00109985  1
  Te  Te43  1  0.24118754  0.50524610  0.49890001  1
  Te  Te44  1  0.75055532  -0.00034042  0.00773752  1
  Te  Te45  1  0.75190910  0.00105453  0.49656988  1
  Te  Te46  1  0.75309020  0.49984925  -0.00089027  1
  Te  Te47  1  0.75426583  0.49819567  0.50100209  1
  Te  Te48  1  -0.00296821  0.25261264  -0.00354310  1
  Te  Te49  1  -0.00147729  0.25074063  0.50215414  1
  Te  Te50  1  -0.00277356  0.74830246  -0.00086377  1
  Te  Te51  1  0.00128918  0.74984976  0.50058893  1
  Te  Te52  1  0.50353956  0.24973730  -0.00736935  1
  Te  Te53  1  0.50145047  0.24706967  0.50454468  1
  Te  Te54  1  0.50019160  0.75044324  -0.00407260  1
  Te  Te55  1  0.49632079  0.75219832  0.50287024  1
  Te  Te56  1  -0.00466496  -0.00418280  0.25525804  1
  Te  Te57  1  0.00000618  0.00653024  0.74321987  1
  Te  Te58  1  -0.00556064  0.50262122  0.25052081  1
  Te  Te59  1  -0.00445682  0.49749225  0.74889794  1
  Te  Te60  1  0.50693849  -0.00020662  0.25826399  1
  Te  Te61  1  0.50005895  -0.00065927  0.74406754  1
  Te  Te62  1  0.51026800  0.50002614  0.25031103  1
  Te  Te63  1  0.50664201  0.49982347  0.74904864  1
