# generated using pymatgen
data_AgSbTe2
_symmetry_space_group_name_H-M   'P 1'
_cell_length_a   12.22590256
_cell_length_b   12.22423275
_cell_length_c   12.22650632
_cell_angle_alpha   89.99347400
_cell_angle_beta   89.99805717
_cell_angle_gamma   90.00650829
_symmetry_Int_Tables_number   1
_chemical_formula_structural   AgSbTe2
_chemical_formula_sum   'Ag16 Sb16 Te32'
_cell_volume   1827.27920167
_cell_formula_units_Z   16
loop_
 _symmetry_equiv_pos_site_id
 _symmetry_equiv_pos_as_xyz
  1  'x, y, z'
loop_
 _atom_site_type_symbol
 _atom_site_label
 _atom_site_symmetry_multiplicity
 _atom_site_fract_x
 _atom_site_fract_y
 _atom_site_fract_z
 _atom_site_occupancy
  Ag  Ag0  1  0.24799690  0.50663894  0.24542544  1
  Ag  Ag1  1  0.00161469  0.50254172  0.49731179  1
  Ag  Ag2  1  0.24437386  0.75306863  0.00601570  1
  Ag  Ag3  1  0.49450815  0.74604376  0.24337540  1
  Ag  Ag4  1  0.75558190  -0.00671229  0.75550766  1
  Ag  Ag5  1  0.24451616  -0.00331107  0.75826634  1
  Ag  Ag6  1  0.24826851  0.24740100  0.00229523  1
  Ag  Ag7  1  0.00601546  -0.00753957  -0.00200962  1
  Ag  Ag8  1  0.75521474  0.74726305  -0.00071683  1
  Ag  Ag9  1  0.24697251  -0.00599041  0.24214723  1
  Ag  Ag10  1  0.75355447  0.50664315  0.75512080  1
  Ag  Ag11  1  -0.00109544  0.75205245  0.75833311  1
  Ag  Ag12  1  0.00512962  0.74720265  0.24179574  1
  Ag  Ag13  1  0.24698758  0.25106148  0.49748477  1
  Ag  Ag14  1  0.75213727  0.50645377  0.24521669  1
  Ag  Ag15  1  0.49888209  0.50488540  0.00373639  1
  Sb  Sb16  1  0.24752864  0.74865808  0.49393431  1
  Sb  Sb17  1  0.50039571  0.74873826  0.75595792  1
  Sb  Sb18  1  0.00191102  0.24920833  0.75208097  1
  Sb  Sb19  1  0.49816860  0.25082134  0.75287906  1
  Sb  Sb20  1  0.00298578  -0.00218080  0.50097423  1
  Sb  Sb21  1  0.49877486  0.50034679  0.49766816  1
  Sb  Sb22  1  0.49347985  -0.00435268  0.00151744  1
  Sb  Sb23  1  0.75380345  0.25236307  0.49978429  1
  Sb  Sb24  1  0.00012806  0.50786221  0.00196780  1
  Sb  Sb25  1  0.00370814  0.25398019  0.24825094  1
  Sb  Sb26  1  0.75279864  0.25231943  -0.00004562  1
  Sb  Sb27  1  0.49762802  -0.00054441  0.49890300  1
  Sb  Sb28  1  0.49622990  0.25390083  0.24699284  1
  Sb  Sb29  1  0.75238249  0.74894470  0.50172167  1
  Sb  Sb30  1  0.24584421  0.50426954  0.75373952  1
  Sb  Sb31  1  0.75368656  -0.00834584  0.24330015  1
  Te  Te32  1  0.24971165  0.24996291  0.24668908  1
  Te  Te33  1  0.24946850  0.24530142  0.75324222  1
  Te  Te34  1  0.24619672  0.74854872  0.24896923  1
  Te  Te35  1  0.24875022  0.75276597  0.75346245  1
  Te  Te36  1  0.74880714  0.25858502  0.25031308  1
  Te  Te37  1  0.74989616  0.25004017  0.75040178  1
  Te  Te38  1  0.75341366  0.74736397  0.24671714  1
  Te  Te39  1  0.75059500  0.74956805  0.75292403  1
  Te  Te40  1  0.24993884  -0.00299863  0.00056253  1
  Te  Te41  1  0.24936358  0.00499327  0.49994148  1
  Te  Te42  1  0.24982621  0.50223871  0.00113312  1
  Te  Te43  1  0.24713483  0.49720099  0.49817685  1
  Te  Te44  1  0.75300331  -0.00082244  -0.00289898  1
  Te  Te45  1  0.74942039  0.00249296  0.50924645  1
  Te  Te46  1  0.75056337  0.50070068  0.00091308  1
  Te  Te47  1  0.75320835  0.49824353  0.49947547  1
  Te  Te48  1  0.00620813  0.23850878  0.00039707  1
  Te  Te49  1  0.00584425  0.25707179  0.49966270  1
  Te  Te50  1  0.00052993  0.75187119  -0.00028465  1
  Te  Te51  1  -0.00003073  0.74481774  0.50061376  1
  Te  Te52  1  0.49283924  0.25878682  0.00035484  1
  Te  Te53  1  0.48980478  0.24984440  0.49989112  1
  Te  Te54  1  0.50011709  0.74594559  0.00415677  1
  Te  Te55  1  0.50045744  0.74961411  0.48862447  1
  Te  Te56  1  0.00270313  -0.00556263  0.24889746  1
  Te  Te57  1  0.00157875  -0.00376293  0.75043195  1
  Te  Te58  1  0.00153280  0.50342252  0.25099784  1
  Te  Te59  1  -0.00337724  0.50475667  0.74750127  1
  Te  Te60  1  0.49593576  -0.00696531  0.24999260  1
  Te  Te61  1  0.50018249  -0.00057878  0.74971400  1
  Te  Te62  1  0.49846779  0.50332920  0.24770616  1
  Te  Te63  1  0.50779605  0.50102382  0.75314110  1
