# generated using pymatgen
data_AgSbTe2
_symmetry_space_group_name_H-M   'P 1'
_cell_length_a   12.21602173
_cell_length_b   12.21299627
_cell_length_c   12.22045836
_cell_angle_alpha   89.99275976
_cell_angle_beta   90.00282662
_cell_angle_gamma   90.00376670
_symmetry_Int_Tables_number   1
_chemical_formula_structural   AgSbTe2
_chemical_formula_sum   'Ag16 Sb16 Te32'
_cell_volume   1823.22182749
_cell_formula_units_Z   16
loop_
 _symmetry_equiv_pos_site_id
 _symmetry_equiv_pos_as_xyz
  1  'x, y, z'
loop_
 _atom_site_type_symbol
 _atom_site_label
 _atom_site_symmetry_multiplicity
 _atom_site_fract_x
 _atom_site_fract_y
 _atom_site_fract_z
 _atom_site_occupancy
  Ag  Ag0  1  0.00763075  0.24969099  0.74948614  1
  Ag  Ag1  1  0.25311884  0.49434146  0.74742148  1
  Ag  Ag2  1  0.49220228  0.25338841  0.74941332  1
  Ag  Ag3  1  0.49516845  0.24959527  0.25014765  1
  Ag  Ag4  1  0.74465153  0.25170290  0.50177633  1
  Ag  Ag5  1  0.25040543  0.00245560  0.24755933  1
  Ag  Ag6  1  0.00341282  0.75313559  0.25348531  1
  Ag  Ag7  1  0.49585605  0.49345223  0.50233918  1
  Ag  Ag8  1  0.49310946  0.00815376  0.00076602  1
  Ag  Ag9  1  0.24778527  0.74810637  0.50134170  1
  Ag  Ag10  1  0.00615477  0.00200798  -0.00048735  1
  Ag  Ag11  1  0.25573429  0.25275311  0.50530014  1
  Ag  Ag12  1  0.25609885  0.24776042  -0.00440372  1
  Ag  Ag13  1  0.00390463  0.75058366  0.74665184  1
  Ag  Ag14  1  0.49467811  0.49196379  -0.00255608  1
  Ag  Ag15  1  0.75161850  0.74862357  0.50068182  1
  Sb  Sb16  1  0.24887097  0.75221135  -0.00155293  1
  Sb  Sb17  1  0.49771331  0.75209927  0.25291604  1
  Sb  Sb18  1  0.75014782  0.00040279  0.74954019  1
  Sb  Sb19  1  0.00432751  0.24643588  0.25051822  1
  Sb  Sb20  1  0.00503988  0.50097468  0.50272117  1
  Sb  Sb21  1  0.49659889  0.00843660  0.50007112  1
  Sb  Sb22  1  0.25269196  0.49804798  0.25233724  1
  Sb  Sb23  1  0.74805770  0.49961976  0.25306973  1
  Sb  Sb24  1  0.75162552  0.74996816  -0.00098414  1
  Sb  Sb25  1  0.24967438  0.00721772  0.75374640  1
  Sb  Sb26  1  0.49537130  0.74820250  0.74700919  1
  Sb  Sb27  1  0.74930644  0.00083650  0.25052135  1
  Sb  Sb28  1  0.00600555  0.49715972  -0.00368120  1
  Sb  Sb29  1  0.74540777  0.49920647  0.74706833  1
  Sb  Sb30  1  0.74386519  0.24984473  -0.00172145  1
  Sb  Sb31  1  0.00354329  -0.00128904  0.50092261  1
  Te  Te32  1  0.25193753  0.24768705  0.25052163  1
  Te  Te33  1  0.25023438  0.25011814  0.74882007  1
  Te  Te34  1  0.24687657  0.75328698  0.25429309  1
  Te  Te35  1  0.24624530  0.74556796  0.74559206  1
  Te  Te36  1  0.74539905  0.24967305  0.25773320  1
  Te  Te37  1  0.75174669  0.25070175  0.74386944  1
  Te  Te38  1  0.75550964  0.75019423  0.25734808  1
  Te  Te39  1  0.75796748  0.74946290  0.74268865  1
  Te  Te40  1  0.25079458  0.00263604  0.00303940  1
  Te  Te41  1  0.25064830  -0.00026129  0.49348564  1
  Te  Te42  1  0.25521476  0.49542351  -0.00390084  1
  Te  Te43  1  0.25370748  0.49820992  0.50240284  1
  Te  Te44  1  0.75019443  -0.00034704  0.00054340  1
  Te  Te45  1  0.74902421  -0.00099892  0.49927651  1
  Te  Te46  1  0.73894068  0.50020351  0.00018662  1
  Te  Te47  1  0.74238379  0.49918293  0.50049593  1
  Te  Te48  1  0.00190485  0.24712201  -0.00239196  1
  Te  Te49  1  0.00156900  0.25006656  0.50330061  1
  Te  Te50  1  -0.00063019  0.75315450  -0.00235172  1
  Te  Te51  1  0.00188853  0.74976577  0.50231908  1
  Te  Te52  1  0.49992497  0.24962214  -0.00066765  1
  Te  Te53  1  0.49706520  0.25047371  0.50132825  1
  Te  Te54  1  0.50123993  0.75026337  0.00001150  1
  Te  Te55  1  0.49896265  0.74524912  0.50024762  1
  Te  Te56  1  0.00460655  -0.00334497  0.24424110  1
  Te  Te57  1  0.00010042  0.00068449  0.75586107  1
  Te  Te58  1  -0.00011519  0.50904032  0.24761673  1
  Te  Te59  1  0.00662670  0.49880475  0.75161837  1
  Te  Te60  1  0.49526752  0.00338352  0.24449905  1
  Te  Te61  1  0.50003322  0.00490618  0.75746085  1
  Te  Te62  1  0.49910283  0.49544635  0.25018615  1
  Te  Te63  1  0.49585063  0.49753129  0.74890023  1
