# generated using pymatgen
data_AgSbTe2
_symmetry_space_group_name_H-M   'P 1'
_cell_length_a   12.33945027
_cell_length_b   12.30639130
_cell_length_c   12.31804506
_cell_angle_alpha   89.98743580
_cell_angle_beta   90.01007711
_cell_angle_gamma   90.01672649
_symmetry_Int_Tables_number   1
_chemical_formula_structural   AgSbTe2
_chemical_formula_sum   'Ag16 Sb16 Te32'
_cell_volume   1870.54553583
_cell_formula_units_Z   16
loop_
 _symmetry_equiv_pos_site_id
 _symmetry_equiv_pos_as_xyz
  1  'x, y, z'
loop_
 _atom_site_type_symbol
 _atom_site_label
 _atom_site_symmetry_multiplicity
 _atom_site_fract_x
 _atom_site_fract_y
 _atom_site_fract_z
 _atom_site_occupancy
  Ag  Ag0  1  0.02006208  0.49953619  0.51777200  1
  Ag  Ag1  1  0.24666615  0.50046022  0.27351095  1
  Ag  Ag2  1  0.24407895  0.73306743  0.50935640  1
  Ag  Ag3  1  0.00679392  0.49949862  -0.02038244  1
  Ag  Ag4  1  0.50671436  0.25992171  0.74504068  1
  Ag  Ag5  1  0.75145732  0.25964034  -0.01763308  1
  Ag  Ag6  1  0.75723953  0.72987532  0.50989182  1
  Ag  Ag7  1  0.75159817  0.26653490  0.51456972  1
  Ag  Ag8  1  0.49879270  0.00464327  -0.00707135  1
  Ag  Ag9  1  0.76804697  0.49128391  0.73546225  1
  Ag  Ag10  1  0.24475867  0.73829768  -0.01210228  1
  Ag  Ag11  1  0.24765931  0.26834023  0.51051004  1
  Ag  Ag12  1  -0.00664897  0.26526018  0.74534814  1
  Ag  Ag13  1  0.00604389  0.73239739  0.74517177  1
  Ag  Ag14  1  0.22786522  0.50039100  0.73432554  1
  Ag  Ag15  1  0.47946882  0.49522885  0.50898123  1
  Sb  Sb16  1  0.00176006  0.74439585  0.25572087  1
  Sb  Sb17  1  0.49856500  0.74595422  0.25112653  1
  Sb  Sb18  1  0.75366491  0.74219100  -0.01240406  1
  Sb  Sb19  1  0.49841448  0.49974212  -0.00710651  1
  Sb  Sb20  1  0.24831159  0.25912110  -0.00957576  1
  Sb  Sb21  1  0.49995607  0.00294057  0.50483779  1
  Sb  Sb22  1  0.25223504  0.00101156  0.25027476  1
  Sb  Sb23  1  0.00106959  0.25532011  0.25613891  1
  Sb  Sb24  1  0.75061415  0.49914129  0.26028120  1
  Sb  Sb25  1  0.00087165  0.00096852  -0.00574940  1
  Sb  Sb26  1  0.49873232  0.74016623  0.74698670  1
  Sb  Sb27  1  0.74762775  0.00101350  0.25029786  1
  Sb  Sb28  1  0.74962404  0.00817554  0.74987269  1
  Sb  Sb29  1  0.00012590  0.00035838  0.50306154  1
  Sb  Sb30  1  0.49961842  0.25398810  0.25366568  1
  Sb  Sb31  1  0.25050219  -0.00126716  0.74992388  1
  Te  Te32  1  0.24930397  0.25255188  0.26172950  1
  Te  Te33  1  0.24614319  0.24886732  0.74728283  1
  Te  Te34  1  0.25039927  0.74702454  0.25508010  1
  Te  Te35  1  0.25115534  0.75032996  0.74844319  1
  Te  Te36  1  0.75062774  0.24896192  0.25169674  1
  Te  Te37  1  0.75284564  0.25240444  0.74940096  1
  Te  Te38  1  0.74979662  0.75170795  0.26604490  1
  Te  Te39  1  0.74900070  0.74355980  0.74501233  1
  Te  Te40  1  0.25087726  -0.01102840  0.00157679  1
  Te  Te41  1  0.25116762  -0.00476936  0.49781852  1
  Te  Te42  1  0.24975518  0.50301915  -0.00982534  1
  Te  Te43  1  0.25065740  0.49927759  0.50151342  1
  Te  Te44  1  0.74798437  0.00594108  0.00138985  1
  Te  Te45  1  0.74905138  0.00184459  0.49850985  1
  Te  Te46  1  0.74913697  0.49647395  0.00332437  1
  Te  Te47  1  0.75477051  0.49880551  0.49962085  1
  Te  Te48  1  0.00026981  0.25189040  -0.00485949  1
  Te  Te49  1  -0.00215906  0.24837916  0.50295520  1
  Te  Te50  1  0.00012145  0.74899807  -0.00449813  1
  Te  Te51  1  0.00227385  0.75230806  0.50389338  1
  Te  Te52  1  0.49859067  0.25226389  -0.00224513  1
  Te  Te53  1  0.50330277  0.24936011  0.50213641  1
  Te  Te54  1  0.49981646  0.74986572  -0.00036922  1
  Te  Te55  1  0.49736122  0.75264744  0.50013024  1
  Te  Te56  1  -0.00172262  -0.00027402  0.24815767  1
  Te  Te57  1  -0.00115389  -0.00068351  0.74883761  1
  Te  Te58  1  0.00436210  0.49985583  0.24823406  1
  Te  Te59  1  -0.00199989  0.50068829  0.75100129  1
  Te  Te60  1  0.50084387  0.00050349  0.23568196  1
  Te  Te61  1  0.50093289  0.01528637  0.75535656  1
  Te  Te62  1  0.49334249  0.50070878  0.26280346  1
  Te  Te63  1  0.50085445  0.49563181  0.74406119  1
