# generated using pymatgen
data_AgSbTe2
_symmetry_space_group_name_H-M   'P 1'
_cell_length_a   12.24039362
_cell_length_b   12.22562427
_cell_length_c   12.22683281
_cell_angle_alpha   90.01344293
_cell_angle_beta   90.00402321
_cell_angle_gamma   90.00457273
_symmetry_Int_Tables_number   1
_chemical_formula_structural   AgSbTe2
_chemical_formula_sum   'Ag16 Sb16 Te32'
_cell_volume   1829.70210459
_cell_formula_units_Z   16
loop_
 _symmetry_equiv_pos_site_id
 _symmetry_equiv_pos_as_xyz
  1  'x, y, z'
loop_
 _atom_site_type_symbol
 _atom_site_label
 _atom_site_symmetry_multiplicity
 _atom_site_fract_x
 _atom_site_fract_y
 _atom_site_fract_z
 _atom_site_occupancy
  Ag  Ag0  1  0.49732335  0.25173604  0.24361117  1
  Ag  Ag1  1  0.25166767  0.24677481  0.00178846  1
  Ag  Ag2  1  0.25869152  0.75390654  -0.00341484  1
  Ag  Ag3  1  0.74498659  0.75087346  0.50701553  1
  Ag  Ag4  1  0.50445245  0.75386641  0.75788521  1
  Ag  Ag5  1  0.49975080  0.50355789  0.49694250  1
  Ag  Ag6  1  0.25516032  0.49841188  0.24736099  1
  Ag  Ag7  1  0.74831365  0.24522327  -0.00160247  1
  Ag  Ag8  1  -0.00391742  0.75481352  0.75400235  1
  Ag  Ag9  1  0.74884480  -0.00579731  0.75576823  1
  Ag  Ag10  1  0.74113591  0.75579100  -0.00656077  1
  Ag  Ag11  1  0.00194515  0.25149709  0.24221176  1
  Ag  Ag12  1  0.50014059  -0.00487668  -0.00308542  1
  Ag  Ag13  1  0.49960751  0.74827165  0.24354698  1
  Ag  Ag14  1  0.25122897  -0.00277800  0.75705858  1
  Ag  Ag15  1  -0.00049627  0.24585358  0.75649251  1
  Sb  Sb16  1  0.74813758  0.50583701  0.75023388  1
  Sb  Sb17  1  0.74766545  0.00005299  0.24345326  1
  Sb  Sb18  1  0.74538009  0.49967619  0.25011686  1
  Sb  Sb19  1  0.74772316  0.24832435  0.50262706  1
  Sb  Sb20  1  0.25209698  0.50080735  0.75294681  1
  Sb  Sb21  1  0.00042555  0.50165806  0.49970463  1
  Sb  Sb22  1  0.25316978  0.00091903  0.24280261  1
  Sb  Sb23  1  0.00060749  0.74837066  0.24591836  1
  Sb  Sb24  1  0.25414144  0.74925002  0.50267924  1
  Sb  Sb25  1  0.00071214  0.49804354  0.00009866  1
  Sb  Sb26  1  0.49909415  0.50506864  0.00228283  1
  Sb  Sb27  1  -0.00063950  0.00129762  -0.00356466  1
  Sb  Sb28  1  0.50163306  -0.00175720  0.50242209  1
  Sb  Sb29  1  -0.00140618  -0.00083652  0.50330345  1
  Sb  Sb30  1  0.25134031  0.25027783  0.49913735  1
  Sb  Sb31  1  0.50032937  0.24759894  0.75758292  1
  Te  Te32  1  0.25184313  0.24916269  0.24685682  1
  Te  Te33  1  0.24853356  0.24931303  0.75401837  1
  Te  Te34  1  0.25091480  0.75034757  0.24647655  1
  Te  Te35  1  0.24899054  0.75043812  0.75303215  1
  Te  Te36  1  0.74997383  0.24967778  0.24603324  1
  Te  Te37  1  0.75182909  0.24641959  0.75397197  1
  Te  Te38  1  0.74846984  0.75038624  0.24541174  1
  Te  Te39  1  0.74979611  0.75061649  0.75472889  1
  Te  Te40  1  0.25559702  -0.00035273  -0.00393895  1
  Te  Te41  1  0.24986848  -0.00035056  0.51328548  1
  Te  Te42  1  0.24991183  0.49867088  0.00477746  1
  Te  Te43  1  0.25559777  0.50023806  0.49199542  1
  Te  Te44  1  0.74479239  -0.00053224  -0.00366235  1
  Te  Te45  1  0.74956880  -0.00558570  0.50935361  1
  Te  Te46  1  0.75013802  0.49776050  0.00083237  1
  Te  Te47  1  0.74424005  0.50579614  0.49926247  1
  Te  Te48  1  0.00004762  0.24986023  -0.00153615  1
  Te  Te49  1  -0.00094868  0.25026563  0.50236505  1
  Te  Te50  1  -0.00024408  0.74998689  -0.00285344  1
  Te  Te51  1  -0.00717879  0.74926140  0.50377191  1
  Te  Te52  1  0.49985532  0.24873641  0.00227150  1
  Te  Te53  1  0.50177657  0.25366555  0.49065586  1
  Te  Te54  1  0.49981088  0.75031879  0.00036495  1
  Te  Te55  1  0.50267713  0.74925730  0.49698181  1
  Te  Te56  1  0.00021897  0.00856930  0.25232902  1
  Te  Te57  1  -0.00033049  -0.00052343  0.75011720  1
  Te  Te58  1  0.00793349  0.49429185  0.25133356  1
  Te  Te59  1  0.00058446  0.49835723  0.74836091  1
  Te  Te60  1  0.50022250  -0.00086553  0.24558281  1
  Te  Te61  1  0.50039107  -0.00309364  0.75299965  1
  Te  Te62  1  0.49700649  0.50134109  0.25215399  1
  Te  Te63  1  0.49886583  0.50685140  0.74190001  1
