# generated using pymatgen
data_AgSbTe2
_symmetry_space_group_name_H-M   'P 1'
_cell_length_a   12.21323219
_cell_length_b   12.21418852
_cell_length_c   12.21857309
_cell_angle_alpha   89.99999670
_cell_angle_beta   89.99127353
_cell_angle_gamma   89.99962459
_symmetry_Int_Tables_number   1
_chemical_formula_structural   AgSbTe2
_chemical_formula_sum   'Ag16 Sb16 Te32'
_cell_volume   1822.70220340
_cell_formula_units_Z   16
loop_
 _symmetry_equiv_pos_site_id
 _symmetry_equiv_pos_as_xyz
  1  'x, y, z'
loop_
 _atom_site_type_symbol
 _atom_site_label
 _atom_site_symmetry_multiplicity
 _atom_site_fract_x
 _atom_site_fract_y
 _atom_site_fract_z
 _atom_site_occupancy
  Ag  Ag0  1  0.49869181  0.75273858  0.25313047  1
  Ag  Ag1  1  0.74923523  0.75548188  0.00150068  1
  Ag  Ag2  1  0.00133738  0.00523923  0.00035595  1
  Ag  Ag3  1  0.00509901  0.49752649  0.50000428  1
  Ag  Ag4  1  0.25022579  -0.00016269  0.75078630  1
  Ag  Ag5  1  0.00472501  0.24753175  0.75286625  1
  Ag  Ag6  1  0.49507176  0.50523000  0.50001676  1
  Ag  Ag7  1  0.49504194  -0.00530980  0.50001272  1
  Ag  Ag8  1  0.25647696  0.75175181  0.50217859  1
  Ag  Ag9  1  0.49531443  0.75265876  0.74662272  1
  Ag  Ag10  1  0.25136174  0.75579255  -0.00273107  1
  Ag  Ag11  1  0.75676721  0.24395926  0.00149348  1
  Ag  Ag12  1  0.24747776  0.24864977  0.50223944  1
  Ag  Ag13  1  0.00118590  0.24720569  0.24681355  1
  Ag  Ag14  1  0.24308517  0.24370702  -0.00269815  1
  Ag  Ag15  1  0.75013309  -0.00016692  0.24588531  1
  Sb  Sb16  1  0.24998125  0.50012033  0.74642938  1
  Sb  Sb17  1  0.25026410  -0.00015477  0.24867238  1
  Sb  Sb18  1  0.49956524  0.24757847  0.25145967  1
  Sb  Sb19  1  0.74316693  0.75226481  0.49890275  1
  Sb  Sb20  1  0.74999383  0.50025626  0.25031670  1
  Sb  Sb21  1  0.75282976  0.24750734  0.49905305  1
  Sb  Sb22  1  0.49866890  -0.00270033  0.00027864  1
  Sb  Sb23  1  0.00539665  0.00160482  0.49991470  1
  Sb  Sb24  1  0.00010217  0.75229903  0.24950705  1
  Sb  Sb25  1  0.49850310  0.50371098  -0.00014802  1
  Sb  Sb26  1  0.00118104  0.49444442  -0.00005272  1
  Sb  Sb27  1  0.00436216  0.75206693  0.75065851  1
  Sb  Sb28  1  0.74999388  0.50013092  0.74966849  1
  Sb  Sb29  1  0.24988204  0.50008142  0.25385382  1
  Sb  Sb30  1  0.74982956  -0.00026590  0.75367770  1
  Sb  Sb31  1  0.49570426  0.24751173  0.74843475  1
  Te  Te32  1  0.24703871  0.24959604  0.24932878  1
  Te  Te33  1  0.24839045  0.24532047  0.75062389  1
  Te  Te34  1  0.25368826  0.75032963  0.24903382  1
  Te  Te35  1  0.25216825  0.75459153  0.75093953  1
  Te  Te36  1  0.75211578  0.24556091  0.24588973  1
  Te  Te37  1  0.75495456  0.24905653  0.75616941  1
  Te  Te38  1  0.74766939  0.75441811  0.24496984  1
  Te  Te39  1  0.74479519  0.75100680  0.75691119  1
  Te  Te40  1  0.24889681  0.00010785  -0.00151224  1
  Te  Te41  1  0.25191057  -0.00024959  0.50161947  1
  Te  Te42  1  0.24995480  0.50094980  -0.00054342  1
  Te  Te43  1  0.25087989  0.49966353  0.50039935  1
  Te  Te44  1  0.75102772  0.00035532  0.00222411  1
  Te  Te45  1  0.74409657  0.00024681  0.49472039  1
  Te  Te46  1  0.75007067  0.50069714  0.00029487  1
  Te  Te47  1  0.74943879  0.49999204  0.49980864  1
  Te  Te48  1  0.00251540  0.24986004  0.00056655  1
  Te  Te49  1  0.00347833  0.25060909  0.49986596  1
  Te  Te50  1  0.00218379  0.75230506  0.00014774  1
  Te  Te51  1  0.00609704  0.74626072  0.50014968  1
  Te  Te52  1  0.49802853  0.25136379  0.00004141  1
  Te  Te53  1  0.49500644  0.25055743  0.50002045  1
  Te  Te54  1  0.49703153  0.74913012  0.00049535  1
  Te  Te55  1  0.49879323  0.75050111  0.49973587  1
  Te  Te56  1  -0.00513881  0.00407712  0.24616764  1
  Te  Te57  1  0.00436845  0.00393211  0.75362434  1
  Te  Te58  1  -0.00089393  0.49242247  0.25654684  1
  Te  Te59  1  -0.00071716  0.49294308  0.74339707  1
  Te  Te60  1  0.50459192  -0.00391625  0.25438852  1
  Te  Te61  1  0.49529990  -0.00367746  0.74495596  1
  Te  Te62  1  0.50088487  0.50709714  0.25723686  1
  Te  Te63  1  0.50071898  0.50660166  0.74267827  1
