# generated using pymatgen
data_AgSbTe2
_symmetry_space_group_name_H-M   'P 1'
_cell_length_a   12.22351826
_cell_length_b   12.21103799
_cell_length_c   12.23379191
_cell_angle_alpha   90.00524189
_cell_angle_beta   90.00154902
_cell_angle_gamma   89.98133854
_symmetry_Int_Tables_number   1
_chemical_formula_structural   AgSbTe2
_chemical_formula_sum   'Ag16 Sb16 Te32'
_cell_volume   1826.03825705
_cell_formula_units_Z   16
loop_
 _symmetry_equiv_pos_site_id
 _symmetry_equiv_pos_as_xyz
  1  'x, y, z'
loop_
 _atom_site_type_symbol
 _atom_site_label
 _atom_site_symmetry_multiplicity
 _atom_site_fract_x
 _atom_site_fract_y
 _atom_site_fract_z
 _atom_site_occupancy
  Ag  Ag0  1  0.74736037  0.50564327  0.74870673  1
  Ag  Ag1  1  0.50029645  0.75071231  0.75080946  1
  Ag  Ag2  1  0.74028582  0.74499053  0.49911947  1
  Ag  Ag3  1  0.74217737  0.75040344  0.00084344  1
  Ag  Ag4  1  0.25785389  0.75852032  0.00083424  1
  Ag  Ag5  1  0.00001253  0.24755429  0.24736174  1
  Ag  Ag6  1  0.00008461  0.24747491  0.75313842  1
  Ag  Ag7  1  0.74519285  0.50462052  0.25138481  1
  Ag  Ag8  1  0.25369694  -0.00448280  0.24350616  1
  Ag  Ag9  1  0.50371850  0.50798656  0.49725445  1
  Ag  Ag10  1  0.50011244  0.24895760  0.24881788  1
  Ag  Ag11  1  0.00588539  -0.00085371  0.00066119  1
  Ag  Ag12  1  0.25922808  0.75174009  0.49914003  1
  Ag  Ag13  1  0.25122146  -0.00535837  0.75679269  1
  Ag  Ag14  1  0.50028306  0.75073296  0.24916524  1
  Ag  Ag15  1  0.49404697  -0.00816020  0.00318876  1
  Sb  Sb16  1  -0.00004828  0.75178639  0.75217722  1
  Sb  Sb17  1  0.74897826  0.24979935  0.00124303  1
  Sb  Sb18  1  0.25158022  0.50455400  0.74872798  1
  Sb  Sb19  1  0.25242464  0.24937400  0.49838196  1
  Sb  Sb20  1  0.49988976  0.24922283  0.75172349  1
  Sb  Sb21  1  0.74717698  -0.00376951  0.24730655  1
  Sb  Sb22  1  -0.00120099  0.49978765  0.00083498  1
  Sb  Sb23  1  0.74772427  0.25411431  0.49856404  1
  Sb  Sb24  1  0.49763539  -0.00815845  0.49692650  1
  Sb  Sb25  1  0.74840211  -0.00456083  0.75280627  1
  Sb  Sb26  1  0.24998982  0.24118097  0.00098894  1
  Sb  Sb27  1  0.50190188  0.50873472  0.00242093  1
  Sb  Sb28  1  0.00215707  -0.00047248  0.49885568  1
  Sb  Sb29  1  -0.00018964  0.75214489  0.24774750  1
  Sb  Sb30  1  -0.00315257  0.50138942  0.49929993  1
  Sb  Sb31  1  0.25311124  0.50356703  0.25117927  1
  Te  Te32  1  0.25075633  0.24663162  0.25082374  1
  Te  Te33  1  0.24594335  0.24539059  0.74976141  1
  Te  Te34  1  0.25124288  0.75221790  0.24987890  1
  Te  Te35  1  0.25200166  0.75259198  0.75012851  1
  Te  Te36  1  0.74880617  0.25439748  0.25009972  1
  Te  Te37  1  0.75362701  0.25590128  0.74954140  1
  Te  Te38  1  0.74873525  0.74734787  0.24950000  1
  Te  Te39  1  0.74793860  0.74703490  0.75039503  1
  Te  Te40  1  0.25075086  -0.00304222  0.00101332  1
  Te  Te41  1  0.25002938  -0.00639840  0.49955275  1
  Te  Te42  1  0.24925791  0.51257095  -0.00060297  1
  Te  Te43  1  0.25591272  0.50837630  0.50032667  1
  Te  Te44  1  0.75004497  -0.00657797  0.00001853  1
  Te  Te45  1  0.75053355  -0.01044696  0.50043803  1
  Te  Te46  1  0.75045215  0.50710034  0.00018739  1
  Te  Te47  1  0.74721552  0.50443634  0.49908108  1
  Te  Te48  1  -0.00034361  0.24432222  0.00174825  1
  Te  Te49  1  0.00011813  0.24982832  0.49795974  1
  Te  Te50  1  -0.00023371  0.75596339  0.00018983  1
  Te  Te51  1  0.00084164  0.74998116  0.49996064  1
  Te  Te52  1  0.50026447  0.24172767  0.00563010  1
  Te  Te53  1  0.50005627  0.25752312  0.49390274  1
  Te  Te54  1  0.50044457  0.75183532  0.00073067  1
  Te  Te55  1  0.50036289  0.74906798  0.49931261  1
  Te  Te56  1  0.00322101  0.00455331  0.24679030  1
  Te  Te57  1  0.00311434  0.00410389  0.75357913  1
  Te  Te58  1  -0.00523795  0.49175191  0.24954577  1
  Te  Te59  1  -0.00437771  0.49299978  0.75024400  1
  Te  Te60  1  0.49749734  -0.00198244  0.24792404  1
  Te  Te61  1  0.49683610  -0.00198291  0.75394283  1
  Te  Te62  1  0.50285694  0.50195262  0.25141405  1
  Te  Te63  1  0.50349407  0.50164663  0.74707278  1
