# generated using pymatgen
data_AgSbTe2
_symmetry_space_group_name_H-M   'P 1'
_cell_length_a   12.21435924
_cell_length_b   12.21888143
_cell_length_c   12.21457146
_cell_angle_alpha   89.99708358
_cell_angle_beta   90.01108563
_cell_angle_gamma   90.00298561
_symmetry_Int_Tables_number   1
_chemical_formula_structural   AgSbTe2
_chemical_formula_sum   'Ag16 Sb16 Te32'
_cell_volume   1822.97354011
_cell_formula_units_Z   16
loop_
 _symmetry_equiv_pos_site_id
 _symmetry_equiv_pos_as_xyz
  1  'x, y, z'
loop_
 _atom_site_type_symbol
 _atom_site_label
 _atom_site_symmetry_multiplicity
 _atom_site_fract_x
 _atom_site_fract_y
 _atom_site_fract_z
 _atom_site_occupancy
  Ag  Ag0  1  0.75127684  0.25528580  0.50031671  1
  Ag  Ag1  1  0.00492951  0.49823372  0.50090465  1
  Ag  Ag2  1  -0.00164052  0.74702694  0.25058408  1
  Ag  Ag3  1  0.24992377  -0.00002780  0.74944821  1
  Ag  Ag4  1  0.24736528  0.25853474  0.50748534  1
  Ag  Ag5  1  0.24998317  0.25514489  -0.00781184  1
  Ag  Ag6  1  0.49465157  0.50099269  0.50259997  1
  Ag  Ag7  1  0.25199866  0.50035898  0.74620185  1
  Ag  Ag8  1  0.74880784  0.74618847  0.00244638  1
  Ag  Ag9  1  0.49539846  0.50427257  -0.00295040  1
  Ag  Ag10  1  0.75193110  -0.00334535  0.25062285  1
  Ag  Ag11  1  0.25305190  0.74422694  -0.00632148  1
  Ag  Ag12  1  0.00700886  0.25322552  0.74628791  1
  Ag  Ag13  1  0.49354968  0.74484846  0.75145762  1
  Ag  Ag14  1  0.75090080  0.50273719  0.25226023  1
  Ag  Ag15  1  0.25040398  0.74176227  0.50570704  1
  Sb  Sb16  1  -0.00033814  0.25328687  0.25344471  1
  Sb  Sb17  1  0.00490887  0.50146358  -0.00076805  1
  Sb  Sb18  1  0.75030923  -0.00104022  0.74913517  1
  Sb  Sb19  1  0.49159398  0.25543174  0.74898135  1
  Sb  Sb20  1  0.75002676  0.74480601  0.49775072  1
  Sb  Sb21  1  0.24865775  0.50189922  0.25421041  1
  Sb  Sb22  1  0.00066789  0.00116518  0.50045476  1
  Sb  Sb23  1  0.74942241  0.25392251  -0.00043970  1
  Sb  Sb24  1  0.00050720  -0.00079866  -0.00024961  1
  Sb  Sb25  1  0.50160900  0.74659679  0.24821612  1
  Sb  Sb26  1  0.00697236  0.74687560  0.74875047  1
  Sb  Sb27  1  0.49995831  0.25299012  0.25072326  1
  Sb  Sb28  1  0.24826921  -0.00287741  0.25059678  1
  Sb  Sb29  1  0.74795852  0.50035835  0.74872773  1
  Sb  Sb30  1  0.49862316  -0.00184713  0.50221057  1
  Sb  Sb31  1  0.49845168  -0.00462414  -0.00237541  1
  Te  Te32  1  0.24868813  0.24722132  0.25032129  1
  Te  Te33  1  0.24963810  0.25280601  0.74845469  1
  Te  Te34  1  0.24511998  0.75251014  0.24942226  1
  Te  Te35  1  0.24916703  0.74683231  0.75057343  1
  Te  Te36  1  0.75099166  0.25186803  0.25277624  1
  Te  Te37  1  0.75641281  0.24792501  0.74579259  1
  Te  Te38  1  0.75253892  0.74774615  0.24792960  1
  Te  Te39  1  0.74609199  0.75245693  0.75598998  1
  Te  Te40  1  0.25107457  -0.00076856  -0.00342704  1
  Te  Te41  1  0.25072692  0.00056526  0.50299026  1
  Te  Te42  1  0.25210786  0.50195323  0.00081225  1
  Te  Te43  1  0.25109476  0.49976949  0.49775754  1
  Te  Te44  1  0.74913838  -0.00348311  0.00439452  1
  Te  Te45  1  0.74940923  0.00629832  0.49653558  1
  Te  Te46  1  0.74631663  0.50206721  0.00215640  1
  Te  Te47  1  0.74930120  0.49777238  0.49864845  1
  Te  Te48  1  0.00559004  0.25077871  -0.00418909  1
  Te  Te49  1  0.00284679  0.25374972  0.50154299  1
  Te  Te50  1  0.00021565  0.74869932  0.00265761  1
  Te  Te51  1  0.00258472  0.74545275  0.49819807  1
  Te  Te52  1  0.49505623  0.25800247  -0.00048074  1
  Te  Te53  1  0.49903482  0.25650978  0.50110333  1
  Te  Te54  1  0.49678470  0.74583302  -0.00154384  1
  Te  Te55  1  0.49673954  0.74490879  0.50314926  1
  Te  Te56  1  -0.00601388  -0.00719572  0.25018423  1
  Te  Te57  1  0.00671638  0.00591959  0.74957620  1
  Te  Te58  1  -0.00534224  0.50421679  0.25487287  1
  Te  Te59  1  0.00453136  0.49676893  0.74479203  1
  Te  Te60  1  0.50899878  -0.00002745  0.25004110  1
  Te  Te61  1  0.49338038  -0.00883906  0.74967342  1
  Te  Te62  1  0.50677158  0.50064647  0.25137128  1
  Te  Te63  1  0.49714787  0.50396127  0.74931486  1
