# generated using pymatgen
data_AgSbTe2
_symmetry_space_group_name_H-M   'P 1'
_cell_length_a   12.32150419
_cell_length_b   12.32150391
_cell_length_c   12.33928216
_cell_angle_alpha   89.99878253
_cell_angle_beta   90.00121786
_cell_angle_gamma   89.98940839
_symmetry_Int_Tables_number   1
_chemical_formula_structural   AgSbTe2
_chemical_formula_sum   'Ag16 Sb16 Te32'
_cell_volume   1873.34314707
_cell_formula_units_Z   16
loop_
 _symmetry_equiv_pos_site_id
 _symmetry_equiv_pos_as_xyz
  1  'x, y, z'
loop_
 _atom_site_type_symbol
 _atom_site_label
 _atom_site_symmetry_multiplicity
 _atom_site_fract_x
 _atom_site_fract_y
 _atom_site_fract_z
 _atom_site_occupancy
  Ag  Ag0  1  0.26281721  0.01281736  0.25000020  1
  Ag  Ag1  1  0.00920637  0.23534446  0.74587217  1
  Ag  Ag2  1  0.25582649  0.76618355  -0.01037168  1
  Ag  Ag3  1  0.74983988  -0.00075042  0.74907534  1
  Ag  Ag4  1  0.48959916  0.76714640  0.24777447  1
  Ag  Ag5  1  0.24671248  0.23998853  0.50097789  1
  Ag  Ag6  1  0.25080056  0.23541270  -0.00087829  1
  Ag  Ag7  1  0.24924960  0.49983934  0.75092469  1
  Ag  Ag8  1  0.01714552  0.23959894  0.25222550  1
  Ag  Ag9  1  0.48541202  0.00080050  0.50087749  1
  Ag  Ag10  1  0.48209037  0.23209016  0.25000000  1
  Ag  Ag11  1  0.01618334  0.00582662  0.51037133  1
  Ag  Ag12  1  0.01552524  0.76552508  0.74999996  1
  Ag  Ag13  1  0.48998835  -0.00328770  -0.00097715  1
  Ag  Ag14  1  0.24985854  -0.00014111  0.74999972  1
  Ag  Ag15  1  0.48534381  0.75920505  0.75412755  1
  Sb  Sb16  1  0.01099749  0.00154439  -0.00929845  1
  Sb  Sb17  1  0.74770750  0.75645192  0.50087272  1
  Sb  Sb18  1  0.25154435  0.76099808  0.50929862  1
  Sb  Sb19  1  0.00699225  0.49231596  0.50311103  1
  Sb  Sb20  1  0.75007197  0.50007214  0.75000006  1
  Sb  Sb21  1  0.25065265  0.49391051  0.24925337  1
  Sb  Sb22  1  0.75030415  0.24424731  0.50105287  1
  Sb  Sb23  1  0.74633482  0.24271832  -0.00253830  1
  Sb  Sb24  1  0.48678571  0.23678452  0.75000000  1
  Sb  Sb25  1  0.49271830  0.49633468  0.50253822  1
  Sb  Sb26  1  0.74812010  0.49812003  0.24999995  1
  Sb  Sb27  1  0.00645191  0.49770740  -0.00087268  1
  Sb  Sb28  1  0.49424708  0.50030409  -0.00105274  1
  Sb  Sb29  1  0.01493111  0.76493236  0.25000000  1
  Sb  Sb30  1  0.74391071  0.00065268  0.25074660  1
  Sb  Sb31  1  0.74231604  0.75699216  -0.00311107  1
  Te  Te32  1  0.25101063  0.25070101  0.24582954  1
  Te  Te33  1  0.25112695  0.24197467  0.75439417  1
  Te  Te34  1  0.25317183  0.74416334  0.24455242  1
  Te  Te35  1  0.24927440  0.75825661  0.75015818  1
  Te  Te36  1  0.75217959  0.25081183  0.24860269  1
  Te  Te37  1  0.76856957  0.24971807  0.75148456  1
  Te  Te38  1  0.73813222  0.74782462  0.24945310  1
  Te  Te39  1  0.75295453  0.75359666  0.74987023  1
  Te  Te40  1  0.25351386  0.00177540  0.00439365  1
  Te  Te41  1  0.25177660  0.00351223  0.49560657  1
  Te  Te42  1  0.24999707  0.49726538  -0.00863456  1
  Te  Te43  1  0.25002502  0.47987439  0.50840563  1
  Te  Te44  1  0.72987396  0.00002501  -0.00840565  1
  Te  Te45  1  0.74726517  -0.00000325  0.50863480  1
  Te  Te46  1  0.75149473  0.49924738  0.00245784  1
  Te  Te47  1  0.74924726  0.50149480  0.49754218  1
  Te  Te48  1  0.00531064  0.24760722  0.00226296  1
  Te  Te49  1  -0.00049552  0.24660523  0.50192457  1
  Te  Te50  1  0.00647411  0.75133435  -0.00111213  1
  Te  Te51  1  0.00133463  0.75647419  0.50111221  1
  Te  Te52  1  0.49656519  0.25025449  0.00064149  1
  Te  Te53  1  0.50025450  0.24656519  0.49935844  1
  Te  Te54  1  0.49660523  0.74950484  -0.00192511  1
  Te  Te55  1  0.49760695  0.75531119  0.49773786  1
  Te  Te56  1  -0.00583672  0.00317083  0.25544808  1
  Te  Te57  1  0.00825619  -0.00072666  0.74984108  1
  Te  Te58  1  -0.00217533  0.48813238  0.25054694  1
  Te  Te59  1  0.00359641  0.50295505  0.75012970  1
  Te  Te60  1  0.50070080  0.00101009  0.25417034  1
  Te  Te61  1  0.49197448  0.00112866  0.74560604  1
  Te  Te62  1  0.50081185  0.50217955  0.25139733  1
  Te  Te63  1  0.49971813  0.51856922  0.74851547  1
