# generated using pymatgen
data_AgSbTe2
_symmetry_space_group_name_H-M   'P 1'
_cell_length_a   12.21709771
_cell_length_b   12.21901662
_cell_length_c   12.21351571
_cell_angle_alpha   89.99605278
_cell_angle_beta   89.99103634
_cell_angle_gamma   90.00549843
_symmetry_Int_Tables_number   1
_chemical_formula_structural   AgSbTe2
_chemical_formula_sum   'Ag16 Sb16 Te32'
_cell_volume   1823.24482616
_cell_formula_units_Z   16
loop_
 _symmetry_equiv_pos_site_id
 _symmetry_equiv_pos_as_xyz
  1  'x, y, z'
loop_
 _atom_site_type_symbol
 _atom_site_label
 _atom_site_symmetry_multiplicity
 _atom_site_fract_x
 _atom_site_fract_y
 _atom_site_fract_z
 _atom_site_occupancy
  Ag  Ag0  1  -0.00259946  -0.00205161  0.49484841  1
  Ag  Ag1  1  0.00218286  0.50228823  0.49778127  1
  Ag  Ag2  1  0.25152652  0.25339013  0.00750845  1
  Ag  Ag3  1  0.24993916  0.50085744  0.74827430  1
  Ag  Ag4  1  0.25185567  0.49713045  0.25102924  1
  Ag  Ag5  1  0.49436975  0.25166500  0.24725772  1
  Ag  Ag6  1  0.75115529  -0.00351425  0.25314158  1
  Ag  Ag7  1  0.74997712  0.50391818  0.74886841  1
  Ag  Ag8  1  0.24849776  0.74689967  0.49487518  1
  Ag  Ag9  1  0.50038695  0.74894168  0.25011143  1
  Ag  Ag10  1  0.00462201  0.24848247  0.25154946  1
  Ag  Ag11  1  0.75180749  0.75156397  0.49824782  1
  Ag  Ag12  1  0.49847282  0.50050783  0.00407929  1
  Ag  Ag13  1  0.75173834  -0.00416542  0.74720255  1
  Ag  Ag14  1  0.74718767  0.74919098  0.00167707  1
  Ag  Ag15  1  0.24914224  0.00289093  0.25257769  1
  Sb  Sb16  1  0.00026331  0.75144058  0.25400560  1
  Sb  Sb17  1  0.24763223  0.25334948  0.49148465  1
  Sb  Sb18  1  0.50065068  -0.00050379  0.00450341  1
  Sb  Sb19  1  0.24773310  -0.00052064  0.74535985  1
  Sb  Sb20  1  0.50293749  -0.00245202  0.49586410  1
  Sb  Sb21  1  0.49824104  0.50307251  0.49610453  1
  Sb  Sb22  1  0.49829532  0.25347935  0.75271760  1
  Sb  Sb23  1  -0.00239536  0.74858022  0.74648554  1
  Sb  Sb24  1  0.50254526  0.74796893  0.75100725  1
  Sb  Sb25  1  0.75207913  0.24902299  0.49815869  1
  Sb  Sb26  1  0.00131947  0.25130517  0.74930603  1
  Sb  Sb27  1  0.74793125  0.25169947  0.00335008  1
  Sb  Sb28  1  0.74894573  0.50494116  0.25158142  1
  Sb  Sb29  1  0.25319348  0.74673003  0.00562827  1
  Sb  Sb30  1  -0.00090980  0.00145520  0.00579534  1
  Sb  Sb31  1  0.00105402  0.49882744  0.00312060  1
  Te  Te32  1  0.25110804  0.24971169  0.24870237  1
  Te  Te33  1  0.25116750  0.25457021  0.75799685  1
  Te  Te34  1  0.25283518  0.75007753  0.25131737  1
  Te  Te35  1  0.25196846  0.74516256  0.74566602  1
  Te  Te36  1  0.74980158  0.24361476  0.24861185  1
  Te  Te37  1  0.74931874  0.25112809  0.75084134  1
  Te  Te38  1  0.74725252  0.75224424  0.25261497  1
  Te  Te39  1  0.74842980  0.74898674  0.74761508  1
  Te  Te40  1  0.24919483  0.00211902  0.00299953  1
  Te  Te41  1  0.24562649  -0.00515080  0.49911790  1
  Te  Te42  1  0.25115667  0.50041317  0.00149067  1
  Te  Te43  1  0.24803421  0.50302213  0.49919929  1
  Te  Te44  1  0.75069118  -0.00433804  0.00052392  1
  Te  Te45  1  0.75237976  -0.00334085  0.49774839  1
  Te  Te46  1  0.74850977  0.50325196  -0.00355189  1
  Te  Te47  1  0.75294927  0.50435513  0.50322963  1
  Te  Te48  1  0.00579070  0.25026738  0.00797449  1
  Te  Te49  1  0.00020056  0.25069776  0.49358692  1
  Te  Te50  1  -0.00976120  0.74999617  -0.00013410  1
  Te  Te51  1  -0.00090397  0.74886283  0.49926034  1
  Te  Te52  1  0.49645090  0.25545981  0.00616208  1
  Te  Te53  1  0.49986246  0.25017508  0.48995071  1
  Te  Te54  1  0.50445646  0.74492983  0.00623415  1
  Te  Te55  1  0.50048019  0.74925942  0.49279454  1
  Te  Te56  1  0.00024970  0.00268300  0.25395808  1
  Te  Te57  1  -0.00576724  0.00169887  0.74178652  1
  Te  Te58  1  0.00309704  0.49566030  0.25448170  1
  Te  Te59  1  -0.00005408  0.49848213  0.74385869  1
  Te  Te60  1  0.49919008  -0.00048081  0.24912970  1
  Te  Te61  1  0.50804828  0.00107358  0.75089290  1
  Te  Te62  1  0.49817114  0.50034936  0.24688022  1
  Te  Te63  1  0.50028646  0.49866597  0.75555697  1
