# generated using pymatgen
data_AgSbTe2
_symmetry_space_group_name_H-M   'P 1'
_cell_length_a   12.22133397
_cell_length_b   12.20961115
_cell_length_c   12.21907612
_cell_angle_alpha   90.00845102
_cell_angle_beta   89.99665114
_cell_angle_gamma   89.99210846
_symmetry_Int_Tables_number   1
_chemical_formula_structural   AgSbTe2
_chemical_formula_sum   'Ag16 Sb16 Te32'
_cell_volume   1823.30282756
_cell_formula_units_Z   16
loop_
 _symmetry_equiv_pos_site_id
 _symmetry_equiv_pos_as_xyz
  1  'x, y, z'
loop_
 _atom_site_type_symbol
 _atom_site_label
 _atom_site_symmetry_multiplicity
 _atom_site_fract_x
 _atom_site_fract_y
 _atom_site_fract_z
 _atom_site_occupancy
  Ag  Ag0  1  0.25349419  0.00259520  0.25322043  1
  Ag  Ag1  1  0.75373429  0.75291149  0.00217922  1
  Ag  Ag2  1  0.00214268  0.50128663  -0.00305736  1
  Ag  Ag3  1  0.00132384  0.00070758  0.50063613  1
  Ag  Ag4  1  0.74665490  -0.00313978  0.25106092  1
  Ag  Ag5  1  0.00582146  0.24748021  0.75036815  1
  Ag  Ag6  1  0.24657333  0.49375222  0.75171941  1
  Ag  Ag7  1  0.25187743  0.24496960  0.50287399  1
  Ag  Ag8  1  0.75296644  0.00024119  0.74920302  1
  Ag  Ag9  1  0.49384926  0.24577321  0.74788584  1
  Ag  Ag10  1  0.50127928  0.75989131  0.24985359  1
  Ag  Ag11  1  -0.00043815  0.75322505  0.75229185  1
  Ag  Ag12  1  0.49844075  0.00404087  0.49427206  1
  Ag  Ag13  1  0.24889191  0.24919584  -0.00385875  1
  Ag  Ag14  1  0.49627432  0.24037931  0.25231293  1
  Ag  Ag15  1  -0.00178686  0.75553796  0.24785648  1
  Sb  Sb16  1  0.49697289  0.49879289  -0.00122581  1
  Sb  Sb17  1  0.49972530  0.00093990  0.00660539  1
  Sb  Sb18  1  0.24671125  0.75149170  -0.00003374  1
  Sb  Sb19  1  0.75148127  0.50313336  0.24692381  1
  Sb  Sb20  1  0.00348036  0.49816162  0.50220553  1
  Sb  Sb21  1  0.24922238  0.75586965  0.49965200  1
  Sb  Sb22  1  0.00313701  0.24284848  0.25003265  1
  Sb  Sb23  1  0.24842843  0.49755943  0.24837289  1
  Sb  Sb24  1  0.75070913  0.75484594  0.49748569  1
  Sb  Sb25  1  -0.00007414  -0.00165655  -0.00191906  1
  Sb  Sb26  1  0.24816302  0.00679817  0.74674247  1
  Sb  Sb27  1  0.75281661  0.50085736  0.75297706  1
  Sb  Sb28  1  0.49656417  0.49555215  0.50102973  1
  Sb  Sb29  1  0.75141024  0.24739891  -0.00002522  1
  Sb  Sb30  1  0.50055893  0.75682295  0.75023617  1
  Sb  Sb31  1  0.74853045  0.24528742  0.50047081  1
  Te  Te32  1  0.25237097  0.24751494  0.25000432  1
  Te  Te33  1  0.24940967  0.24878470  0.75134274  1
  Te  Te34  1  0.24986851  0.75330781  0.24938336  1
  Te  Te35  1  0.24566810  0.74420680  0.75124787  1
  Te  Te36  1  0.74377537  0.24389414  0.24836146  1
  Te  Te37  1  0.75035593  0.24498323  0.75129116  1
  Te  Te38  1  0.75120133  0.75338363  0.24748690  1
  Te  Te39  1  0.75321118  0.75358013  0.75393257  1
  Te  Te40  1  0.24960875  0.00623755  0.00752387  1
  Te  Te41  1  0.24961743  0.00468955  0.49694533  1
  Te  Te42  1  0.24518844  0.49505843  -0.00342442  1
  Te  Te43  1  0.24957661  0.49015585  0.50576045  1
  Te  Te44  1  0.74974111  -0.00436160  0.00006745  1
  Te  Te45  1  0.75099464  0.00040147  0.49945626  1
  Te  Te46  1  0.75794989  0.50685535  -0.00015003  1
  Te  Te47  1  0.75010606  0.49959583  0.50027018  1
  Te  Te48  1  0.00269095  0.25399393  -0.00268360  1
  Te  Te49  1  0.00394174  0.24634054  0.50273502  1
  Te  Te50  1  -0.00086076  0.74835374  -0.00058351  1
  Te  Te51  1  0.00116940  0.75491910  0.50009346  1
  Te  Te52  1  0.49636493  0.25128272  -0.00082916  1
  Te  Te53  1  0.49680074  0.24624634  0.49987915  1
  Te  Te54  1  0.50449394  0.74834550  0.00494662  1
  Te  Te55  1  0.49918894  0.75643246  0.49428343  1
  Te  Te56  1  -0.00133405  -0.00255236  0.25343014  1
  Te  Te57  1  -0.00105052  -0.00021953  0.74720334  1
  Te  Te58  1  -0.00015374  0.50849337  0.24651792  1
  Te  Te59  1  0.00193886  0.49961039  0.75157917  1
  Te  Te60  1  0.50081286  0.00041808  0.25174932  1
  Te  Te61  1  0.50246768  0.00227399  0.74398644  1
  Te  Te62  1  0.50012077  0.50020037  0.25060353  1
  Te  Te63  1  0.49582787  0.49402231  0.74924100  1
