# generated using pymatgen
data_AgSbTe2
_symmetry_space_group_name_H-M   'P 1'
_cell_length_a   12.21503198
_cell_length_b   12.21500009
_cell_length_c   12.21594174
_cell_angle_alpha   90.00142731
_cell_angle_beta   89.99730132
_cell_angle_gamma   89.99733031
_symmetry_Int_Tables_number   1
_chemical_formula_structural   AgSbTe2
_chemical_formula_sum   'Ag16 Sb16 Te32'
_cell_volume   1822.69933273
_cell_formula_units_Z   16
loop_
 _symmetry_equiv_pos_site_id
 _symmetry_equiv_pos_as_xyz
  1  'x, y, z'
loop_
 _atom_site_type_symbol
 _atom_site_label
 _atom_site_symmetry_multiplicity
 _atom_site_fract_x
 _atom_site_fract_y
 _atom_site_fract_z
 _atom_site_occupancy
  Ag  Ag0  1  0.50089693  0.26301632  0.74963150  1
  Ag  Ag1  1  0.25051936  0.50233677  0.24730433  1
  Ag  Ag2  1  -0.00396013  -0.00225277  0.49946425  1
  Ag  Ag3  1  0.25312720  -0.00077853  0.75193343  1
  Ag  Ag4  1  0.74808351  0.25083051  0.50251057  1
  Ag  Ag5  1  0.49838151  0.50097161  -0.01407102  1
  Ag  Ag6  1  0.50072707  0.73688128  0.75007765  1
  Ag  Ag7  1  0.75262165  -0.00206823  0.25175246  1
  Ag  Ag8  1  -0.00206611  0.75144060  0.24977037  1
  Ag  Ag9  1  0.50280707  0.50063375  0.51335641  1
  Ag  Ag10  1  0.00199160  0.50242000  -0.00137751  1
  Ag  Ag11  1  -0.00087808  -0.00264671  0.00026590  1
  Ag  Ag12  1  0.26379429  0.50079091  0.75227308  1
  Ag  Ag13  1  0.50014132  -0.00118834  -0.00505944  1
  Ag  Ag14  1  0.74970257  0.74980234  0.50100942  1
  Ag  Ag15  1  0.73680856  0.50076307  0.74796284  1
  Sb  Sb16  1  0.50241400  0.25097822  0.25078649  1
  Sb  Sb17  1  0.25069063  0.74755216  -0.00172505  1
  Sb  Sb18  1  -0.00181565  0.25052498  0.74857432  1
  Sb  Sb19  1  0.74962238  0.74988238  -0.00184796  1
  Sb  Sb20  1  0.74811564  0.25031781  -0.00367030  1
  Sb  Sb21  1  0.74965755  0.50200912  0.25051284  1
  Sb  Sb22  1  -0.00209726  0.50204741  0.50090190  1
  Sb  Sb23  1  0.25146860  0.25194049  -0.00229022  1
  Sb  Sb24  1  0.50243844  0.74885350  0.25049294  1
  Sb  Sb25  1  -0.00200976  0.24908772  0.25083261  1
  Sb  Sb26  1  0.74733489  -0.00093992  0.74951761  1
  Sb  Sb27  1  0.50362519  -0.00076441  0.50588236  1
  Sb  Sb28  1  -0.00143185  0.74948172  0.74979849  1
  Sb  Sb29  1  0.25266039  0.25073128  0.50318700  1
  Sb  Sb30  1  0.24753728  -0.00263413  0.24795797  1
  Sb  Sb31  1  0.25083926  0.74939397  0.50200739  1
  Te  Te32  1  0.25029750  0.25987175  0.25231966  1
  Te  Te33  1  0.25633295  0.25097280  0.74835069  1
  Te  Te34  1  0.24331592  0.74403687  0.25203676  1
  Te  Te35  1  0.25567696  0.74904645  0.74851573  1
  Te  Te36  1  0.74943487  0.24320317  0.25874384  1
  Te  Te37  1  0.74578385  0.25421533  0.74545158  1
  Te  Te38  1  0.75341446  0.75405708  0.25587510  1
  Te  Te39  1  0.74648979  0.74632848  0.74513026  1
  Te  Te40  1  0.24926853  0.00090538  -0.00344582  1
  Te  Te41  1  0.24443978  0.00035083  0.50319774  1
  Te  Te42  1  0.25048207  0.49938648  -0.00333607  1
  Te  Te43  1  0.25279182  0.49965584  0.50361986  1
  Te  Te44  1  0.75201839  0.00023480  0.00271945  1
  Te  Te45  1  0.75160483  -0.00150591  0.49873106  1
  Te  Te46  1  0.74941768  0.49977846  -0.00204851  1
  Te  Te47  1  0.74894776  0.50074458  0.50138234  1
  Te  Te48  1  -0.00187754  0.24887868  -0.00035930  1
  Te  Te49  1  -0.00781234  0.24336961  0.50094464  1
  Te  Te50  1  -0.00167723  0.75127231  0.00352001  1
  Te  Te51  1  -0.00542912  0.75406478  0.49764198  1
  Te  Te52  1  0.50168933  0.25068035  -0.00518104  1
  Te  Te53  1  0.50448907  0.25276148  0.50377495  1
  Te  Te54  1  0.50139841  0.74941725  -0.00389239  1
  Te  Te55  1  0.50487255  0.74737000  0.50254358  1
  Te  Te56  1  0.00057741  -0.00246517  0.24713639  1
  Te  Te57  1  0.00386884  -0.00056581  0.75373312  1
  Te  Te58  1  0.00179581  0.50309386  0.24615373  1
  Te  Te59  1  0.00188793  0.50076428  0.75495759  1
  Te  Te60  1  0.50052424  -0.00066162  0.24182500  1
  Te  Te61  1  0.49792786  -0.00088176  0.75326586  1
  Te  Te62  1  0.49706310  0.50104194  0.24748488  1
  Te  Te63  1  0.49923645  0.50116256  0.75148468  1
