# generated using pymatgen
data_AgSbTe2
_symmetry_space_group_name_H-M   'P 1'
_cell_length_a   12.21552460
_cell_length_b   12.21582846
_cell_length_c   12.20245139
_cell_angle_alpha   90.00188956
_cell_angle_beta   89.99505798
_cell_angle_gamma   89.99525468
_symmetry_Int_Tables_number   1
_chemical_formula_structural   AgSbTe2
_chemical_formula_sum   'Ag16 Sb16 Te32'
_cell_volume   1820.88337639
_cell_formula_units_Z   16
loop_
 _symmetry_equiv_pos_site_id
 _symmetry_equiv_pos_as_xyz
  1  'x, y, z'
loop_
 _atom_site_type_symbol
 _atom_site_label
 _atom_site_symmetry_multiplicity
 _atom_site_fract_x
 _atom_site_fract_y
 _atom_site_fract_z
 _atom_site_occupancy
  Ag  Ag0  1  0.00115412  0.24668557  0.24539869  1
  Ag  Ag1  1  0.24576686  0.74664670  -0.00111755  1
  Ag  Ag2  1  0.49722603  0.50186691  -0.00418880  1
  Ag  Ag3  1  0.49858205  0.75008808  0.24341283  1
  Ag  Ag4  1  0.75429993  0.74800786  -0.00416729  1
  Ag  Ag5  1  0.75457125  0.00047152  0.75233363  1
  Ag  Ag6  1  -0.00207807  0.74988979  0.75765491  1
  Ag  Ag7  1  0.75269458  0.24852866  0.50448097  1
  Ag  Ag8  1  0.50215527  0.25295209  0.75355273  1
  Ag  Ag9  1  0.24592733  -0.00003421  0.24476425  1
  Ag  Ag10  1  0.00318486  0.50290667  -0.00485235  1
  Ag  Ag11  1  0.00177101  -0.00225557  -0.00115463  1
  Ag  Ag12  1  -0.00156173  0.00170681  0.50087249  1
  Ag  Ag13  1  0.75145489  0.49957547  0.75551894  1
  Ag  Ag14  1  0.24865627  0.49958252  0.75872787  1
  Ag  Ag15  1  0.24602051  0.25317090  -0.00134938  1
  Sb  Sb16  1  0.50130309  0.74721565  0.75622343  1
  Sb  Sb17  1  0.75400105  0.00008575  0.24734832  1
  Sb  Sb18  1  0.75285724  0.75155728  0.50385408  1
  Sb  Sb19  1  0.75141552  0.50048943  0.24362544  1
  Sb  Sb20  1  -0.00148572  0.25034300  0.75388040  1
  Sb  Sb21  1  -0.00190426  0.49806783  0.50410131  1
  Sb  Sb22  1  0.50184053  0.49852641  0.50444988  1
  Sb  Sb23  1  0.50185325  0.00145114  0.50187715  1
  Sb  Sb24  1  0.24720851  0.75146472  0.50112147  1
  Sb  Sb25  1  0.75282677  0.25153775  -0.00451324  1
  Sb  Sb26  1  0.24479021  -0.00004634  0.75578391  1
  Sb  Sb27  1  0.49880288  -0.00181095  -0.00117942  1
  Sb  Sb28  1  0.24863447  0.50077235  0.23998401  1
  Sb  Sb29  1  0.49904887  0.25019721  0.24553889  1
  Sb  Sb30  1  0.24754672  0.24823040  0.50149028  1
  Sb  Sb31  1  0.00154247  0.75279712  0.24034171  1
  Te  Te32  1  0.24726658  0.24657730  0.24617983  1
  Te  Te33  1  0.25354934  0.25195748  0.75388032  1
  Te  Te34  1  0.25209781  0.75300251  0.24476450  1
  Te  Te35  1  0.24830884  0.74802528  0.75509612  1
  Te  Te36  1  0.75304873  0.24940780  0.25610101  1
  Te  Te37  1  0.74807307  0.25031720  0.74924491  1
  Te  Te38  1  0.74588851  0.75028808  0.24425435  1
  Te  Te39  1  0.75131805  0.74962151  0.75400450  1
  Te  Te40  1  0.24646290  -0.00023408  0.00160873  1
  Te  Te41  1  0.24273454  0.00041676  0.49398963  1
  Te  Te42  1  0.24814310  0.50055384  -0.00295981  1
  Te  Te43  1  0.24947875  0.49949738  0.51145025  1
  Te  Te44  1  0.75439252  -0.00280995  -0.00423954  1
  Te  Te45  1  0.75535713  0.00293026  0.50464603  1
  Te  Te46  1  0.75123457  0.50177965  -0.00514884  1
  Te  Te47  1  0.75073330  0.49522917  0.50932492  1
  Te  Te48  1  0.00264432  0.24941543  0.00252036  1
  Te  Te49  1  -0.00357196  0.24609983  0.49558208  1
  Te  Te50  1  0.00062832  0.74965960  -0.00162001  1
  Te  Te51  1  -0.00044986  0.75573511  0.50708296  1
  Te  Te52  1  0.49636198  0.25429421  -0.00283710  1
  Te  Te53  1  0.50563170  0.25012468  0.50474729  1
  Te  Te54  1  0.49930002  0.74707200  0.00182157  1
  Te  Te55  1  0.50006965  0.74989443  0.48990397  1
  Te  Te56  1  0.00271302  0.00212887  0.24721445  1
  Te  Te57  1  -0.00257190  -0.00151165  0.75291449  1
  Te  Te58  1  -0.00008166  0.49486461  0.24497850  1
  Te  Te59  1  -0.00117892  0.50153615  0.75390584  1
  Te  Te60  1  0.49413283  -0.00291780  0.25042247  1
  Te  Te61  1  0.50697444  0.00498037  0.74956499  1
  Te  Te62  1  0.50002834  0.50337951  0.24344286  1
  Te  Te63  1  0.50117516  0.49801592  0.75434345  1
