# generated using pymatgen
data_AgSbTe2
_symmetry_space_group_name_H-M   'P 1'
_cell_length_a   12.21746782
_cell_length_b   12.22214658
_cell_length_c   12.22615659
_cell_angle_alpha   89.99651544
_cell_angle_beta   90.01106112
_cell_angle_gamma   89.99782660
_symmetry_Int_Tables_number   1
_chemical_formula_structural   AgSbTe2
_chemical_formula_sum   'Ag16 Sb16 Te32'
_cell_volume   1825.65468493
_cell_formula_units_Z   16
loop_
 _symmetry_equiv_pos_site_id
 _symmetry_equiv_pos_as_xyz
  1  'x, y, z'
loop_
 _atom_site_type_symbol
 _atom_site_label
 _atom_site_symmetry_multiplicity
 _atom_site_fract_x
 _atom_site_fract_y
 _atom_site_fract_z
 _atom_site_occupancy
  Ag  Ag0  1  0.74900927  0.74834877  -0.00097030  1
  Ag  Ag1  1  0.25288185  0.75428299  0.49988126  1
  Ag  Ag2  1  0.49822062  0.50301324  -0.00293207  1
  Ag  Ag3  1  0.01082654  -0.00283693  0.49296187  1
  Ag  Ag4  1  0.49560067  0.74455778  0.74741946  1
  Ag  Ag5  1  0.00598002  0.24347015  0.25058743  1
  Ag  Ag6  1  0.74190547  0.50483115  0.75099191  1
  Ag  Ag7  1  0.49347252  0.50318888  0.50297309  1
  Ag  Ag8  1  0.25191614  -0.00586471  0.74124543  1
  Ag  Ag9  1  0.49379857  0.25135281  0.25192456  1
  Ag  Ag10  1  0.25717148  0.50575294  0.74593539  1
  Ag  Ag11  1  0.25355280  0.50148236  0.25364935  1
  Ag  Ag12  1  0.48962624  -0.00359272  0.49887688  1
  Ag  Ag13  1  0.00560702  0.75675092  0.25059029  1
  Ag  Ag14  1  0.24500655  -0.00211896  0.25719463  1
  Ag  Ag15  1  0.00324074  -0.00266859  0.00771216  1
  Sb  Sb16  1  0.00451984  0.75152696  0.74931978  1
  Sb  Sb17  1  0.74796006  0.74880581  0.50065350  1
  Sb  Sb18  1  0.00231847  0.24747062  0.74920902  1
  Sb  Sb19  1  0.00803166  0.50231729  0.49757021  1
  Sb  Sb20  1  0.49730988  -0.00178845  0.00151044  1
  Sb  Sb21  1  0.74510815  0.50227691  0.25002397  1
  Sb  Sb22  1  0.49400492  0.75010750  0.25235346  1
  Sb  Sb23  1  0.74775281  -0.00459758  0.75003489  1
  Sb  Sb24  1  0.74956176  0.25105612  0.49906572  1
  Sb  Sb25  1  0.74976644  0.25156687  0.00129749  1
  Sb  Sb26  1  0.49812300  0.25449197  0.74804894  1
  Sb  Sb27  1  0.00133726  0.50178896  0.00233928  1
  Sb  Sb28  1  0.25044052  0.24487156  0.49678373  1
  Sb  Sb29  1  0.25016284  0.25022739  0.00318412  1
  Sb  Sb30  1  0.75472123  -0.00170337  0.25024279  1
  Sb  Sb31  1  0.25045968  0.74997629  -0.00003437  1
  Te  Te32  1  0.24981125  0.25093211  0.25001133  1
  Te  Te33  1  0.24972187  0.25111209  0.75097340  1
  Te  Te34  1  0.24755022  0.75036006  0.25215105  1
  Te  Te35  1  0.25272106  0.74967679  0.74768203  1
  Te  Te36  1  0.75056604  0.25036161  0.24962418  1
  Te  Te37  1  0.75051739  0.26034815  0.75014620  1
  Te  Te38  1  0.75861821  0.74900555  0.24500434  1
  Te  Te39  1  0.74584406  0.74559507  0.75280092  1
  Te  Te40  1  0.24602305  -0.00037784  0.00108518  1
  Te  Te41  1  0.25122271  -0.00268021  0.49913009  1
  Te  Te42  1  0.25361583  0.50047894  0.00022071  1
  Te  Te43  1  0.25249086  0.50488060  0.49959366  1
  Te  Te44  1  0.75475600  -0.00568591  -0.00198179  1
  Te  Te45  1  0.74763840  -0.00035975  0.50198955  1
  Te  Te46  1  0.74711098  0.50395217  -0.00276994  1
  Te  Te47  1  0.74235320  0.50069921  0.50473887  1
  Te  Te48  1  -0.00163615  0.24368190  0.00650821  1
  Te  Te49  1  -0.00115754  0.24328017  0.49336567  1
  Te  Te50  1  -0.00316939  0.75315262  0.00279830  1
  Te  Te51  1  0.00337266  0.75365981  0.49668477  1
  Te  Te52  1  0.50156616  0.25518407  0.00753563  1
  Te  Te53  1  0.50068809  0.24964103  0.49428034  1
  Te  Te54  1  0.50331802  0.74684543  -0.00309674  1
  Te  Te55  1  0.49743236  0.75055042  0.50200045  1
  Te  Te56  1  0.00121611  -0.00031119  0.25146718  1
  Te  Te57  1  0.00459751  0.00103490  0.74786262  1
  Te  Te58  1  0.00588182  0.49869620  0.25013843  1
  Te  Te59  1  0.00456314  0.49861998  0.74997442  1
  Te  Te60  1  0.49585948  0.00082217  0.25167846  1
  Te  Te61  1  0.49553910  -0.00087245  0.74866330  1
  Te  Te62  1  0.49651459  0.50012606  0.25132889  1
  Te  Te63  1  0.49545795  0.49924527  0.74876597  1
