# generated using pymatgen
data_AgSbTe2
_symmetry_space_group_name_H-M   'P 1'
_cell_length_a   12.21230552
_cell_length_b   12.21927581
_cell_length_c   12.22034562
_cell_angle_alpha   89.99802051
_cell_angle_beta   90.00578843
_cell_angle_gamma   90.00136565
_symmetry_Int_Tables_number   1
_chemical_formula_structural   AgSbTe2
_chemical_formula_sum   'Ag16 Sb16 Te32'
_cell_volume   1823.58753383
_cell_formula_units_Z   16
loop_
 _symmetry_equiv_pos_site_id
 _symmetry_equiv_pos_as_xyz
  1  'x, y, z'
loop_
 _atom_site_type_symbol
 _atom_site_label
 _atom_site_symmetry_multiplicity
 _atom_site_fract_x
 _atom_site_fract_y
 _atom_site_fract_z
 _atom_site_occupancy
  Ag  Ag0  1  0.00424561  0.25328337  0.75394662  1
  Ag  Ag1  1  0.24772506  -0.00317794  0.75394060  1
  Ag  Ag2  1  0.49288755  0.74722699  0.75048528  1
  Ag  Ag3  1  0.75344115  0.25362048  0.49941367  1
  Ag  Ag4  1  0.00968987  0.49492015  -0.00311770  1
  Ag  Ag5  1  0.24768030  0.50323888  0.75590141  1
  Ag  Ag6  1  0.00162336  0.25254686  0.24628468  1
  Ag  Ag7  1  0.00244458  0.49782333  0.50219295  1
  Ag  Ag8  1  0.25170411  0.74399469  -0.00569401  1
  Ag  Ag9  1  0.74941347  0.74703379  0.50105960  1
  Ag  Ag10  1  0.24447981  0.25564805  -0.00224598  1
  Ag  Ag11  1  0.49032111  0.50151585  -0.00046424  1
  Ag  Ag12  1  0.49796642  0.25324532  0.24768486  1
  Ag  Ag13  1  0.49706750  0.74679637  0.24934162  1
  Ag  Ag14  1  0.00624596  0.00494835  -0.00234679  1
  Ag  Ag15  1  0.25141221  0.74660278  0.50556514  1
  Sb  Sb16  1  0.74988817  0.49976399  0.25211598  1
  Sb  Sb17  1  0.24692974  0.25533913  0.50092413  1
  Sb  Sb18  1  0.25018068  0.49985643  0.24217249  1
  Sb  Sb19  1  0.75527251  0.25165421  0.00069355  1
  Sb  Sb20  1  0.00852928  0.74607954  0.74993394  1
  Sb  Sb21  1  0.49552641  0.50276474  0.50058478  1
  Sb  Sb22  1  0.74762758  0.74820642  -0.00084917  1
  Sb  Sb23  1  0.49337948  -0.00087923  -0.00140550  1
  Sb  Sb24  1  0.75086446  0.00026230  0.25061435  1
  Sb  Sb25  1  0.75389765  0.50056420  0.74766631  1
  Sb  Sb26  1  0.24842819  -0.00017118  0.24559276  1
  Sb  Sb27  1  0.75327103  -0.00106665  0.74936390  1
  Sb  Sb28  1  0.00249721  0.74702855  0.24976000  1
  Sb  Sb29  1  0.00306770  0.00212769  0.50242022  1
  Sb  Sb30  1  0.49611679  0.25365380  0.75224574  1
  Sb  Sb31  1  0.49707662  -0.00163251  0.50075779  1
  Te  Te32  1  0.25098206  0.24898365  0.24743658  1
  Te  Te33  1  0.24831063  0.25135062  0.75216146  1
  Te  Te34  1  0.25491244  0.75115586  0.25010391  1
  Te  Te35  1  0.25053253  0.74819031  0.75172735  1
  Te  Te36  1  0.74945061  0.24951152  0.25545397  1
  Te  Te37  1  0.75434534  0.24911070  0.74351731  1
  Te  Te38  1  0.74242823  0.75058739  0.25651625  1
  Te  Te39  1  0.74073016  0.75107453  0.74401995  1
  Te  Te40  1  0.24576572  0.00021015  -0.00412743  1
  Te  Te41  1  0.24892816  -0.00871115  0.50897791  1
  Te  Te42  1  0.24880509  0.50003282  -0.00229125  1
  Te  Te43  1  0.24559595  0.50399145  0.50779061  1
  Te  Te44  1  0.76177669  -0.00089184  -0.00084623  1
  Te  Te45  1  0.75118500  -0.00193867  0.50086685  1
  Te  Te46  1  0.75118765  0.50080482  -0.00137683  1
  Te  Te47  1  0.75679447  0.50071576  0.50139638  1
  Te  Te48  1  -0.00007027  0.25420063  0.00022342  1
  Te  Te49  1  -0.00036750  0.25255754  0.49884113  1
  Te  Te50  1  0.00319241  0.74618340  0.00139914  1
  Te  Te51  1  -0.00017542  0.74640268  0.49855665  1
  Te  Te52  1  0.49854548  0.25213588  0.00276273  1
  Te  Te53  1  0.50395991  0.25139984  0.49454388  1
  Te  Te54  1  0.49796071  0.74855037  0.00104227  1
  Te  Te55  1  0.49858416  0.74818618  0.49871155  1
  Te  Te56  1  0.00059199  0.00783453  0.24402994  1
  Te  Te57  1  0.00435813  0.00508315  0.75333848  1
  Te  Te58  1  0.00014531  0.49483085  0.24970411  1
  Te  Te59  1  0.00343406  0.49750610  0.75135058  1
  Te  Te60  1  0.49985064  0.00129218  0.24932056  1
  Te  Te61  1  0.49310246  -0.00543186  0.75109600  1
  Te  Te62  1  0.50004010  0.49935062  0.24502943  1
  Te  Te63  1  0.49421553  0.50292123  0.75418439  1
