# generated using pymatgen
data_AgSbTe2
_symmetry_space_group_name_H-M   'P 1'
_cell_length_a   12.21131080
_cell_length_b   12.20938737
_cell_length_c   12.20743003
_cell_angle_alpha   90.00045733
_cell_angle_beta   89.99662704
_cell_angle_gamma   90.00249595
_symmetry_Int_Tables_number   1
_chemical_formula_structural   AgSbTe2
_chemical_formula_sum   'Ag16 Sb16 Te32'
_cell_volume   1820.03776913
_cell_formula_units_Z   16
loop_
 _symmetry_equiv_pos_site_id
 _symmetry_equiv_pos_as_xyz
  1  'x, y, z'
loop_
 _atom_site_type_symbol
 _atom_site_label
 _atom_site_symmetry_multiplicity
 _atom_site_fract_x
 _atom_site_fract_y
 _atom_site_fract_z
 _atom_site_occupancy
  Ag  Ag0  1  0.74896664  -0.00329993  0.75388745  1
  Ag  Ag1  1  0.25407857  0.49570964  0.24822656  1
  Ag  Ag2  1  0.50091108  0.75444213  0.75842948  1
  Ag  Ag3  1  0.49307964  0.24895658  0.24691217  1
  Ag  Ag4  1  0.49781427  0.75121698  0.24151499  1
  Ag  Ag5  1  0.00222903  0.49849416  0.50000736  1
  Ag  Ag6  1  0.25086192  0.24957551  0.49488241  1
  Ag  Ag7  1  0.25118347  -0.00036182  0.75717885  1
  Ag  Ag8  1  0.49695082  0.50390015  0.00312581  1
  Ag  Ag9  1  0.49512305  -0.00418654  -0.00017734  1
  Ag  Ag10  1  -0.00022539  0.75433466  0.75323175  1
  Ag  Ag11  1  0.74422032  0.75374717  -0.00293022  1
  Ag  Ag12  1  0.25436509  0.00474658  0.24334886  1
  Ag  Ag13  1  0.25396104  0.24380682  0.00471410  1
  Ag  Ag14  1  0.74921278  0.24913043  0.49961503  1
  Ag  Ag15  1  0.00500277  -0.00203008  -0.00330604  1
  Sb  Sb16  1  0.00076837  0.24530790  0.75054186  1
  Sb  Sb17  1  0.49783030  0.49773591  0.49734329  1
  Sb  Sb18  1  0.75016765  0.75126757  0.50252322  1
  Sb  Sb19  1  0.74543931  0.49925725  0.24937358  1
  Sb  Sb20  1  0.00462563  0.50308687  -0.00001463  1
  Sb  Sb21  1  0.00179513  0.00090880  0.50268755  1
  Sb  Sb22  1  0.00213721  0.75145648  0.24626356  1
  Sb  Sb23  1  0.25146535  0.50026120  0.75228590  1
  Sb  Sb24  1  0.49841550  0.24473911  0.75343961  1
  Sb  Sb25  1  0.74512236  0.00053499  0.24679398  1
  Sb  Sb26  1  0.74603713  0.24613149  0.00052136  1
  Sb  Sb27  1  0.74883417  0.50270060  0.75049436  1
  Sb  Sb28  1  0.25857026  0.75902104  -0.00043809  1
  Sb  Sb29  1  0.00863724  0.24916235  0.25016531  1
  Sb  Sb30  1  0.49879163  0.00106902  0.50014695  1
  Sb  Sb31  1  0.24981977  0.74993969  0.49994307  1
  Te  Te32  1  0.25240367  0.24840856  0.24992504  1
  Te  Te33  1  0.25110569  0.24462536  0.74944957  1
  Te  Te34  1  0.25502116  0.75044361  0.25153434  1
  Te  Te35  1  0.25085250  0.75574631  0.74865003  1
  Te  Te36  1  0.74163092  0.24900556  0.25453240  1
  Te  Te37  1  0.74940829  0.24362604  0.74556408  1
  Te  Te38  1  0.74350884  0.75099760  0.24592001  1
  Te  Te39  1  0.74794921  0.75407636  0.75202363  1
  Te  Te40  1  0.25186803  0.00119873  -0.00038440  1
  Te  Te41  1  0.24859422  0.00636442  0.49967129  1
  Te  Te42  1  0.25252453  0.49194010  0.00297848  1
  Te  Te43  1  0.24716754  0.49420700  0.49716825  1
  Te  Te44  1  0.74883501  -0.00142938  -0.00363252  1
  Te  Te45  1  0.75125979  0.00517328  0.50597146  1
  Te  Te46  1  0.74564676  0.50368619  0.00020207  1
  Te  Te47  1  0.75510402  0.49375224  0.49980977  1
  Te  Te48  1  0.00385847  0.24579198  -0.00022649  1
  Te  Te49  1  0.00110908  0.25399090  0.49993608  1
  Te  Te50  1  -0.00714951  0.75250286  -0.00378818  1
  Te  Te51  1  -0.00142417  0.74513523  0.50503005  1
  Te  Te52  1  0.49808896  0.24904589  0.00313798  1
  Te  Te53  1  0.49804917  0.25131754  0.49503850  1
  Te  Te54  1  0.50052205  0.75175440  0.00004282  1
  Te  Te55  1  0.50144255  0.74889664  0.49990472  1
  Te  Te56  1  0.00689881  -0.00192538  0.24398731  1
  Te  Te57  1  0.00154054  -0.00407459  0.75339432  1
  Te  Te58  1  0.00773115  0.50175724  0.25317895  1
  Te  Te59  1  0.00072941  0.50817988  0.74709500  1
  Te  Te60  1  0.49665448  -0.00075284  0.24745530  1
  Te  Te61  1  0.49832121  -0.00331870  0.75262643  1
  Te  Te62  1  0.49567960  0.50064213  0.24689305  1
  Te  Te63  1  0.49887591  0.50847212  0.75617857  1
