# generated using pymatgen
data_AgSbTe2
_symmetry_space_group_name_H-M   'P 1'
_cell_length_a   12.21713460
_cell_length_b   12.21666228
_cell_length_c   12.21703884
_cell_angle_alpha   90.01119572
_cell_angle_beta   90.00364493
_cell_angle_gamma   89.99971991
_symmetry_Int_Tables_number   1
_chemical_formula_structural   AgSbTe2
_chemical_formula_sum   'Ag16 Sb16 Te32'
_cell_volume   1823.42486331
_cell_formula_units_Z   16
loop_
 _symmetry_equiv_pos_site_id
 _symmetry_equiv_pos_as_xyz
  1  'x, y, z'
loop_
 _atom_site_type_symbol
 _atom_site_label
 _atom_site_symmetry_multiplicity
 _atom_site_fract_x
 _atom_site_fract_y
 _atom_site_fract_z
 _atom_site_occupancy
  Ag  Ag0  1  -0.00235340  0.25302279  0.74465798  1
  Ag  Ag1  1  0.74775342  0.00095607  0.25583662  1
  Ag  Ag2  1  0.50383065  0.25054937  0.25818142  1
  Ag  Ag3  1  0.50325320  0.00653174  0.49793481  1
  Ag  Ag4  1  -0.00313949  0.00344264  0.50015203  1
  Ag  Ag5  1  0.50501168  0.49221036  0.50037540  1
  Ag  Ag6  1  0.50272566  0.25270535  0.74296413  1
  Ag  Ag7  1  0.50104363  0.74924081  0.25097924  1
  Ag  Ag8  1  -0.00084676  0.74893991  0.25085193  1
  Ag  Ag9  1  -0.00103122  0.50093324  -0.00158688  1
  Ag  Ag10  1  0.50086258  0.49984724  0.00018945  1
  Ag  Ag11  1  0.74559628  0.25128899  0.50179054  1
  Ag  Ag12  1  0.25051748  0.00162267  0.74784459  1
  Ag  Ag13  1  0.74971946  0.49486517  0.74595225  1
  Ag  Ag14  1  -0.00498013  0.49604001  0.50255656  1
  Ag  Ag15  1  0.25041795  0.74825517  0.00104233  1
  Sb  Sb16  1  0.25193511  -0.00193838  0.25264381  1
  Sb  Sb17  1  0.25571828  0.24890913  0.50196562  1
  Sb  Sb18  1  0.74710912  0.49775515  0.25456283  1
  Sb  Sb19  1  0.25032821  0.49835322  0.75084494  1
  Sb  Sb20  1  0.74911070  0.74739130  0.00246874  1
  Sb  Sb21  1  -0.00379245  0.25047946  0.25629155  1
  Sb  Sb22  1  0.25069798  0.75085265  0.49966767  1
  Sb  Sb23  1  0.74969480  0.74857231  0.49852781  1
  Sb  Sb24  1  0.74930717  0.25227179  -0.00198331  1
  Sb  Sb25  1  0.00132387  -0.00115658  -0.00042523  1
  Sb  Sb26  1  0.25028238  0.25129919  -0.00217744  1
  Sb  Sb27  1  0.74954362  0.00590443  0.74334692  1
  Sb  Sb28  1  0.49902233  -0.00009656  0.00155262  1
  Sb  Sb29  1  0.49876426  0.74804630  0.74910406  1
  Sb  Sb30  1  0.00135252  0.74754945  0.74912947  1
  Sb  Sb31  1  0.25226019  0.50176253  0.24917867  1
  Te  Te32  1  0.26062659  0.24851106  0.24761948  1
  Te  Te33  1  0.24995865  0.24382676  0.75105070  1
  Te  Te34  1  0.25015955  0.75069424  0.24473891  1
  Te  Te35  1  0.25019512  0.75775313  0.75641796  1
  Te  Te36  1  0.74459359  0.24592906  0.25571737  1
  Te  Te37  1  0.74929422  0.25333908  0.74577037  1
  Te  Te38  1  0.74933588  0.75587848  0.25039992  1
  Te  Te39  1  0.74977544  0.74069985  0.75062387  1
  Te  Te40  1  0.24939156  -0.00617407  -0.00681496  1
  Te  Te41  1  0.24930659  -0.00107968  0.50504128  1
  Te  Te42  1  0.25016724  0.50498972  -0.00037977  1
  Te  Te43  1  0.24877973  0.50126516  0.50045949  1
  Te  Te44  1  0.75049505  0.00013903  0.00851345  1
  Te  Te45  1  0.74944349  0.00321065  0.49799435  1
  Te  Te46  1  0.74988393  0.49905114  -0.00560100  1
  Te  Te47  1  0.74968938  0.49688111  0.50310746  1
  Te  Te48  1  0.00027038  0.25681726  -0.00435149  1
  Te  Te49  1  -0.00317150  0.25159541  0.50107093  1
  Te  Te50  1  0.00262603  0.74580909  0.00434365  1
  Te  Te51  1  0.00041417  0.74917301  0.49498973  1
  Te  Te52  1  0.50016782  0.25609476  -0.00195643  1
  Te  Te53  1  0.50107288  0.25137537  0.50098417  1
  Te  Te54  1  0.49770776  0.74515666  0.00471914  1
  Te  Te55  1  0.49920985  0.74988324  0.49430839  1
  Te  Te56  1  -0.00176621  -0.00138998  0.25407515  1
  Te  Te57  1  -0.00062618  0.00334570  0.74587635  1
  Te  Te58  1  -0.00142068  0.50241681  0.25100517  1
  Te  Te59  1  0.00028903  0.49746083  0.74741596  1
  Te  Te60  1  0.50115296  -0.00101121  0.25233248  1
  Te  Te61  1  0.50049566  0.00319958  0.74669414  1
  Te  Te62  1  0.50152342  0.50111992  0.25126536  1
  Te  Te63  1  0.49991949  0.49763193  0.74814728  1
