# generated using pymatgen
data_AgSbTe2
_symmetry_space_group_name_H-M   'P 1'
_cell_length_a   12.27840862
_cell_length_b   12.28474012
_cell_length_c   12.28306303
_cell_angle_alpha   89.99728016
_cell_angle_beta   90.01090184
_cell_angle_gamma   89.99931218
_symmetry_Int_Tables_number   1
_chemical_formula_structural   AgSbTe2
_chemical_formula_sum   'Ag16 Sb16 Te32'
_cell_volume   1852.74106836
_cell_formula_units_Z   16
loop_
 _symmetry_equiv_pos_site_id
 _symmetry_equiv_pos_as_xyz
  1  'x, y, z'
loop_
 _atom_site_type_symbol
 _atom_site_label
 _atom_site_symmetry_multiplicity
 _atom_site_fract_x
 _atom_site_fract_y
 _atom_site_fract_z
 _atom_site_occupancy
  Ag  Ag0  1  0.75467745  0.50544447  0.23991134  1
  Ag  Ag1  1  -0.00780554  0.75043408  0.23609909  1
  Ag  Ag2  1  -0.00946633  0.75236666  0.76500879  1
  Ag  Ag3  1  -0.00276072  0.50331653  0.49448362  1
  Ag  Ag4  1  0.25141345  0.00154338  0.24505475  1
  Ag  Ag5  1  0.51351482  -0.00367737  -0.00033488  1
  Ag  Ag6  1  0.75696454  0.75776491  0.00002049  1
  Ag  Ag7  1  0.75063092  -0.00488769  0.23622216  1
  Ag  Ag8  1  -0.01544252  -0.01484328  0.00492581  1
  Ag  Ag9  1  0.51062934  0.75660053  0.76176044  1
  Ag  Ag10  1  0.50154698  0.24458409  0.24268434  1
  Ag  Ag11  1  -0.01230776  0.51486239  0.00488454  1
  Ag  Ag12  1  0.74484582  -0.00759280  0.76657394  1
  Ag  Ag13  1  0.50217010  0.24521843  0.75947847  1
  Ag  Ag14  1  0.51166801  0.50319222  0.00196462  1
  Ag  Ag15  1  0.25143235  0.24867463  0.49645460  1
  Sb  Sb16  1  0.74937302  0.24461683  -0.00002862  1
  Sb  Sb17  1  0.25008350  0.49921441  0.75019407  1
  Sb  Sb18  1  0.50455737  0.49979606  0.49678910  1
  Sb  Sb19  1  -0.00261280  0.24894292  0.24943219  1
  Sb  Sb20  1  0.25187876  0.00043036  0.75550231  1
  Sb  Sb21  1  0.75059175  0.74906060  0.50018701  1
  Sb  Sb22  1  0.24496257  0.75012080  0.00052914  1
  Sb  Sb23  1  0.75024910  0.25083420  0.49930670  1
  Sb  Sb24  1  0.24862328  0.49933900  0.24933013  1
  Sb  Sb25  1  0.24912444  0.75091118  0.49794125  1
  Sb  Sb26  1  -0.00490334  0.24742786  0.75179365  1
  Sb  Sb27  1  0.50715195  0.75263872  0.23841554  1
  Sb  Sb28  1  0.25265570  0.24899203  0.00233867  1
  Sb  Sb29  1  0.74941617  0.50625159  0.76226563  1
  Sb  Sb30  1  0.50057679  0.00020783  0.49878814  1
  Sb  Sb31  1  -0.00087365  -0.00338462  0.49815000  1
  Te  Te32  1  0.25586252  0.24657733  0.25079060  1
  Te  Te33  1  0.25990372  0.24936722  0.74386855  1
  Te  Te34  1  0.23962491  0.75757549  0.25070870  1
  Te  Te35  1  0.24734160  0.75022146  0.74974890  1
  Te  Te36  1  0.74395795  0.24619843  0.24869201  1
  Te  Te37  1  0.74353076  0.23851853  0.75006970  1
  Te  Te38  1  0.75297395  0.75235432  0.24830496  1
  Te  Te39  1  0.75206813  0.75321110  0.75194970  1
  Te  Te40  1  0.25135139  -0.00076774  0.00629476  1
  Te  Te41  1  0.24979329  0.00342000  0.48882969  1
  Te  Te42  1  0.25129500  0.50075704  -0.00043984  1
  Te  Te43  1  0.24338083  0.49733618  0.50011162  1
  Te  Te44  1  0.74981128  -0.00188986  0.00139324  1
  Te  Te45  1  0.75083425  -0.00026487  0.49440370  1
  Te  Te46  1  0.74970756  0.50384288  0.00450990  1
  Te  Te47  1  0.75547592  0.50083659  0.48411753  1
  Te  Te48  1  0.00138879  0.25300722  -0.00323772  1
  Te  Te49  1  0.00346913  0.25714257  0.50164457  1
  Te  Te50  1  -0.00223148  0.75150500  -0.00010292  1
  Te  Te51  1  -0.00042998  0.74527039  0.50232043  1
  Te  Te52  1  0.50146830  0.25067232  0.00039850  1
  Te  Te53  1  0.49826314  0.25082830  0.49859721  1
  Te  Te54  1  0.50299378  0.75054564  -0.00303388  1
  Te  Te55  1  0.49904404  0.74772353  0.52081410  1
  Te  Te56  1  -0.00887733  0.00329022  0.24767915  1
  Te  Te57  1  -0.00011877  -0.00185188  0.75233132  1
  Te  Te58  1  -0.00071663  0.49671242  0.24134341  1
  Te  Te59  1  -0.00174482  0.50234673  0.75891035  1
  Te  Te60  1  0.50650181  -0.00299946  0.24898720  1
  Te  Te61  1  0.49974302  -0.00125132  0.75205516  1
  Te  Te62  1  0.50012954  0.50332862  0.24576401  1
  Te  Te63  1  0.50163885  0.49803468  0.75604832  1
