# generated using pymatgen
data_AgSbTe2
_symmetry_space_group_name_H-M   'P 1'
_cell_length_a   12.22844535
_cell_length_b   12.22768548
_cell_length_c   12.21524305
_cell_angle_alpha   90.00584738
_cell_angle_beta   89.99983088
_cell_angle_gamma   89.99353806
_symmetry_Int_Tables_number   1
_chemical_formula_structural   AgSbTe2
_chemical_formula_sum   'Ag16 Sb16 Te32'
_cell_volume   1826.49132427
_cell_formula_units_Z   16
loop_
 _symmetry_equiv_pos_site_id
 _symmetry_equiv_pos_as_xyz
  1  'x, y, z'
loop_
 _atom_site_type_symbol
 _atom_site_label
 _atom_site_symmetry_multiplicity
 _atom_site_fract_x
 _atom_site_fract_y
 _atom_site_fract_z
 _atom_site_occupancy
  Ag  Ag0  1  0.75292451  0.24768329  -0.00599756  1
  Ag  Ag1  1  -0.00063937  0.75637321  0.75002832  1
  Ag  Ag2  1  0.75572703  -0.00340958  0.75035094  1
  Ag  Ag3  1  0.24933113  0.50058193  0.24999171  1
  Ag  Ag4  1  0.00086400  -0.00546634  0.51133698  1
  Ag  Ag5  1  0.00282135  0.50026755  -0.00439998  1
  Ag  Ag6  1  0.24767558  0.25143485  -0.00581279  1
  Ag  Ag7  1  0.75128777  0.75380403  0.50726725  1
  Ag  Ag8  1  0.49920837  -0.00264110  0.50723359  1
  Ag  Ag9  1  0.24959082  0.75099077  0.50565076  1
  Ag  Ag10  1  0.24464904  -0.00082429  0.74775201  1
  Ag  Ag11  1  0.24915634  0.50017129  0.75007277  1
  Ag  Ag12  1  0.49629664  0.50264812  0.50416224  1
  Ag  Ag13  1  -0.00201645  -0.00130493  -0.00999029  1
  Ag  Ag14  1  0.75565647  0.75272891  -0.00824986  1
  Ag  Ag15  1  0.49752700  0.24793124  0.75009519  1
  Sb  Sb16  1  0.50038871  0.75168515  0.74684287  1
  Sb  Sb17  1  0.50104336  0.00105708  -0.00743761  1
  Sb  Sb18  1  0.24910616  -0.00031375  0.25105055  1
  Sb  Sb19  1  0.00192621  0.25078682  0.24730694  1
  Sb  Sb20  1  0.00133169  0.74938019  0.24979851  1
  Sb  Sb21  1  0.75033510  -0.00052107  0.24911086  1
  Sb  Sb22  1  0.00242606  0.24396140  0.75358227  1
  Sb  Sb23  1  0.49773113  0.25158227  0.24992932  1
  Sb  Sb24  1  0.49862052  0.74884134  0.25252821  1
  Sb  Sb25  1  0.25108959  0.24900698  0.50599661  1
  Sb  Sb26  1  0.75154536  0.50250312  0.75115382  1
  Sb  Sb27  1  0.49692621  0.49962424  -0.00471926  1
  Sb  Sb28  1  0.00344202  0.50602093  0.50578032  1
  Sb  Sb29  1  0.24401087  0.75024338  -0.00688051  1
  Sb  Sb30  1  0.75032771  0.50064927  0.24970499  1
  Sb  Sb31  1  0.74859471  0.24569682  0.50713664  1
  Te  Te32  1  0.25082568  0.25549769  0.23973344  1
  Te  Te33  1  0.25189153  0.24883591  0.75374820  1
  Te  Te34  1  0.25017382  0.74477447  0.25856599  1
  Te  Te35  1  0.24799814  0.75188739  0.74690653  1
  Te  Te36  1  0.74946247  0.25115490  0.23734646  1
  Te  Te37  1  0.74557425  0.24645811  0.75445992  1
  Te  Te38  1  0.74978390  0.74921111  0.25158511  1
  Te  Te39  1  0.75210575  0.75226787  0.74881227  1
  Te  Te40  1  0.24826506  0.00012114  -0.00232753  1
  Te  Te41  1  0.24869757  -0.00057268  0.50213911  1
  Te  Te42  1  0.24817131  0.50029788  -0.00456714  1
  Te  Te43  1  0.24992967  0.50033269  0.50445665  1
  Te  Te44  1  0.75154013  -0.00123915  -0.00173011  1
  Te  Te45  1  0.75118102  -0.00241175  0.50208373  1
  Te  Te46  1  0.75367688  0.50052636  -0.00008671  1
  Te  Te47  1  0.74738176  0.50485275  0.49922410  1
  Te  Te48  1  0.00019666  0.24946076  -0.00122545  1
  Te  Te49  1  -0.00200114  0.24135212  0.49865904  1
  Te  Te50  1  -0.00254899  0.75209754  -0.00349379  1
  Te  Te51  1  -0.00088725  0.75258322  0.50349401  1
  Te  Te52  1  0.49952328  0.25003409  -0.00508194  1
  Te  Te53  1  0.50103623  0.24982094  0.50508231  1
  Te  Te54  1  0.51122994  0.74983937  0.00131982  1
  Te  Te55  1  0.50017661  0.75016623  0.50062673  1
  Te  Te56  1  0.00106582  0.00044303  0.24836308  1
  Te  Te57  1  0.00055378  -0.00170607  0.75110763  1
  Te  Te58  1  0.00592170  0.49958109  0.24303272  1
  Te  Te59  1  0.00365347  0.50530103  0.75319707  1
  Te  Te60  1  0.49880671  0.00017509  0.26355753  1
  Te  Te61  1  0.49846538  0.00225785  0.74620675  1
  Te  Te62  1  0.49373499  0.49928027  0.25837784  1
  Te  Te63  1  0.49550822  0.49614565  0.74605082  1
