# generated using pymatgen
data_AgSbTe2
_symmetry_space_group_name_H-M   'P 1'
_cell_length_a   12.23846872
_cell_length_b   12.23471531
_cell_length_c   12.21948511
_cell_angle_alpha   90.00510121
_cell_angle_beta   90.00613848
_cell_angle_gamma   89.99684975
_symmetry_Int_Tables_number   1
_chemical_formula_structural   AgSbTe2
_chemical_formula_sum   'Ag16 Sb16 Te32'
_cell_volume   1829.67456956
_cell_formula_units_Z   16
loop_
 _symmetry_equiv_pos_site_id
 _symmetry_equiv_pos_as_xyz
  1  'x, y, z'
loop_
 _atom_site_type_symbol
 _atom_site_label
 _atom_site_symmetry_multiplicity
 _atom_site_fract_x
 _atom_site_fract_y
 _atom_site_fract_z
 _atom_site_occupancy
  Ag  Ag0  1  0.74506025  0.24706235  0.48788324  1
  Ag  Ag1  1  0.00275943  0.75092948  0.25167347  1
  Ag  Ag2  1  0.74253004  0.00881914  0.25294928  1
  Ag  Ag3  1  0.50014155  0.50007297  0.49260148  1
  Ag  Ag4  1  0.50006582  0.00438659  0.01143374  1
  Ag  Ag5  1  0.50470315  0.24472926  0.25020168  1
  Ag  Ag6  1  0.25379339  0.75236913  0.49403601  1
  Ag  Ag7  1  0.25642548  0.00203929  0.25261581  1
  Ag  Ag8  1  0.25356986  0.24940612  0.00903864  1
  Ag  Ag9  1  0.25216674  0.49811756  0.25032350  1
  Ag  Ag10  1  0.74633133  0.24944655  0.01156631  1
  Ag  Ag11  1  0.74677982  0.49144972  0.25057761  1
  Ag  Ag12  1  0.49810648  0.75129715  0.74603734  1
  Ag  Ag13  1  0.50019309  0.00053783  0.48997084  1
  Ag  Ag14  1  -0.00011768  0.49818501  0.00785424  1
  Ag  Ag15  1  0.00005130  -0.00046150  0.49160252  1
  Sb  Sb16  1  0.49990492  0.24968792  0.74899541  1
  Sb  Sb17  1  0.25162242  0.75064344  0.00553891  1
  Sb  Sb18  1  -0.00027932  0.00081391  0.00783894  1
  Sb  Sb19  1  0.25239243  -0.00030442  0.74722194  1
  Sb  Sb20  1  0.50022527  0.49658486  0.00764155  1
  Sb  Sb21  1  0.49777926  0.75384400  0.25218604  1
  Sb  Sb22  1  0.25416435  0.24834291  0.49087706  1
  Sb  Sb23  1  -0.00447735  0.24938108  0.25011341  1
  Sb  Sb24  1  -0.00040235  0.50049244  0.49318146  1
  Sb  Sb25  1  0.00208940  0.74995025  0.74809617  1
  Sb  Sb26  1  0.74740167  0.75204910  0.49573826  1
  Sb  Sb27  1  0.00003108  0.24983042  0.74929308  1
  Sb  Sb28  1  0.74822818  0.75057229  0.00513266  1
  Sb  Sb29  1  0.74748263  0.49849987  0.74905921  1
  Sb  Sb30  1  0.25278985  0.50074652  0.74932212  1
  Sb  Sb31  1  0.74780957  0.00132650  0.74768955  1
  Te  Te32  1  0.25446731  0.24954167  0.24737560  1
  Te  Te33  1  0.24970840  0.25060092  0.76470608  1
  Te  Te34  1  0.24717222  0.75031043  0.25394029  1
  Te  Te35  1  0.25393732  0.74951540  0.74103187  1
  Te  Te36  1  0.74752348  0.24926046  0.25034043  1
  Te  Te37  1  0.75034650  0.25075991  0.75224804  1
  Te  Te38  1  0.75643612  0.74902518  0.25004469  1
  Te  Te39  1  0.74344452  0.74941981  0.75059575  1
  Te  Te40  1  0.25091227  0.00164908  0.00479400  1
  Te  Te41  1  0.25324156  0.00100675  0.49634825  1
  Te  Te42  1  0.25005411  0.49879644  0.00561937  1
  Te  Te43  1  0.25127158  0.49963311  0.49529624  1
  Te  Te44  1  0.74877684  0.00409187  0.00396322  1
  Te  Te45  1  0.74613294  0.00211423  0.49723055  1
  Te  Te46  1  0.74986671  0.49625247  0.00503381  1
  Te  Te47  1  0.74828805  0.49667364  0.49566624  1
  Te  Te48  1  -0.00162820  0.25243487  -0.00119749  1
  Te  Te49  1  -0.00610741  0.24550693  0.50191366  1
  Te  Te50  1  0.00003975  0.74636795  0.00269702  1
  Te  Te51  1  0.00384647  0.75243168  0.49704335  1
  Te  Te52  1  0.50172751  0.24715302  0.00196398  1
  Te  Te53  1  0.50208981  0.24802764  0.49783944  1
  Te  Te54  1  0.49921635  0.75677709  -0.00539765  1
  Te  Te55  1  0.49734925  0.75163349  0.49958707  1
  Te  Te56  1  0.00105071  -0.00250650  0.25366668  1
  Te  Te57  1  0.00012281  -0.00139466  0.73917211  1
  Te  Te58  1  0.00107535  0.50225370  0.24761823  1
  Te  Te59  1  0.00014714  0.50071163  0.76040374  1
  Te  Te60  1  0.50021281  0.00002140  0.25074706  1
  Te  Te61  1  0.49983335  -0.00318419  0.74772381  1
  Te  Te62  1  0.50034563  0.49939505  0.25353709  1
  Te  Te63  1  0.49977668  0.50487183  0.74015598  1
