# generated using pymatgen
data_AgSbTe2
_symmetry_space_group_name_H-M   'P 1'
_cell_length_a   12.22113621
_cell_length_b   12.23050750
_cell_length_c   12.21946099
_cell_angle_alpha   90.00757287
_cell_angle_beta   90.00910357
_cell_angle_gamma   89.99747982
_symmetry_Int_Tables_number   1
_chemical_formula_structural   AgSbTe2
_chemical_formula_sum   'Ag16 Sb16 Te32'
_cell_volume   1826.45132249
_cell_formula_units_Z   16
loop_
 _symmetry_equiv_pos_site_id
 _symmetry_equiv_pos_as_xyz
  1  'x, y, z'
loop_
 _atom_site_type_symbol
 _atom_site_label
 _atom_site_symmetry_multiplicity
 _atom_site_fract_x
 _atom_site_fract_y
 _atom_site_fract_z
 _atom_site_occupancy
  Ag  Ag0  1  0.00295978  0.00294540  0.49966995  1
  Ag  Ag1  1  -0.00276740  0.24833634  0.24337648  1
  Ag  Ag2  1  0.75403131  0.00268565  0.75907184  1
  Ag  Ag3  1  0.24497207  0.75628184  0.49954242  1
  Ag  Ag4  1  0.50621948  0.00257897  -0.00023581  1
  Ag  Ag5  1  0.24324549  0.24462520  0.50133435  1
  Ag  Ag6  1  0.00191438  0.24489625  0.75631979  1
  Ag  Ag7  1  -0.00381790  0.75247771  0.24703196  1
  Ag  Ag8  1  0.24250596  0.24690055  -0.00173112  1
  Ag  Ag9  1  0.75550628  0.00138293  0.24091222  1
  Ag  Ag10  1  -0.00559539  0.49341108  0.00399251  1
  Ag  Ag11  1  0.75611654  0.24740322  0.00266583  1
  Ag  Ag12  1  0.24437134  0.00474943  0.75039459  1
  Ag  Ag13  1  0.50596840  0.49714378  0.00238226  1
  Ag  Ag14  1  0.75334225  0.75314696  0.00361571  1
  Ag  Ag15  1  0.75513891  0.49865785  0.24202906  1
  Sb  Sb16  1  -0.00076107  0.75597124  0.75307793  1
  Sb  Sb17  1  0.50007107  0.49880042  0.49631018  1
  Sb  Sb18  1  0.49761669  0.00100928  0.49896215  1
  Sb  Sb19  1  0.50029773  0.75177658  0.75186299  1
  Sb  Sb20  1  -0.00716688  0.00771875  0.00095879  1
  Sb  Sb21  1  0.24721614  0.49525498  0.75253928  1
  Sb  Sb22  1  0.50408315  0.75089367  0.24745620  1
  Sb  Sb23  1  0.75633984  0.24742225  0.49860670  1
  Sb  Sb24  1  0.50398052  0.24922462  0.24615357  1
  Sb  Sb25  1  0.75346659  0.49636781  0.75974243  1
  Sb  Sb26  1  0.24391791  0.00201093  0.24864980  1
  Sb  Sb27  1  0.49898911  0.24786183  0.75393046  1
  Sb  Sb28  1  -0.00006905  0.49835941  0.49717957  1
  Sb  Sb29  1  0.24561392  0.75501961  0.00001129  1
  Sb  Sb30  1  0.24551905  0.49857806  0.24742061  1
  Sb  Sb31  1  0.75519362  0.75371394  0.49697956  1
  Te  Te32  1  0.24317179  0.24967431  0.24776236  1
  Te  Te33  1  0.24652750  0.24630599  0.75305612  1
  Te  Te34  1  0.24218408  0.75009180  0.25334318  1
  Te  Te35  1  0.24911476  0.75760254  0.74620131  1
  Te  Te36  1  0.75377284  0.24790144  0.24825212  1
  Te  Te37  1  0.75429896  0.24578727  0.75189679  1
  Te  Te38  1  0.75423266  0.75211057  0.24721657  1
  Te  Te39  1  0.75066968  0.75653942  0.75426824  1
  Te  Te40  1  0.25568660  0.00255940  -0.00171984  1
  Te  Te41  1  0.24885372  0.00246055  0.50079087  1
  Te  Te42  1  0.25048297  0.49573537  -0.00041877  1
  Te  Te43  1  0.25181498  0.49821787  0.50051841  1
  Te  Te44  1  0.75089096  0.00165534  0.00012438  1
  Te  Te45  1  0.75181711  -0.00041743  0.50071149  1
  Te  Te46  1  0.75117513  0.49809115  0.00126709  1
  Te  Te47  1  0.74755703  0.50066599  0.49169737  1
  Te  Te48  1  -0.00028484  0.24966205  0.00157315  1
  Te  Te49  1  0.00330284  0.24812657  0.49915784  1
  Te  Te50  1  -0.00250379  0.74317789  0.00355903  1
  Te  Te51  1  0.00348182  0.75144562  0.49701920  1
  Te  Te52  1  0.50061642  0.24931995  0.00058903  1
  Te  Te53  1  0.48783325  0.25113814  0.49979280  1
  Te  Te54  1  0.50384865  0.75042800  0.00076974  1
  Te  Te55  1  0.48958342  0.74845035  0.49961647  1
  Te  Te56  1  -0.00345196  0.00130851  0.25272531  1
  Te  Te57  1  0.00055338  0.00341035  0.74646545  1
  Te  Te58  1  -0.00342757  0.49815913  0.24717471  1
  Te  Te59  1  -0.00097848  0.49200181  0.75487103  1
  Te  Te60  1  0.50975286  -0.00005201  0.24542591  1
  Te  Te61  1  0.50229467  0.00028661  0.75408562  1
  Te  Te62  1  0.50789117  0.50013626  0.24385090  1
  Te  Te63  1  0.50081758  0.50041268  0.75814258  1
