# generated using pymatgen
data_AgSbTe2
_symmetry_space_group_name_H-M   'P 1'
_cell_length_a   12.21819166
_cell_length_b   12.21367827
_cell_length_c   12.22073144
_cell_angle_alpha   89.99484818
_cell_angle_beta   90.00160928
_cell_angle_gamma   90.00182655
_symmetry_Int_Tables_number   1
_chemical_formula_structural   AgSbTe2
_chemical_formula_sum   'Ag16 Sb16 Te32'
_cell_volume   1823.68828043
_cell_formula_units_Z   16
loop_
 _symmetry_equiv_pos_site_id
 _symmetry_equiv_pos_as_xyz
  1  'x, y, z'
loop_
 _atom_site_type_symbol
 _atom_site_label
 _atom_site_symmetry_multiplicity
 _atom_site_fract_x
 _atom_site_fract_y
 _atom_site_fract_z
 _atom_site_occupancy
  Ag  Ag0  1  0.00567715  -0.00132587  0.50008543  1
  Ag  Ag1  1  0.49153766  0.74600099  0.25147230  1
  Ag  Ag2  1  0.74818682  0.25488374  0.50162244  1
  Ag  Ag3  1  0.24620711  0.75213609  0.00362320  1
  Ag  Ag4  1  0.00575984  -0.00571078  -0.00029714  1
  Ag  Ag5  1  0.25141389  0.50087300  0.74447198  1
  Ag  Ag6  1  0.49676077  0.25385844  0.74392025  1
  Ag  Ag7  1  0.25123229  0.25139466  0.50288227  1
  Ag  Ag8  1  0.24591322  -0.00704475  0.25173268  1
  Ag  Ag9  1  0.00801664  0.75154635  0.24943763  1
  Ag  Ag10  1  0.25158239  0.50775547  0.25473695  1
  Ag  Ag11  1  0.74841352  0.50161757  0.25563332  1
  Ag  Ag12  1  0.49800845  0.49742241  0.50016647  1
  Ag  Ag13  1  0.00619668  0.75163127  0.75012452  1
  Ag  Ag14  1  0.24570622  -0.00194711  0.74775510  1
  Ag  Ag15  1  0.74831859  0.49902527  0.74409151  1
  Sb  Sb16  1  0.75316851  -0.00167437  0.25401964  1
  Sb  Sb17  1  0.24977127  0.24807047  -0.00223491  1
  Sb  Sb18  1  0.49343937  0.00256008  0.49996098  1
  Sb  Sb19  1  0.49450435  -0.00296362  0.00075283  1
  Sb  Sb20  1  0.24918044  0.74787833  0.49464891  1
  Sb  Sb21  1  0.00108809  0.24876555  0.25255805  1
  Sb  Sb22  1  0.00265185  0.50505573  -0.00000647  1
  Sb  Sb23  1  0.00177413  0.50131045  0.49978703  1
  Sb  Sb24  1  0.75416482  0.74984444  -0.00032824  1
  Sb  Sb25  1  0.75028093  0.25126395  -0.00194336  1
  Sb  Sb26  1  0.49803348  0.50178997  0.00063585  1
  Sb  Sb27  1  0.00293103  0.24899787  0.74695744  1
  Sb  Sb28  1  0.75102216  0.74417496  0.49999703  1
  Sb  Sb29  1  0.49783376  0.25407495  0.25522927  1
  Sb  Sb30  1  0.49268807  0.74645185  0.74794181  1
  Sb  Sb31  1  0.75360456  0.00068913  0.74601342  1
  Te  Te32  1  0.25134869  0.25111227  0.25385387  1
  Te  Te33  1  0.25150238  0.25231464  0.74734901  1
  Te  Te34  1  0.24766605  0.74887688  0.25055267  1
  Te  Te35  1  0.24836798  0.74935869  0.75263778  1
  Te  Te36  1  0.74908767  0.25693953  0.25520643  1
  Te  Te37  1  0.74710951  0.25503302  0.74641865  1
  Te  Te38  1  0.75164330  0.74492155  0.24969333  1
  Te  Te39  1  0.75446261  0.74412392  0.75104064  1
  Te  Te40  1  0.24621176  -0.00206364  0.00026189  1
  Te  Te41  1  0.24803953  0.00456863  0.50064657  1
  Te  Te42  1  0.24886028  0.50368975  0.00053110  1
  Te  Te43  1  0.25026802  0.49652530  0.50059777  1
  Te  Te44  1  0.75849002  0.00060426  0.00009756  1
  Te  Te45  1  0.75592600  0.00897541  0.50001194  1
  Te  Te46  1  0.75084600  0.49920687  0.00024779  1
  Te  Te47  1  0.75023781  0.49589205  0.50042050  1
  Te  Te48  1  0.00015531  0.23914010  0.00028984  1
  Te  Te49  1  0.00191093  0.24393964  0.50012879  1
  Te  Te50  1  0.00408210  0.75370079  0.00045909  1
  Te  Te51  1  -0.00112081  0.75612026  0.50023665  1
  Te  Te52  1  0.50053694  0.24887570  -0.01054339  1
  Te  Te53  1  0.49848942  0.25352079  0.50364713  1
  Te  Te54  1  0.49268797  0.75108717  0.00686494  1
  Te  Te55  1  0.50163583  0.74342736  0.49475379  1
  Te  Te56  1  0.00300232  -0.00371197  0.25217655  1
  Te  Te57  1  0.00361905  -0.00366403  0.74776969  1
  Te  Te58  1  0.00210775  0.50540736  0.25026387  1
  Te  Te59  1  0.00230373  0.50503440  0.74972232  1
  Te  Te60  1  0.49519856  -0.00541134  0.25024541  1
  Te  Te61  1  0.49463954  0.00201890  0.74943414  1
  Te  Te62  1  0.49782187  0.50220190  0.25288099  1
  Te  Te63  1  0.49779379  0.49982732  0.74665450  1
