# generated using pymatgen
data_AgSbTe2
_symmetry_space_group_name_H-M   'P 1'
_cell_length_a   12.21684342
_cell_length_b   12.21467362
_cell_length_c   12.21648870
_cell_angle_alpha   90.00115387
_cell_angle_beta   89.99722497
_cell_angle_gamma   89.99519256
_symmetry_Int_Tables_number   1
_chemical_formula_structural   AgSbTe2
_chemical_formula_sum   'Ag16 Sb16 Te32'
_cell_volume   1823.00252470
_cell_formula_units_Z   16
loop_
 _symmetry_equiv_pos_site_id
 _symmetry_equiv_pos_as_xyz
  1  'x, y, z'
loop_
 _atom_site_type_symbol
 _atom_site_label
 _atom_site_symmetry_multiplicity
 _atom_site_fract_x
 _atom_site_fract_y
 _atom_site_fract_z
 _atom_site_occupancy
  Ag  Ag0  1  0.00285211  0.24736534  0.75133980  1
  Ag  Ag1  1  0.24946890  -0.00048504  0.75162040  1
  Ag  Ag2  1  0.49874679  -0.00255374  0.00382315  1
  Ag  Ag3  1  0.00359419  0.50448861  0.00245592  1
  Ag  Ag4  1  0.24856836  0.75367878  0.49165246  1
  Ag  Ag5  1  0.75008126  -0.00238407  0.75306853  1
  Ag  Ag6  1  0.00417307  0.75088691  0.24663507  1
  Ag  Ag7  1  0.24965380  0.24603990  0.49743651  1
  Ag  Ag8  1  0.74784124  -0.00570871  0.24659949  1
  Ag  Ag9  1  0.49665199  0.50311871  0.00425642  1
  Ag  Ag10  1  0.75018332  0.75410692  0.00400206  1
  Ag  Ag11  1  0.25247386  -0.00566142  0.24833498  1
  Ag  Ag12  1  0.25067857  0.50593638  0.24580574  1
  Ag  Ag13  1  0.75119410  0.75397362  0.49556546  1
  Ag  Ag14  1  0.24954546  0.75113833  0.00766844  1
  Ag  Ag15  1  0.49600188  0.24692158  0.24796565  1
  Sb  Sb16  1  0.49752373  -0.00015699  0.49441999  1
  Sb  Sb17  1  0.49686294  0.50050592  0.49417994  1
  Sb  Sb18  1  0.00364791  0.24945588  0.24890618  1
  Sb  Sb19  1  0.00258091  -0.00162860  0.49937694  1
  Sb  Sb20  1  0.24882284  0.50031825  0.75480505  1
  Sb  Sb21  1  0.75177081  0.50255343  0.75338821  1
  Sb  Sb22  1  0.49899985  0.75270779  0.75323340  1
  Sb  Sb23  1  0.75064736  0.24528781  0.49865493  1
  Sb  Sb24  1  0.25032640  0.24750117  0.00239493  1
  Sb  Sb25  1  0.49767082  0.24636875  0.75125600  1
  Sb  Sb26  1  0.74830517  0.50785860  0.24685413  1
  Sb  Sb27  1  0.00163314  -0.00480138  0.00093575  1
  Sb  Sb28  1  0.75017413  0.24392855  0.00054669  1
  Sb  Sb29  1  0.00192338  0.50235159  0.49675101  1
  Sb  Sb30  1  0.49397222  0.75382208  0.24589848  1
  Sb  Sb31  1  0.00112337  0.75202141  0.75344828  1
  Te  Te32  1  0.25012538  0.24695510  0.25285080  1
  Te  Te33  1  0.24754343  0.24528104  0.74513200  1
  Te  Te34  1  0.24994559  0.75218043  0.24947816  1
  Te  Te35  1  0.24850770  0.75578170  0.74891348  1
  Te  Te36  1  0.74716165  0.24155150  0.25286874  1
  Te  Te37  1  0.75388576  0.24233323  0.74754674  1
  Te  Te38  1  0.75332227  0.75310588  0.24847359  1
  Te  Te39  1  0.75151620  0.75616248  0.75057921  1
  Te  Te40  1  0.25097270  -0.00249523  0.00121194  1
  Te  Te41  1  0.25155861  -0.00318250  0.49897374  1
  Te  Te42  1  0.25121792  0.50347127  0.00223259  1
  Te  Te43  1  0.25113907  0.50382535  0.49504014  1
  Te  Te44  1  0.74883579  -0.00421976  0.00115090  1
  Te  Te45  1  0.74814248  -0.00610349  0.49984260  1
  Te  Te46  1  0.74814375  0.50837498  -0.00037687  1
  Te  Te47  1  0.74914195  0.50976035  0.50062141  1
  Te  Te48  1  -0.00048311  0.25899029  -0.00313717  1
  Te  Te49  1  0.00587952  0.25203465  0.50412939  1
  Te  Te50  1  0.00134266  0.74677574  0.00297939  1
  Te  Te51  1  0.00217778  0.74866038  0.49464360  1
  Te  Te52  1  0.50010705  0.24942113  0.00431323  1
  Te  Te53  1  0.49387144  0.25113953  0.49463929  1
  Te  Te54  1  0.49950095  0.75078407  0.00021652  1
  Te  Te55  1  0.49876776  0.74851594  0.50151578  1
  Te  Te56  1  0.00065509  -0.00315699  0.24911139  1
  Te  Te57  1  0.00113479  0.00393741  0.75106828  1
  Te  Te58  1  0.00407343  0.50227346  0.24522402  1
  Te  Te59  1  -0.00015066  0.49391268  0.75762389  1
  Te  Te60  1  0.49825339  0.00287805  0.24502280  1
  Te  Te61  1  0.49952786  0.00152219  0.75904562  1
  Te  Te62  1  0.49619205  0.49341372  0.24447985  1
  Te  Te63  1  0.50029589  0.49715909  0.76130497  1
