# generated using pymatgen
data_AgSbTe2
_symmetry_space_group_name_H-M   'P 1'
_cell_length_a   12.27042347
_cell_length_b   12.30928162
_cell_length_c   12.30448642
_cell_angle_alpha   89.99448205
_cell_angle_beta   89.99232166
_cell_angle_gamma   89.99928341
_symmetry_Int_Tables_number   1
_chemical_formula_structural   AgSbTe2
_chemical_formula_sum   'Ag16 Sb16 Te32'
_cell_volume   1858.47081133
_cell_formula_units_Z   16
loop_
 _symmetry_equiv_pos_site_id
 _symmetry_equiv_pos_as_xyz
  1  'x, y, z'
loop_
 _atom_site_type_symbol
 _atom_site_label
 _atom_site_symmetry_multiplicity
 _atom_site_fract_x
 _atom_site_fract_y
 _atom_site_fract_z
 _atom_site_occupancy
  Ag  Ag0  1  0.01377374  0.74219135  0.24999993  1
  Ag  Ag1  1  0.24201243  0.25451764  0.48476757  1
  Ag  Ag2  1  0.75607871  0.74932018  0.49684315  1
  Ag  Ag3  1  0.00857944  0.50239638  0.48765581  1
  Ag  Ag4  1  0.00989136  0.50255648  0.01261922  1
  Ag  Ag5  1  0.48040529  0.25703105  0.25027593  1
  Ag  Ag6  1  0.01572205  0.26015957  0.24992394  1
  Ag  Ag7  1  0.24320381  0.25865022  0.01360445  1
  Ag  Ag8  1  0.24679093  -0.00674523  0.75284935  1
  Ag  Ag9  1  0.48817792  0.74889504  0.75015686  1
  Ag  Ag10  1  0.24303797  0.74287746  0.00558576  1
  Ag  Ag11  1  0.00894620  -0.00230529  0.00646558  1
  Ag  Ag12  1  0.48566793  0.74567786  0.25003817  1
  Ag  Ag13  1  0.24731463  0.50493599  0.75709689  1
  Ag  Ag14  1  0.24137501  0.49460058  0.24468707  1
  Ag  Ag15  1  0.00699808  -0.00266568  0.49323954  1
  Sb  Sb16  1  0.48842589  0.50012681  0.00224601  1
  Sb  Sb17  1  0.48739918  -0.00171484  0.49975539  1
  Sb  Sb18  1  0.75453868  0.50552484  0.74818578  1
  Sb  Sb19  1  0.75965282  0.25039979  0.00377052  1
  Sb  Sb20  1  0.75964824  0.50116108  0.25047221  1
  Sb  Sb21  1  0.48827259  0.25250088  0.75014910  1
  Sb  Sb22  1  0.24703866  0.74805156  0.49284216  1
  Sb  Sb23  1  0.75291201  -0.00097807  0.25088376  1
  Sb  Sb24  1  0.00872047  0.74924917  0.75065131  1
  Sb  Sb25  1  0.75857825  0.25019297  0.49722773  1
  Sb  Sb26  1  0.48666428  -0.00047240  -0.00010782  1
  Sb  Sb27  1  0.48926103  0.50070265  0.49786562  1
  Sb  Sb28  1  0.24713705  0.00128886  0.24852882  1
  Sb  Sb29  1  0.00360206  0.25096624  0.75119349  1
  Sb  Sb30  1  0.75517117  0.74996087  0.00137380  1
  Sb  Sb31  1  0.75521714  -0.00553798  0.74816807  1
  Te  Te32  1  0.24731973  0.24733552  0.24919527  1
  Te  Te33  1  0.25026218  0.25559768  0.75325065  1
  Te  Te34  1  0.24700852  0.75236974  0.24991284  1
  Te  Te35  1  0.25157004  0.74680620  0.75071000  1
  Te  Te36  1  0.74306346  0.25090247  0.24887656  1
  Te  Te37  1  0.74192811  0.25014869  0.75017983  1
  Te  Te38  1  0.74577940  0.74816326  0.25254955  1
  Te  Te39  1  0.73282701  0.74884198  0.74694099  1
  Te  Te40  1  0.24608721  -0.00290000  -0.00266130  1
  Te  Te41  1  0.24514830  0.00435369  0.50561128  1
  Te  Te42  1  0.24610249  0.50156776  0.00245487  1
  Te  Te43  1  0.24598712  0.49878582  0.49662864  1
  Te  Te44  1  0.77067026  0.00126136  -0.00216311  1
  Te  Te45  1  0.76647583  -0.00261786  0.50122359  1
  Te  Te46  1  0.77231761  0.49853962  -0.00291803  1
  Te  Te47  1  0.76697651  0.50303790  0.50184409  1
  Te  Te48  1  0.00334717  0.24949504  0.00212909  1
  Te  Te49  1  0.00328785  0.25002977  0.49702626  1
  Te  Te50  1  0.00344772  0.75013841  0.00090711  1
  Te  Te51  1  0.00206869  0.75066420  0.49924238  1
  Te  Te52  1  0.49464852  0.25043591  0.00789996  1
  Te  Te53  1  0.49692379  0.24971815  0.49241304  1
  Te  Te54  1  0.49822787  0.74982043  0.00938683  1
  Te  Te55  1  0.50254919  0.75074114  0.48955301  1
  Te  Te56  1  0.00204700  -0.00383972  0.25178704  1
  Te  Te57  1  0.00564547  -0.00011127  0.74925535  1
  Te  Te58  1  0.00535531  0.50156127  0.25108690  1
  Te  Te59  1  0.00679906  0.49969121  0.74846963  1
  Te  Te60  1  0.50233651  -0.00673996  0.24981659  1
  Te  Te61  1  0.49196438  -0.00569744  0.75038334  1
  Te  Te62  1  0.49046696  0.50350650  0.24958089  1
  Te  Te63  1  0.49114567  0.50487649  0.75041171  1
