# generated using pymatgen
data_AgSbTe2
_symmetry_space_group_name_H-M   'P 1'
_cell_length_a   12.23181780
_cell_length_b   12.22063108
_cell_length_c   12.21504806
_cell_angle_alpha   90.00292376
_cell_angle_beta   90.00731267
_cell_angle_gamma   90.00306384
_symmetry_Int_Tables_number   1
_chemical_formula_structural   AgSbTe2
_chemical_formula_sum   'Ag16 Sb16 Te32'
_cell_volume   1825.91187270
_cell_formula_units_Z   16
loop_
 _symmetry_equiv_pos_site_id
 _symmetry_equiv_pos_as_xyz
  1  'x, y, z'
loop_
 _atom_site_type_symbol
 _atom_site_label
 _atom_site_symmetry_multiplicity
 _atom_site_fract_x
 _atom_site_fract_y
 _atom_site_fract_z
 _atom_site_occupancy
  Ag  Ag0  1  0.50412719  0.49628897  0.00528713  1
  Ag  Ag1  1  0.50087783  0.25353693  0.24756370  1
  Ag  Ag2  1  0.49980093  0.25319826  0.75173095  1
  Ag  Ag3  1  0.24638574  0.50025334  0.24849314  1
  Ag  Ag4  1  0.49846206  -0.00048042  0.49564437  1
  Ag  Ag5  1  0.00207146  -0.00416136  0.49317646  1
  Ag  Ag6  1  0.24837751  -0.00060928  0.25520735  1
  Ag  Ag7  1  -0.00035335  0.25583430  0.24849994  1
  Ag  Ag8  1  0.75158956  0.74039442  0.00795402  1
  Ag  Ag9  1  -0.00086989  0.74537738  0.25254870  1
  Ag  Ag10  1  -0.00463608  0.50019746  0.00838601  1
  Ag  Ag11  1  0.75227430  0.74907790  0.49334590  1
  Ag  Ag12  1  0.24811821  0.75114124  0.49383315  1
  Ag  Ag13  1  0.25143531  0.49991051  0.75055790  1
  Ag  Ag14  1  0.74749822  0.25949460  0.00629159  1
  Ag  Ag15  1  0.75346659  0.50077992  0.24301746  1
  Sb  Sb16  1  0.25218318  0.00015387  0.74497637  1
  Sb  Sb17  1  0.25196991  0.25436822  0.00345973  1
  Sb  Sb18  1  0.50133260  0.74680923  0.25058738  1
  Sb  Sb19  1  0.74831316  0.49930071  0.75635801  1
  Sb  Sb20  1  0.74883062  0.00081165  0.74808443  1
  Sb  Sb21  1  0.49863029  0.74679228  0.75039884  1
  Sb  Sb22  1  0.25027409  0.24908528  0.49581895  1
  Sb  Sb23  1  0.75010003  0.25274997  0.49415542  1
  Sb  Sb24  1  -0.00070374  0.00005424  0.00667661  1
  Sb  Sb25  1  0.00086353  0.50294008  0.49079518  1
  Sb  Sb26  1  0.24784736  0.74444141  0.00633139  1
  Sb  Sb27  1  0.00081299  0.74752343  0.74816600  1
  Sb  Sb28  1  0.49928961  0.49969068  0.49604435  1
  Sb  Sb29  1  0.00013087  0.25362940  0.75203021  1
  Sb  Sb30  1  0.50085768  0.00282868  0.00391139  1
  Sb  Sb31  1  0.75080274  -0.00146212  0.25178111  1
  Te  Te32  1  0.24914612  0.25350706  0.25003408  1
  Te  Te33  1  0.25499129  0.25573991  0.74990789  1
  Te  Te34  1  0.24851015  0.74727616  0.25313173  1
  Te  Te35  1  0.25040548  0.74486924  0.74254652  1
  Te  Te36  1  0.74973557  0.25282811  0.24758440  1
  Te  Te37  1  0.74467704  0.25088164  0.75643035  1
  Te  Te38  1  0.75102558  0.74805610  0.24998931  1
  Te  Te39  1  0.74982889  0.74968814  0.74818965  1
  Te  Te40  1  0.24999265  -0.00270320  0.00732855  1
  Te  Te41  1  0.25047161  -0.00339561  0.49586937  1
  Te  Te42  1  0.25088864  0.50195781  0.00450662  1
  Te  Te43  1  0.25001647  0.50521896  0.49700342  1
  Te  Te44  1  0.75003056  -0.00260928  -0.00086208  1
  Te  Te45  1  0.74883094  -0.00598102  0.49996199  1
  Te  Te46  1  0.74963421  0.50091333  0.00214849  1
  Te  Te47  1  0.75025511  0.50614399  0.49443431  1
  Te  Te48  1  -0.00515261  0.25145133  0.00413762  1
  Te  Te49  1  -0.00169128  0.24446226  0.49432636  1
  Te  Te50  1  -0.00422601  0.74827007  0.00432008  1
  Te  Te51  1  -0.00086856  0.75168587  0.49654794  1
  Te  Te52  1  0.50307489  0.25230821  0.00435151  1
  Te  Te53  1  0.50109596  0.24588785  0.49763136  1
  Te  Te54  1  0.50685662  0.74593452  -0.00110174  1
  Te  Te55  1  0.50081424  0.75488309  0.50029482  1
  Te  Te56  1  0.00346906  -0.00055089  0.25307980  1
  Te  Te57  1  0.00171081  0.00114203  0.74069312  1
  Te  Te58  1  0.00107810  0.49942983  0.24833611  1
  Te  Te59  1  0.00660006  0.49813819  0.75894266  1
  Te  Te60  1  0.49538682  0.00532774  0.25314291  1
  Te  Te61  1  0.49821449  0.00742610  0.74487439  1
  Te  Te62  1  0.49882866  0.49656728  0.24749967  1
  Te  Te63  1  0.49620792  0.49529398  0.75360563  1
