# generated using pymatgen
data_AgSbTe2
_symmetry_space_group_name_H-M   'P 1'
_cell_length_a   12.31440710
_cell_length_b   12.28042136
_cell_length_c   12.29269490
_cell_angle_alpha   90.00276024
_cell_angle_beta   89.99552396
_cell_angle_gamma   90.00656150
_symmetry_Int_Tables_number   1
_chemical_formula_structural   AgSbTe2
_chemical_formula_sum   'Ag16 Sb16 Te32'
_cell_volume   1858.97638668
_cell_formula_units_Z   16
loop_
 _symmetry_equiv_pos_site_id
 _symmetry_equiv_pos_as_xyz
  1  'x, y, z'
loop_
 _atom_site_type_symbol
 _atom_site_label
 _atom_site_symmetry_multiplicity
 _atom_site_fract_x
 _atom_site_fract_y
 _atom_site_fract_z
 _atom_site_occupancy
  Ag  Ag0  1  0.74579288  0.75664995  -0.00451998  1
  Ag  Ag1  1  0.49897959  0.76098739  0.74552758  1
  Ag  Ag2  1  0.00049289  0.76261674  0.74558737  1
  Ag  Ag3  1  0.48930591  0.75963014  0.25569505  1
  Ag  Ag4  1  0.49809854  -0.00181987  0.50231173  1
  Ag  Ag5  1  -0.00231636  0.23610175  0.74082022  1
  Ag  Ag6  1  0.25512766  0.76409651  0.49362297  1
  Ag  Ag7  1  0.00119428  0.00174240  0.50585427  1
  Ag  Ag8  1  0.25099714  0.23525763  0.50242808  1
  Ag  Ag9  1  0.74502055  -0.00557151  0.26398373  1
  Ag  Ag10  1  0.50197344  0.23446687  0.73893141  1
  Ag  Ag11  1  0.25347149  0.75374545  0.00359423  1
  Ag  Ag12  1  0.74803743  0.23764577  0.50825816  1
  Ag  Ag13  1  0.25674491  -0.00949170  0.26136111  1
  Ag  Ag14  1  0.74869279  -0.00158138  0.73741023  1
  Ag  Ag15  1  0.25364989  0.51380707  0.25436673  1
  Sb  Sb16  1  0.00194076  -0.00236914  -0.00995297  1
  Sb  Sb17  1  0.00059774  0.24429330  0.26156068  1
  Sb  Sb18  1  0.49828108  -0.00101319  -0.00526982  1
  Sb  Sb19  1  0.74565460  0.75828136  0.50158218  1
  Sb  Sb20  1  0.49941481  0.23653926  0.26257754  1
  Sb  Sb21  1  0.74529991  0.51047451  0.25327428  1
  Sb  Sb22  1  0.74971524  0.24203734  -0.00447421  1
  Sb  Sb23  1  0.49815416  0.50218591  -0.00029201  1
  Sb  Sb24  1  0.25025520  0.24373148  -0.00084454  1
  Sb  Sb25  1  0.74902316  0.50244084  0.74831971  1
  Sb  Sb26  1  0.00087243  0.50246034  0.50153028  1
  Sb  Sb27  1  0.25304741  -0.00303620  0.74140249  1
  Sb  Sb28  1  0.00223432  0.50322163  -0.00144387  1
  Sb  Sb29  1  0.50005457  0.50463055  0.49931477  1
  Sb  Sb30  1  0.25069552  0.50277373  0.74673965  1
  Sb  Sb31  1  0.00586064  0.75420259  0.25762268  1
  Te  Te32  1  0.25127084  0.24301353  0.25030799  1
  Te  Te33  1  0.25193643  0.25088548  0.74824352  1
  Te  Te34  1  0.24916605  0.75561860  0.25458157  1
  Te  Te35  1  0.25496340  0.75133649  0.74953813  1
  Te  Te36  1  0.74817529  0.24376630  0.24581147  1
  Te  Te37  1  0.74826451  0.24858406  0.75099655  1
  Te  Te38  1  0.74854615  0.75323895  0.25219024  1
  Te  Te39  1  0.74582699  0.75226570  0.74614129  1
  Te  Te40  1  0.24930444  -0.00452264  0.01957243  1
  Te  Te41  1  0.25264114  -0.00046986  0.50039119  1
  Te  Te42  1  0.24975034  0.50839399  0.01009029  1
  Te  Te43  1  0.25055826  0.49956988  0.49651912  1
  Te  Te44  1  0.75045434  -0.00509900  0.00218132  1
  Te  Te45  1  0.74864880  0.00199148  0.50162503  1
  Te  Te46  1  0.75072796  0.51385701  0.00288956  1
  Te  Te47  1  0.75016520  0.47486869  0.49813416  1
  Te  Te48  1  0.00126155  0.25079207  -0.01909524  1
  Te  Te49  1  0.00632765  0.24659612  0.50236881  1
  Te  Te50  1  0.00366625  0.75134131  -0.01217396  1
  Te  Te51  1  0.00386121  0.75275556  0.50541751  1
  Te  Te52  1  0.49882203  0.25067845  -0.01933230  1
  Te  Te53  1  0.49460752  0.24525782  0.50277402  1
  Te  Te54  1  0.49568313  0.75321524  -0.00622356  1
  Te  Te55  1  0.49906651  0.75332570  0.50338835  1
  Te  Te56  1  -0.00583087  -0.00009613  0.26195413  1
  Te  Te57  1  -0.00059958  -0.00234037  0.74379304  1
  Te  Te58  1  0.00859699  0.49819637  0.24995482  1
  Te  Te59  1  -0.00053479  0.50204192  0.74952668  1
  Te  Te60  1  0.50244062  -0.00410371  0.25514744  1
  Te  Te61  1  0.49894139  -0.00373867  0.74667565  1
  Te  Te62  1  0.49601108  0.51402357  0.25052456  1
  Te  Te63  1  0.50091457  0.50561854  0.74920643  1
