# generated using pymatgen
data_AgSbTe2
_symmetry_space_group_name_H-M   'P 1'
_cell_length_a   12.26473063
_cell_length_b   12.30008280
_cell_length_c   12.30870101
_cell_angle_alpha   90.00069260
_cell_angle_beta   89.99361759
_cell_angle_gamma   89.99811303
_symmetry_Int_Tables_number   1
_chemical_formula_structural   AgSbTe2
_chemical_formula_sum   'Ag16 Sb16 Te32'
_cell_volume   1856.85618558
_cell_formula_units_Z   16
loop_
 _symmetry_equiv_pos_site_id
 _symmetry_equiv_pos_as_xyz
  1  'x, y, z'
loop_
 _atom_site_type_symbol
 _atom_site_label
 _atom_site_symmetry_multiplicity
 _atom_site_fract_x
 _atom_site_fract_y
 _atom_site_fract_z
 _atom_site_occupancy
  Ag  Ag0  1  -0.02116272  0.25812145  0.24811791  1
  Ag  Ag1  1  -0.01994545  0.74179774  0.24735989  1
  Ag  Ag2  1  0.75032823  0.49845736  0.25086725  1
  Ag  Ag3  1  0.51839627  0.24902971  0.73922963  1
  Ag  Ag4  1  0.74177515  0.25139175  0.49518836  1
  Ag  Ag5  1  -0.01176557  0.74717500  0.75173643  1
  Ag  Ag6  1  0.74984413  0.00772979  0.74426816  1
  Ag  Ag7  1  0.51079727  0.00720145  0.49925680  1
  Ag  Ag8  1  -0.01688175  0.25171474  0.75141961  1
  Ag  Ag9  1  0.75373151  0.25456119  0.00562741  1
  Ag  Ag10  1  0.52020719  0.74435799  0.25574119  1
  Ag  Ag11  1  -0.01100642  0.49917204  0.00383027  1
  Ag  Ag12  1  0.51189554  0.49339920  0.49419406  1
  Ag  Ag13  1  0.74714872  0.74766478  0.48788976  1
  Ag  Ag14  1  0.75526700  0.74436213  0.01196251  1
  Ag  Ag15  1  0.52005612  0.25548930  0.26097525  1
  Sb  Sb16  1  0.74914889  0.00164575  0.25785468  1
  Sb  Sb17  1  0.25829172  0.25087660  0.49995875  1
  Sb  Sb18  1  0.50748249  0.00053096  -0.00001415  1
  Sb  Sb19  1  0.51224488  0.49888396  0.00631384  1
  Sb  Sb20  1  0.75026835  0.49200188  0.74828337  1
  Sb  Sb21  1  0.25206140  0.74908959  0.50043314  1
  Sb  Sb22  1  -0.00619440  0.00063109  -0.00007582  1
  Sb  Sb23  1  0.25003844  0.50004037  0.25056936  1
  Sb  Sb24  1  0.51782364  0.75084310  0.74421989  1
  Sb  Sb25  1  0.24312686  0.74706160  0.00042827  1
  Sb  Sb26  1  -0.01146100  0.49852501  0.49519341  1
  Sb  Sb27  1  0.24937689  0.50020468  0.74887298  1
  Sb  Sb28  1  0.25148187  0.00009204  0.25235738  1
  Sb  Sb29  1  0.24439433  0.25258914  -0.00002145  1
  Sb  Sb30  1  -0.01111414  0.00052611  0.50136999  1
  Sb  Sb31  1  0.25200936  -0.00083696  0.74702143  1
  Te  Te32  1  0.24780758  0.25046822  0.24939449  1
  Te  Te33  1  0.24381216  0.25003457  0.75048438  1
  Te  Te34  1  0.24679385  0.74967973  0.24990174  1
  Te  Te35  1  0.22843044  0.75082693  0.75081099  1
  Te  Te36  1  0.75032237  0.24029478  0.25118046  1
  Te  Te37  1  0.75166919  0.25462617  0.74819940  1
  Te  Te38  1  0.75073115  0.76000271  0.25159326  1
  Te  Te39  1  0.75218888  0.74885358  0.74909612  1
  Te  Te40  1  0.25353743  -0.00050015  -0.00003302  1
  Te  Te41  1  0.27152592  -0.00012037  0.50001223  1
  Te  Te42  1  0.23098621  0.50012684  -0.00102848  1
  Te  Te43  1  0.27219139  0.50046813  0.50030220  1
  Te  Te44  1  0.74948967  0.00139869  -0.01811840  1
  Te  Te45  1  0.74498000  0.00120223  0.50872909  1
  Te  Te46  1  0.75514912  0.49956485  0.00968967  1
  Te  Te47  1  0.74540097  0.49970284  0.49102131  1
  Te  Te48  1  -0.00557223  0.24875433  0.00143610  1
  Te  Te49  1  -0.00596301  0.25104542  0.49995442  1
  Te  Te50  1  -0.00572152  0.75124229  0.00459796  1
  Te  Te51  1  -0.00586741  0.74981926  0.49701981  1
  Te  Te52  1  0.50699795  0.25223018  0.00194833  1
  Te  Te53  1  0.50350161  0.25115925  0.49749823  1
  Te  Te54  1  0.50758770  0.74810307  0.00672324  1
  Te  Te55  1  0.50427393  0.74799626  0.49847905  1
  Te  Te56  1  0.00257082  0.00063228  0.25180247  1
  Te  Te57  1  -0.00379014  0.00431345  0.74839860  1
  Te  Te58  1  -0.00455007  0.49909963  0.25189666  1
  Te  Te59  1  -0.00215613  0.49721861  0.75127263  1
  Te  Te60  1  0.49933243  0.00200950  0.25400809  1
  Te  Te61  1  0.50241439  0.00359476  0.74789902  1
  Te  Te62  1  0.50413455  0.49813584  0.24913156  1
  Te  Te63  1  0.50012601  0.49368560  0.74626885  1
