# generated using pymatgen
data_AgSbTe2
_symmetry_space_group_name_H-M   'P 1'
_cell_length_a   12.22967111
_cell_length_b   12.21473892
_cell_length_c   12.22581717
_cell_angle_alpha   89.99879814
_cell_angle_beta   90.00203200
_cell_angle_gamma   90.00354808
_symmetry_Int_Tables_number   1
_chemical_formula_structural   AgSbTe2
_chemical_formula_sum   'Ag16 Sb16 Te32'
_cell_volume   1826.31994618
_cell_formula_units_Z   16
loop_
 _symmetry_equiv_pos_site_id
 _symmetry_equiv_pos_as_xyz
  1  'x, y, z'
loop_
 _atom_site_type_symbol
 _atom_site_label
 _atom_site_symmetry_multiplicity
 _atom_site_fract_x
 _atom_site_fract_y
 _atom_site_fract_z
 _atom_site_occupancy
  Ag  Ag0  1  0.74707784  0.49809170  0.74675059  1
  Ag  Ag1  1  0.25371904  0.49569317  0.74973386  1
  Ag  Ag2  1  0.74466858  0.25520029  -0.00132401  1
  Ag  Ag3  1  0.24947714  0.25432289  0.49635559  1
  Ag  Ag4  1  0.24837483  0.00806500  0.25135378  1
  Ag  Ag5  1  0.75322095  0.74447807  0.50359581  1
  Ag  Ag6  1  0.00284068  0.00296952  0.49894478  1
  Ag  Ag7  1  0.49269178  0.25295234  0.24703902  1
  Ag  Ag8  1  0.00144646  0.74456475  0.74596351  1
  Ag  Ag9  1  0.00178075  0.49815699  0.50431356  1
  Ag  Ag10  1  0.49557609  0.49222202  -0.00579587  1
  Ag  Ag11  1  0.25535398  0.25472537  0.00297104  1
  Ag  Ag12  1  0.00809393  0.25020795  0.25362567  1
  Ag  Ag13  1  0.25081941  0.74469009  -0.00201119  1
  Ag  Ag14  1  0.49780761  0.49459091  0.50624858  1
  Ag  Ag15  1  0.49626299  0.25852567  0.75267965  1
  Sb  Sb16  1  0.49816230  0.74097735  0.74943541  1
  Sb  Sb17  1  0.74917276  0.74411110  -0.00393445  1
  Sb  Sb18  1  0.74994479  0.49758121  0.25217485  1
  Sb  Sb19  1  0.00340015  0.74848441  0.25255422  1
  Sb  Sb20  1  0.74978298  0.25444702  0.50125141  1
  Sb  Sb21  1  0.75192730  0.00234069  0.74767245  1
  Sb  Sb22  1  0.49825174  0.00453059  0.49874843  1
  Sb  Sb23  1  0.49641476  0.74695136  0.25006083  1
  Sb  Sb24  1  0.24847367  0.74507831  0.50128925  1
  Sb  Sb25  1  0.75163137  0.00444747  0.25260631  1
  Sb  Sb26  1  0.25028991  0.49218251  0.25012593  1
  Sb  Sb27  1  0.49777044  0.00886602  0.00091943  1
  Sb  Sb28  1  0.00296567  0.00232685  0.00046920  1
  Sb  Sb29  1  0.00409498  0.49733789  -0.00384046  1
  Sb  Sb30  1  0.24829401  0.00307797  0.74892581  1
  Sb  Sb31  1  0.00302491  0.25432585  0.74689962  1
  Te  Te32  1  0.24964670  0.24956448  0.25069596  1
  Te  Te33  1  0.25059599  0.25352608  0.75001316  1
  Te  Te34  1  0.25007062  0.75898925  0.24382350  1
  Te  Te35  1  0.24756557  0.74675529  0.75394277  1
  Te  Te36  1  0.74916224  0.24971544  0.24451026  1
  Te  Te37  1  0.74842749  0.25433119  0.75402057  1
  Te  Te38  1  0.74974075  0.75092950  0.25473643  1
  Te  Te39  1  0.75294559  0.74573776  0.74779482  1
  Te  Te40  1  0.24969455  0.00259559  0.00317277  1
  Te  Te41  1  0.24668990  0.00320855  0.49757735  1
  Te  Te42  1  0.25159335  0.49667821  -0.00246656  1
  Te  Te43  1  0.25074677  0.49765555  0.50270353  1
  Te  Te44  1  0.74984256  0.00627046  0.00005271  1
  Te  Te45  1  0.75533288  -0.00676793  0.50052384  1
  Te  Te46  1  0.74670571  0.49665811  -0.00467344  1
  Te  Te47  1  0.74996809  0.50151259  0.50368620  1
  Te  Te48  1  0.00270999  0.25054622  0.00404568  1
  Te  Te49  1  0.00074203  0.25213782  0.49878282  1
  Te  Te50  1  0.00310761  0.75007655  -0.00372968  1
  Te  Te51  1  -0.00022436  0.74605381  0.50182816  1
  Te  Te52  1  0.49649174  0.25284316  0.00052689  1
  Te  Te53  1  0.49928664  0.25315350  0.49974851  1
  Te  Te54  1  0.49601257  0.74233920  0.00078198  1
  Te  Te55  1  0.50366192  0.74448089  0.49932599  1
  Te  Te56  1  0.00318059  0.00463431  0.25519127  1
  Te  Te57  1  -0.00014899  -0.00719654  0.74291678  1
  Te  Te58  1  -0.00071839  0.49493650  0.25856625  1
  Te  Te59  1  0.00061631  0.50198100  0.74631746  1
  Te  Te60  1  0.49461900  0.00748102  0.25097067  1
  Te  Te61  1  0.50055500  0.01059415  0.74905962  1
  Te  Te62  1  0.50029423  0.49479467  0.25113470  1
  Te  Te63  1  0.49827161  0.49726032  0.74861639  1
