# generated using pymatgen
data_AgSbTe2
_symmetry_space_group_name_H-M   'P 1'
_cell_length_a   12.22029788
_cell_length_b   12.23350596
_cell_length_c   12.20812017
_cell_angle_alpha   89.99642117
_cell_angle_beta   89.98058741
_cell_angle_gamma   90.00235463
_symmetry_Int_Tables_number   1
_chemical_formula_structural   AgSbTe2
_chemical_formula_sum   'Ag16 Sb16 Te32'
_cell_volume   1825.07829301
_cell_formula_units_Z   16
loop_
 _symmetry_equiv_pos_site_id
 _symmetry_equiv_pos_as_xyz
  1  'x, y, z'
loop_
 _atom_site_type_symbol
 _atom_site_label
 _atom_site_symmetry_multiplicity
 _atom_site_fract_x
 _atom_site_fract_y
 _atom_site_fract_z
 _atom_site_occupancy
  Ag  Ag0  1  0.25563524  -0.00093610  0.74935999  1
  Ag  Ag1  1  0.24831252  0.25157062  -0.00530717  1
  Ag  Ag2  1  0.25485715  0.50105584  0.75294118  1
  Ag  Ag3  1  -0.00011725  0.24700094  0.24904125  1
  Ag  Ag4  1  0.50616625  -0.00268042  0.50832386  1
  Ag  Ag5  1  0.50234186  0.50250415  0.50907495  1
  Ag  Ag6  1  0.50033841  0.75062774  0.74578422  1
  Ag  Ag7  1  0.49747409  0.24937959  0.74813025  1
  Ag  Ag8  1  0.74805757  0.75635274  0.50408721  1
  Ag  Ag9  1  0.74445080  -0.00367690  0.74181740  1
  Ag  Ag10  1  0.75423459  -0.00234083  0.25933012  1
  Ag  Ag11  1  0.24820137  0.74864487  -0.00579445  1
  Ag  Ag12  1  -0.00682437  -0.00255787  0.49931044  1
  Ag  Ag13  1  -0.00153773  0.75327221  0.25092755  1
  Ag  Ag14  1  0.74378207  0.50300330  0.74693005  1
  Ag  Ag15  1  0.00375642  0.50073653  -0.00206288  1
  Sb  Sb16  1  0.00001346  0.75099144  0.74952255  1
  Sb  Sb17  1  0.75119914  0.50163928  0.25287729  1
  Sb  Sb18  1  0.50058917  0.75281347  0.25240174  1
  Sb  Sb19  1  0.49905562  -0.00032755  -0.00938098  1
  Sb  Sb20  1  0.49969629  0.24665087  0.25127080  1
  Sb  Sb21  1  0.75091554  0.74914944  -0.00347854  1
  Sb  Sb22  1  0.75109825  0.25075486  -0.00269450  1
  Sb  Sb23  1  0.25046814  0.24947032  0.50477398  1
  Sb  Sb24  1  0.25192772  0.75069153  0.50489484  1
  Sb  Sb25  1  0.74977857  0.24303597  0.50167145  1
  Sb  Sb26  1  0.24939004  0.50058061  0.24705726  1
  Sb  Sb27  1  -0.00175815  0.50156869  0.50158824  1
  Sb  Sb28  1  0.49734986  0.50055365  -0.00940691  1
  Sb  Sb29  1  0.00093939  -0.00066941  0.00147996  1
  Sb  Sb30  1  0.00206664  0.24857441  0.75111773  1
  Sb  Sb31  1  0.24821050  -0.00049097  0.25175792  1
  Te  Te32  1  0.24590014  0.24952688  0.24153394  1
  Te  Te33  1  0.25244446  0.24952952  0.75344629  1
  Te  Te34  1  0.24551321  0.75067727  0.24237779  1
  Te  Te35  1  0.25096281  0.75041959  0.75279689  1
  Te  Te36  1  0.75474388  0.24498684  0.24829218  1
  Te  Te37  1  0.74514013  0.24985516  0.75134108  1
  Te  Te38  1  0.75277057  0.75359321  0.25250866  1
  Te  Te39  1  0.74854158  0.75149799  0.74756564  1
  Te  Te40  1  0.25001916  -0.00098410  -0.00585648  1
  Te  Te41  1  0.25048358  -0.00028045  0.50531177  1
  Te  Te42  1  0.24735573  0.50086394  -0.00350136  1
  Te  Te43  1  0.25306103  0.50029465  0.50725808  1
  Te  Te44  1  0.74972148  -0.00048372  -0.00253345  1
  Te  Te45  1  0.75061067  -0.00201022  0.50303788  1
  Te  Te46  1  0.75549389  0.50061620  -0.00535338  1
  Te  Te47  1  0.74830126  0.50607629  0.50514910  1
  Te  Te48  1  0.00431009  0.25348532  0.00290478  1
  Te  Te49  1  0.00121788  0.24564902  0.49303526  1
  Te  Te50  1  0.00326386  0.74668413  0.00384588  1
  Te  Te51  1  -0.00259741  0.75319670  0.49562899  1
  Te  Te52  1  0.49313039  0.25054037  -0.00430271  1
  Te  Te53  1  0.49969055  0.24938002  0.50378833  1
  Te  Te54  1  0.49387795  0.74915317  -0.00393446  1
  Te  Te55  1  0.50147624  0.75160334  0.50318343  1
  Te  Te56  1  -0.00219714  -0.00139686  0.25248963  1
  Te  Te57  1  -0.00121567  0.00118248  0.74511074  1
  Te  Te58  1  -0.00060006  0.50034711  0.24758284  1
  Te  Te59  1  0.00097094  0.49925756  0.75298561  1
  Te  Te60  1  0.50562104  0.00091536  0.25996276  1
  Te  Te61  1  0.50055406  -0.00092842  0.74752590  1
  Te  Te62  1  0.50114669  0.49906584  0.26150125  1
  Te  Te63  1  0.50021788  0.50074277  0.74797031  1
