# generated using pymatgen
data_AgSbTe2
_symmetry_space_group_name_H-M   'P 1'
_cell_length_a   12.21592443
_cell_length_b   12.21972312
_cell_length_c   12.21614615
_cell_angle_alpha   90.00135283
_cell_angle_beta   90.01168979
_cell_angle_gamma   90.00463805
_symmetry_Int_Tables_number   1
_chemical_formula_structural   AgSbTe2
_chemical_formula_sum   'Ag16 Sb16 Te32'
_cell_volume   1823.56778804
_cell_formula_units_Z   16
loop_
 _symmetry_equiv_pos_site_id
 _symmetry_equiv_pos_as_xyz
  1  'x, y, z'
loop_
 _atom_site_type_symbol
 _atom_site_label
 _atom_site_symmetry_multiplicity
 _atom_site_fract_x
 _atom_site_fract_y
 _atom_site_fract_z
 _atom_site_occupancy
  Ag  Ag0  1  0.49731928  0.49846659  0.50730153  1
  Ag  Ag1  1  0.24413285  0.00547052  0.25333154  1
  Ag  Ag2  1  0.25135718  0.49669666  0.74330070  1
  Ag  Ag3  1  0.00070417  0.00432220  0.49904214  1
  Ag  Ag4  1  0.50355890  0.74367648  0.74584490  1
  Ag  Ag5  1  0.00341432  0.25096965  0.25156192  1
  Ag  Ag6  1  -0.00167287  0.00582017  0.00067320  1
  Ag  Ag7  1  -0.00051315  0.49410844  -0.00148926  1
  Ag  Ag8  1  0.75201453  0.00182003  0.74878115  1
  Ag  Ag9  1  0.75062912  0.74716903  0.50576557  1
  Ag  Ag10  1  0.50208109  0.25615821  0.74732956  1
  Ag  Ag11  1  0.00384582  0.49537910  0.50146163  1
  Ag  Ag12  1  0.24551196  0.49451014  0.25676843  1
  Ag  Ag13  1  0.74796689  0.49837642  0.74647043  1
  Ag  Ag14  1  0.75518505  0.25100251  -0.00480625  1
  Ag  Ag15  1  0.24598261  0.25586950  0.49910159  1
  Sb  Sb16  1  0.24739242  0.00317092  0.74701298  1
  Sb  Sb17  1  0.50173989  0.00323490  -0.00198031  1
  Sb  Sb18  1  0.75325426  0.25222999  0.50508175  1
  Sb  Sb19  1  0.49942546  0.74672990  0.25455774  1
  Sb  Sb20  1  0.49966550  0.00143791  0.50197462  1
  Sb  Sb21  1  0.49699181  0.25315429  0.25222899  1
  Sb  Sb22  1  0.75479511  0.49722263  0.25250006  1
  Sb  Sb23  1  0.24930088  0.74938628  -0.00205397  1
  Sb  Sb24  1  -0.00326725  0.74693385  0.74749944  1
  Sb  Sb25  1  0.00071227  0.74866858  0.25197945  1
  Sb  Sb26  1  -0.00185547  0.25316002  0.74913153  1
  Sb  Sb27  1  0.24458603  0.25149700  0.00030577  1
  Sb  Sb28  1  0.75627291  0.00329085  0.25156300  1
  Sb  Sb29  1  0.24983935  0.74337060  0.50190049  1
  Sb  Sb30  1  0.50054718  0.49721054  -0.00799738  1
  Sb  Sb31  1  0.75106943  0.74923329  -0.00566555  1
  Te  Te32  1  0.24712379  0.25195313  0.25239520  1
  Te  Te33  1  0.25561305  0.25352251  0.74667918  1
  Te  Te34  1  0.25153406  0.74938508  0.24980081  1
  Te  Te35  1  0.25850015  0.74445218  0.74969659  1
  Te  Te36  1  0.75458415  0.24959153  0.24242936  1
  Te  Te37  1  0.74704545  0.25110653  0.75171803  1
  Te  Te38  1  0.74783348  0.75058130  0.25867472  1
  Te  Te39  1  0.74682093  0.74859990  0.74609306  1
  Te  Te40  1  0.24237137  -0.00008093  0.00322989  1
  Te  Te41  1  0.24505650  0.00370667  0.49889066  1
  Te  Te42  1  0.24382924  0.49928542  -0.00035364  1
  Te  Te43  1  0.24666984  0.49936602  0.50154434  1
  Te  Te44  1  0.75504503  0.00107251  -0.00321936  1
  Te  Te45  1  0.75398817  -0.00075847  0.50313425  1
  Te  Te46  1  0.75496140  0.49832853  -0.00336936  1
  Te  Te47  1  0.75204224  0.49947511  0.50332402  1
  Te  Te48  1  -0.00239326  0.25081624  0.00238570  1
  Te  Te49  1  0.00199543  0.25137767  0.49768085  1
  Te  Te50  1  -0.00098630  0.75023976  0.00014701  1
  Te  Te51  1  -0.00494834  0.74993925  0.50038344  1
  Te  Te52  1  0.50804027  0.25018253  -0.00536011  1
  Te  Te53  1  0.49685024  0.25374622  0.50345996  1
  Te  Te54  1  0.50086965  0.75029123  -0.00827943  1
  Te  Te55  1  0.50469010  0.74610277  0.50491397  1
  Te  Te56  1  0.00337158  0.00276454  0.25136019  1
  Te  Te57  1  -0.00334444  -0.00126015  0.74930440  1
  Te  Te58  1  0.00327468  0.49724300  0.25147307  1
  Te  Te59  1  -0.00004809  0.50045563  0.74854078  1
  Te  Te60  1  0.49002055  -0.00025230  0.24952604  1
  Te  Te61  1  0.50423148  0.00160433  0.75010306  1
  Te  Te62  1  0.49219890  0.49958906  0.25661053  1
  Te  Te63  1  0.50117113  0.49782598  0.74860544  1
