# generated using pymatgen
data_AgSbTe2
_symmetry_space_group_name_H-M   'P 1'
_cell_length_a   12.22474455
_cell_length_b   12.21388536
_cell_length_c   12.23019072
_cell_angle_alpha   90.00946341
_cell_angle_beta   89.99826317
_cell_angle_gamma   90.00837754
_symmetry_Int_Tables_number   1
_chemical_formula_structural   AgSbTe2
_chemical_formula_sum   'Ag16 Sb16 Te32'
_cell_volume   1826.10964799
_cell_formula_units_Z   16
loop_
 _symmetry_equiv_pos_site_id
 _symmetry_equiv_pos_as_xyz
  1  'x, y, z'
loop_
 _atom_site_type_symbol
 _atom_site_label
 _atom_site_symmetry_multiplicity
 _atom_site_fract_x
 _atom_site_fract_y
 _atom_site_fract_z
 _atom_site_occupancy
  Ag  Ag0  1  -0.00000631  0.50743456  -0.00408312  1
  Ag  Ag1  1  0.24843524  0.24999236  0.50179317  1
  Ag  Ag2  1  0.49827482  0.50676897  0.50229257  1
  Ag  Ag3  1  0.50164194  0.74577583  0.75514065  1
  Ag  Ag4  1  0.74552113  0.75013648  0.00384333  1
  Ag  Ag5  1  0.24975955  0.50245324  0.74982873  1
  Ag  Ag6  1  0.00035455  -0.00508371  0.49739688  1
  Ag  Ag7  1  0.00355676  0.25212588  0.74868816  1
  Ag  Ag8  1  0.24968907  -0.00414324  0.25136478  1
  Ag  Ag9  1  0.50153184  -0.01227448  0.00330239  1
  Ag  Ag10  1  0.75036010  0.75132347  0.49580788  1
  Ag  Ag11  1  -0.00155623  0.74709642  0.75117868  1
  Ag  Ag12  1  -0.00532392  0.75343566  0.24978605  1
  Ag  Ag13  1  0.75023992  -0.00931607  0.24981061  1
  Ag  Ag14  1  0.50038067  0.51123456  -0.00273745  1
  Ag  Ag15  1  0.50524564  0.75252601  0.24405834  1
  Sb  Sb16  1  0.24997462  0.75019975  0.49974183  1
  Sb  Sb17  1  0.00207602  0.24790381  0.25038918  1
  Sb  Sb18  1  0.75131351  0.24961340  0.00063349  1
  Sb  Sb19  1  0.74961029  0.50914893  0.24953488  1
  Sb  Sb20  1  0.49845778  0.24794760  0.25035621  1
  Sb  Sb21  1  0.00085053  0.50450664  0.50334001  1
  Sb  Sb22  1  0.25061524  0.50312805  0.25071341  1
  Sb  Sb23  1  0.25555062  0.74987705  0.00000685  1
  Sb  Sb24  1  0.24857098  0.25032967  -0.00130386  1
  Sb  Sb25  1  0.49704453  0.25376765  0.74908835  1
  Sb  Sb26  1  0.75039273  0.24845520  0.49962460  1
  Sb  Sb27  1  0.75039725  -0.00526575  0.75034597  1
  Sb  Sb28  1  0.50008087  -0.00652449  0.49785984  1
  Sb  Sb29  1  0.24982541  -0.00198269  0.74900719  1
  Sb  Sb30  1  -0.00126033  -0.00834922  0.00184089  1
  Sb  Sb31  1  0.74952730  0.50480343  0.75074485  1
  Te  Te32  1  0.24963275  0.24283898  0.25700732  1
  Te  Te33  1  0.24530262  0.25356301  0.74559359  1
  Te  Te34  1  0.24958219  0.75498297  0.25060577  1
  Te  Te35  1  0.24886314  0.74563933  0.74954386  1
  Te  Te36  1  0.75035436  0.23658025  0.25096425  1
  Te  Te37  1  0.76015027  0.24797439  0.74892574  1
  Te  Te38  1  0.74964640  0.75227187  0.24988940  1
  Te  Te39  1  0.75034870  0.75055639  0.75020423  1
  Te  Te40  1  0.25547994  0.00193839  0.00604195  1
  Te  Te41  1  0.24752441  0.00407116  0.49749416  1
  Te  Te42  1  0.25128018  0.49888698  -0.00361538  1
  Te  Te43  1  0.25336683  0.49589149  0.50223914  1
  Te  Te44  1  0.74647564  -0.00450929  0.00418222  1
  Te  Te45  1  0.75284573  -0.00392657  0.49616657  1
  Te  Te46  1  0.74788184  0.50498880  0.00105852  1
  Te  Te47  1  0.74357073  0.50548336  0.49883658  1
  Te  Te48  1  -0.00126013  0.25778723  -0.00522679  1
  Te  Te49  1  0.00214168  0.24815267  0.50276441  1
  Te  Te50  1  -0.00442708  0.74781153  -0.00162331  1
  Te  Te51  1  -0.00311323  0.75169209  0.50041601  1
  Te  Te52  1  0.50104752  0.25405303  -0.00157344  1
  Te  Te53  1  0.49680559  0.25723816  0.50176721  1
  Te  Te54  1  0.50198177  0.74860444  -0.00014839  1
  Te  Te55  1  0.50284585  0.74744962  0.50115774  1
  Te  Te56  1  0.00124782  -0.00316715  0.25165856  1
  Te  Te57  1  0.00095485  -0.00451719  0.74719913  1
  Te  Te58  1  0.00083444  0.50528468  0.24469987  1
  Te  Te59  1  0.00323317  0.50568598  0.75143817  1
  Te  Te60  1  0.49921286  -0.00300733  0.24811130  1
  Te  Te61  1  0.49868587  -0.00469696  0.75510911  1
  Te  Te62  1  0.49927911  0.50456038  0.24736313  1
  Te  Te63  1  0.49709205  0.50279234  0.75235406  1
