# generated using pymatgen
data_AgSbTe2
_symmetry_space_group_name_H-M   'P 1'
_cell_length_a   12.21494722
_cell_length_b   12.25114457
_cell_length_c   12.24141066
_cell_angle_alpha   89.99743544
_cell_angle_beta   89.98918710
_cell_angle_gamma   90.00124817
_symmetry_Int_Tables_number   1
_chemical_formula_structural   AgSbTe2
_chemical_formula_sum   'Ag16 Sb16 Te32'
_cell_volume   1831.89137893
_cell_formula_units_Z   16
loop_
 _symmetry_equiv_pos_site_id
 _symmetry_equiv_pos_as_xyz
  1  'x, y, z'
loop_
 _atom_site_type_symbol
 _atom_site_label
 _atom_site_symmetry_multiplicity
 _atom_site_fract_x
 _atom_site_fract_y
 _atom_site_fract_z
 _atom_site_occupancy
  Ag  Ag0  1  0.25686740  0.24889294  0.00599609  1
  Ag  Ag1  1  0.25641380  0.49489950  0.24764231  1
  Ag  Ag2  1  0.49947224  0.75097537  0.75419569  1
  Ag  Ag3  1  0.49604301  0.49784366  0.50521427  1
  Ag  Ag4  1  0.25964007  0.75109502  0.00378419  1
  Ag  Ag5  1  0.49389190  -0.00302481  -0.00478486  1
  Ag  Ag6  1  0.01067528  0.24789330  0.25180195  1
  Ag  Ag7  1  0.74000058  0.00051224  0.74911932  1
  Ag  Ag8  1  0.25542059  0.00539360  0.25081006  1
  Ag  Ag9  1  0.49505454  0.00220683  0.50474290  1
  Ag  Ag10  1  0.00656611  0.00469720  0.49839706  1
  Ag  Ag11  1  0.49442290  0.50303441  -0.00460717  1
  Ag  Ag12  1  0.25512708  0.24579381  0.49426109  1
  Ag  Ag13  1  0.73964992  0.49913765  0.75023422  1
  Ag  Ag14  1  0.49808815  0.24904879  0.74972792  1
  Ag  Ag15  1  0.49325440  0.75109835  0.24509848  1
  Sb  Sb16  1  0.25881341  0.00086239  0.74936224  1
  Sb  Sb17  1  0.00473459  0.49629419  0.49914846  1
  Sb  Sb18  1  0.00246678  0.24774184  0.74947843  1
  Sb  Sb19  1  0.25594919  0.75242551  0.49736351  1
  Sb  Sb20  1  0.74480586  0.75048888  0.50187332  1
  Sb  Sb21  1  0.00584052  0.00257025  0.00060430  1
  Sb  Sb22  1  0.25847960  0.49876596  0.75152115  1
  Sb  Sb23  1  0.74130017  0.49863595  0.24957186  1
  Sb  Sb24  1  0.49234864  0.24921129  0.25033370  1
  Sb  Sb25  1  0.00703026  0.75104033  0.24948880  1
  Sb  Sb26  1  0.74319101  0.24900199  0.50145238  1
  Sb  Sb27  1  0.74083470  0.24935235  -0.00188324  1
  Sb  Sb28  1  0.73971420  0.75039095  -0.00279877  1
  Sb  Sb29  1  0.00237159  0.75288517  0.75064471  1
  Sb  Sb30  1  0.74413738  0.00075167  0.25039758  1
  Sb  Sb31  1  0.00545977  0.49709588  0.00053361  1
  Te  Te32  1  0.25004503  0.24822125  0.25059715  1
  Te  Te33  1  0.25482499  0.25087728  0.74959635  1
  Te  Te34  1  0.25516695  0.75091733  0.24733583  1
  Te  Te35  1  0.25498021  0.74934376  0.75702345  1
  Te  Te36  1  0.76632810  0.25081718  0.24953978  1
  Te  Te37  1  0.74484285  0.24915471  0.75029161  1
  Te  Te38  1  0.74208311  0.74885400  0.24923144  1
  Te  Te39  1  0.74456168  0.75108733  0.75063767  1
  Te  Te40  1  0.25363032  0.00263775  0.00227739  1
  Te  Te41  1  0.25499675  0.00214290  0.49815985  1
  Te  Te42  1  0.25410009  0.49735451  0.00173813  1
  Te  Te43  1  0.25441380  0.49658791  0.49685684  1
  Te  Te44  1  0.74416007  0.00036174  -0.00393664  1
  Te  Te45  1  0.74437114  0.00025752  0.50235792  1
  Te  Te46  1  0.74373011  0.49982455  -0.00338082  1
  Te  Te47  1  0.74356034  0.50007147  0.50337632  1
  Te  Te48  1  0.01054715  0.25051454  0.00241834  1
  Te  Te49  1  0.00744546  0.24554207  0.49860980  1
  Te  Te50  1  0.01159881  0.74942505  -0.00004193  1
  Te  Te51  1  0.00058869  0.75912092  0.50049377  1
  Te  Te52  1  0.49579252  0.24933775  -0.00107619  1
  Te  Te53  1  0.49571867  0.24881547  0.50101055  1
  Te  Te54  1  0.49730668  0.75077528  -0.00134155  1
  Te  Te55  1  0.49886378  0.75069936  0.50234506  1
  Te  Te56  1  0.00202628  0.00171378  0.25283438  1
  Te  Te57  1  -0.01070968  -0.00074848  0.74543825  1
  Te  Te58  1  0.00557158  0.49812506  0.25109531  1
  Te  Te59  1  -0.01364394  0.50101669  0.74843663  1
  Te  Te60  1  0.49758783  -0.00083915  0.25084724  1
  Te  Te61  1  0.50058045  0.00037396  0.74918642  1
  Te  Te62  1  0.49653673  0.50079778  0.24998099  1
  Te  Te63  1  0.50032778  0.49980631  0.74933506  1
