# generated using pymatgen
data_AgSbTe2
_symmetry_space_group_name_H-M   'P 1'
_cell_length_a   12.21066292
_cell_length_b   12.21471371
_cell_length_c   12.21324767
_cell_angle_alpha   90.00715179
_cell_angle_beta   89.99536026
_cell_angle_gamma   90.00978306
_symmetry_Int_Tables_number   1
_chemical_formula_structural   AgSbTe2
_chemical_formula_sum   'Ag16 Sb16 Te32'
_cell_volume   1821.60281217
_cell_formula_units_Z   16
loop_
 _symmetry_equiv_pos_site_id
 _symmetry_equiv_pos_as_xyz
  1  'x, y, z'
loop_
 _atom_site_type_symbol
 _atom_site_label
 _atom_site_symmetry_multiplicity
 _atom_site_fract_x
 _atom_site_fract_y
 _atom_site_fract_z
 _atom_site_occupancy
  Ag  Ag0  1  0.75175181  0.00238788  0.74616391  1
  Ag  Ag1  1  0.50066511  0.75150252  0.74981974  1
  Ag  Ag2  1  -0.00151647  0.75194375  0.25321058  1
  Ag  Ag3  1  0.75418109  0.49733086  0.74962306  1
  Ag  Ag4  1  -0.00574232  0.25156818  0.74678995  1
  Ag  Ag5  1  0.24823889  0.74933940  -0.00496084  1
  Ag  Ag6  1  0.75536797  0.24381100  0.50775449  1
  Ag  Ag7  1  0.50387346  -0.00175374  -0.00339990  1
  Ag  Ag8  1  0.24642483  0.50299050  0.74956305  1
  Ag  Ag9  1  0.24506950  0.24866000  0.50554837  1
  Ag  Ag10  1  -0.00097969  0.50093432  -0.00579194  1
  Ag  Ag11  1  -0.00599560  -0.00107349  0.50233882  1
  Ag  Ag12  1  0.75439617  0.75577845  0.50415596  1
  Ag  Ag13  1  0.75261661  -0.00129372  0.25340952  1
  Ag  Ag14  1  0.24562414  0.75090384  0.50508094  1
  Ag  Ag15  1  0.75264853  0.24738670  -0.00716261  1
  Sb  Sb16  1  -0.00058950  0.50060671  0.50604991  1
  Sb  Sb17  1  -0.00309868  0.24726845  0.25358853  1
  Sb  Sb18  1  0.24582418  0.50266040  0.25036170  1
  Sb  Sb19  1  0.50038301  0.50121318  0.50391158  1
  Sb  Sb20  1  0.24869824  -0.00260710  0.74775208  1
  Sb  Sb21  1  0.75430915  0.50189124  0.25043195  1
  Sb  Sb22  1  -0.00018481  0.74814009  0.74734322  1
  Sb  Sb23  1  0.24670912  -0.00224966  0.25195868  1
  Sb  Sb24  1  0.24704559  0.25064317  -0.00688327  1
  Sb  Sb25  1  0.50225441  0.24639756  0.24951979  1
  Sb  Sb26  1  0.75158742  0.75170295  -0.00553639  1
  Sb  Sb27  1  -0.00390691  -0.00068862  -0.00269070  1
  Sb  Sb28  1  0.50159964  0.50217955  -0.00521209  1
  Sb  Sb29  1  0.50203420  0.75360673  0.24962385  1
  Sb  Sb30  1  0.50705399  0.24701736  0.75054717  1
  Sb  Sb31  1  0.50803502  -0.00214347  0.50389415  1
  Te  Te32  1  0.25005053  0.25032995  0.26012156  1
  Te  Te33  1  0.24667966  0.25336579  0.74585205  1
  Te  Te34  1  0.24580189  0.74964843  0.25275329  1
  Te  Te35  1  0.25023731  0.74817166  0.74778961  1
  Te  Te36  1  0.75114277  0.24553793  0.25166510  1
  Te  Te37  1  0.75011290  0.25049016  0.74813735  1
  Te  Te38  1  0.75351842  0.75329138  0.25537688  1
  Te  Te39  1  0.74922797  0.74967918  0.74783261  1
  Te  Te40  1  0.25392492  -0.00393573  0.00041399  1
  Te  Te41  1  0.24519638  -0.00153350  0.50015495  1
  Te  Te42  1  0.24678228  0.50285322  -0.00534051  1
  Te  Te43  1  0.24987146  0.50207658  0.50591684  1
  Te  Te44  1  0.74973066  0.00225151  -0.00189281  1
  Te  Te45  1  0.75095660  -0.00000545  0.50251647  1
  Te  Te46  1  0.75304248  0.49660884  -0.00400678  1
  Te  Te47  1  0.75047234  0.49984718  0.50463941  1
  Te  Te48  1  -0.00334202  0.25211813  -0.00330401  1
  Te  Te49  1  -0.00210440  0.24864013  0.50263138  1
  Te  Te50  1  0.00365524  0.74834555  0.00314172  1
  Te  Te51  1  0.00018114  0.75115065  0.49829869  1
  Te  Te52  1  0.50508684  0.24388014  -0.00019577  1
  Te  Te53  1  0.49924524  0.24942913  0.50021655  1
  Te  Te54  1  0.49567569  0.75344487  -0.00286788  1
  Te  Te55  1  0.49841013  0.75134891  0.50408504  1
  Te  Te56  1  -0.00571645  -0.00465853  0.25440845  1
  Te  Te57  1  -0.00542794  0.00566160  0.74595067  1
  Te  Te58  1  -0.00068147  0.50749909  0.23952753  1
  Te  Te59  1  -0.00160260  0.49674750  0.75418375  1
  Te  Te60  1  0.50921930  -0.00083996  0.24144839  1
  Te  Te61  1  0.50576912  -0.00574125  0.75438612  1
  Te  Te62  1  0.50013942  0.50030681  0.24805654  1
  Te  Te63  1  0.50036612  0.50793509  0.75129957  1
