# generated using pymatgen
data_AgSbTe2
_symmetry_space_group_name_H-M   'P 1'
_cell_length_a   12.23408890
_cell_length_b   12.22833435
_cell_length_c   12.23077107
_cell_angle_alpha   89.99822293
_cell_angle_beta   90.00421582
_cell_angle_gamma   89.99067814
_symmetry_Int_Tables_number   1
_chemical_formula_structural   AgSbTe2
_chemical_formula_sum   'Ag16 Sb16 Te32'
_cell_volume   1829.75425978
_cell_formula_units_Z   16
loop_
 _symmetry_equiv_pos_site_id
 _symmetry_equiv_pos_as_xyz
  1  'x, y, z'
loop_
 _atom_site_type_symbol
 _atom_site_label
 _atom_site_symmetry_multiplicity
 _atom_site_fract_x
 _atom_site_fract_y
 _atom_site_fract_z
 _atom_site_occupancy
  Ag  Ag0  1  0.75349571  0.00414032  0.73557687  1
  Ag  Ag1  1  0.51482587  0.00204004  0.49431431  1
  Ag  Ag2  1  0.50063092  0.24556143  0.24720152  1
  Ag  Ag3  1  -0.01429129  0.00134472  0.49340272  1
  Ag  Ag4  1  0.25075974  0.49707100  0.24465263  1
  Ag  Ag5  1  -0.00401685  0.24336416  0.75271779  1
  Ag  Ag6  1  0.00121103  0.75836812  0.24923767  1
  Ag  Ag7  1  0.75162508  0.24276111  0.00260318  1
  Ag  Ag8  1  -0.00115656  0.00372240  0.00625330  1
  Ag  Ag9  1  0.75184001  0.76545883  0.49645134  1
  Ag  Ag10  1  0.24806690  0.75342000  0.00647602  1
  Ag  Ag11  1  0.24469796  0.00142860  0.24640867  1
  Ag  Ag12  1  0.75095853  0.23566076  0.49762444  1
  Ag  Ag13  1  0.24937366  0.24730648  0.00612246  1
  Ag  Ag14  1  0.75401293  0.00336835  0.26320971  1
  Ag  Ag15  1  0.49706700  0.49554198  0.00482638  1
  Sb  Sb16  1  0.50226121  0.24693592  0.75196065  1
  Sb  Sb17  1  -0.00132872  0.49776677  0.49638336  1
  Sb  Sb18  1  0.24830879  0.75515649  0.49429404  1
  Sb  Sb19  1  0.75077891  0.49646521  0.75180052  1
  Sb  Sb20  1  -0.00159590  0.75584818  0.75028766  1
  Sb  Sb21  1  0.75093299  0.75767467  0.00264014  1
  Sb  Sb22  1  0.24970885  0.49704329  0.75485487  1
  Sb  Sb23  1  0.50135220  0.49810597  0.49596161  1
  Sb  Sb24  1  0.24910689  0.24606553  0.49429795  1
  Sb  Sb25  1  -0.00119015  0.24233290  0.24829993  1
  Sb  Sb26  1  0.49927335  0.75378745  0.24954921  1
  Sb  Sb27  1  0.50131850  0.75367961  0.75050059  1
  Sb  Sb28  1  0.00122269  0.49661722  0.00305223  1
  Sb  Sb29  1  0.24788736  0.00233990  0.75289918  1
  Sb  Sb30  1  0.75017086  0.49676171  0.24839720  1
  Sb  Sb31  1  0.50033492  0.00327304  0.00478674  1
  Te  Te32  1  0.25081181  0.24664832  0.24657331  1
  Te  Te33  1  0.24544938  0.25021486  0.75814499  1
  Te  Te34  1  0.24901263  0.75485875  0.24645612  1
  Te  Te35  1  0.24982000  0.74905518  0.75987154  1
  Te  Te36  1  0.74922064  0.24827177  0.24885418  1
  Te  Te37  1  0.75214473  0.24722956  0.75106455  1
  Te  Te38  1  0.75257974  0.75237174  0.25203250  1
  Te  Te39  1  0.75059672  0.75475728  0.74551649  1
  Te  Te40  1  0.24991022  0.00238044  0.00249223  1
  Te  Te41  1  0.24829053  -0.00062203  0.49593228  1
  Te  Te42  1  0.25115431  0.49666597  0.00424184  1
  Te  Te43  1  0.25103981  0.50105401  0.49240904  1
  Te  Te44  1  0.75092144  0.00306014  0.00329998  1
  Te  Te45  1  0.75251055  0.00207493  0.49691266  1
  Te  Te46  1  0.74625373  0.49343021  -0.00037537  1
  Te  Te47  1  0.74941348  0.49895976  0.50051690  1
  Te  Te48  1  -0.00175866  0.24649032  -0.00023482  1
  Te  Te49  1  -0.00262876  0.24657621  0.50224036  1
  Te  Te50  1  0.00197224  0.75335866  0.00169777  1
  Te  Te51  1  -0.00305097  0.75306943  0.49865812  1
  Te  Te52  1  0.49987110  0.25024947  0.00226921  1
  Te  Te53  1  0.50229370  0.24710183  0.49705744  1
  Te  Te54  1  0.49642892  0.74469642  0.00013237  1
  Te  Te55  1  0.50434866  0.75339064  0.50060874  1
  Te  Te56  1  -0.00015545  -0.00149743  0.24885381  1
  Te  Te57  1  -0.00231508  0.00353652  0.75128205  1
  Te  Te58  1  0.00537874  0.51162778  0.25030294  1
  Te  Te59  1  0.00070651  0.49120457  0.74905685  1
  Te  Te60  1  0.50097862  0.00421256  0.25255551  1
  Te  Te61  1  0.50539281  0.00002892  0.74096856  1
  Te  Te62  1  0.49661876  0.49450649  0.24640326  1
  Te  Te63  1  0.49914575  0.50062458  0.75715968  1
