# generated using pymatgen
data_AgSbTe2
_symmetry_space_group_name_H-M   'P 1'
_cell_length_a   12.31816366
_cell_length_b   12.32499101
_cell_length_c   12.30807361
_cell_angle_alpha   89.99887872
_cell_angle_beta   89.99978222
_cell_angle_gamma   89.99770030
_symmetry_Int_Tables_number   1
_chemical_formula_structural   AgSbTe2
_chemical_formula_sum   'Ag16 Sb16 Te32'
_cell_volume   1868.62719710
_cell_formula_units_Z   16
loop_
 _symmetry_equiv_pos_site_id
 _symmetry_equiv_pos_as_xyz
  1  'x, y, z'
loop_
 _atom_site_type_symbol
 _atom_site_label
 _atom_site_symmetry_multiplicity
 _atom_site_fract_x
 _atom_site_fract_y
 _atom_site_fract_z
 _atom_site_occupancy
  Ag  Ag0  1  0.51321102  0.24629196  0.25069333  1
  Ag  Ag1  1  -0.00743745  0.50651486  0.48862139  1
  Ag  Ag2  1  0.75045709  0.74517866  0.48075711  1
  Ag  Ag3  1  -0.01137551  0.50852802  0.01315352  1
  Ag  Ag4  1  -0.01757614  0.74633361  0.24873270  1
  Ag  Ag5  1  0.75371455  0.51894799  0.25017942  1
  Ag  Ag6  1  0.74769297  -0.01872499  0.24186473  1
  Ag  Ag7  1  0.74963350  0.25449340  0.48234543  1
  Ag  Ag8  1  0.25050894  0.74587657  0.49422508  1
  Ag  Ag9  1  0.75177718  0.75877246  0.01740299  1
  Ag  Ag10  1  0.50570519  0.75410803  0.74805900  1
  Ag  Ag11  1  0.51497680  -0.00677181  0.00953510  1
  Ag  Ag12  1  0.24684312  0.25413472  0.49230196  1
  Ag  Ag13  1  0.74926037  0.24097615  0.01874779  1
  Ag  Ag14  1  -0.01602607  -0.00829796  0.00956695  1
  Ag  Ag15  1  0.51796091  0.75466535  0.25017614  1
  Sb  Sb16  1  0.50348749  -0.00160178  0.49442347  1
  Sb  Sb17  1  0.51076609  0.50297259  0.00471542  1
  Sb  Sb18  1  -0.00441305  -0.00287546  0.49181538  1
  Sb  Sb19  1  0.25035531  0.74955995  0.00616692  1
  Sb  Sb20  1  0.50267042  0.24496099  0.75001335  1
  Sb  Sb21  1  0.24869850  0.50267747  0.74679331  1
  Sb  Sb22  1  0.25041136  -0.00320344  0.74954638  1
  Sb  Sb23  1  -0.01079615  0.25285428  0.25019497  1
  Sb  Sb24  1  -0.00299994  0.75018317  0.74974175  1
  Sb  Sb25  1  0.50548700  0.50117945  0.49768313  1
  Sb  Sb26  1  0.24483652  0.50088181  0.25232064  1
  Sb  Sb27  1  0.25141439  -0.00101431  0.24908195  1
  Sb  Sb28  1  -0.00053469  0.24934944  0.74978037  1
  Sb  Sb29  1  0.75167084  0.50065330  0.74912990  1
  Sb  Sb30  1  0.24990278  0.25077277  0.00923595  1
  Sb  Sb31  1  0.75041917  -0.00110503  0.75666142  1
  Te  Te32  1  0.26733915  0.25033654  0.25537611  1
  Te  Te33  1  0.25045400  0.24995693  0.73252733  1
  Te  Te34  1  0.25178440  0.74867354  0.25467915  1
  Te  Te35  1  0.25805582  0.75051911  0.73756517  1
  Te  Te36  1  0.74826401  0.24954461  0.24855108  1
  Te  Te37  1  0.74981660  0.24876484  0.74451050  1
  Te  Te38  1  0.75353295  0.74963398  0.24747164  1
  Te  Te39  1  0.74589527  0.75123568  0.74750245  1
  Te  Te40  1  0.24773332  0.00165154  -0.00122591  1
  Te  Te41  1  0.24826445  0.00033601  0.50040284  1
  Te  Te42  1  0.22956883  0.49773929  -0.00130623  1
  Te  Te43  1  0.24025052  0.50164402  0.49923589  1
  Te  Te44  1  0.74874177  -0.00092369  0.00352782  1
  Te  Te45  1  0.74966166  0.00170951  0.49273864  1
  Te  Te46  1  0.75252235  0.50117404  -0.00050437  1
  Te  Te47  1  0.75212236  0.50098764  0.49998782  1
  Te  Te48  1  -0.00110587  0.25103163  -0.00035856  1
  Te  Te49  1  -0.00545270  0.24979990  0.49924984  1
  Te  Te50  1  0.00323403  0.74830964  -0.00208426  1
  Te  Te51  1  -0.00699045  0.75065802  0.50188387  1
  Te  Te52  1  0.50150006  0.25226410  -0.00036060  1
  Te  Te53  1  0.50935760  0.24973901  0.50108248  1
  Te  Te54  1  0.49579626  0.74826544  0.01280829  1
  Te  Te55  1  0.50607429  0.75055252  0.48953540  1
  Te  Te56  1  -0.00186895  -0.00531121  0.24697032  1
  Te  Te57  1  0.00120555  0.00160577  0.76991302  1
  Te  Te58  1  -0.00488913  0.50044851  0.25197440  1
  Te  Te59  1  0.00079347  0.49812368  0.74960163  1
  Te  Te60  1  0.50076200  -0.00161967  0.24910906  1
  Te  Te61  1  0.49971440  -0.00602518  0.76390826  1
  Te  Te62  1  0.50896388  0.49999379  0.25130046  1
  Te  Te63  1  0.49819562  0.51190823  0.75075955  1
