# generated using pymatgen
data_AgSbTe2
_symmetry_space_group_name_H-M   'P 1'
_cell_length_a   12.22466318
_cell_length_b   12.22299117
_cell_length_c   12.22748977
_cell_angle_alpha   90.00017235
_cell_angle_beta   89.99968228
_cell_angle_gamma   90.00358003
_symmetry_Int_Tables_number   1
_chemical_formula_structural   AgSbTe2
_chemical_formula_sum   'Ag16 Sb16 Te32'
_cell_volume   1827.05536302
_cell_formula_units_Z   16
loop_
 _symmetry_equiv_pos_site_id
 _symmetry_equiv_pos_as_xyz
  1  'x, y, z'
loop_
 _atom_site_type_symbol
 _atom_site_label
 _atom_site_symmetry_multiplicity
 _atom_site_fract_x
 _atom_site_fract_y
 _atom_site_fract_z
 _atom_site_occupancy
  Ag  Ag0  1  -0.00273922  0.25636759  0.24741723  1
  Ag  Ag1  1  0.75432593  0.25225036  -0.00436527  1
  Ag  Ag2  1  0.75086188  -0.00591286  0.75506907  1
  Ag  Ag3  1  0.24873658  0.74440811  0.50341330  1
  Ag  Ag4  1  0.50207282  0.74790181  0.24922969  1
  Ag  Ag5  1  0.49941966  0.50581860  0.50490612  1
  Ag  Ag6  1  -0.00231334  0.74415481  0.24925372  1
  Ag  Ag7  1  0.23716620  0.50434464  0.74739482  1
  Ag  Ag8  1  0.50551292  0.74604541  0.75075319  1
  Ag  Ag9  1  0.76318395  0.50505298  0.75285909  1
  Ag  Ag10  1  -0.00508459  0.73631103  0.75092034  1
  Ag  Ag11  1  0.00056894  0.50399001  0.51372980  1
  Ag  Ag12  1  -0.00439323  0.26457247  0.75260930  1
  Ag  Ag13  1  -0.00403038  0.50176022  -0.01323892  1
  Ag  Ag14  1  0.50588996  -0.00520444  -0.00303152  1
  Ag  Ag15  1  0.75134693  0.74874958  -0.00668394  1
  Sb  Sb16  1  0.75200085  0.74567016  0.50873836  1
  Sb  Sb17  1  0.24676652  0.25744463  0.50305354  1
  Sb  Sb18  1  0.75318186  0.25435656  0.50534880  1
  Sb  Sb19  1  0.24642540  0.50301015  0.25366910  1
  Sb  Sb20  1  0.50149815  -0.00920874  0.50294253  1
  Sb  Sb21  1  0.74952556  -0.00311973  0.24378380  1
  Sb  Sb22  1  0.50436496  0.25385435  0.24695510  1
  Sb  Sb23  1  0.50609085  0.50636623  -0.00574509  1
  Sb  Sb24  1  0.24322927  0.25304817  -0.00227037  1
  Sb  Sb25  1  0.75393182  0.50274740  0.24586237  1
  Sb  Sb26  1  0.24761856  0.74702315  -0.00379869  1
  Sb  Sb27  1  0.24992362  -0.00294066  0.24891523  1
  Sb  Sb28  1  0.24912094  -0.00500540  0.75067952  1
  Sb  Sb29  1  0.50568225  0.25442591  0.75180949  1
  Sb  Sb30  1  -0.00578365  -0.00167973  -0.00263024  1
  Sb  Sb31  1  -0.00095192  -0.00598341  0.50240646  1
  Te  Te32  1  0.23998936  0.24900135  0.25044222  1
  Te  Te33  1  0.24204328  0.25540001  0.74970534  1
  Te  Te34  1  0.24858935  0.74976727  0.25544018  1
  Te  Te35  1  0.24930885  0.74716934  0.74755638  1
  Te  Te36  1  0.75643699  0.24871066  0.24191462  1
  Te  Te37  1  0.75309757  0.25216780  0.75400223  1
  Te  Te38  1  0.75168718  0.75066473  0.24175328  1
  Te  Te39  1  0.75059575  0.74778731  0.75189201  1
  Te  Te40  1  0.26288495  0.00130634  -0.00107958  1
  Te  Te41  1  0.25086558  -0.01013682  0.50034812  1
  Te  Te42  1  0.24182910  0.49964925  -0.00843414  1
  Te  Te43  1  0.24851093  0.50490445  0.50437238  1
  Te  Te44  1  0.74658241  -0.00269528  -0.00509810  1
  Te  Te45  1  0.74911697  0.00261079  0.51196714  1
  Te  Te46  1  0.75339700  0.50164786  -0.00369605  1
  Te  Te47  1  0.75111902  0.49953092  0.50759196  1
  Te  Te48  1  -0.00394687  0.25087683  -0.00104237  1
  Te  Te49  1  0.00051179  0.25680374  0.49956172  1
  Te  Te50  1  -0.00187990  0.74886797  -0.00002181  1
  Te  Te51  1  0.00057119  0.74623400  0.49945282  1
  Te  Te52  1  0.50806641  0.24503123  0.00251050  1
  Te  Te53  1  0.49885246  0.25908564  0.49729788  1
  Te  Te54  1  0.50231296  0.74980849  -0.00074904  1
  Te  Te55  1  0.49873499  0.74620216  0.50081475  1
  Te  Te56  1  -0.00041137  -0.00257159  0.25037103  1
  Te  Te57  1  -0.00366989  -0.00086600  0.74972840  1
  Te  Te58  1  -0.00017283  0.50305099  0.25052409  1
  Te  Te59  1  -0.00181841  0.50155456  0.74986764  1
  Te  Te60  1  0.50019311  -0.00720040  0.24646483  1
  Te  Te61  1  0.50293134  -0.00411294  0.75244214  1
  Te  Te62  1  0.49949851  0.50600996  0.25601906  1
  Te  Te63  1  0.50102214  0.50312001  0.74812442  1
