# generated using pymatgen
data_AgSbTe2
_symmetry_space_group_name_H-M   'P 1'
_cell_length_a   12.29583786
_cell_length_b   12.29870454
_cell_length_c   12.28256969
_cell_angle_alpha   90.00497011
_cell_angle_beta   89.99967832
_cell_angle_gamma   90.00227536
_symmetry_Int_Tables_number   1
_chemical_formula_structural   AgSbTe2
_chemical_formula_sum   'Ag16 Sb16 Te32'
_cell_volume   1857.40551487
_cell_formula_units_Z   16
loop_
 _symmetry_equiv_pos_site_id
 _symmetry_equiv_pos_as_xyz
  1  'x, y, z'
loop_
 _atom_site_type_symbol
 _atom_site_label
 _atom_site_symmetry_multiplicity
 _atom_site_fract_x
 _atom_site_fract_y
 _atom_site_fract_z
 _atom_site_occupancy
  Ag  Ag0  1  0.25358669  0.50047223  0.25696417  1
  Ag  Ag1  1  0.25342820  0.00062688  0.26594134  1
  Ag  Ag2  1  0.74994117  0.23626671  0.51707549  1
  Ag  Ag3  1  0.75668915  0.01693709  0.73889931  1
  Ag  Ag4  1  -0.01847544  0.23737054  0.74326415  1
  Ag  Ag5  1  0.52081239  0.24227480  0.74275472  1
  Ag  Ag6  1  0.75110944  0.76397954  0.51441533  1
  Ag  Ag7  1  0.75084277  0.47885634  0.74686633  1
  Ag  Ag8  1  -0.01231253  0.76341935  0.74497201  1
  Ag  Ag9  1  -0.00182997  0.00330496  0.50874709  1
  Ag  Ag10  1  0.50118703  0.00419911  0.50585243  1
  Ag  Ag11  1  0.24980573  0.23853509  0.50762739  1
  Ag  Ag12  1  0.74918311  0.75473255  -0.01624578  1
  Ag  Ag13  1  0.24340894  0.00758020  0.73619782  1
  Ag  Ag14  1  0.74983863  0.24499078  -0.02334507  1
  Ag  Ag15  1  0.50045951  0.75552259  0.25499633  1
  Sb  Sb16  1  -0.00065977  0.75428015  0.25484431  1
  Sb  Sb17  1  0.51142581  0.75766851  0.74592295  1
  Sb  Sb18  1  0.49890806  0.24639600  0.25507678  1
  Sb  Sb19  1  0.25074133  0.75277367  -0.00300708  1
  Sb  Sb20  1  0.74645743  -0.00023275  0.25963960  1
  Sb  Sb21  1  0.25031393  0.76018945  0.50235040  1
  Sb  Sb22  1  -0.00181120  -0.00053690  -0.00973441  1
  Sb  Sb23  1  0.24927872  0.49630705  0.74479306  1
  Sb  Sb24  1  0.24924830  0.24750084  -0.00745312  1
  Sb  Sb25  1  0.00030949  0.24457767  0.25639212  1
  Sb  Sb26  1  0.74745586  0.50022701  0.25220303  1
  Sb  Sb27  1  0.50063860  0.49729063  0.50147394  1
  Sb  Sb28  1  -0.00132698  0.49971656  -0.00183242  1
  Sb  Sb29  1  0.50206785  0.00111744  -0.00533557  1
  Sb  Sb30  1  -0.00077174  0.49748837  0.50144675  1
  Sb  Sb31  1  0.50163974  0.49983668  -0.00136688  1
  Te  Te32  1  0.24970027  0.24295731  0.25118123  1
  Te  Te33  1  0.24692013  0.24898549  0.74787720  1
  Te  Te34  1  0.25118466  0.75526330  0.24971512  1
  Te  Te35  1  0.24320477  0.74917163  0.75144770  1
  Te  Te36  1  0.75037017  0.25206284  0.25015853  1
  Te  Te37  1  0.75002892  0.25012321  0.74856532  1
  Te  Te38  1  0.74844524  0.74937377  0.25101703  1
  Te  Te39  1  0.74855774  0.75495495  0.74707615  1
  Te  Te40  1  0.25006983  -0.00000187  -0.00045336  1
  Te  Te41  1  0.25191245  0.00238479  0.50577876  1
  Te  Te42  1  0.24990291  0.49977854  0.01009784  1
  Te  Te43  1  0.25022208  0.48669743  0.49741809  1
  Te  Te44  1  0.75093630  0.00089324  -0.00455037  1
  Te  Te45  1  0.74924345  0.00135600  0.50104668  1
  Te  Te46  1  0.75031626  0.49969898  -0.00435358  1
  Te  Te47  1  0.74974953  0.49822427  0.50367860  1
  Te  Te48  1  -0.00499310  0.24905502  -0.00809355  1
  Te  Te49  1  -0.00300294  0.24845669  0.50160991  1
  Te  Te50  1  -0.00885725  0.75085118  -0.00619175  1
  Te  Te51  1  -0.00426369  0.75386748  0.50342409  1
  Te  Te52  1  0.50480948  0.24931699  -0.00605981  1
  Te  Te53  1  0.50279296  0.24709579  0.50148340  1
  Te  Te54  1  0.50633150  0.75062299  0.00499046  1
  Te  Te55  1  0.50314559  0.75556730  0.49936982  1
  Te  Te56  1  0.00943487  0.00106920  0.26365639  1
  Te  Te57  1  -0.00086589  0.00037546  0.74612705  1
  Te  Te58  1  0.01016537  0.50024422  0.25028384  1
  Te  Te59  1  -0.00133657  0.50112785  0.74924212  1
  Te  Te60  1  0.49807238  -0.00254398  0.25800076  1
  Te  Te61  1  0.49891977  0.00171886  0.74619634  1
  Te  Te62  1  0.49565995  0.50581770  0.25117244  1
  Te  Te63  1  0.50163268  0.49176419  0.74869101  1
