# generated using pymatgen
data_AgSbTe2
_symmetry_space_group_name_H-M   'P 1'
_cell_length_a   12.30379343
_cell_length_b   12.30948923
_cell_length_c   12.30988527
_cell_angle_alpha   90.03235830
_cell_angle_beta   90.00280400
_cell_angle_gamma   89.99836426
_symmetry_Int_Tables_number   1
_chemical_formula_structural   AgSbTe2
_chemical_formula_sum   'Ag16 Sb16 Te32'
_cell_volume   1864.37383402
_cell_formula_units_Z   16
loop_
 _symmetry_equiv_pos_site_id
 _symmetry_equiv_pos_as_xyz
  1  'x, y, z'
loop_
 _atom_site_type_symbol
 _atom_site_label
 _atom_site_symmetry_multiplicity
 _atom_site_fract_x
 _atom_site_fract_y
 _atom_site_fract_z
 _atom_site_occupancy
  Ag  Ag0  1  0.49215284  0.00618819  -0.00095113  1
  Ag  Ag1  1  0.76425401  0.49132041  0.24722634  1
  Ag  Ag2  1  0.75860621  0.24773978  0.49958025  1
  Ag  Ag3  1  0.76484222  0.00597009  0.75697902  1
  Ag  Ag4  1  0.76862845  0.24478710  -0.00043104  1
  Ag  Ag5  1  0.00084369  0.25134347  0.23229758  1
  Ag  Ag6  1  0.23814461  0.75457272  0.50060149  1
  Ag  Ag7  1  -0.00029420  0.76521682  0.75229020  1
  Ag  Ag8  1  0.24145100  0.00725720  0.23619763  1
  Ag  Ag9  1  -0.00337411  0.23597046  0.76940253  1
  Ag  Ag10  1  0.00151407  0.48187996  0.00564071  1
  Ag  Ag11  1  0.23518194  0.00292551  0.76267517  1
  Ag  Ag12  1  0.23333307  0.23867672  0.00522795  1
  Ag  Ag13  1  0.75849500  0.75230984  0.50296067  1
  Ag  Ag14  1  0.23730222  0.49317980  0.24400008  1
  Ag  Ag15  1  0.00468791  0.01644767  -0.00947879  1
  Sb  Sb16  1  0.49988829  0.75662696  0.74957126  1
  Sb  Sb17  1  0.00051427  0.75273066  0.24811765  1
  Sb  Sb18  1  0.24696544  0.75564379  -0.00034703  1
  Sb  Sb19  1  0.50110018  0.49921403  0.49696648  1
  Sb  Sb20  1  0.50382234  0.24584359  0.75153784  1
  Sb  Sb21  1  0.49971314  0.75170762  0.24908077  1
  Sb  Sb22  1  0.00003148  0.00003599  0.50564383  1
  Sb  Sb23  1  0.49877761  0.00065528  0.49673299  1
  Sb  Sb24  1  0.75869496  0.00269007  0.24689513  1
  Sb  Sb25  1  0.75634526  0.49761804  0.75109319  1
  Sb  Sb26  1  0.24222920  0.24990596  0.49938158  1
  Sb  Sb27  1  0.49910655  0.24823398  0.24987681  1
  Sb  Sb28  1  -0.00141345  0.49960385  0.49463529  1
  Sb  Sb29  1  0.75443109  0.75198822  -0.00184991  1
  Sb  Sb30  1  0.24177263  0.49903769  0.75524716  1
  Sb  Sb31  1  0.49990323  0.49358391  0.00362513  1
  Te  Te32  1  0.24820903  0.24858790  0.25455096  1
  Te  Te33  1  0.24630407  0.24816390  0.74436969  1
  Te  Te34  1  0.24998573  0.75038052  0.25328285  1
  Te  Te35  1  0.24778023  0.75048054  0.74755333  1
  Te  Te36  1  0.75242120  0.24945224  0.24669588  1
  Te  Te37  1  0.75185134  0.24788922  0.75445373  1
  Te  Te38  1  0.75055536  0.74700865  0.25661114  1
  Te  Te39  1  0.75156259  0.75075171  0.74830301  1
  Te  Te40  1  0.24341744  0.00150573  -0.00166299  1
  Te  Te41  1  0.24967247  -0.00285289  0.50131454  1
  Te  Te42  1  0.25186543  0.49577857  0.00451998  1
  Te  Te43  1  0.25023659  0.50204643  0.49162669  1
  Te  Te44  1  0.75910295  0.00106619  0.00046716  1
  Te  Te45  1  0.75005314  -0.00145253  0.49965053  1
  Te  Te46  1  0.74642594  0.49801479  0.00467882  1
  Te  Te47  1  0.75017822  0.50012522  0.49590362  1
  Te  Te48  1  0.00234982  0.25252204  0.00197106  1
  Te  Te49  1  -0.00644839  0.24956143  0.49900990  1
  Te  Te50  1  -0.00016358  0.74939297  -0.00693356  1
  Te  Te51  1  -0.00069967  0.74931171  0.50575854  1
  Te  Te52  1  0.49733315  0.24496254  -0.00040275  1
  Te  Te53  1  0.52061339  0.25078882  0.50057939  1
  Te  Te54  1  0.50132355  0.76130315  0.00036354  1
  Te  Te55  1  0.50543120  0.74925361  0.49977105  1
  Te  Te56  1  0.00509133  0.00083361  0.24276192  1
  Te  Te57  1  -0.00071843  0.00170461  0.74933168  1
  Te  Te58  1  0.00003134  0.50301372  0.24537028  1
  Te  Te59  1  0.00092651  0.49633902  0.76098332  1
  Te  Te60  1  0.48552442  -0.00019176  0.24493428  1
  Te  Te61  1  0.49773581  0.00052757  0.75433839  1
  Te  Te62  1  0.49637993  0.50126377  0.25053569  1
  Te  Te63  1  0.49801677  0.50156162  0.74888148  1
