# generated using pymatgen
data_AgSbTe2
_symmetry_space_group_name_H-M   'P 1'
_cell_length_a   12.21019148
_cell_length_b   12.22458060
_cell_length_c   12.21897328
_cell_angle_alpha   89.99716835
_cell_angle_beta   90.00373535
_cell_angle_gamma   90.00213258
_symmetry_Int_Tables_number   1
_chemical_formula_structural   AgSbTe2
_chemical_formula_sum   'Ag16 Sb16 Te32'
_cell_volume   1823.85856039
_cell_formula_units_Z   16
loop_
 _symmetry_equiv_pos_site_id
 _symmetry_equiv_pos_as_xyz
  1  'x, y, z'
loop_
 _atom_site_type_symbol
 _atom_site_label
 _atom_site_symmetry_multiplicity
 _atom_site_fract_x
 _atom_site_fract_y
 _atom_site_fract_z
 _atom_site_occupancy
  Ag  Ag0  1  0.75554869  0.25441980  0.49382412  1
  Ag  Ag1  1  0.24789750  0.74578192  0.49896229  1
  Ag  Ag2  1  -0.00459853  0.49648160  0.00477897  1
  Ag  Ag3  1  -0.00331865  0.74957685  0.24791103  1
  Ag  Ag4  1  -0.00206075  0.25461871  0.75210189  1
  Ag  Ag5  1  0.50031064  0.50164970  0.50045564  1
  Ag  Ag6  1  0.24618543  0.50133391  0.74683297  1
  Ag  Ag7  1  0.75784868  0.49642499  0.24983537  1
  Ag  Ag8  1  0.75546612  0.74860269  0.00430872  1
  Ag  Ag9  1  -0.00399625  0.00244900  0.00745290  1
  Ag  Ag10  1  0.23980551  -0.00093780  0.25010350  1
  Ag  Ag11  1  -0.00699440  0.25104772  0.24666898  1
  Ag  Ag12  1  0.75919374  0.00321604  0.24678933  1
  Ag  Ag13  1  -0.00145843  0.49795224  0.49575332  1
  Ag  Ag14  1  0.49952558  0.74585712  0.74809812  1
  Ag  Ag15  1  0.75825004  0.25150400  0.00638132  1
  Sb  Sb16  1  0.50385895  -0.00135025  0.00191447  1
  Sb  Sb17  1  0.24440211  0.25352743  0.49801562  1
  Sb  Sb18  1  0.75243138  0.74555033  0.49560010  1
  Sb  Sb19  1  0.24461656  0.74918075  0.00165330  1
  Sb  Sb20  1  0.50799456  0.25190528  0.25101783  1
  Sb  Sb21  1  0.24528448  -0.00110936  0.74938095  1
  Sb  Sb22  1  -0.00006095  0.74550054  0.75093730  1
  Sb  Sb23  1  0.50220709  0.74778311  0.25111193  1
  Sb  Sb24  1  0.75409893  -0.00013377  0.75241069  1
  Sb  Sb25  1  0.24047768  0.50080091  0.25222103  1
  Sb  Sb26  1  0.50154555  0.25372148  0.74830371  1
  Sb  Sb27  1  0.23960780  0.25065145  0.00159970  1
  Sb  Sb28  1  0.75355518  0.49948607  0.75008615  1
  Sb  Sb29  1  0.50173451  -0.00093312  0.49870287  1
  Sb  Sb30  1  0.50408706  0.50158754  -0.00037340  1
  Sb  Sb31  1  -0.00130815  0.00198436  0.49142965  1
  Te  Te32  1  0.24316072  0.24489992  0.25055151  1
  Te  Te33  1  0.24510532  0.25412461  0.74986566  1
  Te  Te34  1  0.24637835  0.75240649  0.25297615  1
  Te  Te35  1  0.25172074  0.74721778  0.74667929  1
  Te  Te36  1  0.75281742  0.25093742  0.24949847  1
  Te  Te37  1  0.75436314  0.24971181  0.74989739  1
  Te  Te38  1  0.75313676  0.74978868  0.24803422  1
  Te  Te39  1  0.74691530  0.75084084  0.75464107  1
  Te  Te40  1  0.24529878  -0.00008904  0.00591861  1
  Te  Te41  1  0.25055019  -0.00628832  0.49529508  1
  Te  Te42  1  0.24566760  0.50037156  -0.00441278  1
  Te  Te43  1  0.24834551  0.50297370  0.50116447  1
  Te  Te44  1  0.75323270  -0.00003590  0.00360859  1
  Te  Te45  1  0.74977176  0.00573693  0.49357829  1
  Te  Te46  1  0.75339676  0.49997718  0.00183727  1
  Te  Te47  1  0.75340788  0.49837793  0.49825937  1
  Te  Te48  1  -0.00331255  0.25254797  0.00284370  1
  Te  Te49  1  -0.00330396  0.25292521  0.49909313  1
  Te  Te50  1  -0.00378606  0.74859490  0.00195036  1
  Te  Te51  1  0.00193023  0.74576096  0.49829523  1
  Te  Te52  1  0.51174041  0.25045264  -0.00129965  1
  Te  Te53  1  0.50687445  0.25650300  0.50149204  1
  Te  Te54  1  0.50701652  0.74916720  -0.00449408  1
  Te  Te55  1  0.49795106  0.74523676  0.50275758  1
  Te  Te56  1  -0.00213261  -0.00038981  0.24870849  1
  Te  Te57  1  0.00066081  0.00731830  0.75849848  1
  Te  Te58  1  -0.00161996  0.49978744  0.24956749  1
  Te  Te59  1  0.00275302  0.49702936  0.74957981  1
  Te  Te60  1  0.49988574  0.00033387  0.24996288  1
  Te  Te61  1  0.49837152  -0.00728683  0.74994218  1
  Te  Te62  1  0.50651846  0.49970226  0.25514237  1
  Te  Te63  1  0.49504636  0.50323394  0.74629697  1
