# generated using pymatgen
data_AgSbTe2
_symmetry_space_group_name_H-M   'P 1'
_cell_length_a   12.21676389
_cell_length_b   12.21454733
_cell_length_c   12.20977363
_cell_angle_alpha   90.00161242
_cell_angle_beta   90.00162135
_cell_angle_gamma   89.99939783
_symmetry_Int_Tables_number   1
_chemical_formula_structural   AgSbTe2
_chemical_formula_sum   'Ag16 Sb16 Te32'
_cell_volume   1821.96977921
_cell_formula_units_Z   16
loop_
 _symmetry_equiv_pos_site_id
 _symmetry_equiv_pos_as_xyz
  1  'x, y, z'
loop_
 _atom_site_type_symbol
 _atom_site_label
 _atom_site_symmetry_multiplicity
 _atom_site_fract_x
 _atom_site_fract_y
 _atom_site_fract_z
 _atom_site_occupancy
  Ag  Ag0  1  0.74772637  -0.00290588  0.24973570  1
  Ag  Ag1  1  0.75027237  0.50320742  0.25011117  1
  Ag  Ag2  1  -0.00089802  0.25349083  0.74635225  1
  Ag  Ag3  1  0.74865846  0.74671279  0.49686304  1
  Ag  Ag4  1  0.25176945  0.74946324  0.49898357  1
  Ag  Ag5  1  -0.00326061  0.49804349  0.50039685  1
  Ag  Ag6  1  0.50059465  0.74920999  0.75558037  1
  Ag  Ag7  1  0.50287770  0.50753245  -0.00140021  1
  Ag  Ag8  1  0.25298643  -0.00238709  0.24986599  1
  Ag  Ag9  1  0.50067081  0.25082850  0.74948977  1
  Ag  Ag10  1  0.25727062  0.74980260  0.00038670  1
  Ag  Ag11  1  0.74331095  0.74687395  0.00204389  1
  Ag  Ag12  1  -0.00306009  0.50157338  -0.00015890  1
  Ag  Ag13  1  0.75147749  0.25324490  0.50036571  1
  Ag  Ag14  1  0.50073451  -0.00678144  0.00050259  1
  Ag  Ag15  1  0.24873747  0.25092753  0.50137874  1
  Sb  Sb16  1  -0.00038341  0.25240118  0.25391008  1
  Sb  Sb17  1  -0.00101188  -0.00223253  0.00060993  1
  Sb  Sb18  1  0.25267921  -0.00088290  0.75044920  1
  Sb  Sb19  1  0.74884058  0.25367531  -0.00001656  1
  Sb  Sb20  1  0.25110018  0.24979410  -0.00080836  1
  Sb  Sb21  1  0.50059049  -0.00144575  0.49828288  1
  Sb  Sb22  1  0.25106320  0.50257199  0.25064621  1
  Sb  Sb23  1  0.74723697  -0.00059605  0.75115686  1
  Sb  Sb24  1  0.50074973  0.25000529  0.25126569  1
  Sb  Sb25  1  -0.00040563  0.00264448  0.49959873  1
  Sb  Sb26  1  0.50447154  0.50215592  0.50126116  1
  Sb  Sb27  1  0.25061699  0.50004828  0.74927326  1
  Sb  Sb28  1  0.50210167  0.75033714  0.24275172  1
  Sb  Sb29  1  -0.00041374  0.74608658  0.74944936  1
  Sb  Sb30  1  -0.00203669  0.74853227  0.25078252  1
  Sb  Sb31  1  0.74981044  0.50009369  0.75040279  1
  Te  Te32  1  0.25047828  0.24412889  0.25705342  1
  Te  Te33  1  0.25261548  0.24914270  0.74381963  1
  Te  Te34  1  0.24961194  0.75410122  0.25272781  1
  Te  Te35  1  0.25401008  0.75085526  0.74859524  1
  Te  Te36  1  0.74926637  0.24865772  0.25612402  1
  Te  Te37  1  0.74765079  0.24874962  0.74383117  1
  Te  Te38  1  0.75004277  0.75050243  0.25210057  1
  Te  Te39  1  0.74614799  0.75138346  0.74914445  1
  Te  Te40  1  0.25159509  -0.00400051  0.00507647  1
  Te  Te41  1  0.25035565  -0.00288753  0.49418191  1
  Te  Te42  1  0.24958176  0.50485247  0.00346022  1
  Te  Te43  1  0.24568998  0.50182220  0.49653460  1
  Te  Te44  1  0.74834537  -0.00402824  0.00557099  1
  Te  Te45  1  0.74940692  -0.00243515  0.49321664  1
  Te  Te46  1  0.75043995  0.50184273  0.00350541  1
  Te  Te47  1  0.75114536  0.50179364  0.49604666  1
  Te  Te48  1  0.00089578  0.25707735  -0.00725895  1
  Te  Te49  1  -0.00048664  0.25286962  0.50334911  1
  Te  Te50  1  -0.00038452  0.74463935  -0.00363088  1
  Te  Te51  1  -0.00026694  0.74442563  0.50350547  1
  Te  Te52  1  0.49934175  0.25017303  -0.00742313  1
  Te  Te53  1  0.49982469  0.25001900  0.50650298  1
  Te  Te54  1  0.50031481  0.74926427  -0.00245498  1
  Te  Te55  1  0.49953178  0.74923481  0.50828013  1
  Te  Te56  1  -0.00163188  0.00127507  0.24859090  1
  Te  Te57  1  -0.00012875  0.01113469  0.75136186  1
  Te  Te58  1  -0.00601833  0.49919097  0.24921027  1
  Te  Te59  1  0.00025933  0.49474300  0.74965889  1
  Te  Te60  1  0.50109440  0.00118972  0.24400721  1
  Te  Te61  1  0.50022529  0.00007479  0.75750656  1
  Te  Te62  1  0.50633781  0.49819760  0.24213846  1
  Te  Te63  1  0.49982942  0.49998454  0.75615418  1
