# generated using pymatgen
data_AgSbTe2
_symmetry_space_group_name_H-M   'P 1'
_cell_length_a   12.21722820
_cell_length_b   12.21429106
_cell_length_c   12.22161393
_cell_angle_alpha   90.00107155
_cell_angle_beta   90.00262770
_cell_angle_gamma   90.00234984
_symmetry_Int_Tables_number   1
_chemical_formula_structural   AgSbTe2
_chemical_formula_sum   'Ag16 Sb16 Te32'
_cell_volume   1823.76766073
_cell_formula_units_Z   16
loop_
 _symmetry_equiv_pos_site_id
 _symmetry_equiv_pos_as_xyz
  1  'x, y, z'
loop_
 _atom_site_type_symbol
 _atom_site_label
 _atom_site_symmetry_multiplicity
 _atom_site_fract_x
 _atom_site_fract_y
 _atom_site_fract_z
 _atom_site_occupancy
  Ag  Ag0  1  0.49580029  0.24337998  0.75093961  1
  Ag  Ag1  1  0.24257072  0.75513457  0.49951189  1
  Ag  Ag2  1  0.74992487  -0.00237456  0.24921347  1
  Ag  Ag3  1  0.49929178  0.24437954  0.24851865  1
  Ag  Ag4  1  0.75115800  0.50200047  0.25234824  1
  Ag  Ag5  1  0.00151312  -0.00069305  -0.00227644  1
  Ag  Ag6  1  0.00198087  0.75806530  0.74313604  1
  Ag  Ag7  1  0.49824782  0.00369968  0.00192188  1
  Ag  Ag8  1  0.00356305  -0.00556923  0.50231473  1
  Ag  Ag9  1  0.50192978  0.75527453  0.25111926  1
  Ag  Ag10  1  0.25302444  0.24258591  -0.00118589  1
  Ag  Ag11  1  -0.00106090  0.75477694  0.25664830  1
  Ag  Ag12  1  0.24956492  0.24454149  0.50139883  1
  Ag  Ag13  1  0.75434560  -0.00011525  0.75054563  1
  Ag  Ag14  1  0.00144794  0.50544797  0.49797145  1
  Ag  Ag15  1  0.24648878  0.00229200  0.74881859  1
  Sb  Sb16  1  0.49875885  0.75829189  0.74827704  1
  Sb  Sb17  1  0.24848751  0.49783509  0.74741398  1
  Sb  Sb18  1  0.74722892  0.24449268  0.00030306  1
  Sb  Sb19  1  0.75313166  0.49995624  0.74718377  1
  Sb  Sb20  1  0.49979593  0.50076489  0.49763474  1
  Sb  Sb21  1  0.00405934  0.24020884  0.74894788  1
  Sb  Sb22  1  0.24725180  0.50043353  0.25196815  1
  Sb  Sb23  1  0.25000618  0.00003969  0.25194529  1
  Sb  Sb24  1  -0.00008107  0.24435050  0.25115703  1
  Sb  Sb25  1  0.49630990  0.00029847  0.49702782  1
  Sb  Sb26  1  0.75046832  0.24680051  0.49951218  1
  Sb  Sb27  1  0.49941670  0.49656125  0.00292370  1
  Sb  Sb28  1  0.75832977  0.75269654  0.49693357  1
  Sb  Sb29  1  0.00046816  0.50111837  0.00196155  1
  Sb  Sb30  1  0.24927302  0.75781856  -0.00040497  1
  Sb  Sb31  1  0.75060118  0.75447212  0.00266817  1
  Te  Te32  1  0.25580072  0.25085060  0.25200412  1
  Te  Te33  1  0.25270856  0.24665869  0.74773842  1
  Te  Te34  1  0.24886555  0.74912183  0.25438465  1
  Te  Te35  1  0.24754830  0.75394220  0.74610481  1
  Te  Te36  1  0.74415719  0.24646647  0.25056404  1
  Te  Te37  1  0.74305641  0.24452057  0.74950661  1
  Te  Te38  1  0.74944441  0.75409312  0.25068666  1
  Te  Te39  1  0.75279048  0.75577752  0.74963091  1
  Te  Te40  1  0.24988952  0.00349864  -0.00394379  1
  Te  Te41  1  0.24715022  0.00075627  0.50249122  1
  Te  Te42  1  0.24871276  0.48866193  -0.00032680  1
  Te  Te43  1  0.24353324  0.49948887  0.50040442  1
  Te  Te44  1  0.75109001  0.00089808  0.00056196  1
  Te  Te45  1  0.75654990  0.00177554  0.49956201  1
  Te  Te46  1  0.75147414  0.49857494  0.00856693  1
  Te  Te47  1  0.75704801  0.49779458  0.49443123  1
  Te  Te48  1  0.00730104  0.24406974  -0.00023110  1
  Te  Te49  1  0.00709564  0.24844919  0.50000271  1
  Te  Te50  1  0.00191908  0.75494672  0.00200557  1
  Te  Te51  1  0.00288095  0.75331600  0.49809453  1
  Te  Te52  1  0.49616672  0.24655523  0.00192962  1
  Te  Te53  1  0.49278954  0.25004479  0.49857478  1
  Te  Te54  1  0.49732005  0.75553695  0.00612682  1
  Te  Te55  1  0.49017015  0.74912444  0.49501241  1
  Te  Te56  1  -0.00301821  -0.00209027  0.24967314  1
  Te  Te57  1  -0.00051084  -0.00154119  0.75022110  1
  Te  Te58  1  -0.00415125  0.50513527  0.25296128  1
  Te  Te59  1  -0.00311807  0.50920214  0.74564649  1
  Te  Te60  1  0.50262083  0.00020099  0.24886655  1
  Te  Te61  1  0.50018724  0.00169960  0.75244219  1
  Te  Te62  1  0.50619020  0.50100558  0.24967549  1
  Te  Te63  1  0.50304030  0.49249954  0.75023384  1
