# generated using pymatgen
data_AgSbTe2
_symmetry_space_group_name_H-M   'P 1'
_cell_length_a   12.21628902
_cell_length_b   12.21359121
_cell_length_c   12.21922780
_cell_angle_alpha   90.00687696
_cell_angle_beta   89.99917813
_cell_angle_gamma   90.00898096
_symmetry_Int_Tables_number   1
_chemical_formula_structural   AgSbTe2
_chemical_formula_sum   'Ag16 Sb16 Te32'
_cell_volume   1823.16691839
_cell_formula_units_Z   16
loop_
 _symmetry_equiv_pos_site_id
 _symmetry_equiv_pos_as_xyz
  1  'x, y, z'
loop_
 _atom_site_type_symbol
 _atom_site_label
 _atom_site_symmetry_multiplicity
 _atom_site_fract_x
 _atom_site_fract_y
 _atom_site_fract_z
 _atom_site_occupancy
  Ag  Ag0  1  0.00309372  0.75240727  0.74630906  1
  Ag  Ag1  1  0.50230533  -0.00092178  -0.00444487  1
  Ag  Ag2  1  0.49675943  0.75722039  0.74509482  1
  Ag  Ag3  1  0.25037008  0.25430623  0.50072736  1
  Ag  Ag4  1  0.74755719  0.00150807  0.25275033  1
  Ag  Ag5  1  0.24942803  0.49983605  0.26020890  1
  Ag  Ag6  1  0.49919591  0.24270872  0.74453385  1
  Ag  Ag7  1  0.25267204  0.74579810  0.50301922  1
  Ag  Ag8  1  0.00100322  0.24845834  0.25478305  1
  Ag  Ag9  1  0.74868238  0.24516489  0.50061748  1
  Ag  Ag10  1  -0.00226226  0.00019601  -0.00153278  1
  Ag  Ag11  1  0.50207857  -0.00036452  0.50465105  1
  Ag  Ag12  1  0.74413902  0.00052177  0.74739065  1
  Ag  Ag13  1  0.25008077  0.50225908  0.74015676  1
  Ag  Ag14  1  0.49756462  0.75457658  0.25468171  1
  Ag  Ag15  1  0.00743391  0.49841394  0.50069096  1
  Sb  Sb16  1  0.49212088  0.50096430  0.50038256  1
  Sb  Sb17  1  0.25189772  -0.00045318  0.25325246  1
  Sb  Sb18  1  0.49910750  0.24556261  0.25582484  1
  Sb  Sb19  1  0.25100539  0.75080874  -0.00382407  1
  Sb  Sb20  1  0.74943809  0.49857590  0.74492297  1
  Sb  Sb21  1  0.74953728  0.75450989  -0.00098915  1
  Sb  Sb22  1  0.74948664  0.24485129  -0.00073545  1
  Sb  Sb23  1  0.75008658  0.49815210  0.25591841  1
  Sb  Sb24  1  0.49818950  0.49996255  -0.00088739  1
  Sb  Sb25  1  0.00234320  0.75137134  0.25312034  1
  Sb  Sb26  1  -0.00225499  0.00049373  0.50130752  1
  Sb  Sb27  1  0.25073687  0.24872196  -0.00144342  1
  Sb  Sb28  1  0.25648347  -0.00234849  0.74667141  1
  Sb  Sb29  1  0.00210543  0.49974797  -0.00069791  1
  Sb  Sb30  1  0.74621058  0.75464794  0.50119844  1
  Sb  Sb31  1  0.00147708  0.24711371  0.74569054  1
  Te  Te32  1  0.24802343  0.25420817  0.25525218  1
  Te  Te33  1  0.25235139  0.25500517  0.74488691  1
  Te  Te34  1  0.25311316  0.74614237  0.25564854  1
  Te  Te35  1  0.25171474  0.74751315  0.74622686  1
  Te  Te36  1  0.75171313  0.24634348  0.25578251  1
  Te  Te37  1  0.74690125  0.24660657  0.74432016  1
  Te  Te38  1  0.74469024  0.75552389  0.25129135  1
  Te  Te39  1  0.74812711  0.75430439  0.74857072  1
  Te  Te40  1  0.24996728  0.00045280  0.00117426  1
  Te  Te41  1  0.25471794  0.00058753  0.49935939  1
  Te  Te42  1  0.24960244  0.49966195  0.00048580  1
  Te  Te43  1  0.24839665  0.49960523  0.50050812  1
  Te  Te44  1  0.74864876  0.00115196  -0.00065021  1
  Te  Te45  1  0.74716588  0.00347748  0.50066802  1
  Te  Te46  1  0.75109546  0.49844413  0.00037908  1
  Te  Te47  1  0.76006413  0.49119897  0.49991571  1
  Te  Te48  1  0.00051161  0.24399756  0.00673153  1
  Te  Te49  1  0.00298320  0.25065055  0.49771165  1
  Te  Te50  1  -0.00014363  0.75632679  -0.00583991  1
  Te  Te51  1  0.00403718  0.74822701  0.50364878  1
  Te  Te52  1  0.49938459  0.24342423  -0.00736075  1
  Te  Te53  1  0.49864409  0.24845794  0.50268298  1
  Te  Te54  1  0.49988770  0.75638107  -0.00193010  1
  Te  Te55  1  0.49766616  0.75145283  0.50221482  1
  Te  Te56  1  -0.00420309  0.00166407  0.24807047  1
  Te  Te57  1  -0.00480574  -0.00226553  0.75226832  1
  Te  Te58  1  0.00280372  0.49844065  0.25140518  1
  Te  Te59  1  0.00305054  0.50319952  0.74830287  1
  Te  Te60  1  0.50288748  -0.00221772  0.25031871  1
  Te  Te61  1  0.50038591  -0.00147936  0.74888089  1
  Te  Te62  1  0.49559695  0.50624554  0.24813566  1
  Te  Te63  1  0.49694715  0.50249611  0.75158983  1
