# generated using pymatgen
data_AgSbTe2
_symmetry_space_group_name_H-M   'P 1'
_cell_length_a   12.21332004
_cell_length_b   12.22354862
_cell_length_c   12.22624296
_cell_angle_alpha   90.00503552
_cell_angle_beta   89.99597992
_cell_angle_gamma   90.00273264
_symmetry_Int_Tables_number   1
_chemical_formula_structural   AgSbTe2
_chemical_formula_sum   'Ag16 Sb16 Te32'
_cell_volume   1825.25716001
_cell_formula_units_Z   16
loop_
 _symmetry_equiv_pos_site_id
 _symmetry_equiv_pos_as_xyz
  1  'x, y, z'
loop_
 _atom_site_type_symbol
 _atom_site_label
 _atom_site_symmetry_multiplicity
 _atom_site_fract_x
 _atom_site_fract_y
 _atom_site_fract_z
 _atom_site_occupancy
  Ag  Ag0  1  0.50177832  0.24464509  0.24991099  1
  Ag  Ag1  1  0.25637094  0.49610481  0.75065389  1
  Ag  Ag2  1  0.50214009  0.00672489  0.49800008  1
  Ag  Ag3  1  0.74211360  0.00123310  0.24584299  1
  Ag  Ag4  1  -0.00058123  0.24693887  0.74889469  1
  Ag  Ag5  1  0.26064258  0.75071476  -0.00065628  1
  Ag  Ag6  1  0.74172728  0.24363284  -0.00261731  1
  Ag  Ag7  1  0.50000304  0.49980043  -0.00169004  1
  Ag  Ag8  1  0.25751178  0.24887700  0.50359979  1
  Ag  Ag9  1  0.49782111  0.49275843  0.50256773  1
  Ag  Ag10  1  -0.00184926  0.00415890  0.50247427  1
  Ag  Ag11  1  0.73997376  0.75643125  0.00082913  1
  Ag  Ag12  1  0.74463177  0.00429165  0.75378218  1
  Ag  Ag13  1  0.50053720  0.24856845  0.74979899  1
  Ag  Ag14  1  0.50682596  0.00052758  0.00262089  1
  Ag  Ag15  1  0.50192675  0.75524390  0.24332478  1
  Sb  Sb16  1  0.74464805  0.75449743  0.49976863  1
  Sb  Sb17  1  0.26010188  0.00033065  0.24975254  1
  Sb  Sb18  1  0.26034227  0.24965828  -0.00318909  1
  Sb  Sb19  1  0.74440596  0.49811969  0.24819310  1
  Sb  Sb20  1  0.00327722  0.49424631  0.50435610  1
  Sb  Sb21  1  0.25569337  0.49909608  0.24886850  1
  Sb  Sb22  1  -0.00286178  0.24511586  0.25174757  1
  Sb  Sb23  1  0.74294646  0.49522815  0.75280415  1
  Sb  Sb24  1  0.74119032  0.24577141  0.50277538  1
  Sb  Sb25  1  -0.00079433  0.75400561  0.75041059  1
  Sb  Sb26  1  -0.00715401  0.00212812  -0.00285205  1
  Sb  Sb27  1  -0.00256405  0.75496165  0.24868612  1
  Sb  Sb28  1  0.00128899  0.49740370  -0.00319120  1
  Sb  Sb29  1  0.25532844  0.75070549  0.50097092  1
  Sb  Sb30  1  0.50038768  0.75249294  0.75847347  1
  Sb  Sb31  1  0.25534737  0.00344284  0.75069853  1
  Te  Te32  1  0.25494779  0.24999501  0.25580655  1
  Te  Te33  1  0.25297821  0.25217637  0.74807254  1
  Te  Te34  1  0.25532640  0.75002901  0.24365547  1
  Te  Te35  1  0.24880494  0.74336735  0.75503443  1
  Te  Te36  1  0.74563402  0.24613872  0.24447147  1
  Te  Te37  1  0.74691035  0.24667550  0.75242786  1
  Te  Te38  1  0.74545705  0.75439089  0.24439645  1
  Te  Te39  1  0.75153779  0.75650350  0.75651788  1
  Te  Te40  1  0.25491319  -0.00429305  -0.00077989  1
  Te  Te41  1  0.25310443  0.00259428  0.50011421  1
  Te  Te42  1  0.25499149  0.50218950  -0.00366713  1
  Te  Te43  1  0.25508533  0.49718255  0.50432107  1
  Te  Te44  1  0.74825032  0.00073895  -0.00084426  1
  Te  Te45  1  0.74583276  0.00010800  0.50130749  1
  Te  Te46  1  0.74420842  0.50075783  -0.00110263  1
  Te  Te47  1  0.74233818  0.50243000  0.50073708  1
  Te  Te48  1  -0.00639600  0.25030684  -0.00453739  1
  Te  Te49  1  0.00543272  0.24659243  0.50328359  1
  Te  Te50  1  -0.00022287  0.74942654  0.00048251  1
  Te  Te51  1  0.00148670  0.75733772  0.49945791  1
  Te  Te52  1  0.50055254  0.24909330  -0.00039717  1
  Te  Te53  1  0.49974925  0.24831397  0.50049737  1
  Te  Te54  1  0.50126870  0.75068078  0.00097613  1
  Te  Te55  1  0.49910711  0.75153615  0.49217714  1
  Te  Te56  1  -0.01013112  0.00075828  0.25712343  1
  Te  Te57  1  -0.00418705  0.00521840  0.74602984  1
  Te  Te58  1  -0.00068094  0.50035449  0.25144074  1
  Te  Te59  1  0.00606859  0.49235042  0.74904844  1
  Te  Te60  1  0.50290614  0.00172201  0.24943174  1
  Te  Te61  1  0.50251826  0.00243372  0.74946524  1
  Te  Te62  1  0.50069003  0.49844459  0.24893013  1
  Te  Te63  1  0.49835974  0.49658978  0.75051173  1
