# generated using pymatgen
data_AgSbTe2
_symmetry_space_group_name_H-M   'P 1'
_cell_length_a   12.21488995
_cell_length_b   12.23655770
_cell_length_c   12.24011812
_cell_angle_alpha   90.00136846
_cell_angle_beta   90.00329360
_cell_angle_gamma   90.00138718
_symmetry_Int_Tables_number   1
_chemical_formula_structural   AgSbTe2
_chemical_formula_sum   'Ag16 Sb16 Te32'
_cell_volume   1829.50848786
_cell_formula_units_Z   16
loop_
 _symmetry_equiv_pos_site_id
 _symmetry_equiv_pos_as_xyz
  1  'x, y, z'
loop_
 _atom_site_type_symbol
 _atom_site_label
 _atom_site_symmetry_multiplicity
 _atom_site_fract_x
 _atom_site_fract_y
 _atom_site_fract_z
 _atom_site_occupancy
  Ag  Ag0  1  0.74802280  0.49694840  0.74742557  1
  Ag  Ag1  1  0.25313341  0.75494409  0.50036578  1
  Ag  Ag2  1  0.49080009  0.24599376  0.25340954  1
  Ag  Ag3  1  0.01013739  0.75062834  0.25059010  1
  Ag  Ag4  1  0.25415652  0.24500021  0.50205035  1
  Ag  Ag5  1  0.25478694  0.00171410  0.74895818  1
  Ag  Ag6  1  0.49069762  0.75268127  0.74906252  1
  Ag  Ag7  1  0.25187047  0.49756963  0.74860660  1
  Ag  Ag8  1  0.49089240  0.00096114  -0.00135882  1
  Ag  Ag9  1  0.25275710  0.75523158  -0.00035084  1
  Ag  Ag10  1  0.74713567  0.24953415  0.50312120  1
  Ag  Ag11  1  0.25300791  0.24463933  -0.00216807  1
  Ag  Ag12  1  0.00868841  0.25054268  0.74805303  1
  Ag  Ag13  1  0.25446204  0.00061864  0.25104374  1
  Ag  Ag14  1  0.25129621  0.50021108  0.25153226  1
  Ag  Ag15  1  0.49145339  0.00336003  0.50058741  1
  Sb  Sb16  1  0.00503385  0.49902825  0.50075038  1
  Sb  Sb17  1  0.49120385  0.75330555  0.25129309  1
  Sb  Sb18  1  0.00533956  0.49967817  -0.00055852  1
  Sb  Sb19  1  0.74645813  0.24904152  -0.00339032  1
  Sb  Sb20  1  0.01077900  0.00082463  0.50019091  1
  Sb  Sb21  1  0.00987224  0.24925000  0.25161798  1
  Sb  Sb22  1  0.74799276  0.49752728  0.25264527  1
  Sb  Sb23  1  0.74621092  0.00110142  0.25268535  1
  Sb  Sb24  1  0.01114862  0.00040883  -0.00038406  1
  Sb  Sb25  1  0.49171163  0.24742445  0.74773888  1
  Sb  Sb26  1  0.00973017  0.74926008  0.74985482  1
  Sb  Sb27  1  0.49430770  0.49914430  -0.00152865  1
  Sb  Sb28  1  0.74642200  0.75047291  0.50240533  1
  Sb  Sb29  1  0.49519932  0.49661934  0.50124370  1
  Sb  Sb30  1  0.74667657  0.75124968  -0.00226521  1
  Sb  Sb31  1  0.74661009  0.00223527  0.74731616  1
  Te  Te32  1  0.25077796  0.24947416  0.25115613  1
  Te  Te33  1  0.25025846  0.25099180  0.74897054  1
  Te  Te34  1  0.25043457  0.74952115  0.25047109  1
  Te  Te35  1  0.25098461  0.74944916  0.74950991  1
  Te  Te36  1  0.74631063  0.25236405  0.25443107  1
  Te  Te37  1  0.75456828  0.25356970  0.74705619  1
  Te  Te38  1  0.75927328  0.74732983  0.25045489  1
  Te  Te39  1  0.74622845  0.74537765  0.74931250  1
  Te  Te40  1  0.25326493  0.00049271  -0.00061705  1
  Te  Te41  1  0.25278267  0.00100924  0.50064896  1
  Te  Te42  1  0.25118379  0.49967140  -0.00132946  1
  Te  Te43  1  0.25077148  0.49935684  0.50111643  1
  Te  Te44  1  0.73741133  -0.00015546  0.00032295  1
  Te  Te45  1  0.73952804  0.00533841  0.49981808  1
  Te  Te46  1  0.74934577  0.50003100  -0.00821882  1
  Te  Te47  1  0.74919316  0.49449953  0.50556752  1
  Te  Te48  1  0.00494406  0.24917722  -0.00441840  1
  Te  Te49  1  0.00122371  0.24920345  0.50337388  1
  Te  Te50  1  0.00551117  0.75082490  0.00324451  1
  Te  Te51  1  0.00488753  0.75091597  0.49668250  1
  Te  Te52  1  0.49507929  0.24515236  0.00400597  1
  Te  Te53  1  0.49457495  0.24653123  0.49823925  1
  Te  Te54  1  0.49564230  0.75485991  -0.00231540  1
  Te  Te55  1  0.49571187  0.75591541  0.50207902  1
  Te  Te56  1  0.00479955  -0.00299050  0.24961460  1
  Te  Te57  1  0.00405469  0.00410597  0.75042954  1
  Te  Te58  1  0.00627738  0.50358186  0.24946815  1
  Te  Te59  1  0.00409004  0.49678645  0.75028181  1
  Te  Te60  1  0.49651788  0.00233655  0.25148289  1
  Te  Te61  1  0.49599312  -0.00229724  0.74920342  1
  Te  Te62  1  0.49523933  0.49468211  0.24926511  1
  Te  Te63  1  0.49514093  0.50574308  0.75014856  1
