# generated using pymatgen
data_AgSbTe2
_symmetry_space_group_name_H-M   'P 1'
_cell_length_a   12.22009507
_cell_length_b   12.21806977
_cell_length_c   12.22943894
_cell_angle_alpha   90.00147999
_cell_angle_beta   90.00275864
_cell_angle_gamma   90.00033492
_symmetry_Int_Tables_number   1
_chemical_formula_structural   AgSbTe2
_chemical_formula_sum   'Ag16 Sb16 Te32'
_cell_volume   1825.92829131
_cell_formula_units_Z   16
loop_
 _symmetry_equiv_pos_site_id
 _symmetry_equiv_pos_as_xyz
  1  'x, y, z'
loop_
 _atom_site_type_symbol
 _atom_site_label
 _atom_site_symmetry_multiplicity
 _atom_site_fract_x
 _atom_site_fract_y
 _atom_site_fract_z
 _atom_site_occupancy
  Ag  Ag0  1  -0.00996196  -0.00455365  0.50095883  1
  Ag  Ag1  1  0.75206563  0.75676166  0.49682005  1
  Ag  Ag2  1  -0.00645977  0.24704794  0.74904106  1
  Ag  Ag3  1  0.75166610  0.75056749  0.00273874  1
  Ag  Ag4  1  0.24880577  0.75127789  0.50052936  1
  Ag  Ag5  1  0.50581628  0.24962085  0.25092791  1
  Ag  Ag6  1  0.50516372  0.25193020  0.74943576  1
  Ag  Ag7  1  -0.00800046  0.75353631  0.25330608  1
  Ag  Ag8  1  0.75210084  -0.00019006  0.74430851  1
  Ag  Ag9  1  0.50604054  0.49941158  -0.00293818  1
  Ag  Ag10  1  0.74811128  0.50589541  0.24865775  1
  Ag  Ag11  1  0.25176894  0.49967254  0.74921352  1
  Ag  Ag12  1  0.50951480  -0.00068797  0.50082571  1
  Ag  Ag13  1  0.74706089  0.49970567  0.75146244  1
  Ag  Ag14  1  -0.00765463  -0.00233015  -0.00117319  1
  Ag  Ag15  1  0.75180961  -0.00603661  0.25595497  1
  Sb  Sb16  1  0.50384720  0.74850687  0.74892240  1
  Sb  Sb17  1  0.50887742  0.75073553  0.25181931  1
  Sb  Sb18  1  -0.00631668  0.50225609  -0.00228277  1
  Sb  Sb19  1  -0.00587447  0.24665725  0.25114303  1
  Sb  Sb20  1  0.25007598  0.25117639  -0.00167278  1
  Sb  Sb21  1  0.74959196  0.24187703  0.50292593  1
  Sb  Sb22  1  -0.00433884  0.75352335  0.74698567  1
  Sb  Sb23  1  0.50411350  0.49963189  0.50236841  1
  Sb  Sb24  1  0.24768246  0.74816348  -0.00098395  1
  Sb  Sb25  1  0.50768750  0.00037516  -0.00065124  1
  Sb  Sb26  1  0.25000457  0.25004434  0.50237537  1
  Sb  Sb27  1  0.25257531  0.50331412  0.25109347  1
  Sb  Sb28  1  0.24899648  0.00022233  0.74730573  1
  Sb  Sb29  1  0.24999385  -0.00172147  0.25237393  1
  Sb  Sb30  1  -0.00387222  0.50447376  0.50155527  1
  Sb  Sb31  1  0.74987458  0.25007510  -0.00259720  1
  Te  Te32  1  0.25897925  0.25159570  0.25001711  1
  Te  Te33  1  0.25290497  0.25590067  0.74936003  1
  Te  Te34  1  0.24067748  0.74851647  0.25521712  1
  Te  Te35  1  0.24918908  0.74357816  0.74572373  1
  Te  Te36  1  0.74590612  0.25127381  0.25015302  1
  Te  Te37  1  0.74911551  0.25107641  0.74968302  1
  Te  Te38  1  0.75189104  0.75107827  0.25132949  1
  Te  Te39  1  0.75077082  0.75023598  0.74952928  1
  Te  Te40  1  0.24049391  -0.00211290  -0.00010421  1
  Te  Te41  1  0.25087188  -0.00688337  0.50058528  1
  Te  Te42  1  0.25702707  0.50143490  -0.00581162  1
  Te  Te43  1  0.25004464  0.50732788  0.50481763  1
  Te  Te44  1  0.75277334  -0.00564689  -0.00145631  1
  Te  Te45  1  0.74982926  -0.00294872  0.50137796  1
  Te  Te46  1  0.74738014  0.50517236  -0.00199056  1
  Te  Te47  1  0.74989739  0.50953972  0.50123098  1
  Te  Te48  1  0.00088813  0.24355353  -0.00476411  1
  Te  Te49  1  0.00169966  0.24135891  0.50440290  1
  Te  Te50  1  -0.00394679  0.75350611  0.00432369  1
  Te  Te51  1  -0.00403121  0.75365049  0.49760965  1
  Te  Te52  1  0.49931195  0.25312688  -0.00224727  1
  Te  Te53  1  0.49905743  0.24395336  0.50158017  1
  Te  Te54  1  0.50469334  0.74580452  0.00050230  1
  Te  Te55  1  0.50154963  0.75670052  0.49953391  1
  Te  Te56  1  -0.00390340  0.00036825  0.25201035  1
  Te  Te57  1  -0.00221480  0.00321262  0.74815467  1
  Te  Te58  1  -0.00611033  0.50019052  0.24951492  1
  Te  Te59  1  -0.00397774  0.49287308  0.75052885  1
  Te  Te60  1  0.50442512  0.00354685  0.25067005  1
  Te  Te61  1  0.50323060  0.00524533  0.74898354  1
  Te  Te62  1  0.50491345  0.49626774  0.24829721  1
  Te  Te63  1  0.50589688  0.49656251  0.75048734  1
