# generated using pymatgen
data_AgSbTe2
_symmetry_space_group_name_H-M   'P 1'
_cell_length_a   12.20913385
_cell_length_b   12.21272142
_cell_length_c   12.20704272
_cell_angle_alpha   89.99615030
_cell_angle_beta   89.98743526
_cell_angle_gamma   89.99729325
_symmetry_Int_Tables_number   1
_chemical_formula_structural   AgSbTe2
_chemical_formula_sum   'Ag16 Sb16 Te32'
_cell_volume   1820.15242193
_cell_formula_units_Z   16
loop_
 _symmetry_equiv_pos_site_id
 _symmetry_equiv_pos_as_xyz
  1  'x, y, z'
loop_
 _atom_site_type_symbol
 _atom_site_label
 _atom_site_symmetry_multiplicity
 _atom_site_fract_x
 _atom_site_fract_y
 _atom_site_fract_z
 _atom_site_occupancy
  Ag  Ag0  1  -0.00467739  0.24689512  0.75082179  1
  Ag  Ag1  1  0.50408208  0.75154015  0.75299207  1
  Ag  Ag2  1  0.74624172  -0.00084045  0.24854317  1
  Ag  Ag3  1  0.75116553  0.75449500  0.50649516  1
  Ag  Ag4  1  0.74906409  0.50428549  0.75174158  1
  Ag  Ag5  1  0.25325392  -0.00362201  0.24916496  1
  Ag  Ag6  1  0.50085881  0.24629662  0.24522172  1
  Ag  Ag7  1  -0.00252222  -0.00439005  0.50348698  1
  Ag  Ag8  1  0.25353570  0.50348729  0.24794253  1
  Ag  Ag9  1  0.25392621  0.75128352  0.00067062  1
  Ag  Ag10  1  0.50273858  -0.00156443  0.00193230  1
  Ag  Ag11  1  0.50026582  0.50184654  -0.00024718  1
  Ag  Ag12  1  -0.00497567  0.75334404  0.74710967  1
  Ag  Ag13  1  0.75171094  -0.00492183  0.75036135  1
  Ag  Ag14  1  0.74684916  0.24640298  -0.00239078  1
  Ag  Ag15  1  0.24838779  0.75261038  0.49955246  1
  Sb  Sb16  1  0.50006389  0.50331811  0.50052153  1
  Sb  Sb17  1  0.24821939  0.24695418  0.49856087  1
  Sb  Sb18  1  0.25282733  0.24829869  0.00155251  1
  Sb  Sb19  1  0.49819328  0.75309333  0.24539948  1
  Sb  Sb20  1  0.50225269  -0.00339058  0.49826507  1
  Sb  Sb21  1  0.24890768  -0.00423861  0.75040833  1
  Sb  Sb22  1  0.75172572  0.24566167  0.50237517  1
  Sb  Sb23  1  -0.00013601  0.50531088  0.50263088  1
  Sb  Sb24  1  -0.00167394  0.24617233  0.24858257  1
  Sb  Sb25  1  0.74556478  0.50074345  0.24784747  1
  Sb  Sb26  1  -0.00074681  0.50181270  -0.00220409  1
  Sb  Sb27  1  0.74585043  0.75302226  -0.00792530  1
  Sb  Sb28  1  0.50498409  0.24849937  0.75507003  1
  Sb  Sb29  1  0.00150016  0.75286845  0.25267258  1
  Sb  Sb30  1  -0.00265762  -0.00179913  -0.00402627  1
  Sb  Sb31  1  0.25251480  0.50471724  0.75214677  1
  Te  Te32  1  0.25347896  0.24803673  0.24985726  1
  Te  Te33  1  0.24212275  0.25111459  0.74979174  1
  Te  Te34  1  0.25044770  0.75230425  0.25047858  1
  Te  Te35  1  0.25056480  0.74945768  0.74900791  1
  Te  Te36  1  0.74690692  0.24690408  0.24676320  1
  Te  Te37  1  0.75188542  0.24851444  0.75235092  1
  Te  Te38  1  0.74993376  0.75513611  0.25604106  1
  Te  Te39  1  0.75010323  0.75219268  0.75066530  1
  Te  Te40  1  0.25439722  -0.00314326  0.00496170  1
  Te  Te41  1  0.24696090  -0.00516891  0.49535546  1
  Te  Te42  1  0.25559377  0.50374771  0.00361167  1
  Te  Te43  1  0.25013152  0.50726601  0.49379212  1
  Te  Te44  1  0.74699684  0.00120438  0.00050501  1
  Te  Te45  1  0.75195335  -0.00390960  0.50102371  1
  Te  Te46  1  0.74488284  0.49723543  -0.00275656  1
  Te  Te47  1  0.75012743  0.50706730  0.50491170  1
  Te  Te48  1  -0.00656519  0.25006941  -0.00607015  1
  Te  Te49  1  -0.00002423  0.24231371  0.50672335  1
  Te  Te50  1  0.00818237  0.75023662  -0.00747320  1
  Te  Te51  1  0.00065238  0.75402659  0.50425767  1
  Te  Te52  1  0.50336170  0.24839329  0.00229103  1
  Te  Te53  1  0.49971208  0.25083609  0.49173695  1
  Te  Te54  1  0.49659757  0.75114636  -0.00405590  1
  Te  Te55  1  0.49940851  0.75015893  0.50795346  1
  Te  Te56  1  -0.00013947  0.00155560  0.25473070  1
  Te  Te57  1  -0.00260321  -0.00267102  0.74730528  1
  Te  Te58  1  0.00793080  0.49842124  0.25015314  1
  Te  Te59  1  -0.00599063  0.50137605  0.74989955  1
  Te  Te60  1  0.50086494  0.00167960  0.24688220  1
  Te  Te61  1  0.50369930  -0.00220701  0.75453402  1
  Te  Te62  1  0.49700631  0.49668197  0.24402705  1
  Te  Te63  1  0.50412446  0.50183022  0.75546808  1
