# generated using pymatgen
data_AgSbTe2
_symmetry_space_group_name_H-M   'P 1'
_cell_length_a   12.21833706
_cell_length_b   12.21533182
_cell_length_c   12.21003823
_cell_angle_alpha   90.00691606
_cell_angle_beta   90.00738126
_cell_angle_gamma   89.99761028
_symmetry_Int_Tables_number   1
_chemical_formula_structural   AgSbTe2
_chemical_formula_sum   'Ag16 Sb16 Te32'
_cell_volume   1822.36089084
_cell_formula_units_Z   16
loop_
 _symmetry_equiv_pos_site_id
 _symmetry_equiv_pos_as_xyz
  1  'x, y, z'
loop_
 _atom_site_type_symbol
 _atom_site_label
 _atom_site_symmetry_multiplicity
 _atom_site_fract_x
 _atom_site_fract_y
 _atom_site_fract_z
 _atom_site_occupancy
  Ag  Ag0  1  0.75290291  0.50538062  0.24999014  1
  Ag  Ag1  1  0.49358233  0.24859948  0.75502481  1
  Ag  Ag2  1  0.24122007  0.74700484  0.50103888  1
  Ag  Ag3  1  0.25249691  0.25215870  -0.00709145  1
  Ag  Ag4  1  0.49935599  0.00138411  -0.00567154  1
  Ag  Ag5  1  0.24904608  0.00469608  0.75015965  1
  Ag  Ag6  1  0.00567601  0.24865994  0.74957090  1
  Ag  Ag7  1  0.00067347  -0.00614027  0.50465782  1
  Ag  Ag8  1  0.49722303  0.49870502  -0.00197133  1
  Ag  Ag9  1  0.75094124  -0.00109330  0.75001425  1
  Ag  Ag10  1  0.24698524  0.50194788  0.25081679  1
  Ag  Ag11  1  -0.00143388  0.74598464  0.25616209  1
  Ag  Ag12  1  0.24897353  0.49568762  0.75033030  1
  Ag  Ag13  1  0.75034076  0.74919446  0.00008126  1
  Ag  Ag14  1  0.00290448  0.50678984  0.49901725  1
  Ag  Ag15  1  0.75849558  0.74922730  0.49900084  1
  Sb  Sb16  1  0.49926258  -0.00127806  0.50606023  1
  Sb  Sb17  1  0.74765678  0.25076429  -0.00252058  1
  Sb  Sb18  1  0.50111570  0.74836866  0.24846395  1
  Sb  Sb19  1  0.49798339  0.50118975  0.50245189  1
  Sb  Sb20  1  0.49740418  0.25279100  0.24479130  1
  Sb  Sb21  1  0.00042590  -0.00141003  -0.00593159  1
  Sb  Sb22  1  0.75269857  0.25048585  0.50155542  1
  Sb  Sb23  1  0.24750138  0.25291759  0.50798496  1
  Sb  Sb24  1  0.24881931  0.74829213  -0.00069218  1
  Sb  Sb25  1  0.75102931  0.50147664  0.74967166  1
  Sb  Sb26  1  0.24760205  -0.00214497  0.25090355  1
  Sb  Sb27  1  0.75254849  -0.00551485  0.25007354  1
  Sb  Sb28  1  0.00277192  0.25321190  0.24987097  1
  Sb  Sb29  1  0.00065718  0.75076683  0.74234679  1
  Sb  Sb30  1  0.00186547  0.50121195  -0.00055133  1
  Sb  Sb31  1  0.49978611  0.75103711  0.75178842  1
  Te  Te32  1  0.24965912  0.25649993  0.24197101  1
  Te  Te33  1  0.24924536  0.25003029  0.75175113  1
  Te  Te34  1  0.24626492  0.74563866  0.25325886  1
  Te  Te35  1  0.24963444  0.74918796  0.74677698  1
  Te  Te36  1  0.75004921  0.25995411  0.25013501  1
  Te  Te37  1  0.75159256  0.24440708  0.75055232  1
  Te  Te38  1  0.75264465  0.74606533  0.25154077  1
  Te  Te39  1  0.75035328  0.75443757  0.75014412  1
  Te  Te40  1  0.25247052  0.00021550  -0.00372902  1
  Te  Te41  1  0.24822970  -0.00442662  0.50266590  1
  Te  Te42  1  0.25240798  0.50080650  -0.00212602  1
  Te  Te43  1  0.24837142  0.50276614  0.50028720  1
  Te  Te44  1  0.74744439  -0.00307903  -0.00224889  1
  Te  Te45  1  0.75168698  -0.00493265  0.50206581  1
  Te  Te46  1  0.74680966  0.50333364  0.00117471  1
  Te  Te47  1  0.75212131  0.50534807  0.49845592  1
  Te  Te48  1  0.00561151  0.24939762  -0.00560114  1
  Te  Te49  1  -0.00012081  0.24980770  0.50467216  1
  Te  Te50  1  -0.00637636  0.75061677  0.00883961  1
  Te  Te51  1  -0.00017370  0.74827029  0.49914674  1
  Te  Te52  1  0.49719689  0.25111896  -0.00416599  1
  Te  Te53  1  0.50038218  0.24935057  0.50928468  1
  Te  Te54  1  0.50493459  0.74883801  0.00010823  1
  Te  Te55  1  0.50127846  0.75037441  0.49985914  1
  Te  Te56  1  0.00011508  -0.00346471  0.25887779  1
  Te  Te57  1  0.00127561  0.00239326  0.74627647  1
  Te  Te58  1  0.00130382  0.50173742  0.25288780  1
  Te  Te59  1  0.00296618  0.49617750  0.74655936  1
  Te  Te60  1  0.49997664  0.00131238  0.24043587  1
  Te  Te61  1  0.49869804  0.00286254  0.75348267  1
  Te  Te62  1  0.49843243  0.49876547  0.24508469  1
  Te  Te63  1  0.49700185  0.49583660  0.75417845  1
