# generated using pymatgen
data_AgSbTe2
_symmetry_space_group_name_H-M   'P 1'
_cell_length_a   12.21930079
_cell_length_b   12.22076735
_cell_length_c   12.21586711
_cell_angle_alpha   90.00217134
_cell_angle_beta   90.00455016
_cell_angle_gamma   89.99894564
_symmetry_Int_Tables_number   1
_chemical_formula_structural   AgSbTe2
_chemical_formula_sum   'Ag16 Sb16 Te32'
_cell_volume   1824.18604749
_cell_formula_units_Z   16
loop_
 _symmetry_equiv_pos_site_id
 _symmetry_equiv_pos_as_xyz
  1  'x, y, z'
loop_
 _atom_site_type_symbol
 _atom_site_label
 _atom_site_symmetry_multiplicity
 _atom_site_fract_x
 _atom_site_fract_y
 _atom_site_fract_z
 _atom_site_occupancy
  Ag  Ag0  1  0.75317830  0.24506269  0.00835207  1
  Ag  Ag1  1  -0.00518255  0.00411603  0.00849177  1
  Ag  Ag2  1  0.75485024  0.24683539  0.49216742  1
  Ag  Ag3  1  0.24586987  0.24926582  0.49596882  1
  Ag  Ag4  1  0.50428066  0.00113798  0.00309940  1
  Ag  Ag5  1  0.50116298  0.00048574  0.49732344  1
  Ag  Ag6  1  0.49900640  0.75237060  0.74529313  1
  Ag  Ag7  1  -0.00606206  0.24439673  0.25479170  1
  Ag  Ag8  1  0.25138974  0.75038186  0.49682109  1
  Ag  Ag9  1  0.75157648  0.49236088  0.25330930  1
  Ag  Ag10  1  0.49882545  0.49937971  0.49705898  1
  Ag  Ag11  1  0.00017093  0.75488555  0.25357445  1
  Ag  Ag12  1  -0.00192949  0.00652784  0.49248030  1
  Ag  Ag13  1  0.75564925  0.00709435  0.25134631  1
  Ag  Ag14  1  0.24849796  0.49806001  0.25568506  1
  Ag  Ag15  1  -0.00135005  0.24686872  0.74412650  1
  Sb  Sb16  1  0.50019560  0.24797420  0.74567576  1
  Sb  Sb17  1  0.74900831  0.49604979  0.74426057  1
  Sb  Sb18  1  0.74956864  0.75308576  0.49666723  1
  Sb  Sb19  1  0.50705317  0.24778200  0.25302188  1
  Sb  Sb20  1  0.49752882  0.75262921  0.25421510  1
  Sb  Sb21  1  0.24928169  0.75151705  0.00463774  1
  Sb  Sb22  1  -0.00273622  0.49507356  0.00478441  1
  Sb  Sb23  1  0.00067115  0.49205680  0.49527931  1
  Sb  Sb24  1  0.50316772  0.49886296  0.00256107  1
  Sb  Sb25  1  0.25148888  0.49848006  0.74274052  1
  Sb  Sb26  1  0.75022123  0.75664706  0.00387040  1
  Sb  Sb27  1  0.00167117  0.75374026  0.74499048  1
  Sb  Sb28  1  0.24278180  0.00343410  0.25475663  1
  Sb  Sb29  1  0.75011955  0.00281816  0.74762566  1
  Sb  Sb30  1  0.24720480  0.24847925  0.00570864  1
  Sb  Sb31  1  0.25008950  0.00110602  0.74605255  1
  Te  Te32  1  0.24400206  0.25370294  0.25472067  1
  Te  Te33  1  0.24330773  0.25133695  0.74283069  1
  Te  Te34  1  0.24510363  0.74489950  0.25515068  1
  Te  Te35  1  0.25328747  0.74838833  0.74216538  1
  Te  Te36  1  0.75061440  0.24848821  0.25208308  1
  Te  Te37  1  0.75559943  0.25118323  0.74846983  1
  Te  Te38  1  0.75715190  0.74958579  0.25030902  1
  Te  Te39  1  0.74485424  0.74775880  0.75093435  1
  Te  Te40  1  0.25241087  0.00059422  0.00090434  1
  Te  Te41  1  0.25226906  0.00155494  0.49806635  1
  Te  Te42  1  0.25201374  0.49970843  0.01007698  1
  Te  Te43  1  0.25284859  0.49890882  0.49531021  1
  Te  Te44  1  0.75067481  0.00413529  0.00346323  1
  Te  Te45  1  0.74959335  0.00291602  0.49737438  1
  Te  Te46  1  0.74800379  0.49119289  0.00871132  1
  Te  Te47  1  0.74584735  0.49536298  0.49455058  1
  Te  Te48  1  -0.00178584  0.24522562  0.00285155  1
  Te  Te49  1  -0.00084215  0.24873672  0.49709059  1
  Te  Te50  1  0.00127986  0.75905016  0.00179639  1
  Te  Te51  1  0.00296029  0.75611333  0.49983112  1
  Te  Te52  1  0.50334075  0.24379488  -0.00285805  1
  Te  Te53  1  0.49911539  0.24694700  0.50187227  1
  Te  Te54  1  0.49872105  0.75619420  -0.00563620  1
  Te  Te55  1  0.49794031  0.75313859  0.50106032  1
  Te  Te56  1  -0.00106244  0.00162375  0.25206564  1
  Te  Te57  1  0.00009376  0.00372898  0.74880379  1
  Te  Te58  1  -0.00232856  0.50066422  0.25039237  1
  Te  Te59  1  -0.00027981  0.49463392  0.75239123  1
  Te  Te60  1  0.50618482  -0.00130624  0.25182103  1
  Te  Te61  1  0.50015845  -0.00343399  0.74760177  1
  Te  Te62  1  0.50138717  0.50111514  0.25470039  1
  Te  Te63  1  0.50028460  0.50509024  0.74435703  1
