# generated using pymatgen
data_AgSbTe2
_symmetry_space_group_name_H-M   'P 1'
_cell_length_a   12.24148148
_cell_length_b   12.26172324
_cell_length_c   12.26506627
_cell_angle_alpha   89.99697932
_cell_angle_beta   90.00264283
_cell_angle_gamma   90.00545717
_symmetry_Int_Tables_number   1
_chemical_formula_structural   AgSbTe2
_chemical_formula_sum   'Ag16 Sb16 Te32'
_cell_volume   1841.00676953
_cell_formula_units_Z   16
loop_
 _symmetry_equiv_pos_site_id
 _symmetry_equiv_pos_as_xyz
  1  'x, y, z'
loop_
 _atom_site_type_symbol
 _atom_site_label
 _atom_site_symmetry_multiplicity
 _atom_site_fract_x
 _atom_site_fract_y
 _atom_site_fract_z
 _atom_site_occupancy
  Ag  Ag0  1  0.26031704  0.25083429  0.49735036  1
  Ag  Ag1  1  0.25489800  -0.00448477  0.74376541  1
  Ag  Ag2  1  0.74470411  -0.00556537  0.74312488  1
  Ag  Ag3  1  0.73550667  0.50202397  0.25667504  1
  Ag  Ag4  1  0.74636691  0.74683766  0.50321195  1
  Ag  Ag5  1  0.25442985  0.74972842  0.50056532  1
  Ag  Ag6  1  0.00092216  0.75073326  0.74735383  1
  Ag  Ag7  1  0.25856754  -0.00171711  0.25683726  1
  Ag  Ag8  1  0.74177401  0.50524161  0.74300918  1
  Ag  Ag9  1  0.49627554  0.25819998  0.25587249  1
  Ag  Ag10  1  0.49949144  0.49764726  0.49407066  1
  Ag  Ag11  1  0.49837358  0.25322113  0.74374288  1
  Ag  Ag12  1  0.26421343  0.50106150  0.25534461  1
  Ag  Ag13  1  0.25279797  0.74869001  -0.00015406  1
  Ag  Ag14  1  0.49848654  0.50068537  0.00571340  1
  Ag  Ag15  1  0.74134278  -0.00262282  0.25687964  1
  Sb  Sb16  1  0.00575476  0.50466868  -0.00285348  1
  Sb  Sb17  1  0.74523950  0.74703134  -0.00249664  1
  Sb  Sb18  1  -0.00056326  0.50144846  0.50171063  1
  Sb  Sb19  1  0.00433195  0.25081274  0.25258549  1
  Sb  Sb20  1  0.74573653  0.25211012  0.00039980  1
  Sb  Sb21  1  0.00259589  0.74938040  0.25310776  1
  Sb  Sb22  1  0.49768802  0.73874608  0.25208407  1
  Sb  Sb23  1  0.26112606  0.50436436  0.74378167  1
  Sb  Sb24  1  0.49836722  0.00253575  0.49869773  1
  Sb  Sb25  1  0.00038581  -0.00162119  0.50098861  1
  Sb  Sb26  1  0.49769751  -0.00514697  0.00187730  1
  Sb  Sb27  1  0.50026584  0.74740466  0.74710680  1
  Sb  Sb28  1  0.73864634  0.25483210  0.49945523  1
  Sb  Sb29  1  0.00243502  0.25020628  0.74673789  1
  Sb  Sb30  1  0.00154088  -0.00437670  -0.00131849  1
  Sb  Sb31  1  0.25530356  0.25417418  0.00205079  1
  Te  Te32  1  0.25347553  0.24782981  0.25159260  1
  Te  Te33  1  0.25220016  0.24438939  0.74777993  1
  Te  Te34  1  0.24770360  0.75353170  0.25676958  1
  Te  Te35  1  0.25164962  0.75232678  0.74267788  1
  Te  Te36  1  0.74401156  0.24861363  0.25256603  1
  Te  Te37  1  0.74617217  0.24617008  0.74769509  1
  Te  Te38  1  0.75287185  0.75213765  0.25305767  1
  Te  Te39  1  0.74796155  0.75342867  0.74895095  1
  Te  Te40  1  0.25315088  -0.00858895  0.00171625  1
  Te  Te41  1  0.25351154  -0.00721595  0.49759586  1
  Te  Te42  1  0.25470100  0.50397629  0.00665120  1
  Te  Te43  1  0.25365656  0.50571486  0.49754608  1
  Te  Te44  1  0.74811466  -0.00345041  0.00129959  1
  Te  Te45  1  0.74706013  -0.00615138  0.49960073  1
  Te  Te46  1  0.74120069  0.50347647  0.00384679  1
  Te  Te47  1  0.74670412  0.50204025  0.49783294  1
  Te  Te48  1  0.00174563  0.25164363  -0.00109142  1
  Te  Te49  1  0.02236484  0.25209991  0.50106167  1
  Te  Te50  1  0.01396692  0.74857765  -0.01303303  1
  Te  Te51  1  0.00112662  0.74855328  0.50901925  1
  Te  Te52  1  0.49796256  0.26368098  0.00000523  1
  Te  Te53  1  0.49318353  0.25736047  0.49940928  1
  Te  Te54  1  0.49056188  0.73924368  -0.00136923  1
  Te  Te55  1  0.49859347  0.73858616  0.50102715  1
  Te  Te56  1  -0.00251569  0.00124541  0.24885309  1
  Te  Te57  1  -0.00283302  -0.00385740  0.75082942  1
  Te  Te58  1  -0.00431404  0.49910710  0.24921525  1
  Te  Te59  1  -0.01615131  0.50370717  0.75170438  1
  Te  Te60  1  0.50026454  0.01225501  0.24894172  1
  Te  Te61  1  0.50213045  0.01011037  0.75067873  1
  Te  Te62  1  0.50119166  0.49820972  0.25298460  1
  Te  Te63  1  0.50355715  0.49416329  0.74730671  1
