# generated using pymatgen
data_AgSbTe2
_symmetry_space_group_name_H-M   'P 1'
_cell_length_a   12.31687234
_cell_length_b   12.31371191
_cell_length_c   12.31548999
_cell_angle_alpha   89.99465493
_cell_angle_beta   89.98892686
_cell_angle_gamma   90.00898041
_symmetry_Int_Tables_number   1
_chemical_formula_structural   AgSbTe2
_chemical_formula_sum   'Ag16 Sb16 Te32'
_cell_volume   1867.84618261
_cell_formula_units_Z   16
loop_
 _symmetry_equiv_pos_site_id
 _symmetry_equiv_pos_as_xyz
  1  'x, y, z'
loop_
 _atom_site_type_symbol
 _atom_site_label
 _atom_site_symmetry_multiplicity
 _atom_site_fract_x
 _atom_site_fract_y
 _atom_site_fract_z
 _atom_site_occupancy
  Ag  Ag0  1  0.50564069  0.77158650  0.74874513  1
  Ag  Ag1  1  -0.00795818  0.49712860  0.00792447  1
  Ag  Ag2  1  0.51083570  0.23575473  0.74431038  1
  Ag  Ag3  1  0.74654794  0.24293998  0.49286196  1
  Ag  Ag4  1  0.51229254  0.00549365  0.51534960  1
  Ag  Ag5  1  0.73360531  0.00996252  0.73815709  1
  Ag  Ag6  1  0.25536163  0.00421186  0.25520262  1
  Ag  Ag7  1  0.74582824  0.49064911  0.74822937  1
  Ag  Ag8  1  -0.01142782  0.00357276  0.48877721  1
  Ag  Ag9  1  0.50410792  0.00320436  -0.01849207  1
  Ag  Ag10  1  0.26945177  0.00238822  0.74497772  1
  Ag  Ag11  1  -0.00610390  0.76328092  0.25128117  1
  Ag  Ag12  1  0.75475905  0.48577561  0.25136358  1
  Ag  Ag13  1  0.51268406  0.23718878  0.25497300  1
  Ag  Ag14  1  -0.01604259  0.24078428  0.25418104  1
  Ag  Ag15  1  0.74628923  0.01395199  0.26270354  1
  Sb  Sb16  1  0.25014980  0.75769605  0.49918193  1
  Sb  Sb17  1  0.50276988  0.76293098  0.25133242  1
  Sb  Sb18  1  0.75016818  0.75882179  0.49921961  1
  Sb  Sb19  1  0.74977750  0.24834341  0.00482388  1
  Sb  Sb20  1  0.50348483  0.49786127  0.00090813  1
  Sb  Sb21  1  0.25345012  0.24454445  0.49942992  1
  Sb  Sb22  1  0.25398466  0.49736116  0.75225029  1
  Sb  Sb23  1  -0.00270520  0.00077176  0.00483598  1
  Sb  Sb24  1  -0.00176168  0.75404878  0.74914245  1
  Sb  Sb25  1  0.24912154  0.49517404  0.24860136  1
  Sb  Sb26  1  0.25010155  0.75472866  0.00098085  1
  Sb  Sb27  1  -0.00657014  0.49549636  0.49746622  1
  Sb  Sb28  1  -0.00915935  0.24614886  0.74633545  1
  Sb  Sb29  1  0.25069568  0.24624211  0.00037895  1
  Sb  Sb30  1  0.74974288  0.75193651  0.00087430  1
  Sb  Sb31  1  0.50541140  0.49474706  0.50001205  1
  Te  Te32  1  0.25622026  0.24601285  0.24952028  1
  Te  Te33  1  0.26033352  0.24643408  0.75039685  1
  Te  Te34  1  0.24561901  0.75466396  0.24990863  1
  Te  Te35  1  0.25381577  0.75288300  0.75021140  1
  Te  Te36  1  0.74733867  0.24896852  0.24977292  1
  Te  Te37  1  0.74820636  0.24829134  0.74911198  1
  Te  Te38  1  0.75388610  0.74511082  0.25118265  1
  Te  Te39  1  0.74756053  0.74862806  0.74884625  1
  Te  Te40  1  0.25526283  0.00059988  0.00090494  1
  Te  Te41  1  0.24815439  0.00195606  0.49690222  1
  Te  Te42  1  0.23727310  0.50117403  -0.00036116  1
  Te  Te43  1  0.24978878  0.50118962  0.50120866  1
  Te  Te44  1  0.74549542  -0.00089188  -0.00415909  1
  Te  Te45  1  0.75042361  0.00241385  0.49911228  1
  Te  Te46  1  0.75380756  0.50093117  0.00038629  1
  Te  Te47  1  0.74803277  0.48766752  0.50017591  1
  Te  Te48  1  0.00041562  0.25293711  0.00813215  1
  Te  Te49  1  -0.00467481  0.24474316  0.49731975  1
  Te  Te50  1  -0.00021235  0.74772378  0.00561239  1
  Te  Te51  1  -0.00067655  0.75937970  0.49555088  1
  Te  Te52  1  0.49983460  0.24784305  0.00285969  1
  Te  Te53  1  0.50152226  0.24724956  0.49658423  1
  Te  Te54  1  0.49982817  0.75295727  -0.00397166  1
  Te  Te55  1  0.50059201  0.75756340  0.50297750  1
  Te  Te56  1  -0.00503740  0.00273510  0.24840819  1
  Te  Te57  1  -0.00211409  0.00046858  0.75146509  1
  Te  Te58  1  -0.00094240  0.49395816  0.25173742  1
  Te  Te59  1  -0.00283406  0.50053924  0.74938128  1
  Te  Te60  1  0.50291457  -0.00115191  0.25470181  1
  Te  Te61  1  0.49968862  0.00147452  0.75005423  1
  Te  Te62  1  0.50159783  0.49705798  0.24879649  1
  Te  Te63  1  0.50434606  0.49376127  0.75094994  1
