# generated using pymatgen
data_AgSbTe2
_symmetry_space_group_name_H-M   'P 1'
_cell_length_a   12.27444141
_cell_length_b   12.26746807
_cell_length_c   12.26901624
_cell_angle_alpha   89.99942031
_cell_angle_beta   90.00640640
_cell_angle_gamma   89.99744656
_symmetry_Int_Tables_number   1
_chemical_formula_structural   AgSbTe2
_chemical_formula_sum   'Ag16 Sb16 Te32'
_cell_volume   1847.42327627
_cell_formula_units_Z   16
loop_
 _symmetry_equiv_pos_site_id
 _symmetry_equiv_pos_as_xyz
  1  'x, y, z'
loop_
 _atom_site_type_symbol
 _atom_site_label
 _atom_site_symmetry_multiplicity
 _atom_site_fract_x
 _atom_site_fract_y
 _atom_site_fract_z
 _atom_site_occupancy
  Ag  Ag0  1  0.50064805  0.50382829  0.00504178  1
  Ag  Ag1  1  0.74876118  0.50180218  0.25800819  1
  Ag  Ag2  1  0.25007469  -0.00396477  0.25774662  1
  Ag  Ag3  1  -0.00366501  0.50287830  0.49493968  1
  Ag  Ag4  1  -0.00027191  -0.00292687  0.49946188  1
  Ag  Ag5  1  0.75383579  0.24916492  0.49823951  1
  Ag  Ag6  1  0.25119602  0.50444924  0.25507555  1
  Ag  Ag7  1  0.49634473  0.75562570  0.74572188  1
  Ag  Ag8  1  0.74967004  -0.00160730  0.25814209  1
  Ag  Ag9  1  0.00222626  0.75451106  0.73916739  1
  Ag  Ag10  1  0.00048020  0.75157544  0.26291958  1
  Ag  Ag11  1  0.49969477  -0.00341677  0.49838576  1
  Ag  Ag12  1  0.00026762  0.24460690  0.73953324  1
  Ag  Ag13  1  0.49884077  -0.00407016  0.00096765  1
  Ag  Ag14  1  0.24972132  -0.00353147  0.74175895  1
  Ag  Ag15  1  0.50372706  0.50279893  0.49374423  1
  Sb  Sb16  1  0.25271463  0.74978820  0.00086004  1
  Sb  Sb17  1  0.24442621  0.24829838  0.50123268  1
  Sb  Sb18  1  0.75171115  0.75108653  0.49819588  1
  Sb  Sb19  1  0.49770457  0.75048703  0.25734203  1
  Sb  Sb20  1  0.75016213  0.24917130  0.00124942  1
  Sb  Sb21  1  0.00064270  -0.00082486  0.00087568  1
  Sb  Sb22  1  0.24713218  0.75316699  0.49950875  1
  Sb  Sb23  1  0.74696457  0.75091203  0.00184330  1
  Sb  Sb24  1  0.75041115  0.00031247  0.74036102  1
  Sb  Sb25  1  0.25017938  0.25043347  -0.00078859  1
  Sb  Sb26  1  0.49973669  0.24916667  0.25405595  1
  Sb  Sb27  1  0.24972314  0.50442082  0.74437520  1
  Sb  Sb28  1  -0.00114292  0.50065767  0.00746331  1
  Sb  Sb29  1  0.49821200  0.24525138  0.74631136  1
  Sb  Sb30  1  0.74971842  0.49889135  0.74021918  1
  Sb  Sb31  1  -0.00130092  0.24802353  0.25813781  1
  Te  Te32  1  0.24946341  0.24621178  0.24989790  1
  Te  Te33  1  0.24282917  0.23878412  0.74959802  1
  Te  Te34  1  0.24243567  0.75311612  0.25024117  1
  Te  Te35  1  0.24715060  0.75657849  0.74962863  1
  Te  Te36  1  0.74999219  0.24955233  0.25678341  1
  Te  Te37  1  0.75833549  0.25051374  0.74212625  1
  Te  Te38  1  0.75918484  0.75025637  0.25011581  1
  Te  Te39  1  0.75500940  0.74976160  0.75173320  1
  Te  Te40  1  0.25802812  0.00054508  0.00623425  1
  Te  Te41  1  0.25106797  0.00165710  0.49585087  1
  Te  Te42  1  0.25922412  0.49886461  0.01205218  1
  Te  Te43  1  0.25235736  0.49632431  0.49403506  1
  Te  Te44  1  0.73995753  0.00305450  0.01654957  1
  Te  Te45  1  0.75034511  0.00148788  0.49491226  1
  Te  Te46  1  0.74198586  0.49666281  0.01488552  1
  Te  Te47  1  0.74935445  0.49779123  0.49543998  1
  Te  Te48  1  -0.00159264  0.25159706  -0.02051093  1
  Te  Te49  1  -0.00371940  0.24874149  0.50421081  1
  Te  Te50  1  -0.00153466  0.74923392  -0.00744818  1
  Te  Te51  1  0.00008991  0.75132285  0.50127579  1
  Te  Te52  1  0.50083717  0.25081410  -0.00467823  1
  Te  Te53  1  0.51024961  0.25121285  0.50198851  1
  Te  Te54  1  0.50081286  0.75071299  -0.01120553  1
  Te  Te55  1  0.50097679  0.75051691  0.50539577  1
  Te  Te56  1  0.00345717  -0.00007119  0.24997486  1
  Te  Te57  1  -0.00104534  -0.00909957  0.75074320  1
  Te  Te58  1  0.00084447  0.50003937  0.25305218  1
  Te  Te59  1  0.00244918  0.51041232  0.74378650  1
  Te  Te60  1  0.49613723  -0.00394334  0.25708389  1
  Te  Te61  1  0.50036817  -0.00222410  0.74383413  1
  Te  Te62  1  0.49900238  0.50446839  0.25678168  1
  Te  Te63  1  0.49739911  0.50413730  0.74553446  1
