# generated using pymatgen
data_AgSbTe2
_symmetry_space_group_name_H-M   'P 1'
_cell_length_a   12.22044884
_cell_length_b   12.21569334
_cell_length_c   12.22003308
_cell_angle_alpha   89.99651736
_cell_angle_beta   89.99940953
_cell_angle_gamma   89.99561377
_symmetry_Int_Tables_number   1
_chemical_formula_structural   AgSbTe2
_chemical_formula_sum   'Ag16 Sb16 Te32'
_cell_volume   1824.22187105
_cell_formula_units_Z   16
loop_
 _symmetry_equiv_pos_site_id
 _symmetry_equiv_pos_as_xyz
  1  'x, y, z'
loop_
 _atom_site_type_symbol
 _atom_site_label
 _atom_site_symmetry_multiplicity
 _atom_site_fract_x
 _atom_site_fract_y
 _atom_site_fract_z
 _atom_site_occupancy
  Ag  Ag0  1  0.00671036  -0.00060374  -0.00523050  1
  Ag  Ag1  1  0.24696156  0.49465751  0.74707588  1
  Ag  Ag2  1  0.75692381  0.75487900  0.50137313  1
  Ag  Ag3  1  0.49805830  0.75527676  0.25187217  1
  Ag  Ag4  1  0.24749164  0.24565817  0.50747960  1
  Ag  Ag5  1  0.00078313  0.75529723  0.25703856  1
  Ag  Ag6  1  0.49379753  0.24510028  0.74904743  1
  Ag  Ag7  1  0.49275128  0.00119636  -0.00247620  1
  Ag  Ag8  1  0.24701013  -0.00072637  0.24844907  1
  Ag  Ag9  1  0.24982293  0.24247038  -0.00783555  1
  Ag  Ag10  1  0.24507698  0.00521537  0.75169700  1
  Ag  Ag11  1  0.75606415  0.00092874  0.74537776  1
  Ag  Ag12  1  0.00210634  0.50243748  0.50311130  1
  Ag  Ag13  1  0.00090202  -0.00351208  0.50519224  1
  Ag  Ag14  1  0.75358081  0.24487578  0.50455164  1
  Ag  Ag15  1  0.00112633  0.75704908  0.74350653  1
  Sb  Sb16  1  0.75240490  0.50180077  0.25377584  1
  Sb  Sb17  1  0.75281985  -0.00205830  0.25620925  1
  Sb  Sb18  1  0.49742533  0.24412905  0.24990062  1
  Sb  Sb19  1  0.00166487  0.24329552  0.25357975  1
  Sb  Sb20  1  0.75454635  0.49767784  0.74568079  1
  Sb  Sb21  1  0.24105680  0.75622498  0.50101133  1
  Sb  Sb22  1  0.00833874  0.24044894  0.74636997  1
  Sb  Sb23  1  0.00487468  0.50087410  -0.00437692  1
  Sb  Sb24  1  0.49550444  0.50067006  0.50168070  1
  Sb  Sb25  1  0.24942453  0.75980548  -0.00035733  1
  Sb  Sb26  1  0.75071326  0.24361370  -0.00703125  1
  Sb  Sb27  1  0.49777344  -0.00008676  0.50225221  1
  Sb  Sb28  1  0.49950915  0.75553356  0.74847579  1
  Sb  Sb29  1  0.49542196  0.49915893  -0.00244375  1
  Sb  Sb30  1  0.75163204  0.75418500  -0.00241641  1
  Sb  Sb31  1  0.24707013  0.50114294  0.25285636  1
  Te  Te32  1  0.25133490  0.24540902  0.25169895  1
  Te  Te33  1  0.24970780  0.24612098  0.74831907  1
  Te  Te34  1  0.24912015  0.75378065  0.25043076  1
  Te  Te35  1  0.24753942  0.75189959  0.74958857  1
  Te  Te36  1  0.74839754  0.25040119  0.26049587  1
  Te  Te37  1  0.74343480  0.24720436  0.74504415  1
  Te  Te38  1  0.75240188  0.75107669  0.25571262  1
  Te  Te39  1  0.75175904  0.75332895  0.74565612  1
  Te  Te40  1  0.24845382  0.00237945  -0.00148940  1
  Te  Te41  1  0.24791443  0.00295514  0.50111800  1
  Te  Te42  1  0.24935956  0.48848156  -0.00590504  1
  Te  Te43  1  0.24527367  0.49271439  0.50365785  1
  Te  Te44  1  0.75200071  0.00139647  -0.00760041  1
  Te  Te45  1  0.75245768  0.00049738  0.50335806  1
  Te  Te46  1  0.74995271  0.49831941  0.00001938  1
  Te  Te47  1  0.75755624  0.49887762  0.50124922  1
  Te  Te48  1  0.00376011  0.24457918  0.00285848  1
  Te  Te49  1  0.00022478  0.24853760  0.49935137  1
  Te  Te50  1  -0.00057526  0.75468313  -0.00020339  1
  Te  Te51  1  -0.00042354  0.75347144  0.50099538  1
  Te  Te52  1  0.49678011  0.24524742  -0.00263711  1
  Te  Te53  1  0.49902219  0.25015411  0.50301993  1
  Te  Te54  1  0.50074989  0.75563830  0.00437717  1
  Te  Te55  1  0.50928741  0.74922584  0.49616487  1
  Te  Te56  1  0.00270162  -0.00440134  0.25108475  1
  Te  Te57  1  0.00134938  -0.00093227  0.74847150  1
  Te  Te58  1  0.00140003  0.51075412  0.25515066  1
  Te  Te59  1  0.00422443  0.50863109  0.74688148  1
  Te  Te60  1  0.49593577  -0.00391787  0.24525704  1
  Te  Te61  1  0.49748129  0.00137330  0.75257496  1
  Te  Te62  1  0.49939913  0.51051724  0.24930113  1
  Te  Te63  1  0.49267058  0.49498010  0.75060100  1
