# generated using pymatgen
data_AgSbTe2
_symmetry_space_group_name_H-M   'P 1'
_cell_length_a   12.21161663
_cell_length_b   12.22218939
_cell_length_c   12.21806036
_cell_angle_alpha   90.00432833
_cell_angle_beta   90.00181001
_cell_angle_gamma   90.00233955
_symmetry_Int_Tables_number   1
_chemical_formula_structural   AgSbTe2
_chemical_formula_sum   'Ag16 Sb16 Te32'
_cell_volume   1823.57838072
_cell_formula_units_Z   16
loop_
 _symmetry_equiv_pos_site_id
 _symmetry_equiv_pos_as_xyz
  1  'x, y, z'
loop_
 _atom_site_type_symbol
 _atom_site_label
 _atom_site_symmetry_multiplicity
 _atom_site_fract_x
 _atom_site_fract_y
 _atom_site_fract_z
 _atom_site_occupancy
  Ag  Ag0  1  0.24891441  0.74867797  0.50238087  1
  Ag  Ag1  1  0.00667830  0.49868790  0.50374676  1
  Ag  Ag2  1  0.49453591  0.75101804  0.75668839  1
  Ag  Ag3  1  0.74793732  -0.00176604  0.24566738  1
  Ag  Ag4  1  0.49787274  -0.00591055  0.00377406  1
  Ag  Ag5  1  0.24610361  0.50077895  0.75119484  1
  Ag  Ag6  1  0.00614867  0.25172267  0.75104975  1
  Ag  Ag7  1  0.25313515  0.75103932  -0.00244284  1
  Ag  Ag8  1  0.49695684  0.24576035  0.24674168  1
  Ag  Ag9  1  0.24567485  0.25122999  0.50227812  1
  Ag  Ag10  1  0.24763120  0.24940231  -0.00201573  1
  Ag  Ag11  1  0.00364126  0.00140382  0.50038518  1
  Ag  Ag12  1  0.00239211  -0.00067807  -0.00011947  1
  Ag  Ag13  1  0.74734916  0.75396947  0.00140404  1
  Ag  Ag14  1  0.00540564  0.50002919  -0.00380031  1
  Ag  Ag15  1  0.49841796  0.75473319  0.24276726  1
  Sb  Sb16  1  0.24929301  -0.00244082  0.75230825  1
  Sb  Sb17  1  0.49245277  0.24836965  0.75389380  1
  Sb  Sb18  1  0.25325520  -0.00035676  0.24654360  1
  Sb  Sb19  1  0.00248261  0.75263116  0.24718883  1
  Sb  Sb20  1  0.49301951  0.50062044  0.50154489  1
  Sb  Sb21  1  0.75181544  0.24686578  0.00194952  1
  Sb  Sb22  1  0.00398267  0.24725469  0.24944185  1
  Sb  Sb23  1  0.75161290  -0.00225514  0.75423196  1
  Sb  Sb24  1  0.74985862  0.50213195  0.24749146  1
  Sb  Sb25  1  0.24970797  0.50040227  0.24851924  1
  Sb  Sb26  1  0.75438750  0.24788641  0.49783814  1
  Sb  Sb27  1  0.00598649  0.74767044  0.75239885  1
  Sb  Sb28  1  0.49356099  0.50642903  -0.00127674  1
  Sb  Sb29  1  0.75440930  0.50224904  0.75267742  1
  Sb  Sb30  1  0.75170222  0.75219915  0.49856256  1
  Sb  Sb31  1  0.49612428  -0.00075086  0.49645680  1
  Te  Te32  1  0.25581860  0.25035407  0.24918923  1
  Te  Te33  1  0.24703303  0.25507843  0.75066761  1
  Te  Te34  1  0.25587584  0.74981519  0.24959022  1
  Te  Te35  1  0.25268635  0.74630052  0.75095356  1
  Te  Te36  1  0.73977925  0.24483417  0.25014189  1
  Te  Te37  1  0.75749930  0.25032371  0.74953390  1
  Te  Te38  1  0.74338264  0.75337709  0.24674280  1
  Te  Te39  1  0.74062973  0.74962306  0.75486828  1
  Te  Te40  1  0.24772416  -0.00093102  0.00005923  1
  Te  Te41  1  0.24409920  -0.00028480  0.50004579  1
  Te  Te42  1  0.24551009  0.50026323  -0.00233252  1
  Te  Te43  1  0.24550094  0.50046436  0.50257254  1
  Te  Te44  1  0.75186717  -0.00385980  0.00309596  1
  Te  Te45  1  0.75814343  -0.00082218  0.49388557  1
  Te  Te46  1  0.76043103  0.50663607  -0.00023270  1
  Te  Te47  1  0.76141870  0.50050994  0.50014694  1
  Te  Te48  1  0.00321564  0.24798342  -0.00030327  1
  Te  Te49  1  0.00451728  0.24904293  0.49981112  1
  Te  Te50  1  0.00361876  0.75293517  -0.00049788  1
  Te  Te51  1  0.00469076  0.75103137  0.50050681  1
  Te  Te52  1  0.49625041  0.24672754  0.00096299  1
  Te  Te53  1  0.49296974  0.24908466  0.49756255  1
  Te  Te54  1  0.49598182  0.75023546  0.00150183  1
  Te  Te55  1  0.49447050  0.75124535  0.49920257  1
  Te  Te56  1  -0.00701279  0.00003424  0.24776635  1
  Te  Te57  1  -0.00102308  0.00475703  0.75136224  1
  Te  Te58  1  -0.00137520  0.49982634  0.24970916  1
  Te  Te59  1  0.00398250  0.49825305  0.75118452  1
  Te  Te60  1  0.50326566  -0.00176536  0.24677637  1
  Te  Te61  1  0.50140332  -0.00441267  0.75619379  1
  Te  Te62  1  0.50152921  0.49983049  0.25043818  1
  Te  Te63  1  0.49366939  0.50450399  0.74942395  1
