# generated using pymatgen
data_AgSbTe2
_symmetry_space_group_name_H-M   'P 1'
_cell_length_a   12.30620612
_cell_length_b   12.29394577
_cell_length_c   12.29505167
_cell_angle_alpha   89.99531391
_cell_angle_beta   90.00233005
_cell_angle_gamma   89.99791182
_symmetry_Int_Tables_number   1
_chemical_formula_structural   AgSbTe2
_chemical_formula_sum   'Ag16 Sb16 Te32'
_cell_volume   1860.14086692
_cell_formula_units_Z   16
loop_
 _symmetry_equiv_pos_site_id
 _symmetry_equiv_pos_as_xyz
  1  'x, y, z'
loop_
 _atom_site_type_symbol
 _atom_site_label
 _atom_site_symmetry_multiplicity
 _atom_site_fract_x
 _atom_site_fract_y
 _atom_site_fract_z
 _atom_site_occupancy
  Ag  Ag0  1  0.74020859  -0.00002664  0.23654165  1
  Ag  Ag1  1  0.74462195  0.75769501  0.50637628  1
  Ag  Ag2  1  0.26069602  0.75807693  -0.00872235  1
  Ag  Ag3  1  -0.00115944  0.23345901  0.75616341  1
  Ag  Ag4  1  0.25523422  0.24373582  0.50818716  1
  Ag  Ag5  1  0.50259853  0.23404442  0.76224073  1
  Ag  Ag6  1  -0.00823180  -0.00000742  -0.00965177  1
  Ag  Ag7  1  0.25519281  0.00022721  0.75695702  1
  Ag  Ag8  1  0.50664082  0.00061695  -0.00879896  1
  Ag  Ag9  1  0.50132111  0.50163524  -0.00201525  1
  Ag  Ag10  1  0.74520246  0.00050179  0.76106545  1
  Ag  Ag11  1  0.50120669  0.76626862  0.76281296  1
  Ag  Ag12  1  0.73839448  0.24017600  -0.00710738  1
  Ag  Ag13  1  0.50360071  0.76228620  0.23524411  1
  Ag  Ag14  1  0.50386949  0.23807891  0.23505040  1
  Ag  Ag15  1  -0.00374862  0.76691672  0.75630382  1
  Sb  Sb16  1  0.25115787  0.75362667  0.50579006  1
  Sb  Sb17  1  0.74858615  0.50283621  0.75282250  1
  Sb  Sb18  1  -0.00092135  0.49989581  0.50358481  1
  Sb  Sb19  1  0.25502150  0.49875680  0.24573879  1
  Sb  Sb20  1  0.50047339  0.49966617  0.50348718  1
  Sb  Sb21  1  0.74983848  0.24566588  0.50399238  1
  Sb  Sb22  1  0.25669621  0.24264094  -0.00465610  1
  Sb  Sb23  1  -0.00187951  -0.00018015  0.51254145  1
  Sb  Sb24  1  -0.00330004  0.24094717  0.24281835  1
  Sb  Sb25  1  0.26230735  -0.00050753  0.24257728  1
  Sb  Sb26  1  0.25124645  0.49862045  0.75245616  1
  Sb  Sb27  1  0.74550715  0.50282584  0.24589774  1
  Sb  Sb28  1  -0.00234475  0.50007590  -0.00249807  1
  Sb  Sb29  1  0.74293794  0.75920524  -0.00424999  1
  Sb  Sb30  1  -0.00578971  0.75935502  0.24107561  1
  Sb  Sb31  1  0.49989442  0.00016919  0.50918051  1
  Te  Te32  1  0.25568851  0.24776548  0.25491642  1
  Te  Te33  1  0.25342383  0.24665016  0.75243649  1
  Te  Te34  1  0.25784531  0.75187431  0.25343616  1
  Te  Te35  1  0.25537459  0.75368403  0.74961490  1
  Te  Te36  1  0.74621346  0.24489750  0.25616667  1
  Te  Te37  1  0.74524034  0.24638304  0.74747456  1
  Te  Te38  1  0.74543300  0.75447546  0.25075730  1
  Te  Te39  1  0.74695083  0.75292004  0.75245807  1
  Te  Te40  1  0.25325329  -0.00352850  -0.00527516  1
  Te  Te41  1  0.24934469  0.00615909  0.51053711  1
  Te  Te42  1  0.25699380  0.51424054  -0.00036929  1
  Te  Te43  1  0.24886241  0.48857992  0.49895456  1
  Te  Te44  1  0.74621845  0.00469539  -0.00437020  1
  Te  Te45  1  0.74956936  -0.00562626  0.50091958  1
  Te  Te46  1  0.74488574  0.47881395  -0.00029970  1
  Te  Te47  1  0.75077140  0.51366959  0.49881208  1
  Te  Te48  1  0.00075055  0.25167247  -0.00420003  1
  Te  Te49  1  0.00033596  0.25043940  0.50926741  1
  Te  Te50  1  0.00330873  0.74801319  -0.00449902  1
  Te  Te51  1  0.00118225  0.74961032  0.50861637  1
  Te  Te52  1  0.49924464  0.24194037  -0.00244861  1
  Te  Te53  1  0.49940825  0.25107712  0.50355291  1
  Te  Te54  1  0.50083230  0.75649141  -0.00280831  1
  Te  Te55  1  0.50096068  0.74902920  0.50234353  1
  Te  Te56  1  -0.01132910  -0.00029048  0.23261750  1
  Te  Te57  1  -0.00365022  -0.00006226  0.75612745  1
  Te  Te58  1  0.00059552  0.50006277  0.25092617  1
  Te  Te59  1  -0.00018852  0.49982514  0.75015437  1
  Te  Te60  1  0.50300367  0.00029928  0.24504892  1
  Te  Te61  1  0.50341355  -0.00006570  0.75097453  1
  Te  Te62  1  0.50047050  0.49915547  0.24018809  1
  Te  Te63  1  0.50051265  0.49986419  0.75676326  1
