# generated using pymatgen
data_AgSbTe2
_symmetry_space_group_name_H-M   'P 1'
_cell_length_a   12.21979066
_cell_length_b   12.22383690
_cell_length_c   12.21586115
_cell_angle_alpha   89.99883547
_cell_angle_beta   90.00279759
_cell_angle_gamma   90.00513160
_symmetry_Int_Tables_number   1
_chemical_formula_structural   AgSbTe2
_chemical_formula_sum   'Ag16 Sb16 Te32'
_cell_volume   1824.71649403
_cell_formula_units_Z   16
loop_
 _symmetry_equiv_pos_site_id
 _symmetry_equiv_pos_as_xyz
  1  'x, y, z'
loop_
 _atom_site_type_symbol
 _atom_site_label
 _atom_site_symmetry_multiplicity
 _atom_site_fract_x
 _atom_site_fract_y
 _atom_site_fract_z
 _atom_site_occupancy
  Ag  Ag0  1  0.49604520  -0.00024265  0.49459290  1
  Ag  Ag1  1  0.00381968  -0.00186820  0.49226299  1
  Ag  Ag2  1  0.75638904  0.49651350  0.24854236  1
  Ag  Ag3  1  0.75369841  0.74510241  0.00547629  1
  Ag  Ag4  1  0.24867882  -0.00143502  0.74105045  1
  Ag  Ag5  1  0.50665210  0.24869612  0.25231089  1
  Ag  Ag6  1  0.75431846  0.00380773  0.25220413  1
  Ag  Ag7  1  -0.00333124  0.74938231  0.25310447  1
  Ag  Ag8  1  0.50344699  0.50003300  0.49577679  1
  Ag  Ag9  1  0.24591963  -0.00074319  0.25817667  1
  Ag  Ag10  1  -0.00383009  0.50192253  0.49176345  1
  Ag  Ag11  1  0.75208969  0.49998637  0.75027043  1
  Ag  Ag12  1  0.24676232  0.75553864  0.49699452  1
  Ag  Ag13  1  -0.00710894  0.50019497  0.00798563  1
  Ag  Ag14  1  -0.00689027  0.25065020  0.25103513  1
  Ag  Ag15  1  0.75236516  0.25427085  0.00731198  1
  Sb  Sb16  1  0.50330408  0.75058685  0.25283870  1
  Sb  Sb17  1  0.50106719  0.74986165  0.74717770  1
  Sb  Sb18  1  0.50158831  0.00185731  0.00675181  1
  Sb  Sb19  1  0.24927494  0.24202348  0.49693939  1
  Sb  Sb20  1  0.24513041  0.75024412  0.00409586  1
  Sb  Sb21  1  0.50959007  0.49772998  0.00608029  1
  Sb  Sb22  1  -0.00096409  0.75005542  0.74626407  1
  Sb  Sb23  1  0.50315104  0.25031294  0.74648049  1
  Sb  Sb24  1  -0.00261471  0.24956734  0.74868767  1
  Sb  Sb25  1  0.75062290  0.25264047  0.49018429  1
  Sb  Sb26  1  0.75432059  0.74726100  0.49371600  1
  Sb  Sb27  1  0.75055779  -0.00002546  0.74714321  1
  Sb  Sb28  1  0.24354967  0.50145777  0.25371606  1
  Sb  Sb29  1  0.24635830  0.25031445  0.00486351  1
  Sb  Sb30  1  0.24828444  0.50128629  0.74473476  1
  Sb  Sb31  1  -0.00183150  -0.00002814  0.00987666  1
  Te  Te32  1  0.24953237  0.24350445  0.24828937  1
  Te  Te33  1  0.25057546  0.24185989  0.75309849  1
  Te  Te34  1  0.24493804  0.75483834  0.25294251  1
  Te  Te35  1  0.25022567  0.75599421  0.74597788  1
  Te  Te36  1  0.75195023  0.25009323  0.24854925  1
  Te  Te37  1  0.74985111  0.25451729  0.76212789  1
  Te  Te38  1  0.75356329  0.74960721  0.24794269  1
  Te  Te39  1  0.75074598  0.74562560  0.75932804  1
  Te  Te40  1  0.25002290  -0.00140863  0.00027973  1
  Te  Te41  1  0.24903505  -0.00136953  0.49693945  1
  Te  Te42  1  0.24152858  0.50172248  -0.00255486  1
  Te  Te43  1  0.24924233  0.50679296  0.50132221  1
  Te  Te44  1  0.75023266  0.00025565  0.00292585  1
  Te  Te45  1  0.75039236  -0.00178666  0.49722182  1
  Te  Te46  1  0.75196469  0.49987800  0.00394548  1
  Te  Te47  1  0.75155539  0.50196987  0.49810516  1
  Te  Te48  1  -0.00381718  0.25406412  0.00559403  1
  Te  Te49  1  0.00013204  0.25136631  0.49421536  1
  Te  Te50  1  -0.00391687  0.74610689  0.00588321  1
  Te  Te51  1  0.00213121  0.74954066  0.49607033  1
  Te  Te52  1  0.50549140  0.25078104  0.00819641  1
  Te  Te53  1  0.49965813  0.25049509  0.49423756  1
  Te  Te54  1  0.50701164  0.74946912  0.00018763  1
  Te  Te55  1  0.49399375  0.75032125  0.49823400  1
  Te  Te56  1  -0.00239770  0.00065080  0.25188934  1
  Te  Te57  1  0.00333116  0.00111464  0.74028159  1
  Te  Te58  1  0.00008519  0.49917062  0.25304364  1
  Te  Te59  1  -0.00409436  0.49931251  0.74669427  1
  Te  Te60  1  0.50187917  0.00158266  0.25411690  1
  Te  Te61  1  0.49718664  0.00104531  0.74050686  1
  Te  Te62  1  0.50286895  0.49707334  0.25475125  1
  Te  Te63  1  0.50468634  0.49885624  0.74124711  1
