# generated using pymatgen
data_AgSbTe2
_symmetry_space_group_name_H-M   'P 1'
_cell_length_a   12.27992884
_cell_length_b   12.28439952
_cell_length_c   12.29297339
_cell_angle_alpha   90.00355513
_cell_angle_beta   90.01314672
_cell_angle_gamma   90.00761550
_symmetry_Int_Tables_number   1
_chemical_formula_structural   AgSbTe2
_chemical_formula_sum   'Ag16 Sb16 Te32'
_cell_volume   1854.41404662
_cell_formula_units_Z   16
loop_
 _symmetry_equiv_pos_site_id
 _symmetry_equiv_pos_as_xyz
  1  'x, y, z'
loop_
 _atom_site_type_symbol
 _atom_site_label
 _atom_site_symmetry_multiplicity
 _atom_site_fract_x
 _atom_site_fract_y
 _atom_site_fract_z
 _atom_site_occupancy
  Ag  Ag0  1  -0.00112707  0.01496883  0.00184812  1
  Ag  Ag1  1  0.00173994  0.25682092  0.76078585  1
  Ag  Ag2  1  0.74523437  0.49263447  0.75266703  1
  Ag  Ag3  1  0.00076647  0.48506413  -0.00028490  1
  Ag  Ag4  1  0.00618468  0.25266280  0.23961967  1
  Ag  Ag5  1  0.24841036  0.25611070  0.50045909  1
  Ag  Ag6  1  0.00426795  0.74632747  0.24654808  1
  Ag  Ag7  1  0.49391827  0.49038040  0.50974531  1
  Ag  Ag8  1  0.49860292  0.73625206  0.75166011  1
  Ag  Ag9  1  0.49251344  0.25687084  0.24448717  1
  Ag  Ag10  1  0.50160547  0.01101498  -0.00307518  1
  Ag  Ag11  1  0.24610324  0.49141328  0.25078201  1
  Ag  Ag12  1  0.00320235  0.01017233  0.49764296  1
  Ag  Ag13  1  0.25475632  0.49119263  0.74779234  1
  Ag  Ag14  1  0.49737882  0.25879246  0.75400311  1
  Ag  Ag15  1  0.75645506  0.25144984  -0.00479052  1
  Sb  Sb16  1  0.75155189  0.74604225  0.50197201  1
  Sb  Sb17  1  0.49503519  0.74345376  0.24805744  1
  Sb  Sb18  1  0.49662026  0.00657590  0.50068669  1
  Sb  Sb19  1  0.25047021  0.74817561  -0.00056213  1
  Sb  Sb20  1  0.00226981  0.74567774  0.75070263  1
  Sb  Sb21  1  0.75068690  0.25233043  0.50412479  1
  Sb  Sb22  1  0.24911614  0.01038447  0.74967495  1
  Sb  Sb23  1  0.74971098  0.74533059  -0.00249021  1
  Sb  Sb24  1  0.00342288  0.49386994  0.49963029  1
  Sb  Sb25  1  0.75067062  0.00288279  0.24874922  1
  Sb  Sb26  1  0.24892912  0.74278498  0.50062691  1
  Sb  Sb27  1  0.75015235  0.00595580  0.75220204  1
  Sb  Sb28  1  0.24825817  0.01026046  0.24989261  1
  Sb  Sb29  1  0.50061438  0.48929668  -0.00353252  1
  Sb  Sb30  1  0.75140020  0.49588996  0.24706793  1
  Sb  Sb31  1  0.24522125  0.25085815  -0.00176325  1
  Te  Te32  1  0.25062153  0.25472349  0.25260121  1
  Te  Te33  1  0.24849302  0.25357476  0.74796671  1
  Te  Te34  1  0.24477955  0.73481184  0.25010263  1
  Te  Te35  1  0.25533522  0.73541414  0.74939190  1
  Te  Te36  1  0.74933968  0.25098113  0.24150180  1
  Te  Te37  1  0.75220879  0.25340309  0.75388800  1
  Te  Te38  1  0.76036262  0.74918412  0.25059252  1
  Te  Te39  1  0.74361765  0.73745933  0.74951537  1
  Te  Te40  1  0.24629565  -0.00123087  -0.00012072  1
  Te  Te41  1  0.24381020  0.01169445  0.50069120  1
  Te  Te42  1  0.24233658  0.49986802  0.00014182  1
  Te  Te43  1  0.25352621  0.49458313  0.50181310  1
  Te  Te44  1  0.75407493  0.00908170  -0.00031517  1
  Te  Te45  1  0.76193797  -0.00047553  0.50062567  1
  Te  Te46  1  0.75729164  0.49444122  -0.00340773  1
  Te  Te47  1  0.73803053  0.49911087  0.50916915  1
  Te  Te48  1  0.00180590  0.25078715  -0.00220585  1
  Te  Te49  1  -0.00064085  0.24875252  0.50051226  1
  Te  Te50  1  -0.00037834  0.75477521  0.00264960  1
  Te  Te51  1  0.00018727  0.76044876  0.49700562  1
  Te  Te52  1  0.50001854  0.24896237  0.00022535  1
  Te  Te53  1  0.50178989  0.25050598  0.50046072  1
  Te  Te54  1  0.50091311  0.76439553  -0.00153399  1
  Te  Te55  1  0.50066810  0.75085988  0.50135732  1
  Te  Te56  1  0.00107320  0.00983971  0.24224848  1
  Te  Te57  1  0.00069297  0.00091164  0.75817906  1
  Te  Te58  1  -0.00058676  0.49037372  0.25396408  1
  Te  Te59  1  0.00423141  0.49877354  0.74617510  1
  Te  Te60  1  0.49955772  0.00234707  0.24774324  1
  Te  Te61  1  0.49950522  0.00744454  0.75233672  1
  Te  Te62  1  0.49964233  0.49814885  0.24808338  1
  Te  Te63  1  0.49531561  0.49415096  0.75371177  1
