# generated using pymatgen
data_AgSbTe2
_symmetry_space_group_name_H-M   'P 1'
_cell_length_a   12.33053572
_cell_length_b   12.31704210
_cell_length_c   12.31065755
_cell_angle_alpha   90.00134768
_cell_angle_beta   89.99968161
_cell_angle_gamma   89.99781441
_symmetry_Int_Tables_number   1
_chemical_formula_structural   AgSbTe2
_chemical_formula_sum   'Ag16 Sb16 Te32'
_cell_volume   1869.69007028
_cell_formula_units_Z   16
loop_
 _symmetry_equiv_pos_site_id
 _symmetry_equiv_pos_as_xyz
  1  'x, y, z'
loop_
 _atom_site_type_symbol
 _atom_site_label
 _atom_site_symmetry_multiplicity
 _atom_site_fract_x
 _atom_site_fract_y
 _atom_site_fract_z
 _atom_site_occupancy
  Ag  Ag0  1  0.00305284  0.23993301  0.73325100  1
  Ag  Ag1  1  0.50088416  -0.01735533  0.50558321  1
  Ag  Ag2  1  0.49770970  0.51853901  0.50114713  1
  Ag  Ag3  1  0.26731565  0.75467955  0.50380611  1
  Ag  Ag4  1  -0.00442272  0.75485465  0.26939559  1
  Ag  Ag5  1  0.73065764  0.75662028  0.50052199  1
  Ag  Ag6  1  0.50145065  -0.00578786  -0.00766249  1
  Ag  Ag7  1  -0.00070838  0.24283502  0.26686518  1
  Ag  Ag8  1  -0.00056872  0.75782697  0.73188394  1
  Ag  Ag9  1  0.25482291  -0.00580374  0.74005664  1
  Ag  Ag10  1  0.00200624  0.51269286  0.50084708  1
  Ag  Ag11  1  0.74492145  -0.00687246  0.73858858  1
  Ag  Ag12  1  0.24200779  0.24224401  0.50321883  1
  Ag  Ag13  1  0.74763178  -0.00728727  0.26363844  1
  Ag  Ag14  1  0.50102429  0.76114491  0.73181661  1
  Ag  Ag15  1  0.50564499  0.75866429  0.26997915  1
  Sb  Sb16  1  0.24947043  0.24146243  -0.00414181  1
  Sb  Sb17  1  0.50018174  0.50712033  -0.00114325  1
  Sb  Sb18  1  0.50251542  0.24285414  0.25909486  1
  Sb  Sb19  1  0.75150572  0.50832285  0.74352298  1
  Sb  Sb20  1  0.75739873  0.24128569  0.50155984  1
  Sb  Sb21  1  0.25029631  -0.00239357  0.25798303  1
  Sb  Sb22  1  0.00012025  0.50169195  -0.00061149  1
  Sb  Sb23  1  0.25000985  0.50183234  0.25633407  1
  Sb  Sb24  1  0.74981652  0.75379502  -0.00089462  1
  Sb  Sb25  1  0.00137358  -0.00973389  0.50253118  1
  Sb  Sb26  1  0.49726558  0.23948461  0.74233081  1
  Sb  Sb27  1  0.00030676  -0.00080211  -0.00158787  1
  Sb  Sb28  1  0.75008939  0.24125591  -0.00124763  1
  Sb  Sb29  1  0.25033505  0.75501812  -0.00427908  1
  Sb  Sb30  1  0.75080579  0.50829393  0.25656020  1
  Sb  Sb31  1  0.24968909  0.50487441  0.74389146  1
  Te  Te32  1  0.24222957  0.24937722  0.25519578  1
  Te  Te33  1  0.24703495  0.24584835  0.74672531  1
  Te  Te34  1  0.24439762  0.75056811  0.25497698  1
  Te  Te35  1  0.24519353  0.75175418  0.74674709  1
  Te  Te36  1  0.75482309  0.24019341  0.24986648  1
  Te  Te37  1  0.75748040  0.24047858  0.74964078  1
  Te  Te38  1  0.75297165  0.75350842  0.24892022  1
  Te  Te39  1  0.75435695  0.75264627  0.75114847  1
  Te  Te40  1  0.25823014  -0.00064327  -0.01627900  1
  Te  Te41  1  0.25036874  -0.00249604  0.50368485  1
  Te  Te42  1  0.25106107  0.49712322  0.00084023  1
  Te  Te43  1  0.24859127  0.50410334  0.50093355  1
  Te  Te44  1  0.74327072  -0.00089020  -0.00197461  1
  Te  Te45  1  0.74899048  -0.00508874  0.49953357  1
  Te  Te46  1  0.74904574  0.49570980  0.00007781  1
  Te  Te47  1  0.75063184  0.51211597  0.50044599  1
  Te  Te48  1  0.00062258  0.25214811  0.00198177  1
  Te  Te49  1  0.00170452  0.25033428  0.50068144  1
  Te  Te50  1  0.00189793  0.74783170  0.00214126  1
  Te  Te51  1  0.00293759  0.75081003  0.50068054  1
  Te  Te52  1  0.49907290  0.24801763  0.00171803  1
  Te  Te53  1  0.49185337  0.25792945  0.49974650  1
  Te  Te54  1  0.49866275  0.75345764  0.00105979  1
  Te  Te55  1  0.49892981  0.74853955  0.49980614  1
  Te  Te56  1  0.00028357  -0.00496559  0.24491019  1
  Te  Te57  1  -0.00344653  -0.00452594  0.75224989  1
  Te  Te58  1  -0.00013976  0.50579810  0.25330371  1
  Te  Te59  1  -0.00024786  0.50423726  0.74671451  1
  Te  Te60  1  0.49886076  -0.00212576  0.25879793  1
  Te  Te61  1  0.50415728  -0.00138668  0.74314963  1
  Te  Te62  1  0.50028603  0.50807223  0.25109557  1
  Te  Te63  1  0.50127682  0.51022930  0.74863990  1
