# generated using pymatgen
data_AgSbTe2
_symmetry_space_group_name_H-M   'P 1'
_cell_length_a   12.22752910
_cell_length_b   12.23161984
_cell_length_c   12.21474250
_cell_angle_alpha   89.99691475
_cell_angle_beta   89.99355214
_cell_angle_gamma   90.00027653
_symmetry_Int_Tables_number   1
_chemical_formula_structural   AgSbTe2
_chemical_formula_sum   'Ag16 Sb16 Te32'
_cell_volume   1826.86725954
_cell_formula_units_Z   16
loop_
 _symmetry_equiv_pos_site_id
 _symmetry_equiv_pos_as_xyz
  1  'x, y, z'
loop_
 _atom_site_type_symbol
 _atom_site_label
 _atom_site_symmetry_multiplicity
 _atom_site_fract_x
 _atom_site_fract_y
 _atom_site_fract_z
 _atom_site_occupancy
  Ag  Ag0  1  0.24816411  0.00341746  0.24743637  1
  Ag  Ag1  1  0.00172011  -0.00218937  -0.00306251  1
  Ag  Ag2  1  0.24866763  0.24911655  0.49889051  1
  Ag  Ag3  1  0.75059764  0.25580779  -0.00518611  1
  Ag  Ag4  1  0.00430149  0.00224013  0.50290748  1
  Ag  Ag5  1  0.24575541  0.74667868  -0.00187985  1
  Ag  Ag6  1  0.75425321  0.74395623  -0.00608732  1
  Ag  Ag7  1  0.75017930  0.49924931  0.75841883  1
  Ag  Ag8  1  0.50217177  0.49828580  -0.00406554  1
  Ag  Ag9  1  -0.00239147  0.50252840  -0.00489942  1
  Ag  Ag10  1  -0.00126364  0.25089441  0.75535263  1
  Ag  Ag11  1  0.50146489  0.25490881  0.75618154  1
  Ag  Ag12  1  0.49524080  0.25252271  0.24478604  1
  Ag  Ag13  1  -0.00151757  0.74876581  0.75868010  1
  Ag  Ag14  1  0.25091123  0.49681797  0.24366985  1
  Ag  Ag15  1  0.50165570  0.74496720  0.75715668  1
  Sb  Sb16  1  0.49771556  0.49874720  0.50392588  1
  Sb  Sb17  1  0.74931159  0.49723062  0.24028363  1
  Sb  Sb18  1  0.25017983  0.49950408  0.75648305  1
  Sb  Sb19  1  0.75294734  0.74949996  0.50691236  1
  Sb  Sb20  1  0.00122348  0.75028598  0.23964595  1
  Sb  Sb21  1  0.24591827  0.00082551  0.75345972  1
  Sb  Sb22  1  0.00348168  0.25024328  0.24518585  1
  Sb  Sb23  1  0.75255455  0.00063008  0.75368463  1
  Sb  Sb24  1  0.49598824  0.00236594  0.49982516  1
  Sb  Sb25  1  0.49708887  0.00096909  -0.00047264  1
  Sb  Sb26  1  0.00313317  0.49874764  0.50476153  1
  Sb  Sb27  1  0.49718572  0.74762902  0.24229580  1
  Sb  Sb28  1  0.75101491  0.25039444  0.50413971  1
  Sb  Sb29  1  0.75083431  0.00233490  0.24495463  1
  Sb  Sb30  1  0.24995094  0.25262415  0.00082783  1
  Sb  Sb31  1  0.24708445  0.75092004  0.50183479  1
  Te  Te32  1  0.25264098  0.24997303  0.25144633  1
  Te  Te33  1  0.25053395  0.25017600  0.74557292  1
  Te  Te34  1  0.25105577  0.74976425  0.24615565  1
  Te  Te35  1  0.24971352  0.75023405  0.75423680  1
  Te  Te36  1  0.74160981  0.25070832  0.24521032  1
  Te  Te37  1  0.74953334  0.25250702  0.75372968  1
  Te  Te38  1  0.74846644  0.74967247  0.24233837  1
  Te  Te39  1  0.75046501  0.74742056  0.75507886  1
  Te  Te40  1  0.24510261  -0.00491838  0.00396592  1
  Te  Te41  1  0.24530814  0.00256896  0.49408486  1
  Te  Te42  1  0.25015096  0.50286587  0.00342341  1
  Te  Te43  1  0.24971822  0.49547499  0.48866466  1
  Te  Te44  1  0.75769385  0.00054384  0.00180275  1
  Te  Te45  1  0.76081221  -0.00037424  0.49712226  1
  Te  Te46  1  0.75055641  0.49898657  -0.00309953  1
  Te  Te47  1  0.75044499  0.50047188  0.50889564  1
  Te  Te48  1  -0.00040154  0.25102565  -0.00328615  1
  Te  Te49  1  0.00305356  0.24712465  0.50518664  1
  Te  Te50  1  0.00054017  0.74854058  -0.00316066  1
  Te  Te51  1  -0.00002160  0.75435320  0.51038221  1
  Te  Te52  1  0.49997527  0.25094014  -0.00400246  1
  Te  Te53  1  0.49641471  0.24884049  0.50276018  1
  Te  Te54  1  0.49959647  0.74922071  -0.00425909  1
  Te  Te55  1  0.50049360  0.75104041  0.51126988  1
  Te  Te56  1  0.00489941  0.00002718  0.24797697  1
  Te  Te57  1  0.00089200  0.00162187  0.75393628  1
  Te  Te58  1  0.00393748  0.49977819  0.24480547  1
  Te  Te59  1  0.00031085  0.49881144  0.75391034  1
  Te  Te60  1  0.49367077  0.00503855  0.25108543  1
  Te  Te61  1  0.49973986  0.00250945  0.74941531  1
  Te  Te62  1  0.49770588  0.49624545  0.24546081  1
  Te  Te63  1  0.49986338  0.49788706  0.75384277  1
