# generated using pymatgen
data_AgSbTe2
_symmetry_space_group_name_H-M   'P 1'
_cell_length_a   12.22754190
_cell_length_b   12.24256452
_cell_length_c   12.23459675
_cell_angle_alpha   89.99506826
_cell_angle_beta   90.00702036
_cell_angle_gamma   90.00609262
_symmetry_Int_Tables_number   1
_chemical_formula_structural   AgSbTe2
_chemical_formula_sum   'Ag16 Sb16 Te32'
_cell_volume   1831.47592172
_cell_formula_units_Z   16
loop_
 _symmetry_equiv_pos_site_id
 _symmetry_equiv_pos_as_xyz
  1  'x, y, z'
loop_
 _atom_site_type_symbol
 _atom_site_label
 _atom_site_symmetry_multiplicity
 _atom_site_fract_x
 _atom_site_fract_y
 _atom_site_fract_z
 _atom_site_occupancy
  Ag  Ag0  1  0.75379008  0.74935834  -0.00070543  1
  Ag  Ag1  1  0.75482798  0.50217006  0.25214366  1
  Ag  Ag2  1  -0.00933899  0.75118298  0.74880476  1
  Ag  Ag3  1  0.24582475  0.49765333  0.25474231  1
  Ag  Ag4  1  0.75215916  0.49836412  0.74820238  1
  Ag  Ag5  1  0.75459898  -0.00187337  0.24964391  1
  Ag  Ag6  1  0.24622304  0.00421992  0.74737090  1
  Ag  Ag7  1  0.50476919  0.49779412  0.50072633  1
  Ag  Ag8  1  0.75244538  0.74647502  0.50063304  1
  Ag  Ag9  1  -0.00876010  0.74654179  0.25091764  1
  Ag  Ag10  1  0.75203637  0.25069320  -0.00422857  1
  Ag  Ag11  1  -0.00625344  0.25437464  0.25149544  1
  Ag  Ag12  1  0.24853137  0.25229049  0.50205449  1
  Ag  Ag13  1  0.50828355  0.25065450  0.74769056  1
  Ag  Ag14  1  0.75437023  0.00208173  0.75106601  1
  Ag  Ag15  1  -0.00745510  0.24805433  0.74896162  1
  Sb  Sb16  1  0.50523094  0.49796582  -0.00169436  1
  Sb  Sb17  1  0.50485519  0.00198869  -0.00203333  1
  Sb  Sb18  1  -0.00422560  0.49990966  0.49867231  1
  Sb  Sb19  1  -0.00305417  0.00050065  -0.00254540  1
  Sb  Sb20  1  0.24814635  0.49775357  0.74548354  1
  Sb  Sb21  1  0.24685851  0.25095096  -0.00156011  1
  Sb  Sb22  1  0.50672364  0.25285909  0.25206109  1
  Sb  Sb23  1  0.50998920  0.74952145  0.74821805  1
  Sb  Sb24  1  -0.00307950  0.00085051  0.50300430  1
  Sb  Sb25  1  0.51016030  0.74780941  0.25150887  1
  Sb  Sb26  1  0.50379275  0.00287463  0.50268819  1
  Sb  Sb27  1  0.24452266  0.74896325  -0.00112826  1
  Sb  Sb28  1  0.24780515  0.74864184  0.50045329  1
  Sb  Sb29  1  0.75172906  0.25325381  0.50412505  1
  Sb  Sb30  1  0.24403043  0.00185972  0.25213083  1
  Sb  Sb31  1  -0.00297524  0.49961467  0.00155677  1
  Te  Te32  1  0.24489989  0.24909127  0.25005133  1
  Te  Te33  1  0.24415115  0.25010130  0.75029555  1
  Te  Te34  1  0.24115776  0.75016924  0.24942761  1
  Te  Te35  1  0.24157368  0.75238944  0.75094716  1
  Te  Te36  1  0.75297324  0.25134121  0.25141210  1
  Te  Te37  1  0.75412741  0.24995898  0.74675050  1
  Te  Te38  1  0.75287323  0.74831221  0.24958565  1
  Te  Te39  1  0.75211983  0.74986407  0.75026522  1
  Te  Te40  1  0.25347553  -0.00116662  -0.00803331  1
  Te  Te41  1  0.25314276  0.00418379  0.50535527  1
  Te  Te42  1  0.25362562  0.50114124  0.01207522  1
  Te  Te43  1  0.25706827  0.49724310  0.49586169  1
  Te  Te44  1  0.74918141  0.00145975  -0.00122100  1
  Te  Te45  1  0.74775580  -0.00686796  0.50030953  1
  Te  Te46  1  0.74866368  0.49833436  -0.00043913  1
  Te  Te47  1  0.74620542  0.50220985  0.50007000  1
  Te  Te48  1  -0.00569927  0.25011029  -0.00059290  1
  Te  Te49  1  0.00549472  0.24996318  0.50026324  1
  Te  Te50  1  -0.00631833  0.74963831  -0.00050035  1
  Te  Te51  1  -0.00395546  0.74988695  0.50071579  1
  Te  Te52  1  0.50741084  0.25040736  -0.00767066  1
  Te  Te53  1  0.49496671  0.25359351  0.50383138  1
  Te  Te54  1  0.50881627  0.74959735  0.00001478  1
  Te  Te55  1  0.50383968  0.74291988  0.50009258  1
  Te  Te56  1  -0.00492211  0.00076869  0.25060678  1
  Te  Te57  1  -0.00471113  0.00152297  0.74947596  1
  Te  Te58  1  -0.00431528  0.49838666  0.24993960  1
  Te  Te59  1  -0.00387967  0.49940738  0.74965839  1
  Te  Te60  1  0.50684629  -0.00037506  0.25046223  1
  Te  Te61  1  0.50297529  0.00423980  0.74929900  1
  Te  Te62  1  0.50198956  0.49964733  0.25495245  1
  Te  Te63  1  0.50190507  0.49716725  0.74627844  1
