# generated using pymatgen
data_AgSbTe2
_symmetry_space_group_name_H-M   'P 1'
_cell_length_a   12.22331491
_cell_length_b   12.21818494
_cell_length_c   12.22017218
_cell_angle_alpha   89.99417933
_cell_angle_beta   89.99783342
_cell_angle_gamma   89.99900161
_symmetry_Int_Tables_number   1
_chemical_formula_structural   AgSbTe2
_chemical_formula_sum   'Ag16 Sb16 Te32'
_cell_volume   1825.04264792
_cell_formula_units_Z   16
loop_
 _symmetry_equiv_pos_site_id
 _symmetry_equiv_pos_as_xyz
  1  'x, y, z'
loop_
 _atom_site_type_symbol
 _atom_site_label
 _atom_site_symmetry_multiplicity
 _atom_site_fract_x
 _atom_site_fract_y
 _atom_site_fract_z
 _atom_site_occupancy
  Ag  Ag0  1  0.00364000  0.49971177  -0.00335981  1
  Ag  Ag1  1  0.01454510  0.74699776  0.75053889  1
  Ag  Ag2  1  0.74677879  0.25212171  0.00219191  1
  Ag  Ag3  1  0.49522742  0.50033163  0.50777398  1
  Ag  Ag4  1  0.25369887  0.74664811  0.51418698  1
  Ag  Ag5  1  0.25613324  0.51308431  0.75023728  1
  Ag  Ag6  1  0.50092022  0.25248914  0.24943138  1
  Ag  Ag7  1  0.49478241  0.25823922  0.74961683  1
  Ag  Ag8  1  0.48586664  0.74309187  0.74777124  1
  Ag  Ag9  1  0.25190438  -0.01396100  0.74936446  1
  Ag  Ag10  1  -0.00078325  0.25131888  0.24832724  1
  Ag  Ag11  1  0.25529650  0.25381894  0.50431769  1
  Ag  Ag12  1  0.74606577  0.74839355  0.50307591  1
  Ag  Ag13  1  0.74900744  0.00369312  0.24981842  1
  Ag  Ag14  1  0.25123506  0.74508480  -0.01459799  1
  Ag  Ag15  1  0.49693663  0.49800330  -0.00743982  1
  Sb  Sb16  1  0.00013428  0.74858103  0.24938023  1
  Sb  Sb17  1  0.49895453  -0.00127836  0.50073149  1
  Sb  Sb18  1  0.25290050  0.25510165  -0.00426554  1
  Sb  Sb19  1  0.74486099  0.25160270  0.49909762  1
  Sb  Sb20  1  0.25060183  0.00213961  0.24995403  1
  Sb  Sb21  1  0.25073234  0.49894680  0.25047845  1
  Sb  Sb22  1  0.74249846  0.50081085  0.75008852  1
  Sb  Sb23  1  0.00447117  0.25349323  0.75099424  1
  Sb  Sb24  1  0.49877311  0.00214442  -0.00122367  1
  Sb  Sb25  1  0.74945143  0.49704680  0.24958606  1
  Sb  Sb26  1  0.74836231  0.74847858  -0.00198203  1
  Sb  Sb27  1  0.49982894  0.74687061  0.25173230  1
  Sb  Sb28  1  0.74846368  -0.00111625  0.74993821  1
  Sb  Sb29  1  0.00079742  -0.00043103  0.50036864  1
  Sb  Sb30  1  0.00476013  0.50043734  0.50367375  1
  Sb  Sb31  1  0.00143002  0.00098526  -0.00106420  1
  Te  Te32  1  0.25178150  0.24853036  0.25508530  1
  Te  Te33  1  0.25270465  0.25163268  0.74724330  1
  Te  Te34  1  0.24919800  0.75219053  0.25236834  1
  Te  Te35  1  0.25216487  0.74844811  0.74943427  1
  Te  Te36  1  0.74806477  0.24751847  0.24929266  1
  Te  Te37  1  0.74561516  0.24805596  0.75274844  1
  Te  Te38  1  0.75076488  0.75633360  0.25436959  1
  Te  Te39  1  0.74869041  0.75161648  0.74582521  1
  Te  Te40  1  0.25004173  -0.00878079  -0.00444491  1
  Te  Te41  1  0.24969025  -0.00116658  0.50398165  1
  Te  Te42  1  0.25208602  0.50248444  -0.00138239  1
  Te  Te43  1  0.25310036  0.50044307  0.50142929  1
  Te  Te44  1  0.75021212  0.00526882  0.00409717  1
  Te  Te45  1  0.75043564  -0.00527597  0.49623315  1
  Te  Te46  1  0.74799895  0.49577640  -0.00023972  1
  Te  Te47  1  0.74368871  0.50537465  0.49955432  1
  Te  Te48  1  -0.00151704  0.25460515  0.00186220  1
  Te  Te49  1  0.00339393  0.25209105  0.49662758  1
  Te  Te50  1  0.00050195  0.74462532  -0.00207819  1
  Te  Te51  1  0.00286863  0.74840448  0.50260146  1
  Te  Te52  1  0.50005985  0.25362353  -0.00068294  1
  Te  Te53  1  0.49841817  0.25386540  0.50185449  1
  Te  Te54  1  0.49932178  0.74446215  -0.00069054  1
  Te  Te55  1  0.49676131  0.74655187  0.49996966  1
  Te  Te56  1  -0.00359444  0.00652162  0.24970799  1
  Te  Te57  1  0.00534104  -0.00573749  0.75045612  1
  Te  Te58  1  -0.00023758  0.49485199  0.24289156  1
  Te  Te59  1  0.00613075  0.50289495  0.75429333  1
  Te  Te60  1  0.50328692  0.00816354  0.24940842  1
  Te  Te61  1  0.49623878  -0.00120431  0.75076234  1
  Te  Te62  1  0.50021566  0.49486784  0.24841718  1
  Te  Te63  1  0.49829589  0.50008231  0.75026094  1
