# generated using pymatgen
data_AgSbTe2
_symmetry_space_group_name_H-M   'P 1'
_cell_length_a   12.21411014
_cell_length_b   12.21559437
_cell_length_c   12.22144399
_cell_angle_alpha   90.00370255
_cell_angle_beta   90.00413495
_cell_angle_gamma   89.99652424
_symmetry_Int_Tables_number   1
_chemical_formula_structural   AgSbTe2
_chemical_formula_sum   'Ag16 Sb16 Te32'
_cell_volume   1823.47139142
_cell_formula_units_Z   16
loop_
 _symmetry_equiv_pos_site_id
 _symmetry_equiv_pos_as_xyz
  1  'x, y, z'
loop_
 _atom_site_type_symbol
 _atom_site_label
 _atom_site_symmetry_multiplicity
 _atom_site_fract_x
 _atom_site_fract_y
 _atom_site_fract_z
 _atom_site_occupancy
  Ag  Ag0  1  0.50251327  0.00055808  0.49867141  1
  Ag  Ag1  1  0.24806056  0.74742169  0.00107577  1
  Ag  Ag2  1  0.24628364  0.50153667  0.24896622  1
  Ag  Ag3  1  0.50129100  0.49928322  0.50076447  1
  Ag  Ag4  1  -0.00325398  0.74449133  0.75586672  1
  Ag  Ag5  1  -0.00063058  0.50233982  0.49470260  1
  Ag  Ag6  1  -0.00056124  0.50711034  0.00462397  1
  Ag  Ag7  1  0.74656157  -0.00140607  0.24797822  1
  Ag  Ag8  1  -0.00075846  0.74243442  0.24467496  1
  Ag  Ag9  1  0.74803993  0.50460928  0.75075554  1
  Ag  Ag10  1  0.50283399  0.74747990  0.75257972  1
  Ag  Ag11  1  -0.00067582  0.25742263  0.24894823  1
  Ag  Ag12  1  0.50249715  0.25234582  0.74860503  1
  Ag  Ag13  1  0.75193551  0.74850528  -0.00152652  1
  Ag  Ag14  1  0.50141962  0.25016595  0.25122956  1
  Ag  Ag15  1  0.50212833  -0.00313497  0.00130561  1
  Sb  Sb16  1  0.74943713  0.74860430  0.50154815  1
  Sb  Sb17  1  0.25092088  0.25356922  0.00329178  1
  Sb  Sb18  1  0.75384678  0.50196853  0.24858591  1
  Sb  Sb19  1  0.25143955  0.50333452  0.75143803  1
  Sb  Sb20  1  0.74741545  0.25139237  0.49836986  1
  Sb  Sb21  1  -0.00312718  -0.00181537  0.49684273  1
  Sb  Sb22  1  0.25280447  -0.00251015  0.75212564  1
  Sb  Sb23  1  -0.00288315  0.25765696  0.75024769  1
  Sb  Sb24  1  0.74547056  -0.00491114  0.75270284  1
  Sb  Sb25  1  0.25227921  0.25264025  0.49752259  1
  Sb  Sb26  1  0.25296317  -0.00238619  0.24733550  1
  Sb  Sb27  1  0.74927528  0.25119408  0.00164938  1
  Sb  Sb28  1  0.50133847  0.50314301  -0.00023409  1
  Sb  Sb29  1  -0.00260345  -0.00790374  0.00208294  1
  Sb  Sb30  1  0.25069448  0.74727563  0.49772454  1
  Sb  Sb31  1  0.50175191  0.74965419  0.24809290  1
  Te  Te32  1  0.25034271  0.25534985  0.24852388  1
  Te  Te33  1  0.25851808  0.24952576  0.75155054  1
  Te  Te34  1  0.24547793  0.74618134  0.24494176  1
  Te  Te35  1  0.25006330  0.74891827  0.75698536  1
  Te  Te36  1  0.74805805  0.24536617  0.24843599  1
  Te  Te37  1  0.74397249  0.25640742  0.75163873  1
  Te  Te38  1  0.75342736  0.75282344  0.24443885  1
  Te  Te39  1  0.74958843  0.74700824  0.75386075  1
  Te  Te40  1  0.25680527  -0.00815877  0.00036875  1
  Te  Te41  1  0.26014390  -0.00106821  0.50013975  1
  Te  Te42  1  0.24567102  0.50507170  0.00542826  1
  Te  Te43  1  0.25037300  0.50139708  0.49278674  1
  Te  Te44  1  0.74596698  -0.00561316  0.00346283  1
  Te  Te45  1  0.74317688  -0.00083565  0.49340442  1
  Te  Te46  1  0.75339664  0.50565672  -0.00384964  1
  Te  Te47  1  0.74852230  0.50064591  0.50546947  1
  Te  Te48  1  0.00050305  0.25531332  0.00363198  1
  Te  Te49  1  0.00110351  0.25543997  0.49636345  1
  Te  Te50  1  -0.00080399  0.74927103  -0.00032341  1
  Te  Te51  1  0.00051905  0.74589598  0.50023953  1
  Te  Te52  1  0.49973844  0.24564764  0.00178912  1
  Te  Te53  1  0.49955365  0.25228062  0.49870204  1
  Te  Te54  1  0.50119527  0.75111355  -0.00286416  1
  Te  Te55  1  0.49923894  0.74749951  0.50534125  1
  Te  Te56  1  -0.00346790  0.00149939  0.25206234  1
  Te  Te57  1  -0.00079019  -0.00526818  0.74774094  1
  Te  Te58  1  -0.00329471  0.50024916  0.25124172  1
  Te  Te59  1  -0.00088072  0.50099603  0.74894066  1
  Te  Te60  1  0.50165654  0.00110729  0.25027497  1
  Te  Te61  1  0.50234819  -0.00087503  0.74942669  1
  Te  Te62  1  0.50036753  0.49753637  0.25255441  1
  Te  Te63  1  0.50080096  0.50154740  0.74874412  1
