# generated using pymatgen
data_AgSbTe2
_symmetry_space_group_name_H-M   'P 1'
_cell_length_a   12.30141276
_cell_length_b   12.28376882
_cell_length_c   12.29220154
_cell_angle_alpha   90.01756916
_cell_angle_beta   89.99371327
_cell_angle_gamma   90.00473748
_symmetry_Int_Tables_number   1
_chemical_formula_structural   AgSbTe2
_chemical_formula_sum   'Ag16 Sb16 Te32'
_cell_volume   1857.44632621
_cell_formula_units_Z   16
loop_
 _symmetry_equiv_pos_site_id
 _symmetry_equiv_pos_as_xyz
  1  'x, y, z'
loop_
 _atom_site_type_symbol
 _atom_site_label
 _atom_site_symmetry_multiplicity
 _atom_site_fract_x
 _atom_site_fract_y
 _atom_site_fract_z
 _atom_site_occupancy
  Ag  Ag0  1  0.72794292  0.49472203  0.74153374  1
  Ag  Ag1  1  0.25911700  0.01000385  0.73800977  1
  Ag  Ag2  1  0.49038885  0.48575629  0.51700822  1
  Ag  Ag3  1  0.26761568  0.49028343  0.73573970  1
  Ag  Ag4  1  0.75004230  0.00910082  0.25654798  1
  Ag  Ag5  1  0.73993693  0.25263235  0.50065959  1
  Ag  Ag6  1  0.49113197  0.01242120  0.50650110  1
  Ag  Ag7  1  0.00414863  0.00606087  0.00378024  1
  Ag  Ag8  1  0.49358680  0.26597521  0.74037770  1
  Ag  Ag9  1  0.01285022  0.48990011  0.50151333  1
  Ag  Ag10  1  0.49736560  0.72895969  0.74596624  1
  Ag  Ag11  1  0.24933346  0.01108555  0.25994961  1
  Ag  Ag12  1  0.00619944  0.24709231  0.25701645  1
  Ag  Ag13  1  0.49558789  0.49644491  -0.02238884  1
  Ag  Ag14  1  0.25277371  0.48680179  0.26681189  1
  Ag  Ag15  1  0.25769059  0.25732037  0.50125130  1
  Sb  Sb16  1  0.25218606  0.74965620  -0.00048967  1
  Sb  Sb17  1  0.74335800  0.00570835  0.74363776  1
  Sb  Sb18  1  0.00727144  0.00767881  0.49989142  1
  Sb  Sb19  1  0.25119505  0.25049461  -0.00025080  1
  Sb  Sb20  1  0.74806700  0.49029355  0.25805843  1
  Sb  Sb21  1  0.25023046  0.74372000  0.49968144  1
  Sb  Sb22  1  0.00115548  0.49626754  -0.00051815  1
  Sb  Sb23  1  0.49981067  0.74767887  0.25340981  1
  Sb  Sb24  1  0.00042573  0.75035311  0.25134975  1
  Sb  Sb25  1  0.49413706  0.25027530  0.25865962  1
  Sb  Sb26  1  0.74700440  0.74984602  -0.00150281  1
  Sb  Sb27  1  0.00429373  0.25172537  0.74573908  1
  Sb  Sb28  1  0.74782858  0.74768941  0.50137020  1
  Sb  Sb29  1  0.74908287  0.25041394  -0.00045660  1
  Sb  Sb30  1  0.00264294  0.74946103  0.74885380  1
  Sb  Sb31  1  0.49979941  0.00393891  -0.00304010  1
  Te  Te32  1  0.25034135  0.25041681  0.25326519  1
  Te  Te33  1  0.24860642  0.24996621  0.74671441  1
  Te  Te34  1  0.25066192  0.75384270  0.25036204  1
  Te  Te35  1  0.25287193  0.75130009  0.74876221  1
  Te  Te36  1  0.75297162  0.24625603  0.25590369  1
  Te  Te37  1  0.75183282  0.25193816  0.74357045  1
  Te  Te38  1  0.74935705  0.76730286  0.24962943  1
  Te  Te39  1  0.74541840  0.74348693  0.74940802  1
  Te  Te40  1  0.24945959  0.00097806  0.00382019  1
  Te  Te41  1  0.25055947  0.00302325  0.50039918  1
  Te  Te42  1  0.25111377  0.49913804  -0.00111905  1
  Te  Te43  1  0.25403865  0.49808833  0.49920785  1
  Te  Te44  1  0.75044672  0.00137588  0.00556102  1
  Te  Te45  1  0.75004739  0.00610904  0.49993627  1
  Te  Te46  1  0.75004814  0.49923470  -0.00443853  1
  Te  Te47  1  0.74314229  0.49501090  0.49963815  1
  Te  Te48  1  -0.00052415  0.24507962  0.01076120  1
  Te  Te49  1  0.00398529  0.25531911  0.49664341  1
  Te  Te50  1  -0.00096285  0.76081290  -0.00014408  1
  Te  Te51  1  -0.00141487  0.72893561  0.50118966  1
  Te  Te52  1  0.49992712  0.25490617  -0.01576374  1
  Te  Te53  1  0.49646927  0.24760380  0.50176551  1
  Te  Te54  1  0.50007401  0.74221689  -0.00826829  1
  Te  Te55  1  0.49966112  0.75423850  0.50331149  1
  Te  Te56  1  0.00918799  -0.00008925  0.25319785  1
  Te  Te57  1  0.00591846  -0.00081906  0.75060916  1
  Te  Te58  1  0.00265113  0.50056695  0.24852314  1
  Te  Te59  1  0.00571187  0.49982009  0.75110814  1
  Te  Te60  1  0.49199884  0.00000718  0.24842575  1
  Te  Te61  1  0.49712394  0.00496641  0.74962072  1
  Te  Te62  1  0.49560866  0.50012895  0.25370953  1
  Te  Te63  1  0.49946578  0.49907634  0.75001883  1
