# generated using pymatgen
data_AgSbTe2
_symmetry_space_group_name_H-M   'P 1'
_cell_length_a   12.20972962
_cell_length_b   12.21206601
_cell_length_c   12.21952243
_cell_angle_alpha   89.99722375
_cell_angle_beta   89.99901524
_cell_angle_gamma   89.99678971
_symmetry_Int_Tables_number   1
_chemical_formula_structural   AgSbTe2
_chemical_formula_sum   'Ag16 Sb16 Te32'
_cell_volume   1822.00440094
_cell_formula_units_Z   16
loop_
 _symmetry_equiv_pos_site_id
 _symmetry_equiv_pos_as_xyz
  1  'x, y, z'
loop_
 _atom_site_type_symbol
 _atom_site_label
 _atom_site_symmetry_multiplicity
 _atom_site_fract_x
 _atom_site_fract_y
 _atom_site_fract_z
 _atom_site_occupancy
  Ag  Ag0  1  0.50179167  -0.00027269  0.00198563  1
  Ag  Ag1  1  0.24849478  0.00199414  0.25306920  1
  Ag  Ag2  1  0.00406069  0.24685690  0.24837047  1
  Ag  Ag3  1  0.75111810  -0.00376364  0.25075567  1
  Ag  Ag4  1  0.24780346  0.49658281  0.74691853  1
  Ag  Ag5  1  0.74891707  0.75505749  0.49683434  1
  Ag  Ag6  1  0.25181801  0.75155294  0.49749715  1
  Ag  Ag7  1  0.49951179  -0.00225412  0.49790000  1
  Ag  Ag8  1  0.49578683  0.50175503  0.50078882  1
  Ag  Ag9  1  0.75204595  0.75516498  0.00303815  1
  Ag  Ag10  1  0.74957239  -0.00102723  0.74945969  1
  Ag  Ag11  1  0.00415759  0.25008526  0.75145662  1
  Ag  Ag12  1  0.24927235  0.24866217  0.49914254  1
  Ag  Ag13  1  0.24507846  0.24840053  0.00083067  1
  Ag  Ag14  1  -0.00161609  0.75360378  0.25035022  1
  Ag  Ag15  1  0.00175472  0.49735992  0.00009915  1
  Sb  Sb16  1  0.75377737  0.24537376  0.00150646  1
  Sb  Sb17  1  0.50006674  0.75143986  0.74718256  1
  Sb  Sb18  1  0.00307862  0.49986871  0.50086276  1
  Sb  Sb19  1  0.50124190  0.75438042  0.25258227  1
  Sb  Sb20  1  0.49801295  0.50037635  -0.00154546  1
  Sb  Sb21  1  -0.00072099  0.00184516  0.00290978  1
  Sb  Sb22  1  0.24943496  0.00255908  0.74710395  1
  Sb  Sb23  1  0.24838917  0.75201239  0.00331072  1
  Sb  Sb24  1  0.00000758  0.75084143  0.75082928  1
  Sb  Sb25  1  0.24744445  0.49824684  0.25292316  1
  Sb  Sb26  1  0.49606890  0.24834401  0.74928387  1
  Sb  Sb27  1  0.75180148  0.49933591  0.74848021  1
  Sb  Sb28  1  0.74993726  0.24460728  0.49849528  1
  Sb  Sb29  1  0.00119673  -0.00046005  0.49719647  1
  Sb  Sb30  1  0.75313580  0.50430768  0.25103626  1
  Sb  Sb31  1  0.49494431  0.24524455  0.25049693  1
  Te  Te32  1  0.24551088  0.24687418  0.25108433  1
  Te  Te33  1  0.24566809  0.25091838  0.74886563  1
  Te  Te34  1  0.24406631  0.75459289  0.25377165  1
  Te  Te35  1  0.24789398  0.74582655  0.74368126  1
  Te  Te36  1  0.75977176  0.24232094  0.25026077  1
  Te  Te37  1  0.75826134  0.24533726  0.74968102  1
  Te  Te38  1  0.75442762  0.75407895  0.25189263  1
  Te  Te39  1  0.75159350  0.75515592  0.74820923  1
  Te  Te40  1  0.25480347  0.00174523  0.00160861  1
  Te  Te41  1  0.25360252  -0.00028171  0.49943555  1
  Te  Te42  1  0.25008538  0.49795562  -0.00338062  1
  Te  Te43  1  0.25274283  0.50014922  0.50235265  1
  Te  Te44  1  0.74632155  -0.00275803  0.00205359  1
  Te  Te45  1  0.74557799  -0.00248665  0.49788499  1
  Te  Te46  1  0.75084960  0.50629646  -0.00115051  1
  Te  Te47  1  0.74328514  0.50702245  0.50164144  1
  Te  Te48  1  0.00361256  0.25278953  0.00176520  1
  Te  Te49  1  0.00541491  0.25161344  0.49841295  1
  Te  Te50  1  -0.00254557  0.74594745  0.00366825  1
  Te  Te51  1  -0.00051973  0.74850826  0.49506425  1
  Te  Te52  1  0.49366920  0.24689878  -0.00000873  1
  Te  Te53  1  0.49483447  0.24815352  0.49989380  1
  Te  Te54  1  0.50485125  0.75397095  0.00052447  1
  Te  Te55  1  0.49892400  0.75295145  0.49944191  1
  Te  Te56  1  0.00108522  -0.00001262  0.24928565  1
  Te  Te57  1  -0.00507744  0.00565868  0.75088036  1
  Te  Te58  1  0.00002803  0.49872629  0.24477227  1
  Te  Te59  1  0.00333633  0.49517048  0.75420750  1
  Te  Te60  1  0.49980353  0.00069892  0.25129167  1
  Te  Te61  1  0.50526112  0.00105821  0.74918442  1
  Te  Te62  1  0.50088815  0.49791594  0.25730705  1
  Te  Te63  1  0.49458699  0.49912141  0.74526538  1
