# generated using pymatgen
data_AgSbTe2
_symmetry_space_group_name_H-M   'P 1'
_cell_length_a   12.31169238
_cell_length_b   12.30219058
_cell_length_c   12.28646509
_cell_angle_alpha   90.00536512
_cell_angle_beta   90.01380370
_cell_angle_gamma   90.00778926
_symmetry_Int_Tables_number   1
_chemical_formula_structural   AgSbTe2
_chemical_formula_sum   'Ag16 Sb16 Te32'
_cell_volume   1860.91758042
_cell_formula_units_Z   16
loop_
 _symmetry_equiv_pos_site_id
 _symmetry_equiv_pos_as_xyz
  1  'x, y, z'
loop_
 _atom_site_type_symbol
 _atom_site_label
 _atom_site_symmetry_multiplicity
 _atom_site_fract_x
 _atom_site_fract_y
 _atom_site_fract_z
 _atom_site_occupancy
  Ag  Ag0  1  0.00521224  0.74951062  0.74166857  1
  Ag  Ag1  1  0.50876546  -0.00289161  0.50670742  1
  Ag  Ag2  1  0.24425181  0.74916700  0.51264535  1
  Ag  Ag3  1  0.51884362  0.50266618  0.50354736  1
  Ag  Ag4  1  0.49847348  -0.00256176  -0.00986133  1
  Ag  Ag5  1  -0.01003038  -0.01266442  0.50814544  1
  Ag  Ag6  1  0.74505457  0.27036993  0.50128893  1
  Ag  Ag7  1  0.24817981  0.51643476  0.73971323  1
  Ag  Ag8  1  0.74657602  0.49973061  0.27374230  1
  Ag  Ag9  1  0.25258476  -0.01563912  0.74251244  1
  Ag  Ag10  1  0.74718577  -0.00945767  0.73957981  1
  Ag  Ag11  1  0.75101803  0.50986645  0.73464163  1
  Ag  Ag12  1  -0.02186793  0.51195332  0.50663784  1
  Ag  Ag13  1  0.50564040  0.25110214  0.25885002  1
  Ag  Ag14  1  0.75363628  0.73357146  0.50935794  1
  Ag  Ag15  1  0.25200181  0.75269068  -0.01823290  1
  Sb  Sb16  1  0.49495949  0.75162365  0.74486737  1
  Sb  Sb17  1  -0.00113665  0.25127400  0.74703610  1
  Sb  Sb18  1  0.00164985  -0.00494123  -0.01305499  1
  Sb  Sb19  1  0.49792625  0.50306376  -0.00378205  1
  Sb  Sb20  1  0.25152088  -0.00236385  0.25948176  1
  Sb  Sb21  1  -0.00486635  0.25228674  0.25907182  1
  Sb  Sb22  1  -0.00199263  0.74937429  0.26143757  1
  Sb  Sb23  1  0.00090425  0.50466850  -0.00922195  1
  Sb  Sb24  1  0.50200127  0.74914557  0.25482324  1
  Sb  Sb25  1  0.25099062  0.50276413  0.26339609  1
  Sb  Sb26  1  0.74634782  0.24775835  -0.00108065  1
  Sb  Sb27  1  0.25553565  0.24623955  -0.00392707  1
  Sb  Sb28  1  0.74797504  -0.00147361  0.26569198  1
  Sb  Sb29  1  0.74669714  0.75203832  -0.01300547  1
  Sb  Sb30  1  0.25440467  0.25004500  0.50160712  1
  Sb  Sb31  1  0.50137957  0.24830945  0.74519261  1
  Te  Te32  1  0.25782785  0.25021800  0.24806430  1
  Te  Te33  1  0.25009175  0.25086212  0.74964947  1
  Te  Te34  1  0.24746896  0.75030431  0.25134046  1
  Te  Te35  1  0.25193642  0.75058171  0.74342079  1
  Te  Te36  1  0.74718217  0.25235382  0.25284095  1
  Te  Te37  1  0.75014586  0.25099056  0.74596649  1
  Te  Te38  1  0.75225557  0.74485623  0.25618073  1
  Te  Te39  1  0.75230986  0.75017914  0.74624367  1
  Te  Te40  1  0.25158134  -0.00239127  -0.00778938  1
  Te  Te41  1  0.25465339  0.00137102  0.50279304  1
  Te  Te42  1  0.25128834  0.50482369  -0.01110291  1
  Te  Te43  1  0.25222466  0.49883817  0.50435816  1
  Te  Te44  1  0.74622926  -0.00123319  -0.01313875  1
  Te  Te45  1  0.74554343  -0.00587329  0.50351636  1
  Te  Te46  1  0.74856432  0.49990215  -0.00689366  1
  Te  Te47  1  0.74815038  0.50185400  0.50159102  1
  Te  Te48  1  0.00092581  0.24925855  0.00544074  1
  Te  Te49  1  -0.00916693  0.24969904  0.49992193  1
  Te  Te50  1  0.00802562  0.75094139  -0.01174815  1
  Te  Te51  1  0.00154170  0.75029961  0.50540703  1
  Te  Te52  1  0.50051382  0.24074797  0.00873262  1
  Te  Te53  1  0.50442065  0.24842512  0.49963368  1
  Te  Te54  1  0.49490166  0.75744088  0.00365071  1
  Te  Te55  1  0.50064077  0.75106211  0.50183983  1
  Te  Te56  1  -0.00014480  0.00150689  0.26236146  1
  Te  Te57  1  -0.00003118  0.00066820  0.74385469  1
  Te  Te58  1  -0.00353000  0.50020556  0.25887982  1
  Te  Te59  1  -0.00060930  0.49893585  0.74580613  1
  Te  Te60  1  0.50048820  0.00193511  0.25724106  1
  Te  Te61  1  0.50086594  0.00002133  0.74349729  1
  Te  Te62  1  0.50127227  0.49926710  0.25267497  1
  Te  Te63  1  0.50260958  0.49828695  0.74628791  1
