# generated using pymatgen
data_AgSbTe2
_symmetry_space_group_name_H-M   'P 1'
_cell_length_a   12.20863742
_cell_length_b   12.20964201
_cell_length_c   12.21617763
_cell_angle_alpha   90.00056804
_cell_angle_beta   90.00484144
_cell_angle_gamma   89.99737832
_symmetry_Int_Tables_number   1
_chemical_formula_structural   AgSbTe2
_chemical_formula_sum   'Ag16 Sb16 Te32'
_cell_volume   1820.98120574
_cell_formula_units_Z   16
loop_
 _symmetry_equiv_pos_site_id
 _symmetry_equiv_pos_as_xyz
  1  'x, y, z'
loop_
 _atom_site_type_symbol
 _atom_site_label
 _atom_site_symmetry_multiplicity
 _atom_site_fract_x
 _atom_site_fract_y
 _atom_site_fract_z
 _atom_site_occupancy
  Ag  Ag0  1  0.24850636  0.74843222  0.50248758  1
  Ag  Ag1  1  0.75151560  0.74542080  0.49917263  1
  Ag  Ag2  1  0.75059048  0.25476479  0.49960138  1
  Ag  Ag3  1  0.00510386  0.00317015  -0.00171780  1
  Ag  Ag4  1  0.00561782  0.25051684  0.74726343  1
  Ag  Ag5  1  0.00078112  0.49610403  0.50158627  1
  Ag  Ag6  1  0.24997465  0.75177098  -0.00179102  1
  Ag  Ag7  1  0.74769038  0.25222207  0.00033183  1
  Ag  Ag8  1  0.24984264  0.00262802  0.24972538  1
  Ag  Ag9  1  0.49467426  0.25228286  0.74992513  1
  Ag  Ag10  1  0.25019129  0.49406906  0.74691808  1
  Ag  Ag11  1  0.24842878  0.00554519  0.75028034  1
  Ag  Ag12  1  0.50038547  0.25216502  0.24959245  1
  Ag  Ag13  1  0.74844651  0.49490892  0.25363538  1
  Ag  Ag14  1  0.24947699  0.25161354  0.50614326  1
  Ag  Ag15  1  0.49868705  0.49451039  -0.00057110  1
  Sb  Sb16  1  0.74947110  0.00502174  0.25020037  1
  Sb  Sb17  1  0.75111241  0.00478478  0.75015116  1
  Sb  Sb18  1  0.74989002  0.49554698  0.74606115  1
  Sb  Sb19  1  0.00131654  0.49641437  -0.00231758  1
  Sb  Sb20  1  0.00137451  0.75007758  0.25173499  1
  Sb  Sb21  1  0.49929944  0.49548904  0.50088966  1
  Sb  Sb22  1  0.75026863  0.74724691  0.00134799  1
  Sb  Sb23  1  0.49625235  0.00434463  0.50088655  1
  Sb  Sb24  1  0.49557899  0.74735155  0.75003932  1
  Sb  Sb25  1  0.25165862  0.24882719  -0.00682240  1
  Sb  Sb26  1  0.00452434  0.00411016  0.50240435  1
  Sb  Sb27  1  0.00122895  0.25017368  0.25227536  1
  Sb  Sb28  1  0.00384974  0.74947728  0.74825044  1
  Sb  Sb29  1  0.49821076  0.74802107  0.25009724  1
  Sb  Sb30  1  0.49567844  0.00492235  -0.00072393  1
  Sb  Sb31  1  0.25190347  0.49614076  0.25233169  1
  Te  Te32  1  0.25328151  0.24784206  0.25493471  1
  Te  Te33  1  0.25041998  0.25057636  0.74978531  1
  Te  Te34  1  0.25165569  0.75449913  0.25243360  1
  Te  Te35  1  0.25081981  0.75035577  0.74683686  1
  Te  Te36  1  0.74692051  0.25165707  0.25227000  1
  Te  Te37  1  0.74886499  0.24976325  0.74779327  1
  Te  Te38  1  0.74860677  0.74548369  0.25604784  1
  Te  Te39  1  0.74877137  0.75109340  0.74191314  1
  Te  Te40  1  0.24745131  -0.00253709  -0.00117657  1
  Te  Te41  1  0.24759514  -0.00063407  0.50119296  1
  Te  Te42  1  0.25087534  0.50420152  -0.00130918  1
  Te  Te43  1  0.24786980  0.49974918  0.50105271  1
  Te  Te44  1  0.75580340  0.00271971  0.00124328  1
  Te  Te45  1  0.75232061  0.00025285  0.49841682  1
  Te  Te46  1  0.74869748  0.49829900  0.00283882  1
  Te  Te47  1  0.75214099  0.49695794  0.49864366  1
  Te  Te48  1  -0.00499322  0.24853784  -0.00410484  1
  Te  Te49  1  0.00002482  0.25296009  0.50307475  1
  Te  Te50  1  0.00446376  0.75437450  -0.00108287  1
  Te  Te51  1  0.00211940  0.74468547  0.50127990  1
  Te  Te52  1  0.50337227  0.25332951  -0.00056533  1
  Te  Te53  1  0.50048628  0.25086193  0.50118409  1
  Te  Te54  1  0.49601252  0.74319843  -0.00015109  1
  Te  Te55  1  0.49843191  0.74962661  0.50012275  1
  Te  Te56  1  0.00756278  0.00013028  0.24287454  1
  Te  Te57  1  0.00616505  0.00629965  0.75379707  1
  Te  Te58  1  -0.00616853  0.49979986  0.25554364  1
  Te  Te59  1  0.00539843  0.49384418  0.74606083  1
  Te  Te60  1  0.49307030  0.00815914  0.24845103  1
  Te  Te61  1  0.49209305  0.00874999  0.75138767  1
  Te  Te62  1  0.50363098  0.49346032  0.24388698  1
  Te  Te63  1  0.49470398  0.49362747  0.75593408  1
