# generated using pymatgen
data_AgSbTe2
_symmetry_space_group_name_H-M   'P 1'
_cell_length_a   12.23514205
_cell_length_b   12.22633757
_cell_length_c   12.23989239
_cell_angle_alpha   89.99242568
_cell_angle_beta   90.00084402
_cell_angle_gamma   90.00247547
_symmetry_Int_Tables_number   1
_chemical_formula_structural   AgSbTe2
_chemical_formula_sum   'Ag16 Sb16 Te32'
_cell_volume   1830.97744280
_cell_formula_units_Z   16
loop_
 _symmetry_equiv_pos_site_id
 _symmetry_equiv_pos_as_xyz
  1  'x, y, z'
loop_
 _atom_site_type_symbol
 _atom_site_label
 _atom_site_symmetry_multiplicity
 _atom_site_fract_x
 _atom_site_fract_y
 _atom_site_fract_z
 _atom_site_occupancy
  Ag  Ag0  1  -0.00384805  0.25469657  0.74722100  1
  Ag  Ag1  1  0.25698156  0.49854694  0.25255783  1
  Ag  Ag2  1  0.50357659  0.25354177  0.74578496  1
  Ag  Ag3  1  0.50045405  0.00793044  0.50231703  1
  Ag  Ag4  1  0.25918571  0.25536335  0.50255767  1
  Ag  Ag5  1  0.25796843  0.74629014  0.00094283  1
  Ag  Ag6  1  0.74331404  0.49737246  0.25646021  1
  Ag  Ag7  1  0.50029591  0.74671427  0.75068066  1
  Ag  Ag8  1  0.74085159  0.25768039  0.50659672  1
  Ag  Ag9  1  0.74135692  0.25291657  -0.00692427  1
  Ag  Ag10  1  0.50380164  0.49184271  0.50064443  1
  Ag  Ag11  1  0.49878259  0.00384827  -0.00176232  1
  Ag  Ag12  1  0.25784598  0.25239642  -0.00302815  1
  Ag  Ag13  1  0.74421816  0.49257180  0.74394200  1
  Ag  Ag14  1  0.49857742  0.74448390  0.24921153  1
  Ag  Ag15  1  -0.00343134  0.49433293  0.50150394  1
  Sb  Sb16  1  0.49941338  0.49529866  -0.00043808  1
  Sb  Sb17  1  0.74519926  0.74131002  0.50000347  1
  Sb  Sb18  1  0.00053968  0.49748023  -0.00301171  1
  Sb  Sb19  1  0.49986216  0.25623736  0.25378044  1
  Sb  Sb20  1  0.25598625  0.49650009  0.74704262  1
  Sb  Sb21  1  0.25546557  0.00110683  0.25041471  1
  Sb  Sb22  1  -0.00041522  0.74294507  0.75003243  1
  Sb  Sb23  1  0.74413813  0.00866229  0.74950776  1
  Sb  Sb24  1  0.25475129  0.00291623  0.74983375  1
  Sb  Sb25  1  0.74369117  0.00321700  0.25161790  1
  Sb  Sb26  1  -0.00000138  0.25355627  0.25285288  1
  Sb  Sb27  1  0.00142029  0.74322447  0.24974995  1
  Sb  Sb28  1  0.74180949  0.74785263  -0.00098376  1
  Sb  Sb29  1  0.25533702  0.74469625  0.49922706  1
  Sb  Sb30  1  0.00050737  0.00477831  -0.00144452  1
  Sb  Sb31  1  -0.00053786  0.00752170  0.50159077  1
  Te  Te32  1  0.24915239  0.25524179  0.24824358  1
  Te  Te33  1  0.25474116  0.25183882  0.75123757  1
  Te  Te34  1  0.25283210  0.74527590  0.24715729  1
  Te  Te35  1  0.25498318  0.74827809  0.75525187  1
  Te  Te36  1  0.75075761  0.25540930  0.24903591  1
  Te  Te37  1  0.74454228  0.25308895  0.74949098  1
  Te  Te38  1  0.74645930  0.74254401  0.24919532  1
  Te  Te39  1  0.74583489  0.74130917  0.75100427  1
  Te  Te40  1  0.25510269  0.00532913  0.00054537  1
  Te  Te41  1  0.25469852  0.00884097  0.49919470  1
  Te  Te42  1  0.24829517  0.49632005  0.00546142  1
  Te  Te43  1  0.25368345  0.49606890  0.49750329  1
  Te  Te44  1  0.74488277  0.00620906  0.00106194  1
  Te  Te45  1  0.74567623  0.00861924  0.49882142  1
  Te  Te46  1  0.75171089  0.49565578  0.00158925  1
  Te  Te47  1  0.74565028  0.49761531  0.49939705  1
  Te  Te48  1  0.00273364  0.24852013  -0.00619486  1
  Te  Te49  1  0.00094675  0.25330217  0.50325468  1
  Te  Te50  1  0.01037752  0.75217430  -0.00180294  1
  Te  Te51  1  0.00131215  0.74500774  0.50188140  1
  Te  Te52  1  0.49859292  0.24827705  -0.00029873  1
  Te  Te53  1  0.49964412  0.25167372  0.49898158  1
  Te  Te54  1  0.49746670  0.75332470  -0.00275278  1
  Te  Te55  1  0.49929925  0.75130859  0.50311296  1
  Te  Te56  1  -0.00133512  -0.00258492  0.25124374  1
  Te  Te57  1  -0.00101624  0.00732350  0.74895458  1
  Te  Te58  1  -0.00112560  0.50051454  0.25689904  1
  Te  Te59  1  -0.00617199  0.49552836  0.74541381  1
  Te  Te60  1  0.50028569  -0.01105414  0.25040937  1
  Te  Te61  1  0.50067197  -0.00018237  0.74849639  1
  Te  Te62  1  0.49972002  0.50399486  0.25215637  1
  Te  Te63  1  0.50249752  0.49739499  0.74757246  1
