# generated using pymatgen
data_AgSbTe2
_symmetry_space_group_name_H-M   'P 1'
_cell_length_a   12.29956631
_cell_length_b   12.30272790
_cell_length_c   12.28417475
_cell_angle_alpha   89.99358220
_cell_angle_beta   89.99439438
_cell_angle_gamma   90.00811785
_symmetry_Int_Tables_number   1
_chemical_formula_structural   AgSbTe2
_chemical_formula_sum   'Ag16 Sb16 Te32'
_cell_volume   1858.81938835
_cell_formula_units_Z   16
loop_
 _symmetry_equiv_pos_site_id
 _symmetry_equiv_pos_as_xyz
  1  'x, y, z'
loop_
 _atom_site_type_symbol
 _atom_site_label
 _atom_site_symmetry_multiplicity
 _atom_site_fract_x
 _atom_site_fract_y
 _atom_site_fract_z
 _atom_site_occupancy
  Ag  Ag0  1  0.49523035  0.24030480  0.74023956  1
  Ag  Ag1  1  -0.00111563  0.24479392  0.25941906  1
  Ag  Ag2  1  0.50511933  0.75260575  0.26481451  1
  Ag  Ag3  1  0.51083144  -0.00543962  0.50940555  1
  Ag  Ag4  1  -0.01068574  0.00441266  0.50959957  1
  Ag  Ag5  1  0.50290974  0.50713234  0.50783322  1
  Ag  Ag6  1  0.51065902  0.76013003  0.74033337  1
  Ag  Ag7  1  0.74729956  0.75529658  -0.01783659  1
  Ag  Ag8  1  0.25514349  0.49244305  0.74838521  1
  Ag  Ag9  1  0.24869049  0.24842337  -0.01044215  1
  Ag  Ag10  1  -0.01038639  0.76341711  0.74132654  1
  Ag  Ag11  1  0.75067883  0.23740113  0.51188149  1
  Ag  Ag12  1  0.74905984  -0.00674640  0.74163955  1
  Ag  Ag13  1  0.00416095  0.23683214  0.74440454  1
  Ag  Ag14  1  0.25121835  0.00620658  0.74661864  1
  Ag  Ag15  1  0.74117914  0.76244528  0.51121458  1
  Sb  Sb16  1  0.49793696  0.50067049  -0.00820613  1
  Sb  Sb17  1  -0.00270011  0.75466384  0.25922884  1
  Sb  Sb18  1  0.25889715  0.75073301  0.50489907  1
  Sb  Sb19  1  0.75028324  0.24421351  -0.01281607  1
  Sb  Sb20  1  0.74507203  0.50460233  0.74922661  1
  Sb  Sb21  1  0.74820725  0.50038360  0.25292686  1
  Sb  Sb22  1  0.00048405  0.49963637  -0.00517391  1
  Sb  Sb23  1  0.25073382  0.75241391  -0.00760067  1
  Sb  Sb24  1  0.50045312  -0.00036837  -0.01293021  1
  Sb  Sb25  1  0.24689177  0.24916420  0.50694624  1
  Sb  Sb26  1  -0.00320231  0.49967310  0.50481260  1
  Sb  Sb27  1  -0.00027190  -0.00122655  -0.01279905  1
  Sb  Sb28  1  0.25052456  0.00264262  0.25611188  1
  Sb  Sb29  1  0.25302722  0.49718152  0.25477193  1
  Sb  Sb30  1  0.74974030  0.00117354  0.26121083  1
  Sb  Sb31  1  0.49954040  0.24742290  0.26192233  1
  Te  Te32  1  0.24698772  0.24874525  0.23737581  1
  Te  Te33  1  0.25137684  0.24508598  0.74911426  1
  Te  Te34  1  0.25431840  0.74984687  0.24413286  1
  Te  Te35  1  0.24837431  0.75541093  0.74931315  1
  Te  Te36  1  0.75403416  0.24877243  0.25189045  1
  Te  Te37  1  0.75003281  0.25043371  0.74861525  1
  Te  Te38  1  0.74664645  0.75002946  0.25520666  1
  Te  Te39  1  0.75019098  0.74885770  0.74553329  1
  Te  Te40  1  0.25004260  0.00420646  -0.00952930  1
  Te  Te41  1  0.24868091  -0.00091982  0.50592688  1
  Te  Te42  1  0.24970535  0.49458197  -0.00909125  1
  Te  Te43  1  0.25852862  0.50047415  0.50645254  1
  Te  Te44  1  0.74973342  -0.00589151  -0.01361510  1
  Te  Te45  1  0.74949544  0.00123737  0.50571318  1
  Te  Te46  1  0.74980950  0.51265051  0.00083863  1
  Te  Te47  1  0.74438066  0.49894344  0.50140644  1
  Te  Te48  1  -0.00194272  0.24978625  -0.00817191  1
  Te  Te49  1  -0.00129256  0.25169412  0.50818549  1
  Te  Te50  1  -0.00514706  0.75118324  0.00026235  1
  Te  Te51  1  -0.00705817  0.74854700  0.50044506  1
  Te  Te52  1  0.50139760  0.24983100  -0.00443734  1
  Te  Te53  1  0.50338273  0.24490935  0.50310731  1
  Te  Te54  1  0.50337698  0.75071892  -0.00492167  1
  Te  Te55  1  0.49998833  0.75427052  0.50533586  1
  Te  Te56  1  0.00133405  0.00444096  0.26614341  1
  Te  Te57  1  -0.00059031  -0.00167227  0.74498843  1
  Te  Te58  1  0.00262996  0.49126522  0.25097419  1
  Te  Te59  1  0.01072092  0.49999788  0.74796798  1
  Te  Te60  1  0.49829853  -0.00461659  0.26568555  1
  Te  Te61  1  0.50093243  0.00037081  0.74618847  1
  Te  Te62  1  0.49875797  0.50513000  0.26154919  1
  Te  Te63  1  0.49726281  0.49904000  0.74604606  1
