# generated using pymatgen
data_AgSbTe2
_symmetry_space_group_name_H-M   'P 1'
_cell_length_a   12.22881905
_cell_length_b   12.23162561
_cell_length_c   12.22169482
_cell_angle_alpha   89.99722027
_cell_angle_beta   90.00295043
_cell_angle_gamma   90.00428683
_symmetry_Int_Tables_number   1
_chemical_formula_structural   AgSbTe2
_chemical_formula_sum   'Ag16 Sb16 Te32'
_cell_volume   1828.10076707
_cell_formula_units_Z   16
loop_
 _symmetry_equiv_pos_site_id
 _symmetry_equiv_pos_as_xyz
  1  'x, y, z'
loop_
 _atom_site_type_symbol
 _atom_site_label
 _atom_site_symmetry_multiplicity
 _atom_site_fract_x
 _atom_site_fract_y
 _atom_site_fract_z
 _atom_site_occupancy
  Ag  Ag0  1  0.49792239  0.24913272  0.74060438  1
  Ag  Ag1  1  0.74817100  0.75221267  0.00805408  1
  Ag  Ag2  1  0.74592203  0.50831806  0.25221296  1
  Ag  Ag3  1  0.49881416  0.75410605  0.25556930  1
  Ag  Ag4  1  0.00179795  0.50400236  0.49484586  1
  Ag  Ag5  1  0.49805921  0.50249415  0.49521776  1
  Ag  Ag6  1  0.25786664  0.24949102  0.49605497  1
  Ag  Ag7  1  0.25175300  0.75369612  0.00981414  1
  Ag  Ag8  1  0.00063676  -0.00584429  0.00637275  1
  Ag  Ag9  1  0.25734242  0.75098484  0.49204586  1
  Ag  Ag10  1  0.49820189  0.24596194  0.25866818  1
  Ag  Ag11  1  0.49876801  0.75082657  0.74350771  1
  Ag  Ag12  1  0.25564082  -0.00732033  0.25283366  1
  Ag  Ag13  1  0.00042969  0.75220981  0.25023433  1
  Ag  Ag14  1  0.74437920  -0.00825014  0.24972151  1
  Ag  Ag15  1  0.49645375  -0.00241905  0.49266503  1
  Sb  Sb16  1  0.00258755  0.24930827  0.74543851  1
  Sb  Sb17  1  0.00239853  0.24970958  0.25284576  1
  Sb  Sb18  1  0.00330383  -0.00492604  0.49392191  1
  Sb  Sb19  1  0.50115553  0.50351045  0.00597272  1
  Sb  Sb20  1  0.25331379  0.50113937  0.74664704  1
  Sb  Sb21  1  0.25395310  -0.00158899  0.74718151  1
  Sb  Sb22  1  0.25218790  0.24596232  0.00523535  1
  Sb  Sb23  1  0.74022366  0.74978216  0.49060247  1
  Sb  Sb24  1  0.00078609  0.75005209  0.74901615  1
  Sb  Sb25  1  0.74071601  0.25037457  0.49743849  1
  Sb  Sb26  1  0.74863714  0.24690229  0.00430730  1
  Sb  Sb27  1  -0.00174045  0.50607339  0.00700711  1
  Sb  Sb28  1  0.49950606  -0.00425135  0.00892596  1
  Sb  Sb29  1  0.25392381  0.50865884  0.25415709  1
  Sb  Sb30  1  0.74544531  -0.00300621  0.74980064  1
  Sb  Sb31  1  0.74579819  0.50320309  0.74742926  1
  Te  Te32  1  0.25430490  0.24417977  0.25244503  1
  Te  Te33  1  0.25661799  0.24986337  0.74578690  1
  Te  Te34  1  0.25147698  0.75083427  0.25147555  1
  Te  Te35  1  0.25570845  0.75051566  0.74877053  1
  Te  Te36  1  0.74463480  0.24887014  0.24914249  1
  Te  Te37  1  0.74140429  0.25034950  0.75137500  1
  Te  Te38  1  0.74925107  0.75153300  0.24895993  1
  Te  Te39  1  0.74438330  0.75008424  0.76136774  1
  Te  Te40  1  0.24778966  -0.00508871  0.00540781  1
  Te  Te41  1  0.25171527  -0.00226959  0.49668747  1
  Te  Te42  1  0.24852071  0.50790882  -0.00108224  1
  Te  Te43  1  0.25303069  0.50122121  0.49836446  1
  Te  Te44  1  0.75237679  -0.00357615  0.00602651  1
  Te  Te45  1  0.74729045  0.00062468  0.49370116  1
  Te  Te46  1  0.75130559  0.50529499  0.00726555  1
  Te  Te47  1  0.74878758  0.49975164  0.49469428  1
  Te  Te48  1  0.00119888  0.24450988  -0.00174703  1
  Te  Te49  1  0.00921818  0.25483380  0.50123495  1
  Te  Te50  1  0.00195338  0.75184923  0.00156613  1
  Te  Te51  1  0.00757014  0.74816230  0.49817391  1
  Te  Te52  1  0.49862806  0.25158385  -0.00060028  1
  Te  Te53  1  0.49751429  0.24998962  0.49730419  1
  Te  Te54  1  0.49808695  0.74994500  0.00152403  1
  Te  Te55  1  0.49888656  0.75025983  0.49745956  1
  Te  Te56  1  -0.00044130  -0.00261913  0.24862129  1
  Te  Te57  1  -0.00199667  0.00078006  0.75783908  1
  Te  Te58  1  -0.00554766  0.50254121  0.25434298  1
  Te  Te59  1  -0.00186537  0.49868238  0.74029446  1
  Te  Te60  1  0.49947829  -0.00243844  0.25194171  1
  Te  Te61  1  0.50055756  -0.00118958  0.74154642  1
  Te  Te62  1  0.50261654  0.50141466  0.25408858  1
  Te  Te63  1  0.50118870  0.50109217  0.74167212  1
