# generated using pymatgen
data_AgSbTe2
_symmetry_space_group_name_H-M   'P 1'
_cell_length_a   12.21643592
_cell_length_b   12.23472876
_cell_length_c   12.22676778
_cell_angle_alpha   89.99996536
_cell_angle_beta   89.99898383
_cell_angle_gamma   89.99498055
_symmetry_Int_Tables_number   1
_chemical_formula_structural   AgSbTe2
_chemical_formula_sum   'Ag16 Sb16 Te32'
_cell_volume   1827.47114885
_cell_formula_units_Z   16
loop_
 _symmetry_equiv_pos_site_id
 _symmetry_equiv_pos_as_xyz
  1  'x, y, z'
loop_
 _atom_site_type_symbol
 _atom_site_label
 _atom_site_symmetry_multiplicity
 _atom_site_fract_x
 _atom_site_fract_y
 _atom_site_fract_z
 _atom_site_occupancy
  Ag  Ag0  1  0.00578545  0.00565619  0.49668571  1
  Ag  Ag1  1  0.49771649  0.74978794  0.24585398  1
  Ag  Ag2  1  -0.00117392  0.00618660  0.00349365  1
  Ag  Ag3  1  0.24279555  0.25045123  0.49769043  1
  Ag  Ag4  1  0.00539565  0.49376303  0.49857933  1
  Ag  Ag5  1  0.25130676  0.74908113  0.49775427  1
  Ag  Ag6  1  0.75633707  0.25004918  0.00065396  1
  Ag  Ag7  1  0.50253762  0.50697962  0.00118627  1
  Ag  Ag8  1  0.49529885  0.50289196  0.49874523  1
  Ag  Ag9  1  0.24706611  0.00000864  0.25129035  1
  Ag  Ag10  1  -0.00253236  0.49343799  0.00143242  1
  Ag  Ag11  1  0.00217634  0.24741787  0.24919879  1
  Ag  Ag12  1  0.50141122  -0.00582803  0.00226052  1
  Ag  Ag13  1  0.74491913  0.74995041  0.00072287  1
  Ag  Ag14  1  0.00070499  0.25016153  0.75124106  1
  Ag  Ag15  1  0.49914672  0.74854957  0.75474114  1
  Sb  Sb16  1  0.00095178  0.74957754  0.75196167  1
  Sb  Sb17  1  0.74896966  0.74892433  0.49928283  1
  Sb  Sb18  1  0.24991096  0.50006024  0.74733866  1
  Sb  Sb19  1  0.75271521  -0.00002984  0.24660100  1
  Sb  Sb20  1  0.24873188  0.00003488  0.74917091  1
  Sb  Sb21  1  0.49376659  -0.00238700  0.49806488  1
  Sb  Sb22  1  0.24354980  0.24855272  0.00208268  1
  Sb  Sb23  1  0.24955877  0.50011001  0.25301501  1
  Sb  Sb24  1  0.00267482  0.75168423  0.24862560  1
  Sb  Sb25  1  0.49925422  0.25107331  0.75224058  1
  Sb  Sb26  1  0.25534084  0.75155704  0.00194737  1
  Sb  Sb27  1  0.75074596  0.50032134  0.24662099  1
  Sb  Sb28  1  0.75624712  0.25128393  0.49940853  1
  Sb  Sb29  1  0.75071581  -0.00013596  0.75319632  1
  Sb  Sb30  1  0.49753623  0.24989752  0.24815869  1
  Sb  Sb31  1  0.75027519  0.50013766  0.75341485  1
  Te  Te32  1  0.24552373  0.24335883  0.25514168  1
  Te  Te33  1  0.24352756  0.24941338  0.74124147  1
  Te  Te34  1  0.25403913  0.75639553  0.25553396  1
  Te  Te35  1  0.25614462  0.75048328  0.74075565  1
  Te  Te36  1  0.75751587  0.24970009  0.24345241  1
  Te  Te37  1  0.75669547  0.24931505  0.75687014  1
  Te  Te38  1  0.74123958  0.75034263  0.24344598  1
  Te  Te39  1  0.74266596  0.75046527  0.75681454  1
  Te  Te40  1  0.24785974  -0.00005504  0.00491727  1
  Te  Te41  1  0.24717441  0.00008891  0.49648710  1
  Te  Te42  1  0.24952487  0.50003341  0.00130584  1
  Te  Te43  1  0.24870321  0.50062415  0.49935755  1
  Te  Te44  1  0.75144981  -0.00044077  0.00062049  1
  Te  Te45  1  0.75981991  -0.00003269  0.49960877  1
  Te  Te46  1  0.75063429  0.50050982  0.00020705  1
  Te  Te47  1  0.75000054  0.50025925  0.49991195  1
  Te  Te48  1  0.00070438  0.25066632  0.00074938  1
  Te  Te49  1  -0.00075127  0.25224310  0.49878073  1
  Te  Te50  1  -0.00249618  0.74908555  -0.00077064  1
  Te  Te51  1  0.00084943  0.74764421  0.50047540  1
  Te  Te52  1  0.50321445  0.25125187  -0.00126868  1
  Te  Te53  1  0.49859374  0.25456061  0.50114819  1
  Te  Te54  1  0.49874916  0.74831323  0.00081894  1
  Te  Te55  1  0.49975563  0.74824563  0.49871385  1
  Te  Te56  1  0.00401591  0.00055725  0.24797624  1
  Te  Te57  1  0.00065704  0.00270626  0.75227082  1
  Te  Te58  1  0.00060347  0.49767795  0.24925844  1
  Te  Te59  1  0.00028670  0.49699267  0.75085619  1
  Te  Te60  1  0.49477332  -0.00135278  0.24641153  1
  Te  Te61  1  0.49950089  -0.00358492  0.75599808  1
  Te  Te62  1  0.49937692  0.50231770  0.24870470  1
  Te  Te63  1  0.49981120  0.50300743  0.75154445  1
