# generated using pymatgen
data_AgSbTe2
_symmetry_space_group_name_H-M   'P 1'
_cell_length_a   12.22299686
_cell_length_b   12.22697946
_cell_length_c   12.21988110
_cell_angle_alpha   89.99996987
_cell_angle_beta   90.00087505
_cell_angle_gamma   90.00497764
_symmetry_Int_Tables_number   1
_chemical_formula_structural   AgSbTe2
_chemical_formula_sum   'Ag16 Sb16 Te32'
_cell_volume   1826.26527438
_cell_formula_units_Z   16
loop_
 _symmetry_equiv_pos_site_id
 _symmetry_equiv_pos_as_xyz
  1  'x, y, z'
loop_
 _atom_site_type_symbol
 _atom_site_label
 _atom_site_symmetry_multiplicity
 _atom_site_fract_x
 _atom_site_fract_y
 _atom_site_fract_z
 _atom_site_occupancy
  Ag  Ag0  1  0.24902403  0.75208604  0.49856410  1
  Ag  Ag1  1  0.25825776  0.24057374  0.00200882  1
  Ag  Ag2  1  0.49924515  0.00440152  -0.00293598  1
  Ag  Ag3  1  0.25196905  0.24777730  0.49854032  1
  Ag  Ag4  1  0.25087878  0.75956674  0.00163215  1
  Ag  Ag5  1  0.00400437  0.75271112  0.24630936  1
  Ag  Ag6  1  0.50170258  0.24605805  0.75807503  1
  Ag  Ag7  1  0.00205910  0.50157495  0.50068119  1
  Ag  Ag8  1  0.74852374  0.50017603  0.75268366  1
  Ag  Ag9  1  0.74536854  -0.00023435  0.75886461  1
  Ag  Ag10  1  0.50186435  0.75365523  0.75645837  1
  Ag  Ag11  1  0.25094283  0.00027775  0.24283530  1
  Ag  Ag12  1  0.74801161  0.75737405  -0.00455725  1
  Ag  Ag13  1  0.49563699  0.24536372  0.24103878  1
  Ag  Ag14  1  0.00160315  -0.00297430  0.00070765  1
  Ag  Ag15  1  0.74269601  0.24262217  -0.00452342  1
  Sb  Sb16  1  -0.00114656  0.24878606  0.75156646  1
  Sb  Sb17  1  -0.00088422  0.75135166  0.75304920  1
  Sb  Sb18  1  0.74795932  0.25026852  0.50310254  1
  Sb  Sb19  1  0.49877260  0.50036055  0.50305243  1
  Sb  Sb20  1  0.24900211  0.49960028  0.25060667  1
  Sb  Sb21  1  0.25379383  0.00008587  0.75841797  1
  Sb  Sb22  1  0.75165012  0.49994396  0.24765562  1
  Sb  Sb23  1  -0.00127102  0.50228734  -0.00057975  1
  Sb  Sb24  1  0.49749587  0.00018991  0.50335614  1
  Sb  Sb25  1  0.74910259  0.00041337  0.24126105  1
  Sb  Sb26  1  0.75071339  0.74968769  0.50339298  1
  Sb  Sb27  1  0.50087469  0.49494349  -0.00223304  1
  Sb  Sb28  1  0.49670861  0.75455041  0.24295901  1
  Sb  Sb29  1  0.25042279  0.49978786  0.74981627  1
  Sb  Sb30  1  0.00321570  0.24689865  0.24734092  1
  Sb  Sb31  1  0.00414461  -0.00048289  0.49996231  1
  Te  Te32  1  0.25186185  0.24790400  0.24753754  1
  Te  Te33  1  0.25522500  0.25001721  0.75107530  1
  Te  Te34  1  0.24987639  0.75211281  0.24771237  1
  Te  Te35  1  0.25478945  0.74997891  0.75118054  1
  Te  Te36  1  0.74512780  0.24983585  0.24604212  1
  Te  Te37  1  0.74657278  0.24938666  0.75222751  1
  Te  Te38  1  0.75232272  0.74997567  0.24552286  1
  Te  Te39  1  0.74671174  0.75059114  0.75291270  1
  Te  Te40  1  0.25079889  -0.00014303  0.00042345  1
  Te  Te41  1  0.24888594  -0.00001995  0.49368655  1
  Te  Te42  1  0.24832352  0.50065475  -0.00128289  1
  Te  Te43  1  0.24500128  0.50049837  0.50090319  1
  Te  Te44  1  0.74834988  -0.00010336  -0.00141329  1
  Te  Te45  1  0.75090233  0.00015145  0.50895977  1
  Te  Te46  1  0.75139524  0.50046179  -0.00484674  1
  Te  Te47  1  0.75629122  0.49998113  0.50578277  1
  Te  Te48  1  0.00087256  0.24620419  0.00114474  1
  Te  Te49  1  0.00664494  0.25279208  0.49918385  1
  Te  Te50  1  0.00250378  0.75287202  0.00235749  1
  Te  Te51  1  0.00461108  0.74831537  0.49691719  1
  Te  Te52  1  0.49865164  0.24886641  -0.00262899  1
  Te  Te53  1  0.49472515  0.24959469  0.50237657  1
  Te  Te54  1  0.49893526  0.75269073  -0.00161632  1
  Te  Te55  1  0.49396024  0.74998379  0.50382536  1
  Te  Te56  1  0.00375889  -0.00457302  0.24499584  1
  Te  Te57  1  -0.00757944  0.00013811  0.75714968  1
  Te  Te58  1  -0.00128884  0.50728165  0.25572209  1
  Te  Te59  1  -0.00631692  0.49998638  0.74513569  1
  Te  Te60  1  0.49605781  0.00462982  0.24497154  1
  Te  Te61  1  0.50262912  0.00007499  0.75380702  1
  Te  Te62  1  0.50125497  0.48971649  0.25186221  1
  Te  Te63  1  0.50580127  0.50046044  0.74926283  1
