# generated using pymatgen
data_AgSbTe2
_symmetry_space_group_name_H-M   'P 1'
_cell_length_a   12.20989479
_cell_length_b   12.21269800
_cell_length_c   12.21940045
_cell_angle_alpha   90.00025656
_cell_angle_beta   89.99819510
_cell_angle_gamma   89.99622567
_symmetry_Int_Tables_number   1
_chemical_formula_structural   AgSbTe2
_chemical_formula_sum   'Ag16 Sb16 Te32'
_cell_volume   1822.10515167
_cell_formula_units_Z   16
loop_
 _symmetry_equiv_pos_site_id
 _symmetry_equiv_pos_as_xyz
  1  'x, y, z'
loop_
 _atom_site_type_symbol
 _atom_site_label
 _atom_site_symmetry_multiplicity
 _atom_site_fract_x
 _atom_site_fract_y
 _atom_site_fract_z
 _atom_site_occupancy
  Ag  Ag0  1  -0.00716133  0.75411013  0.74718105  1
  Ag  Ag1  1  0.50763339  0.00220720  -0.00016154  1
  Ag  Ag2  1  0.24570380  0.75115965  0.49631578  1
  Ag  Ag3  1  0.00123840  0.75469677  0.25339290  1
  Ag  Ag4  1  0.75167320  -0.00452588  0.75562321  1
  Ag  Ag5  1  0.74618762  0.24241471  -0.00300822  1
  Ag  Ag6  1  0.25155753  0.50330638  0.25324009  1
  Ag  Ag7  1  0.50099929  0.50158394  0.49982193  1
  Ag  Ag8  1  -0.00751986  -0.00463104  0.00002563  1
  Ag  Ag9  1  -0.00217650  -0.00803457  0.49928545  1
  Ag  Ag10  1  0.74866859  0.50435076  0.74924671  1
  Ag  Ag11  1  0.24796473  -0.00325331  0.25089280  1
  Ag  Ag12  1  0.50552039  0.24852945  0.75236688  1
  Ag  Ag13  1  0.75299475  0.75698550  -0.00510720  1
  Ag  Ag14  1  0.50046643  0.24850886  0.24807699  1
  Ag  Ag15  1  0.75484121  0.75237160  0.50450182  1
  Sb  Sb16  1  0.24721701  0.75312304  0.00248105  1
  Sb  Sb17  1  0.75133010  -0.00152656  0.24408973  1
  Sb  Sb18  1  0.25370627  0.24726717  0.00118684  1
  Sb  Sb19  1  0.50307973  0.49802879  -0.00006374  1
  Sb  Sb20  1  -0.00551772  0.24636125  0.75251459  1
  Sb  Sb21  1  0.50873480  0.75151507  0.74991107  1
  Sb  Sb22  1  0.25174386  0.50418173  0.74701829  1
  Sb  Sb23  1  -0.00144165  0.50903610  0.49975808  1
  Sb  Sb24  1  0.25073384  0.24922021  0.49844296  1
  Sb  Sb25  1  0.49786143  0.75163882  0.25013455  1
  Sb  Sb26  1  0.24868350  -0.00257211  0.74824125  1
  Sb  Sb27  1  0.74864775  0.50240516  0.25214932  1
  Sb  Sb28  1  -0.00304229  0.50504203  0.00020293  1
  Sb  Sb29  1  0.74871770  0.24742711  0.50239589  1
  Sb  Sb30  1  -0.00107929  0.24646397  0.24773736  1
  Sb  Sb31  1  0.50211878  -0.00132836  0.49967606  1
  Te  Te32  1  0.25429312  0.24913250  0.24990566  1
  Te  Te33  1  0.25904600  0.25125949  0.75009370  1
  Te  Te34  1  0.24751023  0.75192675  0.25276844  1
  Te  Te35  1  0.24159103  0.74892636  0.74399032  1
  Te  Te36  1  0.74477975  0.25123279  0.24446086  1
  Te  Te37  1  0.74698425  0.24891225  0.75273717  1
  Te  Te38  1  0.75501725  0.74862393  0.25120211  1
  Te  Te39  1  0.75157333  0.75203144  0.74989676  1
  Te  Te40  1  0.24999893  -0.00101973  0.00451763  1
  Te  Te41  1  0.24800297  -0.00498761  0.49665912  1
  Te  Te42  1  0.24949064  0.49990961  0.00767449  1
  Te  Te43  1  0.25337211  0.50428729  0.49594024  1
  Te  Te44  1  0.74974078  -0.00167465  -0.00037769  1
  Te  Te45  1  0.75210780  -0.00375521  0.50453075  1
  Te  Te46  1  0.75005570  0.50182437  -0.00523381  1
  Te  Te47  1  0.74714866  0.50337245  0.50389002  1
  Te  Te48  1  -0.00681778  0.24171448  -0.00000393  1
  Te  Te49  1  -0.00024995  0.23905018  0.49975157  1
  Te  Te50  1  -0.00297764  0.75432806  0.00025786  1
  Te  Te51  1  -0.00208906  0.75270421  0.49902055  1
  Te  Te52  1  0.50344286  0.24714451  0.00033897  1
  Te  Te53  1  0.50088995  0.25405938  0.49859012  1
  Te  Te54  1  0.50557190  0.75613141  -0.00011221  1
  Te  Te55  1  0.50103463  0.74622486  0.50006371  1
  Te  Te56  1  0.00256086  -0.00217278  0.24956995  1
  Te  Te57  1  -0.00175815  -0.00217219  0.75127098  1
  Te  Te58  1  0.00573956  0.50346360  0.25036525  1
  Te  Te59  1  -0.00504643  0.50353897  0.75001720  1
  Te  Te60  1  0.49581567  0.00326464  0.24815402  1
  Te  Te61  1  0.50258973  0.00302772  0.75240632  1
  Te  Te62  1  0.49697441  0.49687464  0.25273540  1
  Te  Te63  1  0.50352147  0.49675272  0.74734799  1
