# generated using pymatgen
data_AgSbTe2
_symmetry_space_group_name_H-M   'P 1'
_cell_length_a   12.21743284
_cell_length_b   12.21631748
_cell_length_c   12.21616292
_cell_angle_alpha   90.00528249
_cell_angle_beta   89.99465033
_cell_angle_gamma   90.00480290
_symmetry_Int_Tables_number   1
_chemical_formula_structural   AgSbTe2
_chemical_formula_sum   'Ag16 Sb16 Te32'
_cell_volume   1823.28719440
_cell_formula_units_Z   16
loop_
 _symmetry_equiv_pos_site_id
 _symmetry_equiv_pos_as_xyz
  1  'x, y, z'
loop_
 _atom_site_type_symbol
 _atom_site_label
 _atom_site_symmetry_multiplicity
 _atom_site_fract_x
 _atom_site_fract_y
 _atom_site_fract_z
 _atom_site_occupancy
  Ag  Ag0  1  0.00469275  -0.00645643  0.49936282  1
  Ag  Ag1  1  0.49633904  -0.00454397  0.00320096  1
  Ag  Ag2  1  0.24671704  0.50369751  0.75024009  1
  Ag  Ag3  1  0.24998038  0.74712522  0.00379133  1
  Ag  Ag4  1  0.00534085  0.74746559  0.74684375  1
  Ag  Ag5  1  0.49517316  0.50454171  0.00034326  1
  Ag  Ag6  1  0.49212373  0.74950385  0.24913308  1
  Ag  Ag7  1  0.00461862  0.50388598  -0.00356104  1
  Ag  Ag8  1  0.24608282  0.74902720  0.49615600  1
  Ag  Ag9  1  0.49446890  0.50523665  0.49980129  1
  Ag  Ag10  1  0.00833643  0.75056979  0.25397423  1
  Ag  Ag11  1  0.75396696  0.74908736  0.49922776  1
  Ag  Ag12  1  0.00341479  0.25315427  0.75004957  1
  Ag  Ag13  1  0.24756226  0.25188576  0.50153124  1
  Ag  Ag14  1  0.75098985  0.25181693  -0.00167828  1
  Ag  Ag15  1  0.24943716  -0.00756591  0.25089497  1
  Sb  Sb16  1  0.75324504  0.25100968  0.50220256  1
  Sb  Sb17  1  0.00323006  -0.00337068  0.00151201  1
  Sb  Sb18  1  0.75439090  0.50117227  0.75026629  1
  Sb  Sb19  1  0.24932123  0.25340545  -0.00172620  1
  Sb  Sb20  1  0.00397679  0.25100228  0.25020986  1
  Sb  Sb21  1  0.49493677  -0.00561278  0.49645070  1
  Sb  Sb22  1  0.49570107  0.25288273  0.74994574  1
  Sb  Sb23  1  0.00665303  0.50710460  0.50321257  1
  Sb  Sb24  1  0.25022236  0.50840784  0.24971549  1
  Sb  Sb25  1  0.75052044  -0.00323592  0.24988318  1
  Sb  Sb26  1  0.49647279  0.25062143  0.24924404  1
  Sb  Sb27  1  0.24725717  -0.00367640  0.74883770  1
  Sb  Sb28  1  0.75186331  -0.00118811  0.75011646  1
  Sb  Sb29  1  0.49458590  0.74718694  0.75066687  1
  Sb  Sb30  1  0.75013973  0.50241520  0.25037748  1
  Sb  Sb31  1  0.74965074  0.74913420  -0.00029332  1
  Te  Te32  1  0.24933261  0.24004224  0.25764051  1
  Te  Te33  1  0.24487257  0.25442689  0.74569490  1
  Te  Te34  1  0.24983325  0.75152451  0.24974335  1
  Te  Te35  1  0.24561178  0.74668975  0.75033017  1
  Te  Te36  1  0.75047038  0.24911026  0.24324735  1
  Te  Te37  1  0.75880663  0.25013797  0.75409273  1
  Te  Te38  1  0.75015279  0.75090685  0.25514903  1
  Te  Te39  1  0.75974638  0.74940030  0.74418291  1
  Te  Te40  1  0.25297262  -0.00285251  0.00272863  1
  Te  Te41  1  0.24839406  -0.00289238  0.49885301  1
  Te  Te42  1  0.25101351  0.50175873  -0.00187512  1
  Te  Te43  1  0.25204907  0.50200148  0.50194093  1
  Te  Te44  1  0.74393608  0.00377145  0.00039723  1
  Te  Te45  1  0.75457073  -0.00321903  0.49991984  1
  Te  Te46  1  0.74759040  0.49714397  -0.00013389  1
  Te  Te47  1  0.74067784  0.50377091  0.50029078  1
  Te  Te48  1  -0.00106319  0.25181348  -0.00214015  1
  Te  Te49  1  0.00071057  0.24774158  0.50191152  1
  Te  Te50  1  0.00067420  0.74909610  -0.00030142  1
  Te  Te51  1  0.00360969  0.74882964  0.49915082  1
  Te  Te52  1  0.50176242  0.25408307  0.00011426  1
  Te  Te53  1  0.49785340  0.25409286  0.50023925  1
  Te  Te54  1  0.49967786  0.74637432  0.00073066  1
  Te  Te55  1  0.49681795  0.74898716  0.49903099  1
  Te  Te56  1  0.00490146  -0.00532523  0.25300311  1
  Te  Te57  1  0.00106787  -0.00115250  0.74629361  1
  Te  Te58  1  -0.00007500  0.50578004  0.24217638  1
  Te  Te59  1  0.00421600  0.50138672  0.75287754  1
  Te  Te60  1  0.49503420  -0.00567549  0.24619096  1
  Te  Te61  1  0.49991434  0.00048424  0.75880270  1
  Te  Te62  1  0.50006183  0.50592233  0.24767645  1
  Te  Te63  1  0.49339366  0.50015008  0.75210848  1
