# generated using pymatgen
data_AgSbTe2
_symmetry_space_group_name_H-M   'P 1'
_cell_length_a   12.31776010
_cell_length_b   12.31547396
_cell_length_c   12.31131488
_cell_angle_alpha   89.98575594
_cell_angle_beta   90.00002063
_cell_angle_gamma   89.98366725
_symmetry_Int_Tables_number   1
_chemical_formula_structural   AgSbTe2
_chemical_formula_sum   'Ag16 Sb16 Te32'
_cell_volume   1867.61468373
_cell_formula_units_Z   16
loop_
 _symmetry_equiv_pos_site_id
 _symmetry_equiv_pos_as_xyz
  1  'x, y, z'
loop_
 _atom_site_type_symbol
 _atom_site_label
 _atom_site_symmetry_multiplicity
 _atom_site_fract_x
 _atom_site_fract_y
 _atom_site_fract_z
 _atom_site_occupancy
  Ag  Ag0  1  0.26421472  0.49012862  0.25093632  1
  Ag  Ag1  1  0.49716763  0.74157545  0.74855551  1
  Ag  Ag2  1  0.50744403  0.26032428  0.26583569  1
  Ag  Ag3  1  0.50500290  0.02076773  0.49625142  1
  Ag  Ag4  1  0.74232588  0.01699961  0.25731372  1
  Ag  Ag5  1  -0.00464734  0.01469516  0.49608184  1
  Ag  Ag6  1  0.49991551  0.25389046  0.72920424  1
  Ag  Ag7  1  0.73028175  0.25530508  0.01662925  1
  Ag  Ag8  1  0.49445097  0.48560960  0.01001385  1
  Ag  Ag9  1  0.73475050  0.48686028  0.25460217  1
  Ag  Ag10  1  0.73012843  0.25160485  0.48580628  1
  Ag  Ag11  1  -0.00009428  0.48650847  0.49382147  1
  Ag  Ag12  1  0.26017309  0.73718923  0.00312205  1
  Ag  Ag13  1  0.26774877  0.25634055  0.01123946  1
  Ag  Ag14  1  0.49998042  0.48471483  0.48722581  1
  Ag  Ag15  1  0.26893967  0.25716150  0.49185449  1
  Sb  Sb16  1  0.00126112  0.49666429  0.00782270  1
  Sb  Sb17  1  0.00116033  0.74817542  0.25079830  1
  Sb  Sb18  1  0.25265702  0.49791125  0.74991984  1
  Sb  Sb19  1  0.50137089  0.01035495  0.00397469  1
  Sb  Sb20  1  0.25361471  0.74309449  0.49591182  1
  Sb  Sb21  1  0.49941595  0.74383870  0.25008405  1
  Sb  Sb22  1  0.74110961  0.74283263  0.00276214  1
  Sb  Sb23  1  0.74583106  0.49674083  0.74466858  1
  Sb  Sb24  1  -0.00328097  0.00402874  0.00674042  1
  Sb  Sb25  1  0.74717412  0.74864377  0.49831310  1
  Sb  Sb26  1  0.25499185  0.01083513  0.25334648  1
  Sb  Sb27  1  0.25366701  0.00158833  0.74826247  1
  Sb  Sb28  1  0.00418642  0.74931285  0.74812548  1
  Sb  Sb29  1  -0.00406719  0.25061746  0.25444209  1
  Sb  Sb30  1  0.00269939  0.25006527  0.74594833  1
  Sb  Sb31  1  0.74547705  0.00437950  0.74382663  1
  Te  Te32  1  0.25060845  0.25365759  0.25164708  1
  Te  Te33  1  0.25510689  0.24973389  0.74876634  1
  Te  Te34  1  0.24961569  0.73959138  0.24511310  1
  Te  Te35  1  0.25639248  0.75038001  0.75715790  1
  Te  Te36  1  0.75050412  0.25365466  0.25279776  1
  Te  Te37  1  0.74378218  0.25076276  0.75110795  1
  Te  Te38  1  0.75192213  0.74690472  0.24854857  1
  Te  Te39  1  0.74061761  0.75089382  0.75225185  1
  Te  Te40  1  0.24826485  0.01017434  0.00137716  1
  Te  Te41  1  0.25187644  0.00494983  0.49845670  1
  Te  Te42  1  0.24713513  0.49245903  0.00005021  1
  Te  Te43  1  0.25656839  0.49716087  0.49971739  1
  Te  Te44  1  0.75272771  0.00702320  0.00858841  1
  Te  Te45  1  0.74542866  -0.00194885  0.49757713  1
  Te  Te46  1  0.75459142  0.49591908  0.00534559  1
  Te  Te47  1  0.74288764  0.50056458  0.49751747  1
  Te  Te48  1  0.00491641  0.24892151  -0.00623289  1
  Te  Te49  1  0.00148433  0.25160615  0.50104505  1
  Te  Te50  1  0.01190455  0.75140987  -0.00253643  1
  Te  Te51  1  0.00133881  0.74953221  0.50171654  1
  Te  Te52  1  0.50046046  0.25090173  0.00480541  1
  Te  Te53  1  0.50009824  0.25127158  0.49898435  1
  Te  Te54  1  0.49640170  0.74589428  -0.00095223  1
  Te  Te55  1  0.49864311  0.74676748  0.50423172  1
  Te  Te56  1  -0.00807038  -0.00092471  0.25618090  1
  Te  Te57  1  -0.00015562  -0.00180261  0.73668484  1
  Te  Te58  1  -0.00062701  0.50070244  0.25535323  1
  Te  Te59  1  -0.00174613  0.50173528  0.73379704  1
  Te  Te60  1  0.50265933  0.00297365  0.25333610  1
  Te  Te61  1  0.49970138  0.00700951  0.74320845  1
  Te  Te62  1  0.49979369  0.49833147  0.24852866  1
  Te  Te63  1  0.50011636  0.49502992  0.75238794  1
