# generated using pymatgen
data_AgSbTe2
_symmetry_space_group_name_H-M   'P 1'
_cell_length_a   12.32605764
_cell_length_b   12.29708053
_cell_length_c   12.32497923
_cell_angle_alpha   90.00059224
_cell_angle_beta   90.00454023
_cell_angle_gamma   89.99552244
_symmetry_Int_Tables_number   1
_chemical_formula_structural   AgSbTe2
_chemical_formula_sum   'Ag16 Sb16 Te32'
_cell_volume   1868.15284222
_cell_formula_units_Z   16
loop_
 _symmetry_equiv_pos_site_id
 _symmetry_equiv_pos_as_xyz
  1  'x, y, z'
loop_
 _atom_site_type_symbol
 _atom_site_label
 _atom_site_symmetry_multiplicity
 _atom_site_fract_x
 _atom_site_fract_y
 _atom_site_fract_z
 _atom_site_occupancy
  Ag  Ag0  1  0.76085298  0.52009951  0.25395109  1
  Ag  Ag1  1  0.75505131  0.76026522  0.02010553  1
  Ag  Ag2  1  0.23901577  -0.01436963  0.25720615  1
  Ag  Ag3  1  0.75427914  0.23314348  0.00677978  1
  Ag  Ag4  1  0.50980563  -0.00675273  0.49332000  1
  Ag  Ag5  1  0.75569254  0.76271358  0.48433554  1
  Ag  Ag6  1  0.52096228  0.75558000  0.25380095  1
  Ag  Ag7  1  -0.01056100  -0.00543922  0.01226561  1
  Ag  Ag8  1  0.24263159  -0.00498571  0.74325351  1
  Ag  Ag9  1  0.24375773  0.50764067  0.74446945  1
  Ag  Ag10  1  -0.00547479  -0.00980015  0.49007724  1
  Ag  Ag11  1  -0.00229312  0.51202408  0.48797497  1
  Ag  Ag12  1  0.76348296  -0.01711446  0.25141641  1
  Ag  Ag13  1  0.23958400  0.51369158  0.25523008  1
  Ag  Ag14  1  0.75907406  -0.00595960  0.74899967  1
  Ag  Ag15  1  -0.01516758  0.75888180  0.25450979  1
  Sb  Sb16  1  0.50235632  0.75382914  0.74579130  1
  Sb  Sb17  1  0.24919051  0.24796464  0.49963833  1
  Sb  Sb18  1  -0.00076704  0.24696457  0.74937684  1
  Sb  Sb19  1  0.50177059  0.24661550  0.74990884  1
  Sb  Sb20  1  0.50136390  0.50427070  0.00284960  1
  Sb  Sb21  1  0.24576072  0.75195710  0.49557978  1
  Sb  Sb22  1  0.50035278  0.50831770  0.49457642  1
  Sb  Sb23  1  0.75523127  0.50287682  0.74764588  1
  Sb  Sb24  1  0.75144219  0.24173395  0.49620255  1
  Sb  Sb25  1  0.24566672  0.75308692  0.00427014  1
  Sb  Sb26  1  0.50157189  0.24483940  0.25027480  1
  Sb  Sb27  1  -0.00227490  0.50644484  0.00865923  1
  Sb  Sb28  1  0.24552872  0.24535499  0.00157396  1
  Sb  Sb29  1  -0.00082757  0.24332982  0.25036660  1
  Sb  Sb30  1  0.50655288  -0.00328385  0.00375746  1
  Sb  Sb31  1  -0.00101268  0.75251525  0.74549447  1
  Te  Te32  1  0.25089461  0.25453408  0.24869030  1
  Te  Te33  1  0.25018025  0.24502311  0.75042534  1
  Te  Te34  1  0.24583690  0.75229164  0.25000296  1
  Te  Te35  1  0.25095378  0.75339685  0.75322085  1
  Te  Te36  1  0.74920929  0.25303919  0.24770986  1
  Te  Te37  1  0.74922447  0.24553639  0.75628911  1
  Te  Te38  1  0.75087222  0.74847648  0.25252967  1
  Te  Te39  1  0.74970111  0.75406261  0.74928007  1
  Te  Te40  1  0.24443347  0.00091065  -0.00004695  1
  Te  Te41  1  0.23816931  -0.00073728  0.49720645  1
  Te  Te42  1  0.24890635  0.49816559  0.00176635  1
  Te  Te43  1  0.24868204  0.50046665  0.49543634  1
  Te  Te44  1  0.75062134  -0.00371068  0.00164390  1
  Te  Te45  1  0.75702270  -0.00007085  0.49793155  1
  Te  Te46  1  0.75046391  0.50694971  -0.00341016  1
  Te  Te47  1  0.75203360  0.49809388  0.50112127  1
  Te  Te48  1  -0.00424423  0.23901534  -0.00054605  1
  Te  Te49  1  0.00100736  0.25344504  0.49994953  1
  Te  Te50  1  -0.00201886  0.75451936  0.00817206  1
  Te  Te51  1  -0.00228009  0.75025759  0.49731361  1
  Te  Te52  1  0.51193882  0.25151878  -0.00025221  1
  Te  Te53  1  0.49871628  0.23307085  0.50105264  1
  Te  Te54  1  0.50946488  0.74948719  0.00855688  1
  Te  Te55  1  0.50890609  0.75518564  0.49711194  1
  Te  Te56  1  0.00096282  -0.00029785  0.25219065  1
  Te  Te57  1  0.00090534  -0.00118477  0.74390349  1
  Te  Te58  1  -0.00048040  0.50038642  0.25203962  1
  Te  Te59  1  0.00663282  0.49997152  0.74308425  1
  Te  Te60  1  0.49433936  -0.00247434  0.25065402  1
  Te  Te61  1  0.49371036  -0.00122099  0.74422295  1
  Te  Te62  1  0.49699485  0.50582211  0.25066044  1
  Te  Te63  1  0.48563942  0.49963421  0.74842729  1
