# generated using pymatgen
data_AgSbTe2
_symmetry_space_group_name_H-M   'P 1'
_cell_length_a   12.28971481
_cell_length_b   12.27859295
_cell_length_c   12.28454761
_cell_angle_alpha   90.00622983
_cell_angle_beta   89.98415320
_cell_angle_gamma   89.99099854
_symmetry_Int_Tables_number   1
_chemical_formula_structural   AgSbTe2
_chemical_formula_sum   'Ag16 Sb16 Te32'
_cell_volume   1853.74311342
_cell_formula_units_Z   16
loop_
 _symmetry_equiv_pos_site_id
 _symmetry_equiv_pos_as_xyz
  1  'x, y, z'
loop_
 _atom_site_type_symbol
 _atom_site_label
 _atom_site_symmetry_multiplicity
 _atom_site_fract_x
 _atom_site_fract_y
 _atom_site_fract_z
 _atom_site_occupancy
  Ag  Ag0  1  -0.00503327  0.50344626  0.48941446  1
  Ag  Ag1  1  0.24739305  0.73764304  0.00769102  1
  Ag  Ag2  1  0.74951716  0.73515700  0.49817233  1
  Ag  Ag3  1  0.75109594  0.00278377  0.25542356  1
  Ag  Ag4  1  0.00471897  0.73528483  0.25531075  1
  Ag  Ag5  1  0.50208224  0.25843805  0.25668389  1
  Ag  Ag6  1  0.00605932  0.50011982  0.01584269  1
  Ag  Ag7  1  0.50104337  0.73649473  0.74202655  1
  Ag  Ag8  1  0.25016297  0.73860768  0.49304555  1
  Ag  Ag9  1  0.74535795  0.26294507  0.49486936  1
  Ag  Ag10  1  0.50299336  0.26232721  0.74233980  1
  Ag  Ag11  1  0.74364233  0.49960051  0.74075313  1
  Ag  Ag12  1  0.24921814  0.26371781  0.00776925  1
  Ag  Ag13  1  0.00049595  0.26423200  0.25212998  1
  Ag  Ag14  1  0.24078109  0.50153388  0.24980684  1
  Ag  Ag15  1  0.50901245  0.49958315  0.50146539  1
  Sb  Sb16  1  0.49884454  0.73952251  0.25596707  1
  Sb  Sb17  1  0.75262652  0.74299232  0.00300003  1
  Sb  Sb18  1  -0.00107814  0.74409506  0.74713444  1
  Sb  Sb19  1  0.50027842  -0.00041298  0.00209496  1
  Sb  Sb20  1  0.00025340  -0.00012127  0.00548902  1
  Sb  Sb21  1  0.75655237  0.49883757  0.25682498  1
  Sb  Sb22  1  0.25262304  -0.00001061  0.74955447  1
  Sb  Sb23  1  0.74686474  -0.00008044  0.74592292  1
  Sb  Sb24  1  0.25149143  0.26076827  0.49433137  1
  Sb  Sb25  1  0.49635428  0.49975107  0.00253298  1
  Sb  Sb26  1  0.75165741  0.25550633  0.00354485  1
  Sb  Sb27  1  -0.00063524  -0.00270916  0.49609631  1
  Sb  Sb28  1  0.25186314  -0.00017082  0.25020762  1
  Sb  Sb29  1  0.25465226  0.50045832  0.74965202  1
  Sb  Sb30  1  0.49955301  0.00188931  0.49818865  1
  Sb  Sb31  1  -0.00216318  0.25747086  0.74782786  1
  Te  Te32  1  0.24709569  0.24942019  0.24935359  1
  Te  Te33  1  0.25720554  0.24907383  0.75606413  1
  Te  Te34  1  0.25155966  0.75021707  0.24915988  1
  Te  Te35  1  0.25427760  0.75066783  0.75020758  1
  Te  Te36  1  0.75061752  0.25530335  0.25376574  1
  Te  Te37  1  0.74606109  0.24788162  0.74534607  1
  Te  Te38  1  0.74889796  0.74807580  0.25422120  1
  Te  Te39  1  0.74653533  0.75273671  0.74507832  1
  Te  Te40  1  0.25004333  -0.00400886  -0.00105832  1
  Te  Te41  1  0.24921549  -0.02275386  0.50139406  1
  Te  Te42  1  0.24655016  0.50077900  0.00056440  1
  Te  Te43  1  0.24831828  0.50405365  0.49930153  1
  Te  Te44  1  0.75052506  -0.00067096  0.00986887  1
  Te  Te45  1  0.75003832  0.00115538  0.49540568  1
  Te  Te46  1  0.76004989  0.50091863  -0.01516855  1
  Te  Te47  1  0.74774515  0.49986779  0.50153865  1
  Te  Te48  1  0.00280951  0.25357194  0.00325475  1
  Te  Te49  1  0.00242423  0.25454464  0.49672056  1
  Te  Te50  1  0.00322430  0.74657410  0.00310031  1
  Te  Te51  1  -0.00258529  0.74666518  0.49699039  1
  Te  Te52  1  0.49682463  0.25128932  0.00197179  1
  Te  Te53  1  0.49764897  0.25311765  0.49945115  1
  Te  Te54  1  0.49392364  0.74819983  -0.00605722  1
  Te  Te55  1  0.50309710  0.74567968  0.50034798  1
  Te  Te56  1  -0.00392537  0.00254481  0.25085118  1
  Te  Te57  1  0.00033238  0.00161244  0.75098222  1
  Te  Te58  1  0.00277984  0.50051668  0.25277981  1
  Te  Te59  1  -0.00826330  0.49925322  0.74281183  1
  Te  Te60  1  0.50493569  0.01593676  0.25045775  1
  Te  Te61  1  0.49938029  0.00401365  0.75043836  1
  Te  Te62  1  0.49181517  0.49503401  0.25178181  1
  Te  Te63  1  0.50256310  0.49902776  0.74796038  1
