# generated using pymatgen
data_AgSbTe2
_symmetry_space_group_name_H-M   'P 1'
_cell_length_a   12.23106514
_cell_length_b   12.22156625
_cell_length_c   12.22092172
_cell_angle_alpha   90.00450979
_cell_angle_beta   89.99744390
_cell_angle_gamma   90.00374489
_symmetry_Int_Tables_number   1
_chemical_formula_structural   AgSbTe2
_chemical_formula_sum   'Ag16 Sb16 Te32'
_cell_volume   1826.81725463
_cell_formula_units_Z   16
loop_
 _symmetry_equiv_pos_site_id
 _symmetry_equiv_pos_as_xyz
  1  'x, y, z'
loop_
 _atom_site_type_symbol
 _atom_site_label
 _atom_site_symmetry_multiplicity
 _atom_site_fract_x
 _atom_site_fract_y
 _atom_site_fract_z
 _atom_site_occupancy
  Ag  Ag0  1  0.75314461  0.74178725  0.00363068  1
  Ag  Ag1  1  -0.00020385  0.74217496  0.75436782  1
  Ag  Ag2  1  0.24859371  0.50289022  0.75361198  1
  Ag  Ag3  1  0.75228902  -0.00045188  0.24770773  1
  Ag  Ag4  1  0.24853307  0.74688261  0.49302077  1
  Ag  Ag5  1  0.24692812  0.50651460  0.24748599  1
  Ag  Ag6  1  0.24769147  -0.00768864  0.25061767  1
  Ag  Ag7  1  0.50377068  0.25685471  0.75286105  1
  Ag  Ag8  1  0.75067887  0.25869191  0.00143953  1
  Ag  Ag9  1  0.50502865  0.50063892  -0.00057869  1
  Ag  Ag10  1  -0.00464710  0.50333225  0.00158352  1
  Ag  Ag11  1  0.75076633  0.49858028  0.75796761  1
  Ag  Ag12  1  0.49704229  0.74677366  0.24693987  1
  Ag  Ag13  1  0.75056963  0.25293974  0.49765093  1
  Ag  Ag14  1  0.00335910  0.74655969  0.24605782  1
  Ag  Ag15  1  -0.00386160  0.25315899  0.24670098  1
  Sb  Sb16  1  0.50055246  -0.00023894  0.49776705  1
  Sb  Sb17  1  -0.00279654  0.25832602  0.75331964  1
  Sb  Sb18  1  0.24642371  0.74475279  0.00680930  1
  Sb  Sb19  1  -0.00202118  -0.00313308  0.00387138  1
  Sb  Sb20  1  0.24965693  0.25184401  0.49782298  1
  Sb  Sb21  1  -0.00018299  0.50068722  0.49592946  1
  Sb  Sb22  1  0.75094269  0.00050994  0.75151751  1
  Sb  Sb23  1  0.49975700  0.74318555  0.75369372  1
  Sb  Sb24  1  0.24943244  -0.00446296  0.74889496  1
  Sb  Sb25  1  0.50299231  0.25328947  0.24737043  1
  Sb  Sb26  1  0.50066191  0.50028699  0.49871058  1
  Sb  Sb27  1  0.75311679  0.50066328  0.24199407  1
  Sb  Sb28  1  0.50238814  -0.00179138  0.00295053  1
  Sb  Sb29  1  0.24910192  0.25495227  0.00108552  1
  Sb  Sb30  1  -0.00032194  -0.00040994  0.49614483  1
  Sb  Sb31  1  0.75095683  0.74791367  0.49656685  1
  Te  Te32  1  0.24669793  0.25198309  0.25195241  1
  Te  Te33  1  0.25148406  0.25418166  0.74836979  1
  Te  Te34  1  0.24706265  0.74780472  0.24955143  1
  Te  Te35  1  0.24851464  0.74747327  0.74633534  1
  Te  Te36  1  0.75142731  0.24996587  0.24784358  1
  Te  Te37  1  0.75050767  0.25080551  0.75296412  1
  Te  Te38  1  0.75262798  0.75027707  0.25015784  1
  Te  Te39  1  0.75150560  0.74885749  0.75045626  1
  Te  Te40  1  0.25065126  0.00230553  0.00867017  1
  Te  Te41  1  0.25005666  -0.00534611  0.49324627  1
  Te  Te42  1  0.24963365  0.49995707  -0.00105998  1
  Te  Te43  1  0.25042670  0.50357124  0.49967888  1
  Te  Te44  1  0.74946320  -0.00032089  0.00451961  1
  Te  Te45  1  0.74973025  0.00557079  0.49395836  1
  Te  Te46  1  0.75058208  0.50083385  -0.00102290  1
  Te  Te47  1  0.74935074  0.49502399  0.51107095  1
  Te  Te48  1  -0.00482045  0.25575895  0.00421919  1
  Te  Te49  1  -0.00589489  0.24973271  0.49403649  1
  Te  Te50  1  -0.00350244  0.74569492  0.00269401  1
  Te  Te51  1  0.00305658  0.74997337  0.49740754  1
  Te  Te52  1  0.50501977  0.25564330  -0.00219210  1
  Te  Te53  1  0.50587531  0.24994779  0.50418737  1
  Te  Te54  1  0.50699115  0.74520028  0.00361162  1
  Te  Te55  1  0.49574240  0.75015972  0.49361519  1
  Te  Te56  1  -0.00042851  -0.00126007  0.24875077  1
  Te  Te57  1  0.00197293  -0.01073561  0.75108156  1
  Te  Te58  1  0.00229398  0.50180389  0.24634930  1
  Te  Te59  1  0.00114117  0.50323411  0.75506480  1
  Te  Te60  1  0.49992439  -0.00463091  0.24856523  1
  Te  Te61  1  0.49800618  0.00941856  0.75067486  1
  Te  Te62  1  0.49517057  0.50307843  0.24556288  1
  Te  Te63  1  0.49938598  0.49802226  0.75416513  1
