# generated using pymatgen
data_AgSbTe2
_symmetry_space_group_name_H-M   'P 1'
_cell_length_a   12.21316437
_cell_length_b   12.21142224
_cell_length_c   12.22008322
_cell_angle_alpha   90.00254322
_cell_angle_beta   89.99731750
_cell_angle_gamma   90.00111882
_symmetry_Int_Tables_number   1
_chemical_formula_structural   AgSbTe2
_chemical_formula_sum   'Ag16 Sb16 Te32'
_cell_volume   1822.50451561
_cell_formula_units_Z   16
loop_
 _symmetry_equiv_pos_site_id
 _symmetry_equiv_pos_as_xyz
  1  'x, y, z'
loop_
 _atom_site_type_symbol
 _atom_site_label
 _atom_site_symmetry_multiplicity
 _atom_site_fract_x
 _atom_site_fract_y
 _atom_site_fract_z
 _atom_site_occupancy
  Ag  Ag0  1  0.50174457  0.24766219  0.24825997  1
  Ag  Ag1  1  0.75534999  0.25144376  0.49909944  1
  Ag  Ag2  1  0.49787331  0.75011926  0.75140208  1
  Ag  Ag3  1  0.75014469  0.49416562  0.24996222  1
  Ag  Ag4  1  0.24810137  0.49435519  0.74898061  1
  Ag  Ag5  1  0.25220210  0.00411618  0.24985823  1
  Ag  Ag6  1  0.00099381  0.25211611  0.74667098  1
  Ag  Ag7  1  0.50001906  0.75231797  0.24839272  1
  Ag  Ag8  1  -0.00000568  0.00804659  0.00029791  1
  Ag  Ag9  1  0.49907521  0.25005774  0.75109580  1
  Ag  Ag10  1  0.75178578  0.25026798  0.00105611  1
  Ag  Ag11  1  0.24413602  0.25000424  0.50183037  1
  Ag  Ag12  1  0.49972717  0.00496612  0.00250218  1
  Ag  Ag13  1  -0.00166687  0.49088895  -0.00189430  1
  Ag  Ag14  1  0.00157009  0.01143983  0.50003460  1
  Ag  Ag15  1  -0.00007104  0.48876082  0.50193516  1
  Sb  Sb16  1  0.74952152  0.74877964  0.49763022  1
  Sb  Sb17  1  0.25038039  0.00544794  0.74904930  1
  Sb  Sb18  1  0.49872867  0.00483579  0.49783838  1
  Sb  Sb19  1  0.74963309  0.00383856  0.75006301  1
  Sb  Sb20  1  0.74748775  0.00585669  0.24961289  1
  Sb  Sb21  1  0.50047048  0.49520107  0.50058865  1
  Sb  Sb22  1  0.50195979  0.49346056  -0.00077414  1
  Sb  Sb23  1  0.00017902  0.75120467  0.24944878  1
  Sb  Sb24  1  0.25054688  0.74996107  0.49998995  1
  Sb  Sb25  1  0.24998509  0.49541454  0.25116944  1
  Sb  Sb26  1  0.25241273  0.75035592  -0.00015960  1
  Sb  Sb27  1  0.00226998  0.74807045  0.75045081  1
  Sb  Sb28  1  0.75251797  0.49529488  0.74970188  1
  Sb  Sb29  1  -0.00241167  0.24946337  0.25314890  1
  Sb  Sb30  1  0.24703407  0.24925215  -0.00122583  1
  Sb  Sb31  1  0.74727258  0.74909606  0.00182342  1
  Te  Te32  1  0.25782187  0.24771135  0.25507126  1
  Te  Te33  1  0.25014408  0.25295752  0.74631809  1
  Te  Te34  1  0.25774425  0.75490271  0.25063348  1
  Te  Te35  1  0.25689275  0.74236408  0.74923657  1
  Te  Te36  1  0.74540735  0.25318979  0.24997396  1
  Te  Te37  1  0.74910974  0.25105343  0.74944491  1
  Te  Te38  1  0.74255840  0.74170466  0.25055583  1
  Te  Te39  1  0.73953214  0.74832764  0.74953855  1
  Te  Te40  1  0.24873642  0.00006094  0.00475330  1
  Te  Te41  1  0.24497645  0.00495488  0.49676197  1
  Te  Te42  1  0.24141380  0.50016989  -0.00326154  1
  Te  Te43  1  0.24439602  0.49491439  0.50208684  1
  Te  Te44  1  0.75199792  0.00671503  0.00069823  1
  Te  Te45  1  0.75830074  0.00691577  0.49887821  1
  Te  Te46  1  0.75527191  0.49381331  0.00398891  1
  Te  Te47  1  0.75513863  0.49452193  0.49598627  1
  Te  Te48  1  -0.00143816  0.24844759  -0.00110498  1
  Te  Te49  1  -0.00085723  0.25000326  0.49929266  1
  Te  Te50  1  -0.00130852  0.75385413  -0.00184262  1
  Te  Te51  1  -0.00079463  0.75078269  0.50192641  1
  Te  Te52  1  0.50201400  0.24759177  -0.00148251  1
  Te  Te53  1  0.50171792  0.24913101  0.50271474  1
  Te  Te54  1  0.50161990  0.75665631  0.00013569  1
  Te  Te55  1  0.50082296  0.75145063  0.50074488  1
  Te  Te56  1  0.00375850  -0.00234238  0.24740866  1
  Te  Te57  1  0.00110812  0.00298233  0.75209528  1
  Te  Te58  1  -0.00179459  0.50232789  0.24946205  1
  Te  Te59  1  0.00224263  0.49789103  0.74987528  1
  Te  Te60  1  0.49832121  0.00223637  0.24770380  1
  Te  Te61  1  0.49868311  0.00306248  0.75432224  1
  Te  Te62  1  0.50188327  0.49878225  0.24940747  1
  Te  Te63  1  0.49561111  0.49660341  0.75083598  1
