# generated using pymatgen
data_AgSbTe2
_symmetry_space_group_name_H-M   'P 1'
_cell_length_a   12.21261964
_cell_length_b   12.21694315
_cell_length_c   12.22792815
_cell_angle_alpha   89.99768170
_cell_angle_beta   89.99780690
_cell_angle_gamma   89.99731825
_symmetry_Int_Tables_number   1
_chemical_formula_structural   AgSbTe2
_chemical_formula_sum   'Ag16 Sb16 Te32'
_cell_volume   1824.41763498
_cell_formula_units_Z   16
loop_
 _symmetry_equiv_pos_site_id
 _symmetry_equiv_pos_as_xyz
  1  'x, y, z'
loop_
 _atom_site_type_symbol
 _atom_site_label
 _atom_site_symmetry_multiplicity
 _atom_site_fract_x
 _atom_site_fract_y
 _atom_site_fract_z
 _atom_site_occupancy
  Ag  Ag0  1  0.24787154  0.75238471  0.50270129  1
  Ag  Ag1  1  0.24458741  -0.00391474  0.25285337  1
  Ag  Ag2  1  0.75424233  0.50394112  0.25026321  1
  Ag  Ag3  1  0.50136560  0.50587975  0.50366864  1
  Ag  Ag4  1  -0.00001864  0.25083444  0.25091943  1
  Ag  Ag5  1  0.24574997  -0.00549759  0.74706787  1
  Ag  Ag6  1  0.00011235  0.74905235  0.74893650  1
  Ag  Ag7  1  0.00119489  -0.00469608  -0.00049682  1
  Ag  Ag8  1  -0.00534543  0.50544169  -0.00063559  1
  Ag  Ag9  1  0.49995313  0.25302027  0.74717300  1
  Ag  Ag10  1  0.49988994  0.74626579  0.74608640  1
  Ag  Ag11  1  0.75121779  0.50548133  0.74967658  1
  Ag  Ag12  1  0.50004818  0.74741974  0.25307019  1
  Ag  Ag13  1  0.75457201  0.74578606  -0.00259532  1
  Ag  Ag14  1  0.00542062  -0.00576981  0.50050839  1
  Ag  Ag15  1  -0.00249547  0.50540232  0.50057995  1
  Sb  Sb16  1  0.24664625  0.50399709  0.25327648  1
  Sb  Sb17  1  0.24874609  0.24671882  0.50083855  1
  Sb  Sb18  1  -0.00015218  0.74959154  0.25130068  1
  Sb  Sb19  1  0.75435543  -0.00406254  0.24856123  1
  Sb  Sb20  1  0.50524144  0.50430989  -0.00297653  1
  Sb  Sb21  1  0.24808957  0.24832950  -0.00057412  1
  Sb  Sb22  1  0.75062518  0.25348293  0.50097914  1
  Sb  Sb23  1  0.75200214  0.74571040  0.50227463  1
  Sb  Sb24  1  0.49987883  0.25280685  0.25334087  1
  Sb  Sb25  1  0.75334069  -0.00570242  0.75130272  1
  Sb  Sb26  1  0.24530819  0.75211822  -0.00280969  1
  Sb  Sb27  1  0.24944042  0.50486030  0.74733564  1
  Sb  Sb28  1  0.50006055  -0.00386310  -0.00136250  1
  Sb  Sb29  1  0.00032461  0.25106979  0.74886476  1
  Sb  Sb30  1  0.49514757  -0.00710260  0.50168019  1
  Sb  Sb31  1  0.75313126  0.25467458  -0.00111259  1
  Te  Te32  1  0.24636161  0.24143570  0.24975925  1
  Te  Te33  1  0.25546774  0.24082992  0.74978915  1
  Te  Te34  1  0.25599575  0.75468229  0.25359921  1
  Te  Te35  1  0.24929638  0.75411335  0.74763281  1
  Te  Te36  1  0.75351656  0.25729014  0.24941005  1
  Te  Te37  1  0.74363726  0.25805337  0.75082866  1
  Te  Te38  1  0.74414635  0.74509059  0.24499664  1
  Te  Te39  1  0.75059279  0.74593252  0.75343997  1
  Te  Te40  1  0.24288763  -0.00054786  -0.00002059  1
  Te  Te41  1  0.24556503  -0.00500382  0.50069436  1
  Te  Te42  1  0.23777239  0.49996737  0.00072749  1
  Te  Te43  1  0.24873525  0.50712265  0.49948658  1
  Te  Te44  1  0.75815786  -0.00755496  0.00047071  1
  Te  Te45  1  0.76125519  0.00116126  0.49928067  1
  Te  Te46  1  0.75495285  0.50377826  -0.00055978  1
  Te  Te47  1  0.75245896  0.50090807  0.50040001  1
  Te  Te48  1  -0.00076538  0.24938753  0.00468777  1
  Te  Te49  1  0.00076858  0.25278477  0.49556605  1
  Te  Te50  1  -0.00250211  0.74923240  -0.00219483  1
  Te  Te51  1  0.00247798  0.74795848  0.50203994  1
  Te  Te52  1  0.50025701  0.24993516  -0.00782236  1
  Te  Te53  1  0.49974954  0.25817429  0.50523995  1
  Te  Te54  1  0.50499217  0.74998153  -0.00122132  1
  Te  Te55  1  0.49731778  0.74689699  0.50232090  1
  Te  Te56  1  0.00163826  0.00063667  0.25045917  1
  Te  Te57  1  0.00176013  -0.00079017  0.74958687  1
  Te  Te58  1  -0.00214103  0.49888726  0.25267301  1
  Te  Te59  1  -0.00129472  0.50085776  0.74740157  1
  Te  Te60  1  0.49590402  -0.00202707  0.25061643  1
  Te  Te61  1  0.49682678  -0.00390832  0.74939885  1
  Te  Te62  1  0.50267612  0.50116484  0.25269478  1
  Te  Te63  1  0.50098299  0.50559843  0.74792145  1
