# generated using pymatgen
data_AgSbTe2
_symmetry_space_group_name_H-M   'P 1'
_cell_length_a   12.35949061
_cell_length_b   12.32306458
_cell_length_c   12.38075458
_cell_angle_alpha   90.00130396
_cell_angle_beta   90.00083475
_cell_angle_gamma   89.97784917
_symmetry_Int_Tables_number   1
_chemical_formula_structural   AgSbTe2
_chemical_formula_sum   'Ag16 Sb16 Te32'
_cell_volume   1885.67298093
_cell_formula_units_Z   16
loop_
 _symmetry_equiv_pos_site_id
 _symmetry_equiv_pos_as_xyz
  1  'x, y, z'
loop_
 _atom_site_type_symbol
 _atom_site_label
 _atom_site_symmetry_multiplicity
 _atom_site_fract_x
 _atom_site_fract_y
 _atom_site_fract_z
 _atom_site_occupancy
  Ag  Ag0  1  0.01429672  0.25118849  0.24736627  1
  Ag  Ag1  1  0.25498245  0.02117576  0.75123863  1
  Ag  Ag2  1  0.48647256  0.73637791  0.75895942  1
  Ag  Ag3  1  0.73265220  0.25509012  -0.01576086  1
  Ag  Ag4  1  0.25887660  0.74171486  -0.01782518  1
  Ag  Ag5  1  0.25480739  0.25249014  0.51443034  1
  Ag  Ag6  1  0.25917895  0.25677496  -0.01565866  1
  Ag  Ag7  1  0.73263738  0.48632491  0.75397034  1
  Ag  Ag8  1  0.49479358  0.48969846  -0.00704083  1
  Ag  Ag9  1  0.73851862  0.25335494  0.51554928  1
  Ag  Ag10  1  0.26147476  0.49026571  0.75457201  1
  Ag  Ag11  1  0.49516567  0.25896528  0.24093428  1
  Ag  Ag12  1  0.49136580  0.74084977  0.24102371  1
  Ag  Ag13  1  0.25766090  0.74501843  0.51932718  1
  Ag  Ag14  1  0.02074951  0.25380837  0.75183797  1
  Ag  Ag15  1  0.48845537  0.26378159  0.76387253  1
  Sb  Sb16  1  0.00359674  0.49441806  0.50359806  1
  Sb  Sb17  1  0.25085698  0.00443419  0.24902164  1
  Sb  Sb18  1  0.25300145  0.49549620  0.25067646  1
  Sb  Sb19  1  0.00444474  0.00702254  0.50298872  1
  Sb  Sb20  1  0.74135404  0.74477510  0.50442152  1
  Sb  Sb21  1  0.00811465  0.74799298  0.24860046  1
  Sb  Sb22  1  0.00499944  0.00720277  -0.00296944  1
  Sb  Sb23  1  0.74790886  0.00806550  0.24951740  1
  Sb  Sb24  1  0.74403263  0.49283393  0.24680250  1
  Sb  Sb25  1  0.49951070  0.00530203  -0.00116654  1
  Sb  Sb26  1  0.49836512  0.00476793  0.50069332  1
  Sb  Sb27  1  0.00453940  0.49426466  -0.00429698  1
  Sb  Sb28  1  0.00973342  0.74671645  0.75069186  1
  Sb  Sb29  1  0.49711352  0.49483075  0.50467687  1
  Sb  Sb30  1  0.74476381  0.00862240  0.75018557  1
  Sb  Sb31  1  0.73813158  0.74385487  -0.00372033  1
  Te  Te32  1  0.25412778  0.24997988  0.25122026  1
  Te  Te33  1  0.24997454  0.25012032  0.75012114  1
  Te  Te34  1  0.25377528  0.75043676  0.25117415  1
  Te  Te35  1  0.24849110  0.73822525  0.74953770  1
  Te  Te36  1  0.73605781  0.25143734  0.25162347  1
  Te  Te37  1  0.73767000  0.24868085  0.74954281  1
  Te  Te38  1  0.74836996  0.75071027  0.25185270  1
  Te  Te39  1  0.75178215  0.75262564  0.74967338  1
  Te  Te40  1  0.25160788  0.00011555  -0.00121334  1
  Te  Te41  1  0.25190525  0.00267821  0.50272510  1
  Te  Te42  1  0.25149516  0.49808412  0.00139084  1
  Te  Te43  1  0.25171524  0.49874472  0.50341493  1
  Te  Te44  1  0.75216262  0.01077737  0.00080861  1
  Te  Te45  1  0.75079687  0.00979759  0.49910880  1
  Te  Te46  1  0.74618787  0.49734637  -0.00308411  1
  Te  Te47  1  0.74946606  0.49512144  0.50769025  1
  Te  Te48  1  0.01014860  0.25167638  -0.00039229  1
  Te  Te49  1  0.01087885  0.25072123  0.50090320  1
  Te  Te50  1  0.00884120  0.75151578  0.00243132  1
  Te  Te51  1  0.00655956  0.75190197  0.49682699  1
  Te  Te52  1  0.49861562  0.24824582  -0.00186691  1
  Te  Te53  1  0.49650233  0.25131782  0.49582789  1
  Te  Te54  1  0.49738872  0.75196488  -0.00078712  1
  Te  Te55  1  0.49673525  0.74872453  0.49693455  1
  Te  Te56  1  -0.00089358  0.01115865  0.25043969  1
  Te  Te57  1  0.00486434  0.00355492  0.74947327  1
  Te  Te58  1  -0.00341699  0.49193886  0.25115451  1
  Te  Te59  1  -0.00025030  0.49759097  0.74973006  1
  Te  Te60  1  0.49925493  -0.00594584  0.25137101  1
  Te  Te61  1  0.49724936  -0.00755632  0.74870470  1
  Te  Te62  1  0.50007734  0.50128319  0.23824298  1
  Te  Te63  1  0.49930367  0.49954544  0.74890192  1
