# generated using pymatgen
data_AgSbTe2
_symmetry_space_group_name_H-M   'P 1'
_cell_length_a   12.22137440
_cell_length_b   12.23837212
_cell_length_c   12.23773959
_cell_angle_alpha   90.00241060
_cell_angle_beta   90.01007201
_cell_angle_gamma   90.00981927
_symmetry_Int_Tables_number   1
_chemical_formula_structural   AgSbTe2
_chemical_formula_sum   'Ag16 Sb16 Te32'
_cell_volume   1830.39532118
_cell_formula_units_Z   16
loop_
 _symmetry_equiv_pos_site_id
 _symmetry_equiv_pos_as_xyz
  1  'x, y, z'
loop_
 _atom_site_type_symbol
 _atom_site_label
 _atom_site_symmetry_multiplicity
 _atom_site_fract_x
 _atom_site_fract_y
 _atom_site_fract_z
 _atom_site_occupancy
  Ag  Ag0  1  0.24926080  0.48544291  0.74575052  1
  Ag  Ag1  1  0.00842188  0.00223424  0.49910517  1
  Ag  Ag2  1  0.49053736  0.25472278  0.24894858  1
  Ag  Ag3  1  0.01481113  0.25132850  0.74615464  1
  Ag  Ag4  1  0.24932043  0.49325153  0.25496975  1
  Ag  Ag5  1  0.75095885  0.49996234  0.24892747  1
  Ag  Ag6  1  0.24704073  0.25144844  0.51216388  1
  Ag  Ag7  1  0.24498049  0.74822290  0.49666208  1
  Ag  Ag8  1  0.00481223  0.74621469  0.25332148  1
  Ag  Ag9  1  0.00843293  0.49864379  0.49688133  1
  Ag  Ag10  1  0.25227212  0.25420264  -0.01257947  1
  Ag  Ag11  1  0.24804777  0.00690123  0.25739152  1
  Ag  Ag12  1  0.75107594  0.74543961  0.00351456  1
  Ag  Ag13  1  0.48492579  0.25283766  0.75105031  1
  Ag  Ag14  1  0.24803657  0.01521109  0.74336266  1
  Ag  Ag15  1  0.49534989  0.49562263  0.00294357  1
  Sb  Sb16  1  0.49630720  0.74689300  0.24861936  1
  Sb  Sb17  1  0.74835809  0.25262426  0.00239207  1
  Sb  Sb18  1  0.24975508  0.74663729  0.00219722  1
  Sb  Sb19  1  0.49509808  0.74769686  0.75191172  1
  Sb  Sb20  1  0.49648586  0.00424611  0.00017974  1
  Sb  Sb21  1  0.75057268  0.49790870  0.75030054  1
  Sb  Sb22  1  0.00355979  0.00131417  0.00101419  1
  Sb  Sb23  1  0.75483514  0.74645406  0.49756577  1
  Sb  Sb24  1  0.75176042  0.00240291  0.74879079  1
  Sb  Sb25  1  0.75265822  0.25199059  0.49800468  1
  Sb  Sb26  1  0.00334374  0.49869253  0.00207953  1
  Sb  Sb27  1  0.75137557  0.00047308  0.25123471  1
  Sb  Sb28  1  0.01089136  0.25216050  0.25362052  1
  Sb  Sb29  1  0.49083793  0.49716011  0.49798661  1
  Sb  Sb30  1  0.49012255  0.00270660  0.49966021  1
  Sb  Sb31  1  0.00382606  0.74913149  0.74739574  1
  Te  Te32  1  0.24978545  0.25160413  0.25073682  1
  Te  Te33  1  0.24954586  0.25141290  0.74958820  1
  Te  Te34  1  0.24749782  0.74871910  0.25181413  1
  Te  Te35  1  0.25033018  0.74976553  0.74695187  1
  Te  Te36  1  0.74087093  0.25473974  0.24915531  1
  Te  Te37  1  0.74802814  0.24967893  0.75017379  1
  Te  Te38  1  0.75239741  0.74726511  0.24812213  1
  Te  Te39  1  0.74885620  0.75046783  0.75584486  1
  Te  Te40  1  0.25046560  0.00355524  -0.00008358  1
  Te  Te41  1  0.24739931  0.00214455  0.49912715  1
  Te  Te42  1  0.25259672  0.49743775  0.00073515  1
  Te  Te43  1  0.24832961  0.49785071  0.49897869  1
  Te  Te44  1  0.74914463  -0.00803883  0.00045732  1
  Te  Te45  1  0.76245366  -0.00099739  0.50000944  1
  Te  Te46  1  0.74690685  0.50242364  0.00353458  1
  Te  Te47  1  0.75983503  0.50115340  0.49450473  1
  Te  Te48  1  0.00341427  0.24988068  -0.00741165  1
  Te  Te49  1  0.00299235  0.25144563  0.50193932  1
  Te  Te50  1  -0.00268379  0.75002075  0.00592270  1
  Te  Te51  1  0.00459380  0.74768299  0.49710601  1
  Te  Te52  1  0.49785993  0.25367158  0.00009447  1
  Te  Te53  1  0.49658025  0.25022204  0.50080854  1
  Te  Te54  1  0.50277904  0.74282788  0.00026038  1
  Te  Te55  1  0.49343461  0.75100518  0.50045777  1
  Te  Te56  1  0.00368739  -0.00152619  0.25277767  1
  Te  Te57  1  0.00343014  0.00210060  0.74692565  1
  Te  Te58  1  0.00367991  0.50013336  0.25157810  1
  Te  Te59  1  0.00248134  0.49786812  0.74715998  1
  Te  Te60  1  0.49505705  0.00580888  0.25035481  1
  Te  Te61  1  0.49572895  0.00557297  0.74953861  1
  Te  Te62  1  0.49624832  0.49739866  0.24917524  1
  Te  Te63  1  0.49820039  0.49652530  0.75214032  1
