# generated using pymatgen
data_AgSbTe2
_symmetry_space_group_name_H-M   'P 1'
_cell_length_a   12.21892217
_cell_length_b   12.22286950
_cell_length_c   12.23156282
_cell_angle_alpha   89.99598806
_cell_angle_beta   89.99549897
_cell_angle_gamma   89.99257275
_symmetry_Int_Tables_number   1
_chemical_formula_structural   AgSbTe2
_chemical_formula_sum   'Ag16 Sb16 Te32'
_cell_volume   1826.78744251
_cell_formula_units_Z   16
loop_
 _symmetry_equiv_pos_site_id
 _symmetry_equiv_pos_as_xyz
  1  'x, y, z'
loop_
 _atom_site_type_symbol
 _atom_site_label
 _atom_site_symmetry_multiplicity
 _atom_site_fract_x
 _atom_site_fract_y
 _atom_site_fract_z
 _atom_site_occupancy
  Ag  Ag0  1  0.74987631  0.49999963  0.24925629  1
  Ag  Ag1  1  0.49273974  -0.00258441  0.50107126  1
  Ag  Ag2  1  0.49511650  0.25035383  0.75000856  1
  Ag  Ag3  1  0.49491798  0.75140932  0.25172233  1
  Ag  Ag4  1  0.49717923  0.50209445  0.50337375  1
  Ag  Ag5  1  0.00335306  0.49679083  -0.00305224  1
  Ag  Ag6  1  0.25282146  -0.00328136  0.24373761  1
  Ag  Ag7  1  0.48783685  -0.00178125  -0.00130865  1
  Ag  Ag8  1  0.01106280  0.00278354  -0.00086914  1
  Ag  Ag9  1  0.25147522  0.75638350  -0.00029167  1
  Ag  Ag10  1  0.00240680  0.25040022  0.24355665  1
  Ag  Ag11  1  0.00476488  0.25243054  0.75563519  1
  Ag  Ag12  1  0.25559554  0.75195675  0.49996148  1
  Ag  Ag13  1  0.74898165  0.49697589  0.75058505  1
  Ag  Ag14  1  0.25061198  0.49831005  0.75149454  1
  Ag  Ag15  1  0.25309193  0.00051471  0.75630528  1
  Sb  Sb16  1  0.24970921  0.50207474  0.24844193  1
  Sb  Sb17  1  0.00416118  0.74809081  0.75308567  1
  Sb  Sb18  1  0.00316807  0.49949276  0.50240250  1
  Sb  Sb19  1  0.49486786  0.50110830  -0.00329615  1
  Sb  Sb20  1  0.74780041  0.00359968  0.75118105  1
  Sb  Sb21  1  0.75191873  0.25228847  -0.00033521  1
  Sb  Sb22  1  0.24835104  0.24405828  -0.00253227  1
  Sb  Sb23  1  0.74952794  0.00027682  0.24869035  1
  Sb  Sb24  1  0.74382696  0.74687359  0.49838708  1
  Sb  Sb25  1  0.49814473  0.24812896  0.24876708  1
  Sb  Sb26  1  0.00398874  0.75001480  0.24656833  1
  Sb  Sb27  1  0.74860951  0.25200089  0.50055281  1
  Sb  Sb28  1  0.00801396  0.00077927  0.50147708  1
  Sb  Sb29  1  0.74642163  0.74774841  0.00114264  1
  Sb  Sb30  1  0.49550474  0.75092752  0.74824981  1
  Sb  Sb31  1  0.25181101  0.24899138  0.50268123  1
  Te  Te32  1  0.24448756  0.24416802  0.25146515  1
  Te  Te33  1  0.24998427  0.25054663  0.74956095  1
  Te  Te34  1  0.25390303  0.75280911  0.24891689  1
  Te  Te35  1  0.25016641  0.75184384  0.75155195  1
  Te  Te36  1  0.75618903  0.25702456  0.25028067  1
  Te  Te37  1  0.75077806  0.25601356  0.74969211  1
  Te  Te38  1  0.74255059  0.74353291  0.25055869  1
  Te  Te39  1  0.75171948  0.73929851  0.74943766  1
  Te  Te40  1  0.24975389  -0.00276625  -0.00218210  1
  Te  Te41  1  0.25390660  -0.00428505  0.50200283  1
  Te  Te42  1  0.24668899  0.50657004  -0.00332779  1
  Te  Te43  1  0.25488106  0.50543628  0.50325609  1
  Te  Te44  1  0.75201720  -0.00239842  -0.00037136  1
  Te  Te45  1  0.73880924  -0.00208552  0.50029134  1
  Te  Te46  1  0.75574367  0.50191703  -0.00089058  1
  Te  Te47  1  0.74419485  0.50148627  0.50101188  1
  Te  Te48  1  0.00015922  0.25057445  -0.00181387  1
  Te  Te49  1  -0.00060418  0.24921758  0.50188511  1
  Te  Te50  1  0.00643510  0.75131761  0.00107524  1
  Te  Te51  1  0.00972602  0.75090176  0.49917881  1
  Te  Te52  1  0.50056879  0.24383126  -0.00504251  1
  Te  Te53  1  0.50018471  0.25107650  0.50451039  1
  Te  Te54  1  0.49487654  0.75362926  0.00496421  1
  Te  Te55  1  0.49545623  0.74959529  0.49678638  1
  Te  Te56  1  0.00094415  0.00304480  0.24702169  1
  Te  Te57  1  0.00123486  0.00510066  0.75282576  1
  Te  Te58  1  -0.00178990  0.49710335  0.24806524  1
  Te  Te59  1  0.00313422  0.49640173  0.75148517  1
  Te  Te60  1  0.49834128  0.00144234  0.24910621  1
  Te  Te61  1  0.49919147  0.00223778  0.75103906  1
  Te  Te62  1  0.50165084  0.49918546  0.25099752  1
  Te  Te63  1  0.49705910  0.49701774  0.75001099  1
