# generated using pymatgen
data_AgSbTe2
_symmetry_space_group_name_H-M   'P 1'
_cell_length_a   12.22228965
_cell_length_b   12.22294477
_cell_length_c   12.21668926
_cell_angle_alpha   89.99975513
_cell_angle_beta   90.00236989
_cell_angle_gamma   90.00228923
_symmetry_Int_Tables_number   1
_chemical_formula_structural   AgSbTe2
_chemical_formula_sum   'Ag16 Sb16 Te32'
_cell_volume   1825.08017487
_cell_formula_units_Z   16
loop_
 _symmetry_equiv_pos_site_id
 _symmetry_equiv_pos_as_xyz
  1  'x, y, z'
loop_
 _atom_site_type_symbol
 _atom_site_label
 _atom_site_symmetry_multiplicity
 _atom_site_fract_x
 _atom_site_fract_y
 _atom_site_fract_z
 _atom_site_occupancy
  Ag  Ag0  1  0.75260057  0.24921431  -0.00434850  1
  Ag  Ag1  1  0.50712717  0.25006507  0.74640528  1
  Ag  Ag2  1  0.50507595  0.00160217  0.49961799  1
  Ag  Ag3  1  0.75371934  0.49414403  0.74574371  1
  Ag  Ag4  1  -0.00323991  0.49875927  0.50314250  1
  Ag  Ag5  1  0.75705709  0.00009003  0.25688905  1
  Ag  Ag6  1  0.24545090  0.49848777  0.74496638  1
  Ag  Ag7  1  0.75330010  0.75104181  0.00066459  1
  Ag  Ag8  1  -0.00731819  0.25260422  0.74219690  1
  Ag  Ag9  1  -0.00514664  0.00064692  0.49384774  1
  Ag  Ag10  1  0.75742015  0.75485481  0.49811141  1
  Ag  Ag11  1  0.75672730  0.24609332  0.50387242  1
  Ag  Ag12  1  -0.00465388  0.24332838  0.25802912  1
  Ag  Ag13  1  0.24279315  0.75229459  0.49865107  1
  Ag  Ag14  1  0.24187921  -0.00068018  0.25612521  1
  Ag  Ag15  1  -0.00366411  0.75684891  0.25719901  1
  Sb  Sb16  1  0.24639994  0.00031919  0.74115228  1
  Sb  Sb17  1  0.75246347  0.00885991  0.73912147  1
  Sb  Sb18  1  -0.00360890  0.74631826  0.73862381  1
  Sb  Sb19  1  0.50360292  0.75198886  0.74654375  1
  Sb  Sb20  1  0.50542030  0.75353405  0.25377856  1
  Sb  Sb21  1  0.50410089  0.49827077  -0.00339288  1
  Sb  Sb22  1  0.75480924  0.49988552  0.25642036  1
  Sb  Sb23  1  0.50323349  0.49645230  0.50385747  1
  Sb  Sb24  1  -0.00357439  0.49971981  -0.00609976  1
  Sb  Sb25  1  0.24281344  0.50172819  0.25815241  1
  Sb  Sb26  1  -0.00511069  0.00069456  0.00864245  1
  Sb  Sb27  1  0.24042074  0.24704545  0.50047983  1
  Sb  Sb28  1  0.50710329  0.24529406  0.25594113  1
  Sb  Sb29  1  0.24412647  0.75049229  0.00194775  1
  Sb  Sb30  1  0.24607322  0.24948648  -0.00118935  1
  Sb  Sb31  1  0.50499965  0.00250644  -0.00173390  1
  Te  Te32  1  0.24257577  0.24491542  0.24810929  1
  Te  Te33  1  0.24885597  0.25508332  0.75159081  1
  Te  Te34  1  0.24419184  0.75321055  0.25320481  1
  Te  Te35  1  0.25083388  0.74437486  0.74635018  1
  Te  Te36  1  0.75370891  0.24865788  0.25141784  1
  Te  Te37  1  0.75232817  0.25003739  0.74840412  1
  Te  Te38  1  0.75360726  0.75131709  0.25336614  1
  Te  Te39  1  0.75011081  0.74267291  0.74934270  1
  Te  Te40  1  0.25272499  -0.00241111  0.01152860  1
  Te  Te41  1  0.24845423  -0.00392973  0.49583418  1
  Te  Te42  1  0.25079386  0.50188488  -0.01133900  1
  Te  Te43  1  0.24617666  0.50647820  0.50477544  1
  Te  Te44  1  0.74905802  -0.00024682  0.00966384  1
  Te  Te45  1  0.75243125  -0.00037886  0.49854452  1
  Te  Te46  1  0.75059868  0.49931997  -0.00819611  1
  Te  Te47  1  0.75288544  0.49985622  0.50354690  1
  Te  Te48  1  -0.00651820  0.24996241  0.00001166  1
  Te  Te49  1  -0.00131131  0.24984391  0.49945781  1
  Te  Te50  1  -0.00733744  0.75005960  0.01024795  1
  Te  Te51  1  -0.00241358  0.75109149  0.49884882  1
  Te  Te52  1  0.50906673  0.24915442  -0.00795413  1
  Te  Te53  1  0.50723349  0.24598728  0.50392797  1
  Te  Te54  1  0.51141251  0.75028325  -0.00019519  1
  Te  Te55  1  0.50156237  0.75643806  0.49999939  1
  Te  Te56  1  -0.00228780  0.00082733  0.25282098  1
  Te  Te57  1  0.00252346  0.00842222  0.74127758  1
  Te  Te58  1  0.00106872  0.49866334  0.25866250  1
  Te  Te59  1  -0.00211125  0.49637704  0.74483964  1
  Te  Te60  1  0.50090098  0.00127453  0.25799673  1
  Te  Te61  1  0.49778647  0.00742034  0.74259431  1
  Te  Te62  1  0.49715805  0.49911872  0.24984183  1
  Te  Te63  1  0.50152976  0.49224232  0.74811866  1
