# generated using pymatgen
data_AgSbTe2
_symmetry_space_group_name_H-M   'P 1'
_cell_length_a   12.27700360
_cell_length_b   12.27782945
_cell_length_c   12.26654376
_cell_angle_alpha   90.00081677
_cell_angle_beta   89.99828261
_cell_angle_gamma   90.01347665
_symmetry_Int_Tables_number   1
_chemical_formula_structural   AgSbTe2
_chemical_formula_sum   'Ag16 Sb16 Te32'
_cell_volume   1848.99688644
_cell_formula_units_Z   16
loop_
 _symmetry_equiv_pos_site_id
 _symmetry_equiv_pos_as_xyz
  1  'x, y, z'
loop_
 _atom_site_type_symbol
 _atom_site_label
 _atom_site_symmetry_multiplicity
 _atom_site_fract_x
 _atom_site_fract_y
 _atom_site_fract_z
 _atom_site_occupancy
  Ag  Ag0  1  0.25043667  0.24984090  -0.00125137  1
  Ag  Ag1  1  0.00636323  0.74639951  0.74141675  1
  Ag  Ag2  1  0.74130141  -0.00539416  0.26258254  1
  Ag  Ag3  1  0.49981994  -0.00772011  0.50026593  1
  Ag  Ag4  1  0.75158625  0.50775205  0.73731094  1
  Ag  Ag5  1  0.49445750  0.75401088  0.26081680  1
  Ag  Ag6  1  0.49377816  0.75372858  0.73919485  1
  Ag  Ag7  1  0.74727742  0.50469811  0.26243260  1
  Ag  Ag8  1  0.25886567  -0.00904186  0.25920545  1
  Ag  Ag9  1  0.74912562  0.25054690  0.50064706  1
  Ag  Ag10  1  0.74361549  -0.00778629  0.73774346  1
  Ag  Ag11  1  0.25327134  0.50842603  0.25896636  1
  Ag  Ag12  1  0.25441156  0.75001284  0.50632962  1
  Ag  Ag13  1  0.24847648  0.51306435  0.74008366  1
  Ag  Ag14  1  0.25619259  -0.01292488  0.74061594  1
  Ag  Ag15  1  -0.00040651  0.50539621  0.50423433  1
  Sb  Sb16  1  0.74951980  0.24996207  -0.00031094  1
  Sb  Sb17  1  -0.00009077  0.25116599  0.25427018  1
  Sb  Sb18  1  0.25025524  0.75031216  -0.00410939  1
  Sb  Sb19  1  0.49980422  0.24450229  0.74578098  1
  Sb  Sb20  1  0.49919487  0.50747958  0.50046402  1
  Sb  Sb21  1  0.49985380  0.24452762  0.25436682  1
  Sb  Sb22  1  0.49901703  0.50086529  -0.00049761  1
  Sb  Sb23  1  0.74359552  0.75038532  0.50085926  1
  Sb  Sb24  1  0.74943420  0.75001855  -0.00036113  1
  Sb  Sb25  1  0.00019911  0.25434045  0.74618745  1
  Sb  Sb26  1  0.00213135  0.50062571  -0.00442673  1
  Sb  Sb27  1  0.25121630  0.25043877  0.50034548  1
  Sb  Sb28  1  0.00145573  -0.00047470  -0.00156288  1
  Sb  Sb29  1  0.49920118  -0.00137188  -0.00065711  1
  Sb  Sb30  1  0.00056112  -0.00719525  0.50295254  1
  Sb  Sb31  1  0.00515357  0.74750107  0.26022704  1
  Te  Te32  1  0.25069994  0.25104795  0.25309308  1
  Te  Te33  1  0.25073082  0.25016802  0.74729754  1
  Te  Te34  1  0.24988542  0.75015738  0.24911364  1
  Te  Te35  1  0.25589292  0.74985680  0.75050030  1
  Te  Te36  1  0.74953724  0.25112157  0.25081811  1
  Te  Te37  1  0.74952778  0.25026457  0.74926198  1
  Te  Te38  1  0.74838142  0.75039374  0.24998860  1
  Te  Te39  1  0.74386159  0.74985526  0.74935887  1
  Te  Te40  1  0.24962891  0.00412548  0.00136733  1
  Te  Te41  1  0.24636796  0.00392657  0.50022614  1
  Te  Te42  1  0.24843958  0.49584343  0.00238839  1
  Te  Te43  1  0.25475340  0.49582696  0.50053952  1
  Te  Te44  1  0.75082021  0.00373684  0.00096956  1
  Te  Te45  1  0.75338368  -0.00405202  0.50017267  1
  Te  Te46  1  0.75143394  0.49619095  0.00192184  1
  Te  Te47  1  0.74564481  0.50367728  0.50039390  1
  Te  Te48  1  0.01183531  0.24971606  -0.00053585  1
  Te  Te49  1  -0.01177668  0.26482834  0.50036972  1
  Te  Te50  1  -0.00126012  0.75050176  -0.02028609  1
  Te  Te51  1  0.01453667  0.74308806  0.50673738  1
  Te  Te52  1  0.48909070  0.25093221  -0.00023544  1
  Te  Te53  1  0.51015341  0.23245296  0.50026680  1
  Te  Te54  1  0.50038435  0.74923285  0.00125502  1
  Te  Te55  1  0.49298226  0.75701122  0.50019860  1
  Te  Te56  1  -0.00135692  -0.00330486  0.25081126  1
  Te  Te57  1  -0.00047381  -0.00712899  0.74751449  1
  Te  Te58  1  -0.00137643  0.50305798  0.25624138  1
  Te  Te59  1  -0.00043773  0.50263853  0.74616803  1
  Te  Te60  1  0.49955488  -0.00401063  0.25152802  1
  Te  Te61  1  0.50024863  -0.00364374  0.74846862  1
  Te  Te62  1  0.49950432  0.50916873  0.25163520  1
  Te  Te63  1  0.50032646  0.50922664  0.74832850  1
