# generated using pymatgen
data_AgSbTe2
_symmetry_space_group_name_H-M   'P 1'
_cell_length_a   12.29898452
_cell_length_b   12.30155302
_cell_length_c   12.28345568
_cell_angle_alpha   89.99550439
_cell_angle_beta   89.99963338
_cell_angle_gamma   90.00093324
_symmetry_Int_Tables_number   1
_chemical_formula_structural   AgSbTe2
_chemical_formula_sum   'Ag16 Sb16 Te32'
_cell_volume   1858.44519913
_cell_formula_units_Z   16
loop_
 _symmetry_equiv_pos_site_id
 _symmetry_equiv_pos_as_xyz
  1  'x, y, z'
loop_
 _atom_site_type_symbol
 _atom_site_label
 _atom_site_symmetry_multiplicity
 _atom_site_fract_x
 _atom_site_fract_y
 _atom_site_fract_z
 _atom_site_occupancy
  Ag  Ag0  1  0.01031239  0.50497840  0.50018002  1
  Ag  Ag1  1  0.01501378  0.24779701  0.74231349  1
  Ag  Ag2  1  0.24655905  0.75078312  0.49413720  1
  Ag  Ag3  1  0.48417103  0.75394875  0.25579028  1
  Ag  Ag4  1  0.48698204  0.23927405  0.74470966  1
  Ag  Ag5  1  0.24988567  0.24867234  0.50778120  1
  Ag  Ag6  1  0.25651776  -0.01252501  0.26456414  1
  Ag  Ag7  1  0.25436937  0.00488673  0.73704105  1
  Ag  Ag8  1  0.74464692  0.00055690  0.74633292  1
  Ag  Ag9  1  0.49533398  -0.00105491  -0.00814954  1
  Ag  Ag10  1  0.49021791  -0.00071664  0.50496628  1
  Ag  Ag11  1  0.01460851  0.74518478  0.26147955  1
  Ag  Ag12  1  0.75283448  0.50622476  0.25698617  1
  Ag  Ag13  1  0.24712765  0.51445189  0.26472360  1
  Ag  Ag14  1  0.24321137  0.49678742  0.73480698  1
  Ag  Ag15  1  0.01060511  0.75044938  0.73877358  1
  Sb  Sb16  1  0.49780335  0.50199809  -0.00059938  1
  Sb  Sb17  1  0.74945001  0.75158113  -0.00169931  1
  Sb  Sb18  1  0.75439544  0.75110863  0.50124154  1
  Sb  Sb19  1  0.00433011  -0.00051506  -0.00330930  1
  Sb  Sb20  1  0.25097390  0.24968011  -0.00951126  1
  Sb  Sb21  1  0.75032933  0.24907572  0.50208140  1
  Sb  Sb22  1  0.74702419  -0.00383506  0.25303444  1
  Sb  Sb23  1  0.75377435  0.49966612  0.74400104  1
  Sb  Sb24  1  0.49157966  0.50197699  0.50069546  1
  Sb  Sb25  1  0.48551883  0.75701788  0.74321832  1
  Sb  Sb26  1  0.00780800  0.25263173  0.26015850  1
  Sb  Sb27  1  0.00090452  0.49978924  0.00044304  1
  Sb  Sb28  1  0.49471476  0.24862813  0.25500383  1
  Sb  Sb29  1  0.74867112  0.24803003  -0.00210490  1
  Sb  Sb30  1  0.00836876  -0.00352293  0.50256466  1
  Sb  Sb31  1  0.25003731  0.75046170  0.00519022  1
  Te  Te32  1  0.24797193  0.24748531  0.26006816  1
  Te  Te33  1  0.24989295  0.24932380  0.74509026  1
  Te  Te34  1  0.24777863  0.75242116  0.25135894  1
  Te  Te35  1  0.24881066  0.74886854  0.74725719  1
  Te  Te36  1  0.75215731  0.25687418  0.25067183  1
  Te  Te37  1  0.74943526  0.24749000  0.74930219  1
  Te  Te38  1  0.75557680  0.74721031  0.25098462  1
  Te  Te39  1  0.76258430  0.75250785  0.74802877  1
  Te  Te40  1  0.25365902  0.00087593  0.00146849  1
  Te  Te41  1  0.24994193  -0.00276924  0.49969765  1
  Te  Te42  1  0.25201584  0.49913632  0.00075938  1
  Te  Te43  1  0.24833939  0.50358789  0.50294037  1
  Te  Te44  1  0.74102365  0.00071497  -0.00623673  1
  Te  Te45  1  0.73559474  0.00042883  0.50496628  1
  Te  Te46  1  0.74829781  0.49987920  0.01368838  1
  Te  Te47  1  0.76179282  0.50000462  0.49494131  1
  Te  Te48  1  -0.00074959  0.24812698  -0.01853401  1
  Te  Te49  1  0.00481930  0.25372836  0.50448029  1
  Te  Te50  1  0.00015063  0.75154697  -0.00009026  1
  Te  Te51  1  0.00420671  0.74952417  0.49950065  1
  Te  Te52  1  0.49931192  0.24305031  -0.00899987  1
  Te  Te53  1  0.49479129  0.24858546  0.50343081  1
  Te  Te54  1  0.49957355  0.75422350  0.01112979  1
  Te  Te55  1  0.49220411  0.75034053  0.49588011  1
  Te  Te56  1  -0.00094291  -0.00339042  0.24904710  1
  Te  Te57  1  0.00599080  -0.00287351  0.74854342  1
  Te  Te58  1  0.01039836  0.50069210  0.24924040  1
  Te  Te59  1  0.00075958  0.50453835  0.75110541  1
  Te  Te60  1  0.50041920  0.00019217  0.25555043  1
  Te  Te61  1  0.49360297  -0.00272057  0.74648010  1
  Te  Te62  1  0.49154019  0.50094391  0.25044735  1
  Te  Te63  1  0.50097017  0.49598060  0.75095633  1
