# generated using pymatgen
data_AgSbTe2
_symmetry_space_group_name_H-M   'P 1'
_cell_length_a   12.24603694
_cell_length_b   12.25220631
_cell_length_c   12.25936818
_cell_angle_alpha   90.00243096
_cell_angle_beta   89.99634729
_cell_angle_gamma   90.00976790
_symmetry_Int_Tables_number   1
_chemical_formula_structural   AgSbTe2
_chemical_formula_sum   'Ag16 Sb16 Te32'
_cell_volume   1839.40747357
_cell_formula_units_Z   16
loop_
 _symmetry_equiv_pos_site_id
 _symmetry_equiv_pos_as_xyz
  1  'x, y, z'
loop_
 _atom_site_type_symbol
 _atom_site_label
 _atom_site_symmetry_multiplicity
 _atom_site_fract_x
 _atom_site_fract_y
 _atom_site_fract_z
 _atom_site_occupancy
  Ag  Ag0  1  -0.00641345  0.25851038  0.23459122  1
  Ag  Ag1  1  0.00148697  0.73255953  0.75660467  1
  Ag  Ag2  1  0.24260949  0.73873522  -0.00422238  1
  Ag  Ag3  1  0.23355417  0.50120110  0.76046945  1
  Ag  Ag4  1  0.23342527  0.26079993  -0.00016836  1
  Ag  Ag5  1  0.75743076  0.25537954  0.49593985  1
  Ag  Ag6  1  -0.00306665  0.49545743  0.51453995  1
  Ag  Ag7  1  0.75655432  0.01029417  0.24584537  1
  Ag  Ag8  1  -0.00258477  0.26541596  0.76704450  1
  Ag  Ag9  1  0.76576970  0.49600600  0.75394858  1
  Ag  Ag10  1  0.23751061  0.49659361  0.23852227  1
  Ag  Ag11  1  0.76545135  0.25585528  0.00378938  1
  Ag  Ag12  1  0.49894524  0.74448151  0.75346761  1
  Ag  Ag13  1  -0.00188981  0.01687620  0.00011294  1
  Ag  Ag14  1  0.00420050  0.48608838  -0.01316867  1
  Ag  Ag15  1  0.76221349  0.49175625  0.24602156  1
  Sb  Sb16  1  0.49866765  0.74700488  0.24431739  1
  Sb  Sb17  1  0.75468371  0.00559187  0.75473685  1
  Sb  Sb18  1  0.24561428  0.74349289  0.50598831  1
  Sb  Sb19  1  0.24518546  -0.00078653  0.75475431  1
  Sb  Sb20  1  0.49578108  0.50028573  -0.00172556  1
  Sb  Sb21  1  0.75469154  0.74370615  0.50195533  1
  Sb  Sb22  1  0.23931945  0.25633496  0.49976621  1
  Sb  Sb23  1  0.50525544  0.49932447  0.50242826  1
  Sb  Sb24  1  0.50503539  -0.00045459  -0.00033818  1
  Sb  Sb25  1  0.24002905  0.00564941  0.24245466  1
  Sb  Sb26  1  0.50744344  0.25178200  0.24823688  1
  Sb  Sb27  1  -0.00388394  0.00483694  0.49862280  1
  Sb  Sb28  1  0.75834100  0.74171613  -0.00238590  1
  Sb  Sb29  1  0.50516876  0.00050094  0.50087842  1
  Sb  Sb30  1  0.50110223  0.25577586  0.75250815  1
  Sb  Sb31  1  0.00105829  0.73729119  0.24209216  1
  Te  Te32  1  0.24598877  0.25525076  0.24727238  1
  Te  Te33  1  0.24870014  0.25377365  0.75279915  1
  Te  Te34  1  0.25156662  0.74273403  0.24315142  1
  Te  Te35  1  0.24457340  0.74740443  0.75311037  1
  Te  Te36  1  0.75103457  0.25476540  0.24562981  1
  Te  Te37  1  0.75118714  0.25343779  0.75433507  1
  Te  Te38  1  0.74849947  0.74614266  0.25021390  1
  Te  Te39  1  0.75371955  0.74433035  0.75037476  1
  Te  Te40  1  0.24289666  0.00272813  0.00168214  1
  Te  Te41  1  0.25200779  0.00054795  0.49709017  1
  Te  Te42  1  0.25053160  0.49804056  -0.00074396  1
  Te  Te43  1  0.24309006  0.49912957  0.49966604  1
  Te  Te44  1  0.75496481  0.00560248  0.00415227  1
  Te  Te45  1  0.75115808  0.00857625  0.49089350  1
  Te  Te46  1  0.75137991  0.49816869  -0.00017649  1
  Te  Te47  1  0.75449674  0.49670388  0.49951037  1
  Te  Te48  1  -0.00016892  0.25066127  0.00045705  1
  Te  Te49  1  -0.00466928  0.25388233  0.50030822  1
  Te  Te50  1  0.00378129  0.74708340  -0.00363223  1
  Te  Te51  1  0.00016901  0.74367876  0.51147594  1
  Te  Te52  1  0.49845356  0.24749619  -0.00140980  1
  Te  Te53  1  0.51338419  0.24865188  0.50100960  1
  Te  Te54  1  0.48845522  0.75211155  -0.00637909  1
  Te  Te55  1  0.49930686  0.75088664  0.51132433  1
  Te  Te56  1  -0.00469951  0.00600688  0.24694869  1
  Te  Te57  1  -0.00107990  0.00216571  0.75489169  1
  Te  Te58  1  -0.00106041  0.50020433  0.24647393  1
  Te  Te59  1  -0.00017376  0.49818709  0.75127588  1
  Te  Te60  1  0.51225938  -0.00137493  0.25072807  1
  Te  Te61  1  0.50085902  -0.01165243  0.74982755  1
  Te  Te62  1  0.50067108  0.50135245  0.25173744  1
  Te  Te63  1  0.50002685  0.50525952  0.74837379  1
