# generated using pymatgen
data_AgSbTe2
_symmetry_space_group_name_H-M   'P 1'
_cell_length_a   12.22288508
_cell_length_b   12.22183045
_cell_length_c   12.21248426
_cell_angle_alpha   89.99218089
_cell_angle_beta   89.99542471
_cell_angle_gamma   89.99093919
_symmetry_Int_Tables_number   1
_chemical_formula_structural   AgSbTe2
_chemical_formula_sum   'Ag16 Sb16 Te32'
_cell_volume   1824.37448290
_cell_formula_units_Z   16
loop_
 _symmetry_equiv_pos_site_id
 _symmetry_equiv_pos_as_xyz
  1  'x, y, z'
loop_
 _atom_site_type_symbol
 _atom_site_label
 _atom_site_symmetry_multiplicity
 _atom_site_fract_x
 _atom_site_fract_y
 _atom_site_fract_z
 _atom_site_occupancy
  Ag  Ag0  1  0.00306051  -0.00069574  0.00402352  1
  Ag  Ag1  1  0.24288336  -0.00016652  0.24413492  1
  Ag  Ag2  1  0.24893928  0.49918007  0.23925922  1
  Ag  Ag3  1  0.75201687  0.49981299  0.75602554  1
  Ag  Ag4  1  0.00386867  0.74898477  0.75583060  1
  Ag  Ag5  1  0.24623610  0.74586393  -0.00063595  1
  Ag  Ag6  1  0.49642510  0.74592874  0.75577142  1
  Ag  Ag7  1  0.75238823  0.25038119  0.00013361  1
  Ag  Ag8  1  0.24828264  0.25458752  0.00223651  1
  Ag  Ag9  1  0.00463292  0.75622790  0.24424240  1
  Ag  Ag10  1  0.00147824  0.25093395  0.75612832  1
  Ag  Ag11  1  0.00091814  -0.00063241  0.49567454  1
  Ag  Ag12  1  0.49331633  0.49879303  -0.00188595  1
  Ag  Ag13  1  0.24858233  0.50257175  0.76007016  1
  Ag  Ag14  1  0.49676778  0.25042666  0.24344206  1
  Ag  Ag15  1  0.75714475  0.00102158  0.24613665  1
  Sb  Sb16  1  0.75121000  0.49841019  0.24202508  1
  Sb  Sb17  1  0.49774594  0.00090812  0.00175561  1
  Sb  Sb18  1  0.75438617  0.00153845  0.75402336  1
  Sb  Sb19  1  0.49863468  0.00000136  0.49803595  1
  Sb  Sb20  1  0.75486626  0.74932242  -0.00106065  1
  Sb  Sb21  1  0.00111711  0.49974177  0.50180938  1
  Sb  Sb22  1  0.49498382  0.74926025  0.24369584  1
  Sb  Sb23  1  0.75301750  0.24792048  0.49918320  1
  Sb  Sb24  1  0.75232090  0.75142665  0.50051606  1
  Sb  Sb25  1  0.24613706  -0.00165694  0.75645685  1
  Sb  Sb26  1  0.00782505  0.50019017  -0.00137396  1
  Sb  Sb27  1  0.24746147  0.24847023  0.49807918  1
  Sb  Sb28  1  0.49861694  0.25418205  0.75676057  1
  Sb  Sb29  1  0.49851731  0.49985268  0.50194184  1
  Sb  Sb30  1  0.00306369  0.24307886  0.24209753  1
  Sb  Sb31  1  0.24753194  0.75115789  0.50094168  1
  Te  Te32  1  0.25003592  0.25159739  0.24618974  1
  Te  Te33  1  0.24819643  0.25269772  0.75489382  1
  Te  Te34  1  0.24832044  0.74963301  0.24629534  1
  Te  Te35  1  0.24546599  0.74838084  0.75373699  1
  Te  Te36  1  0.74834567  0.24861874  0.24496987  1
  Te  Te37  1  0.75140989  0.25237132  0.75542627  1
  Te  Te38  1  0.75428799  0.75385751  0.24928262  1
  Te  Te39  1  0.75390716  0.74589128  0.75120152  1
  Te  Te40  1  0.24741873  0.00048331  0.00359283  1
  Te  Te41  1  0.24404574  0.00063408  0.49008868  1
  Te  Te42  1  0.25084340  0.49927989  -0.00021518  1
  Te  Te43  1  0.25026643  0.49952521  0.49991647  1
  Te  Te44  1  0.75331567  0.00437176  0.00456431  1
  Te  Te45  1  0.75643540  0.00084692  0.49159433  1
  Te  Te46  1  0.74313944  0.49572509  -0.00356743  1
  Te  Te47  1  0.74978897  0.49963167  0.51038229  1
  Te  Te48  1  0.00155585  0.24734599  -0.00330228  1
  Te  Te49  1  -0.00025340  0.24341157  0.51082577  1
  Te  Te50  1  0.00309395  0.75282852  -0.00113686  1
  Te  Te51  1  0.00024057  0.75658619  0.50165005  1
  Te  Te52  1  0.49769985  0.25176320  0.00290911  1
  Te  Te53  1  0.50027579  0.24872091  0.49030085  1
  Te  Te54  1  0.49502413  0.74645193  -0.00414895  1
  Te  Te55  1  0.50050296  0.75078653  0.51054224  1
  Te  Te56  1  0.00160645  -0.00002336  0.24670883  1
  Te  Te57  1  -0.00040286  -0.00203419  0.75259404  1
  Te  Te58  1  0.00453151  0.50681937  0.25232128  1
  Te  Te59  1  0.00196945  0.50219185  0.74897606  1
  Te  Te60  1  0.49924920  0.00155132  0.25040178  1
  Te  Te61  1  0.50099319  -0.00723446  0.74843788  1
  Te  Te62  1  0.49715535  0.49834852  0.24647024  1
  Te  Te63  1  0.49715763  0.50191634  0.75262236  1
