# generated using pymatgen
data_AgSbTe2
_symmetry_space_group_name_H-M   'P 1'
_cell_length_a   12.22263174
_cell_length_b   12.21959271
_cell_length_c   12.22758096
_cell_angle_alpha   89.99796216
_cell_angle_beta   90.00389232
_cell_angle_gamma   90.00358076
_symmetry_Int_Tables_number   1
_chemical_formula_structural   AgSbTe2
_chemical_formula_sum   'Ag16 Sb16 Te32'
_cell_volume   1826.25745932
_cell_formula_units_Z   16
loop_
 _symmetry_equiv_pos_site_id
 _symmetry_equiv_pos_as_xyz
  1  'x, y, z'
loop_
 _atom_site_type_symbol
 _atom_site_label
 _atom_site_symmetry_multiplicity
 _atom_site_fract_x
 _atom_site_fract_y
 _atom_site_fract_z
 _atom_site_occupancy
  Ag  Ag0  1  0.49713277  -0.00512010  0.49764536  1
  Ag  Ag1  1  0.00551763  0.49835564  -0.00271939  1
  Ag  Ag2  1  0.49496850  0.24861386  0.24801020  1
  Ag  Ag3  1  0.25104177  0.50341658  0.24752352  1
  Ag  Ag4  1  0.25418820  0.74907199  0.49747707  1
  Ag  Ag5  1  0.25080121  0.25303812  0.00125175  1
  Ag  Ag6  1  0.25527259  -0.00353410  0.25081870  1
  Ag  Ag7  1  0.00519585  0.74491649  0.74810927  1
  Ag  Ag8  1  0.74646358  0.74896419  0.50090686  1
  Ag  Ag9  1  0.00371212  0.50376020  0.50292316  1
  Ag  Ag10  1  0.00296318  0.25479211  0.75338313  1
  Ag  Ag11  1  0.74850132  0.25262925  -0.00114790  1
  Ag  Ag12  1  0.49666419  0.24990323  0.75273569  1
  Ag  Ag13  1  0.25061067  0.74659020  0.00303940  1
  Ag  Ag14  1  0.49236937  0.75147581  0.25506608  1
  Ag  Ag15  1  0.49444665  0.75077360  0.74371850  1
  Sb  Sb16  1  0.49531451  0.50616348  0.49905682  1
  Sb  Sb17  1  0.49416239  0.49859348  0.00089247  1
  Sb  Sb18  1  0.00530457  0.25296006  0.24635731  1
  Sb  Sb19  1  0.75220537  0.49999022  0.74963288  1
  Sb  Sb20  1  0.25218740  -0.00160626  0.74834399  1
  Sb  Sb21  1  0.00891612  0.74748116  0.25158224  1
  Sb  Sb22  1  0.25135073  0.25251186  0.49921697  1
  Sb  Sb23  1  0.00312249  -0.00303507  0.50084764  1
  Sb  Sb24  1  0.74820935  0.25205666  0.50080909  1
  Sb  Sb25  1  0.75015511  0.74710105  -0.00023850  1
  Sb  Sb26  1  0.74441337  -0.00061546  0.25239043  1
  Sb  Sb27  1  0.24732492  0.50165286  0.75276981  1
  Sb  Sb28  1  0.74842047  0.50059744  0.25015856  1
  Sb  Sb29  1  0.49674333  0.00091600  0.00294175  1
  Sb  Sb30  1  0.74763491  -0.00015548  0.74862886  1
  Sb  Sb31  1  0.00341196  0.00075239  -0.00079059  1
  Te  Te32  1  0.25347325  0.25157282  0.24849045  1
  Te  Te33  1  0.25237387  0.24877092  0.75361547  1
  Te  Te34  1  0.25194614  0.74856577  0.24809182  1
  Te  Te35  1  0.25169436  0.75085551  0.75130930  1
  Te  Te36  1  0.74164780  0.24965890  0.24642248  1
  Te  Te37  1  0.74750763  0.24990716  0.75351864  1
  Te  Te38  1  0.74000497  0.75067787  0.25182689  1
  Te  Te39  1  0.74808051  0.75008899  0.74804681  1
  Te  Te40  1  0.25023365  -0.00088004  0.00716706  1
  Te  Te41  1  0.25399378  -0.00491599  0.49465934  1
  Te  Te42  1  0.24624853  0.50075657  0.00368178  1
  Te  Te43  1  0.24549418  0.50406530  0.49365330  1
  Te  Te44  1  0.75142241  0.00871262  0.00120264  1
  Te  Te45  1  0.74423889  -0.00714034  0.49902983  1
  Te  Te46  1  0.76062437  0.49449439  0.00171858  1
  Te  Te47  1  0.75957844  0.50646951  0.49833608  1
  Te  Te48  1  0.00440961  0.25167212  -0.00336851  1
  Te  Te49  1  -0.00130041  0.25328178  0.50724194  1
  Te  Te50  1  0.00098560  0.74731937  -0.00439968  1
  Te  Te51  1  0.00217314  0.74855386  0.50266809  1
  Te  Te52  1  0.49641485  0.25071649  -0.00238472  1
  Te  Te53  1  0.50077944  0.24727869  0.50210948  1
  Te  Te54  1  0.49783358  0.74937805  -0.00213319  1
  Te  Te55  1  0.49670515  0.74886617  0.50209136  1
  Te  Te56  1  0.00874918  0.00056769  0.25120989  1
  Te  Te57  1  0.00062270  0.00061445  0.74887665  1
  Te  Te58  1  0.00577251  0.49956880  0.24983519  1
  Te  Te59  1  0.00042331  0.50026353  0.74997699  1
  Te  Te60  1  0.49573504  -0.00024824  0.25251293  1
  Te  Te61  1  0.49913148  -0.00040227  0.74384156  1
  Te  Te62  1  0.49430940  0.49941058  0.25043528  1
  Te  Te63  1  0.49996605  0.49848750  0.74937515  1
