# generated using pymatgen
data_AgSbTe2
_symmetry_space_group_name_H-M   'P 1'
_cell_length_a   12.22578270
_cell_length_b   12.22180999
_cell_length_c   12.21099395
_cell_angle_alpha   90.00958801
_cell_angle_beta   89.99704545
_cell_angle_gamma   90.00584746
_symmetry_Int_Tables_number   1
_chemical_formula_structural   AgSbTe2
_chemical_formula_sum   'Ag16 Sb16 Te32'
_cell_volume   1824.58124841
_cell_formula_units_Z   16
loop_
 _symmetry_equiv_pos_site_id
 _symmetry_equiv_pos_as_xyz
  1  'x, y, z'
loop_
 _atom_site_type_symbol
 _atom_site_label
 _atom_site_symmetry_multiplicity
 _atom_site_fract_x
 _atom_site_fract_y
 _atom_site_fract_z
 _atom_site_occupancy
  Ag  Ag0  1  0.25095882  0.49995864  0.75108292  1
  Ag  Ag1  1  0.50126919  0.75369932  0.74887933  1
  Ag  Ag2  1  0.74700332  -0.00027020  0.24557625  1
  Ag  Ag3  1  0.00167648  0.24614274  0.75346067  1
  Ag  Ag4  1  0.50055296  0.00379869  0.00001416  1
  Ag  Ag5  1  0.74760258  0.50102965  0.25068798  1
  Ag  Ag6  1  0.50249815  0.24577847  0.24547715  1
  Ag  Ag7  1  0.74675173  0.24455640  0.00123517  1
  Ag  Ag8  1  0.50213773  0.50141970  0.50094751  1
  Ag  Ag9  1  0.74930289  -0.00217234  0.75405248  1
  Ag  Ag10  1  -0.00109509  0.75460568  0.74916819  1
  Ag  Ag11  1  0.25270901  0.24434056  -0.00320525  1
  Ag  Ag12  1  0.25363037  0.00170211  0.24478852  1
  Ag  Ag13  1  0.74911721  0.75065225  0.50045860  1
  Ag  Ag14  1  -0.00481799  0.75339191  0.25087195  1
  Ag  Ag15  1  0.25059435  0.00065867  0.75532535  1
  Sb  Sb16  1  0.25238036  0.25001398  0.50344560  1
  Sb  Sb17  1  0.50087327  0.49656856  -0.00077411  1
  Sb  Sb18  1  -0.00072846  0.00094362  -0.00269070  1
  Sb  Sb19  1  -0.00237877  0.50295986  0.50083025  1
  Sb  Sb20  1  0.74941446  0.50154423  0.74985321  1
  Sb  Sb21  1  0.25178002  0.75663788  -0.00219887  1
  Sb  Sb22  1  0.25161576  0.49924783  0.24812392  1
  Sb  Sb23  1  0.25150926  0.74971649  0.50275660  1
  Sb  Sb24  1  -0.00205354  -0.00226147  0.50194320  1
  Sb  Sb25  1  0.49933849  0.24673935  0.75401970  1
  Sb  Sb26  1  0.50238187  -0.00096114  0.50111197  1
  Sb  Sb27  1  0.74740063  0.24961659  0.49941804  1
  Sb  Sb28  1  0.50367195  0.75351789  0.25135052  1
  Sb  Sb29  1  -0.00108115  0.49907088  -0.00092695  1
  Sb  Sb30  1  -0.00203172  0.24714557  0.24717162  1
  Sb  Sb31  1  0.74848237  0.75592050  -0.00070495  1
  Te  Te32  1  0.24946483  0.24611427  0.24572776  1
  Te  Te33  1  0.24932528  0.24590302  0.75295890  1
  Te  Te34  1  0.24446836  0.75439154  0.25035045  1
  Te  Te35  1  0.24743230  0.75310800  0.74951882  1
  Te  Te36  1  0.75093297  0.24598089  0.24834546  1
  Te  Te37  1  0.75133372  0.24695012  0.75226197  1
  Te  Te38  1  0.75193856  0.75292936  0.25072680  1
  Te  Te39  1  0.75200007  0.75208446  0.74949394  1
  Te  Te40  1  0.25488583  0.00466245  -0.00144456  1
  Te  Te41  1  0.25136665  0.00006082  0.50009158  1
  Te  Te42  1  0.25131210  0.49006064  -0.00553818  1
  Te  Te43  1  0.25772647  0.50016080  0.50591596  1
  Te  Te44  1  0.74552206  0.00461915  -0.00000504  1
  Te  Te45  1  0.74864439  -0.00560155  0.50013701  1
  Te  Te46  1  0.74873695  0.48999994  0.00661664  1
  Te  Te47  1  0.74504196  0.50460992  0.49612428  1
  Te  Te48  1  -0.00014416  0.25041924  -0.00621231  1
  Te  Te49  1  0.00007409  0.25185931  0.51079413  1
  Te  Te50  1  0.00043249  0.74910915  -0.00236709  1
  Te  Te51  1  -0.00761902  0.74901428  0.50236826  1
  Te  Te52  1  0.50111553  0.24578897  0.00412114  1
  Te  Te53  1  0.50047277  0.25751082  0.49099548  1
  Te  Te54  1  0.49975188  0.75746716  -0.00762073  1
  Te  Te55  1  0.50580844  0.74510974  0.50490925  1
  Te  Te56  1  -0.00137878  -0.00426612  0.25089377  1
  Te  Te57  1  0.00041741  -0.00317553  0.74983598  1
  Te  Te58  1  -0.00410894  0.50532263  0.25081074  1
  Te  Te59  1  0.00480753  0.50291614  0.74924818  1
  Te  Te60  1  0.50079619  0.00137157  0.24826845  1
  Te  Te61  1  0.50001033  -0.00174537  0.75110278  1
  Te  Te62  1  0.50221699  0.49845682  0.25228543  1
  Te  Te63  1  0.49674821  0.50309449  0.74773475  1
