# generated using pymatgen
data_AgSbTe2
_symmetry_space_group_name_H-M   'P 1'
_cell_length_a   12.24147422
_cell_length_b   12.23008204
_cell_length_c   12.23058857
_cell_angle_alpha   90.00000223
_cell_angle_beta   90.00741083
_cell_angle_gamma   89.99051188
_symmetry_Int_Tables_number   1
_chemical_formula_structural   AgSbTe2
_chemical_formula_sum   'Ag16 Sb16 Te32'
_cell_volume   1831.09315922
_cell_formula_units_Z   16
loop_
 _symmetry_equiv_pos_site_id
 _symmetry_equiv_pos_as_xyz
  1  'x, y, z'
loop_
 _atom_site_type_symbol
 _atom_site_label
 _atom_site_symmetry_multiplicity
 _atom_site_fract_x
 _atom_site_fract_y
 _atom_site_fract_z
 _atom_site_occupancy
  Ag  Ag0  1  0.25168240  -0.00205035  0.75705935  1
  Ag  Ag1  1  0.49790587  0.25880154  0.24289457  1
  Ag  Ag2  1  0.25188418  0.50407985  0.24249070  1
  Ag  Ag3  1  0.00374425  0.25343510  0.75395536  1
  Ag  Ag4  1  0.25292781  0.25611672  0.00146421  1
  Ag  Ag5  1  0.00477524  0.50515491  0.00539108  1
  Ag  Ag6  1  0.74946786  0.74527771  0.49219112  1
  Ag  Ag7  1  0.73613671  0.74513060  0.00559520  1
  Ag  Ag8  1  0.26360687  0.74487306  0.00324147  1
  Ag  Ag9  1  -0.00277005  0.74191864  0.24428451  1
  Ag  Ag10  1  0.49837975  0.74871169  0.76534913  1
  Ag  Ag11  1  0.49580224  0.51314573  0.00721709  1
  Ag  Ag12  1  0.50245869  0.74272321  0.23648520  1
  Ag  Ag13  1  0.49629873  -0.01502993  0.00080441  1
  Ag  Ag14  1  0.74918279  0.50714033  0.24559120  1
  Ag  Ag15  1  -0.00101780  0.50325660  0.49405659  1
  Sb  Sb16  1  0.00235191  -0.00322824  -0.00020782  1
  Sb  Sb17  1  0.75154668  0.25545088  0.49636807  1
  Sb  Sb18  1  0.49718394  0.25084936  0.75774702  1
  Sb  Sb19  1  0.74821581  -0.00863550  0.24746993  1
  Sb  Sb20  1  0.00015162  -0.00282651  0.50020823  1
  Sb  Sb21  1  0.74827495  -0.00319473  0.75333649  1
  Sb  Sb22  1  0.50070647  0.50290759  0.49169086  1
  Sb  Sb23  1  0.25248950  -0.00311898  0.24515423  1
  Sb  Sb24  1  0.24984480  0.50138233  0.75887027  1
  Sb  Sb25  1  0.00082663  0.74825813  0.75463035  1
  Sb  Sb26  1  0.74832833  0.25486350  0.00266267  1
  Sb  Sb27  1  0.24950783  0.25372181  0.49868446  1
  Sb  Sb28  1  0.25027883  0.74710507  0.49727300  1
  Sb  Sb29  1  0.49940847  -0.00376580  0.49896620  1
  Sb  Sb30  1  0.00175737  0.25987402  0.24671728  1
  Sb  Sb31  1  0.74981075  0.50236869  0.75386595  1
  Te  Te32  1  0.25286597  0.25167457  0.24571258  1
  Te  Te33  1  0.24796191  0.24879771  0.75375407  1
  Te  Te34  1  0.25101152  0.74847042  0.24756080  1
  Te  Te35  1  0.25336475  0.75111016  0.75261770  1
  Te  Te36  1  0.74608108  0.25697429  0.25064069  1
  Te  Te37  1  0.75657301  0.24974612  0.74866871  1
  Te  Te38  1  0.74898894  0.74747887  0.24696116  1
  Te  Te39  1  0.74647462  0.74998809  0.75298868  1
  Te  Te40  1  0.25273008  -0.00102221  -0.00209495  1
  Te  Te41  1  0.24947152  0.00120785  0.51014662  1
  Te  Te42  1  0.24975783  0.50131399  0.00211706  1
  Te  Te43  1  0.24428563  0.49939400  0.49041889  1
  Te  Te44  1  0.74357204  -0.00685490  0.00043713  1
  Te  Te45  1  0.75051008  -0.00921357  0.50036690  1
  Te  Te46  1  0.75038997  0.50302561  0.00291177  1
  Te  Te47  1  0.75350057  0.50524704  0.49546120  1
  Te  Te48  1  0.00211101  0.25156279  -0.00110553  1
  Te  Te49  1  -0.00074393  0.25470129  0.50294270  1
  Te  Te50  1  0.00146167  0.74743180  0.00117466  1
  Te  Te51  1  -0.00216679  0.74578816  0.49899882  1
  Te  Te52  1  0.49784822  0.25270130  0.00315594  1
  Te  Te53  1  0.50137394  0.24952239  0.49230211  1
  Te  Te54  1  0.49803694  0.74776806  0.00048424  1
  Te  Te55  1  0.50359732  0.75022981  0.49920891  1
  Te  Te56  1  -0.00005307  -0.00882045  0.25095945  1
  Te  Te57  1  0.00446552  0.00457550  0.74986591  1
  Te  Te58  1  0.00015427  0.50230526  0.24587324  1
  Te  Te59  1  -0.00015832  0.49721599  0.75253194  1
  Te  Te60  1  0.49957335  -0.00205600  0.24611538  1
  Te  Te61  1  0.49712410  -0.00166356  0.75349248  1
  Te  Te62  1  0.49899197  0.50290752  0.24852386  1
  Te  Te63  1  0.49969486  0.50379507  0.75529852  1
