# generated using pymatgen
data_AgSbTe2
_symmetry_space_group_name_H-M   'P 1'
_cell_length_a   12.32509616
_cell_length_b   12.28964611
_cell_length_c   12.30670410
_cell_angle_alpha   90.00328904
_cell_angle_beta   90.01115985
_cell_angle_gamma   90.00062199
_symmetry_Int_Tables_number   1
_chemical_formula_structural   AgSbTe2
_chemical_formula_sum   'Ag16 Sb16 Te32'
_cell_volume   1864.10959988
_cell_formula_units_Z   16
loop_
 _symmetry_equiv_pos_site_id
 _symmetry_equiv_pos_as_xyz
  1  'x, y, z'
loop_
 _atom_site_type_symbol
 _atom_site_label
 _atom_site_symmetry_multiplicity
 _atom_site_fract_x
 _atom_site_fract_y
 _atom_site_fract_z
 _atom_site_occupancy
  Ag  Ag0  1  0.25095412  -0.00961511  0.75179406  1
  Ag  Ag1  1  0.25160315  0.74006881  -0.01037553  1
  Ag  Ag2  1  0.74783647  0.50328963  0.75270530  1
  Ag  Ag3  1  0.75334742  0.26181256  -0.00906037  1
  Ag  Ag4  1  0.00291458  0.49782814  -0.00765313  1
  Ag  Ag5  1  0.49165439  0.73976961  0.74409846  1
  Ag  Ag6  1  0.01109483  0.74086662  0.75136761  1
  Ag  Ag7  1  0.00366193  0.26390002  0.75708348  1
  Ag  Ag8  1  0.49441072  0.74002632  0.25947929  1
  Ag  Ag9  1  0.49661115  0.26335183  0.75276186  1
  Ag  Ag10  1  0.74364650  0.50344260  0.24871377  1
  Ag  Ag11  1  0.24740052  0.26235335  -0.00931357  1
  Ag  Ag12  1  0.50003576  0.50825407  0.50512329  1
  Ag  Ag13  1  0.73701932  0.74127965  0.50938173  1
  Ag  Ag14  1  0.26012755  0.74381989  0.51381315  1
  Ag  Ag15  1  0.25762280  0.50800962  0.24500956  1
  Sb  Sb16  1  0.49907978  0.50077289  -0.00264716  1
  Sb  Sb17  1  0.25246873  -0.00423701  0.24843743  1
  Sb  Sb18  1  0.74700060  -0.00583634  0.24844585  1
  Sb  Sb19  1  0.74817680  -0.00153807  0.74983524  1
  Sb  Sb20  1  0.25168648  0.25876960  0.50836034  1
  Sb  Sb21  1  0.49951634  -0.00100563  -0.00158344  1
  Sb  Sb22  1  0.74963414  0.74391830  -0.00387452  1
  Sb  Sb23  1  0.49904825  -0.00882165  0.50361001  1
  Sb  Sb24  1  0.00201863  0.74509471  0.24770459  1
  Sb  Sb25  1  0.74873323  0.25923608  0.50446234  1
  Sb  Sb26  1  0.00071984  0.50282211  0.50677073  1
  Sb  Sb27  1  0.00022792  0.25812994  0.24139314  1
  Sb  Sb28  1  0.00156691  -0.00382023  0.50568396  1
  Sb  Sb29  1  0.25234336  0.50153712  0.75303588  1
  Sb  Sb30  1  0.00122195  -0.00042710  -0.00371841  1
  Sb  Sb31  1  0.49859660  0.26082625  0.24731780  1
  Te  Te32  1  0.25161778  0.24974830  0.24360396  1
  Te  Te33  1  0.25198832  0.25478565  0.75212620  1
  Te  Te34  1  0.24945477  0.74755829  0.24483128  1
  Te  Te35  1  0.25120066  0.74703392  0.75249667  1
  Te  Te36  1  0.74874660  0.25573424  0.24943147  1
  Te  Te37  1  0.74752228  0.24835125  0.75022117  1
  Te  Te38  1  0.75028005  0.74501717  0.24609330  1
  Te  Te39  1  0.74611653  0.74979976  0.75256774  1
  Te  Te40  1  0.25078067  -0.00168406  -0.00327974  1
  Te  Te41  1  0.25104240  -0.00960785  0.50294748  1
  Te  Te42  1  0.24905215  0.50168926  0.00256802  1
  Te  Te43  1  0.24961736  0.50344806  0.48987856  1
  Te  Te44  1  0.74957999  0.02134809  0.00218166  1
  Te  Te45  1  0.75008629  -0.01621806  0.49698022  1
  Te  Te46  1  0.75040790  0.49720774  -0.00530761  1
  Te  Te47  1  0.75270905  0.50434856  0.50231120  1
  Te  Te48  1  0.00615067  0.25134527  -0.00435921  1
  Te  Te49  1  0.00017379  0.24760244  0.51429308  1
  Te  Te50  1  0.00128986  0.74837419  -0.00506246  1
  Te  Te51  1  0.00387053  0.74995948  0.50786717  1
  Te  Te52  1  0.49307472  0.24869456  -0.00416460  1
  Te  Te53  1  0.49990651  0.25890165  0.50712548  1
  Te  Te54  1  0.49750039  0.75163712  -0.00763507  1
  Te  Te55  1  0.49846918  0.74542260  0.50532688  1
  Te  Te56  1  -0.00232882  0.00328059  0.25175657  1
  Te  Te57  1  0.00540654  -0.00593396  0.75130471  1
  Te  Te58  1  -0.00377543  0.49924340  0.24029636  1
  Te  Te59  1  -0.00359550  0.50172103  0.75463292  1
  Te  Te60  1  0.50204451  -0.01729460  0.25145512  1
  Te  Te61  1  0.49578110  -0.00078950  0.74963522  1
  Te  Te62  1  0.50168175  0.50426007  0.25157764  1
  Te  Te63  1  0.50216667  0.50113674  0.74813587  1
