# generated using pymatgen
data_AgSbTe2
_symmetry_space_group_name_H-M   'P 1'
_cell_length_a   12.21523425
_cell_length_b   12.22857431
_cell_length_c   12.23289054
_cell_angle_alpha   90.00061659
_cell_angle_beta   89.99910918
_cell_angle_gamma   89.99274959
_symmetry_Int_Tables_number   1
_chemical_formula_structural   AgSbTe2
_chemical_formula_sum   'Ag16 Sb16 Te32'
_cell_volume   1827.28678266
_cell_formula_units_Z   16
loop_
 _symmetry_equiv_pos_site_id
 _symmetry_equiv_pos_as_xyz
  1  'x, y, z'
loop_
 _atom_site_type_symbol
 _atom_site_label
 _atom_site_symmetry_multiplicity
 _atom_site_fract_x
 _atom_site_fract_y
 _atom_site_fract_z
 _atom_site_occupancy
  Ag  Ag0  1  0.00026856  0.25113275  0.74728538  1
  Ag  Ag1  1  0.49688075  0.50052883  -0.00139211  1
  Ag  Ag2  1  0.24189439  0.74685029  0.50075474  1
  Ag  Ag3  1  0.49645520  0.50068622  0.50197361  1
  Ag  Ag4  1  0.00639867  0.75357836  0.25416841  1
  Ag  Ag5  1  0.00389323  0.24563561  0.25283036  1
  Ag  Ag6  1  0.24306303  0.50406826  0.74654422  1
  Ag  Ag7  1  0.75951665  -0.00079525  0.74953312  1
  Ag  Ag8  1  0.24164909  -0.00231909  0.25079797  1
  Ag  Ag9  1  0.00258330  -0.00318392  -0.00107363  1
  Ag  Ag10  1  0.75756713  0.50072524  0.74818535  1
  Ag  Ag11  1  0.00297886  -0.00452533  0.50109462  1
  Ag  Ag12  1  0.00354763  0.74856419  0.74552668  1
  Ag  Ag13  1  0.00381523  0.50475624  0.50694241  1
  Ag  Ag14  1  0.49585335  0.25202077  0.25081218  1
  Ag  Ag15  1  0.24439792  0.74907911  -0.00073409  1
  Sb  Sb16  1  0.75585575  0.74928219  -0.00365526  1
  Sb  Sb17  1  0.75896522  0.00068615  0.25056689  1
  Sb  Sb18  1  0.49766928  -0.00071504  0.00095270  1
  Sb  Sb19  1  0.75397832  0.25113407  0.50170998  1
  Sb  Sb20  1  0.24640201  0.25339041  0.49944603  1
  Sb  Sb21  1  0.75930430  0.74874489  0.50286779  1
  Sb  Sb22  1  0.24740685  0.50216903  0.25258067  1
  Sb  Sb23  1  0.49609586  0.74713869  0.74913210  1
  Sb  Sb24  1  0.49681130  -0.00062445  0.49894940  1
  Sb  Sb25  1  0.75236199  0.25093434  -0.00186422  1
  Sb  Sb26  1  0.00217962  0.50249029  -0.00696809  1
  Sb  Sb27  1  0.75251187  0.49991998  0.25072491  1
  Sb  Sb28  1  0.24093161  -0.00368765  0.74882632  1
  Sb  Sb29  1  0.49892367  0.25490378  0.74886279  1
  Sb  Sb30  1  0.49392333  0.74861714  0.25112097  1
  Sb  Sb31  1  0.24760449  0.25100366  0.00069804  1
  Te  Te32  1  0.24539994  0.24518015  0.24974221  1
  Te  Te33  1  0.24430079  0.25612364  0.75078018  1
  Te  Te34  1  0.24500318  0.75197100  0.25001867  1
  Te  Te35  1  0.24637461  0.74736330  0.74955370  1
  Te  Te36  1  0.75259531  0.24938028  0.24907601  1
  Te  Te37  1  0.75655085  0.25190005  0.75050738  1
  Te  Te38  1  0.75940541  0.75062751  0.24889589  1
  Te  Te39  1  0.75611385  0.74850230  0.75068269  1
  Te  Te40  1  0.24635651  -0.00518731  0.00175375  1
  Te  Te41  1  0.24621015  -0.00660626  0.49828507  1
  Te  Te42  1  0.25306249  0.50480268  -0.00317039  1
  Te  Te43  1  0.24678442  0.50405085  0.50189477  1
  Te  Te44  1  0.75486260  -0.00073473  -0.00528571  1
  Te  Te45  1  0.75466779  -0.00088315  0.50546792  1
  Te  Te46  1  0.74289442  0.50115992  -0.00658359  1
  Te  Te47  1  0.75034028  0.50078862  0.50574514  1
  Te  Te48  1  0.00128221  0.24566544  0.00148473  1
  Te  Te49  1  0.00056197  0.25089851  0.49935028  1
  Te  Te50  1  0.00447804  0.75185646  -0.00051582  1
  Te  Te51  1  0.00262257  0.74846212  0.50145126  1
  Te  Te52  1  0.49876945  0.25465368  0.00528346  1
  Te  Te53  1  0.49922768  0.25565571  0.49481816  1
  Te  Te54  1  0.49168451  0.74597716  0.00103949  1
  Te  Te55  1  0.49084609  0.74441022  0.49868330  1
  Te  Te56  1  0.00137090  0.00154072  0.25183547  1
  Te  Te57  1  0.00030396  0.00016174  0.74837394  1
  Te  Te58  1  -0.00143434  0.49798327  0.25394164  1
  Te  Te59  1  0.00049115  0.50038789  0.75045195  1
  Te  Te60  1  0.49593740  0.00490421  0.25058301  1
  Te  Te61  1  0.50989558  0.00188674  0.74952064  1
  Te  Te62  1  0.50109649  0.49643081  0.25158652  1
  Te  Te63  1  0.50025524  0.49849665  0.74754805  1
