# generated using pymatgen
data_AgSbTe2
_symmetry_space_group_name_H-M   'P 1'
_cell_length_a   12.21995362
_cell_length_b   12.21959122
_cell_length_c   12.21053996
_cell_angle_alpha   89.99670310
_cell_angle_beta   90.00454046
_cell_angle_gamma   90.00359938
_symmetry_Int_Tables_number   1
_chemical_formula_structural   AgSbTe2
_chemical_formula_sum   'Ag16 Sb16 Te32'
_cell_volume   1823.31246776
_cell_formula_units_Z   16
loop_
 _symmetry_equiv_pos_site_id
 _symmetry_equiv_pos_as_xyz
  1  'x, y, z'
loop_
 _atom_site_type_symbol
 _atom_site_label
 _atom_site_symmetry_multiplicity
 _atom_site_fract_x
 _atom_site_fract_y
 _atom_site_fract_z
 _atom_site_occupancy
  Ag  Ag0  1  0.00564357  -0.00473745  0.50124768  1
  Ag  Ag1  1  0.00635172  0.50481246  0.49766765  1
  Ag  Ag2  1  0.00117071  0.74585865  0.25780321  1
  Ag  Ag3  1  0.50214233  0.25148816  0.25549186  1
  Ag  Ag4  1  0.24454617  0.74798476  0.50520426  1
  Ag  Ag5  1  0.75149109  0.74745708  0.00101259  1
  Ag  Ag6  1  0.74860671  0.25234076  0.00374374  1
  Ag  Ag7  1  0.49401448  0.75072160  0.74518982  1
  Ag  Ag8  1  0.24996098  0.25195287  0.49922667  1
  Ag  Ag9  1  0.49476538  0.00056119  0.50139580  1
  Ag  Ag10  1  0.74902806  0.25222413  0.49596730  1
  Ag  Ag11  1  0.24701152  0.50133935  0.26056264  1
  Ag  Ag12  1  0.24782787  0.50604201  0.73924896  1
  Ag  Ag13  1  0.00600444  0.74924849  0.74166352  1
  Ag  Ag14  1  0.24944069  -0.00636557  0.74121838  1
  Ag  Ag15  1  0.75192451  0.49803613  0.25330001  1
  Sb  Sb16  1  0.50046489  -0.00051296  -0.00155085  1
  Sb  Sb17  1  0.75096160  -0.00184184  0.74628985  1
  Sb  Sb18  1  0.49292014  0.49958201  0.49974506  1
  Sb  Sb19  1  -0.00140428  0.25444295  0.25487903  1
  Sb  Sb20  1  0.49834195  0.24903250  0.74462394  1
  Sb  Sb21  1  0.75076389  0.00224451  0.25282135  1
  Sb  Sb22  1  0.24839694  -0.00118315  0.26044295  1
  Sb  Sb23  1  0.75246116  0.50227371  0.74581186  1
  Sb  Sb24  1  0.75572006  0.74670801  0.49830076  1
  Sb  Sb25  1  0.24963493  0.74885308  -0.00445594  1
  Sb  Sb26  1  0.49924649  0.74897794  0.25454888  1
  Sb  Sb27  1  -0.00173402  0.50189798  0.00206859  1
  Sb  Sb28  1  -0.00022119  -0.00302080  -0.00121937  1
  Sb  Sb29  1  0.00143158  0.25071353  0.74556212  1
  Sb  Sb30  1  0.25186342  0.25129086  0.00272053  1
  Sb  Sb31  1  0.50152804  0.50030595  0.00002067  1
  Te  Te32  1  0.25181603  0.25453631  0.25359044  1
  Te  Te33  1  0.25094856  0.25260283  0.74575315  1
  Te  Te34  1  0.24848108  0.74576337  0.25091734  1
  Te  Te35  1  0.24848033  0.74802788  0.75011145  1
  Te  Te36  1  0.74923517  0.25291403  0.25281700  1
  Te  Te37  1  0.74901326  0.25106496  0.74984335  1
  Te  Te38  1  0.75095224  0.74530074  0.24744791  1
  Te  Te39  1  0.75066633  0.74811437  0.75367527  1
  Te  Te40  1  0.24979846  0.00210164  -0.01172105  1
  Te  Te41  1  0.24820818  -0.00048885  0.50211594  1
  Te  Te42  1  0.24939269  0.49828548  0.00091838  1
  Te  Te43  1  0.24891407  0.50091068  0.49966506  1
  Te  Te44  1  0.75029323  0.00121731  -0.00039306  1
  Te  Te45  1  0.75088825  0.00669347  0.50061626  1
  Te  Te46  1  0.75103110  0.49920659  0.00470176  1
  Te  Te47  1  0.75509192  0.49541286  0.49614335  1
  Te  Te48  1  -0.00871556  0.24895827  0.00022157  1
  Te  Te49  1  0.00169979  0.24974651  0.49983141  1
  Te  Te50  1  -0.00512813  0.75120781  0.00027930  1
  Te  Te51  1  -0.00058046  0.74939151  0.50044347  1
  Te  Te52  1  0.50621199  0.24893573  0.00640296  1
  Te  Te53  1  0.49962751  0.24709106  0.49784815  1
  Te  Te54  1  0.50621763  0.75133342  -0.00480106  1
  Te  Te55  1  0.49747308  0.75477432  0.50284942  1
  Te  Te56  1  0.00121900  -0.00898436  0.25619836  1
  Te  Te57  1  0.00420491  -0.00508772  0.74461500  1
  Te  Te58  1  0.00087150  0.50382497  0.25354683  1
  Te  Te59  1  0.00374637  0.50475927  0.74484288  1
  Te  Te60  1  0.49906536  0.00480805  0.25624623  1
  Te  Te61  1  0.49582185  -0.00378001  0.74475127  1
  Te  Te62  1  0.50067845  0.49662463  0.25003497  1
  Te  Te63  1  0.49407003  0.50600401  0.74993316  1
