# generated using pymatgen
data_AgSbTe2
_symmetry_space_group_name_H-M   'P 1'
_cell_length_a   12.31133513
_cell_length_b   12.31235152
_cell_length_c   12.33867194
_cell_angle_alpha   89.99385381
_cell_angle_beta   90.00692133
_cell_angle_gamma   90.00598815
_symmetry_Int_Tables_number   1
_chemical_formula_structural   AgSbTe2
_chemical_formula_sum   'Ag16 Sb16 Te32'
_cell_volume   1870.31419156
_cell_formula_units_Z   16
loop_
 _symmetry_equiv_pos_site_id
 _symmetry_equiv_pos_as_xyz
  1  'x, y, z'
loop_
 _atom_site_type_symbol
 _atom_site_label
 _atom_site_symmetry_multiplicity
 _atom_site_fract_x
 _atom_site_fract_y
 _atom_site_fract_z
 _atom_site_occupancy
  Ag  Ag0  1  -0.00008551  0.75225799  0.24773117  1
  Ag  Ag1  1  0.24699561  0.74884420  0.02196085  1
  Ag  Ag2  1  0.75339341  -0.01987871  0.74981864  1
  Ag  Ag3  1  0.24721533  -0.02190724  0.25119126  1
  Ag  Ag4  1  0.75311054  0.75331089  0.02302709  1
  Ag  Ag5  1  0.25447794  0.50946245  0.73446254  1
  Ag  Ag6  1  0.50054413  0.74731269  0.25430114  1
  Ag  Ag7  1  0.74705182  0.52081842  0.25961220  1
  Ag  Ag8  1  0.75416108  -0.02148515  0.24820513  1
  Ag  Ag9  1  0.49372506  0.50686631  0.49508318  1
  Ag  Ag10  1  0.25381627  0.52188257  0.26393145  1
  Ag  Ag11  1  -0.00451576  -0.00992900  0.00828665  1
  Ag  Ag12  1  0.74670842  0.51348452  0.74249857  1
  Ag  Ag13  1  0.74806709  0.74138917  0.47810842  1
  Ag  Ag14  1  0.25441693  0.74258130  0.47806020  1
  Ag  Ag15  1  0.25359459  0.26507861  0.49480967  1
  Sb  Sb16  1  0.00070366  0.24916572  0.25037258  1
  Sb  Sb17  1  0.74717597  0.25608778  0.49849840  1
  Sb  Sb18  1  0.49889092  0.25320944  0.25262611  1
  Sb  Sb19  1  0.24680599  -0.00911416  0.74931694  1
  Sb  Sb20  1  -0.00061023  0.50533615  0.00331499  1
  Sb  Sb21  1  -0.00289151  0.74987875  0.75379121  1
  Sb  Sb22  1  0.00087995  0.25005076  0.74899416  1
  Sb  Sb23  1  0.50051459  0.50586598  0.00337942  1
  Sb  Sb24  1  0.24704261  0.25282411  0.00241711  1
  Sb  Sb25  1  -0.00061049  -0.00476460  0.49646886  1
  Sb  Sb26  1  0.49902282  0.25345957  0.74592956  1
  Sb  Sb27  1  0.75167093  0.24924851  0.00080717  1
  Sb  Sb28  1  0.50250499  0.74786956  0.74404338  1
  Sb  Sb29  1  0.00215575  0.50276077  0.49905683  1
  Sb  Sb30  1  0.50100008  -0.00735871  0.00299350  1
  Sb  Sb31  1  0.50105368  -0.00536500  0.49644500  1
  Te  Te32  1  0.25022454  0.25204104  0.25248742  1
  Te  Te33  1  0.24993781  0.25730655  0.74709023  1
  Te  Te34  1  0.24892428  0.75127400  0.24770293  1
  Te  Te35  1  0.25001197  0.74702975  0.74920527  1
  Te  Te36  1  0.75009740  0.25051832  0.25061219  1
  Te  Te37  1  0.75021633  0.25840635  0.75012894  1
  Te  Te38  1  0.75188952  0.74961093  0.25009139  1
  Te  Te39  1  0.74996854  0.74853824  0.74854761  1
  Te  Te40  1  0.25389880  -0.00231035  -0.00225535  1
  Te  Te41  1  0.25042357  -0.01320498  0.50165737  1
  Te  Te42  1  0.24943491  0.50245696  0.00086828  1
  Te  Te43  1  0.24661499  0.50744699  0.49994487  1
  Te  Te44  1  0.74767115  -0.00077521  0.00582259  1
  Te  Te45  1  0.74885616  0.00182812  0.49747038  1
  Te  Te46  1  0.75039874  0.50114176  -0.00039638  1
  Te  Te47  1  0.75476851  0.50024601  0.49831274  1
  Te  Te48  1  -0.00089712  0.23179401  -0.00164157  1
  Te  Te49  1  0.01328451  0.24708978  0.50097642  1
  Te  Te50  1  -0.00156091  0.75146174  0.00262714  1
  Te  Te51  1  -0.00509125  0.75011039  0.49129162  1
  Te  Te52  1  0.50022472  0.25105554  -0.00123694  1
  Te  Te53  1  0.49322878  0.26301680  0.50023142  1
  Te  Te54  1  0.49932995  0.74808467  0.01116242  1
  Te  Te55  1  0.50220686  0.74680055  0.49619059  1
  Te  Te56  1  -0.00016497  -0.00120090  0.25018693  1
  Te  Te57  1  -0.00633262  0.00018329  0.75610495  1
  Te  Te58  1  -0.00275401  0.50216287  0.24868814  1
  Te  Te59  1  -0.00440867  0.49869771  0.75252862  1
  Te  Te60  1  0.49850041  -0.00425835  0.25191691  1
  Te  Te61  1  0.51184996  0.00087367  0.74832558  1
  Te  Te62  1  0.50007271  0.50278603  0.25201740  1
  Te  Te63  1  0.50118777  0.50054406  0.74379650  1
