# generated using pymatgen
data_AgSbTe2
_symmetry_space_group_name_H-M   'P 1'
_cell_length_a   12.21483521
_cell_length_b   12.22041353
_cell_length_c   12.21548009
_cell_angle_alpha   90.00606599
_cell_angle_beta   89.99896774
_cell_angle_gamma   89.99942977
_symmetry_Int_Tables_number   1
_chemical_formula_structural   AgSbTe2
_chemical_formula_sum   'Ag16 Sb16 Te32'
_cell_volume   1823.40882647
_cell_formula_units_Z   16
loop_
 _symmetry_equiv_pos_site_id
 _symmetry_equiv_pos_as_xyz
  1  'x, y, z'
loop_
 _atom_site_type_symbol
 _atom_site_label
 _atom_site_symmetry_multiplicity
 _atom_site_fract_x
 _atom_site_fract_y
 _atom_site_fract_z
 _atom_site_occupancy
  Ag  Ag0  1  0.74614478  0.00287520  0.74909250  1
  Ag  Ag1  1  0.00061576  -0.00080307  0.50046972  1
  Ag  Ag2  1  0.74660258  0.75259566  0.00446749  1
  Ag  Ag3  1  0.74522306  0.00075563  0.25009373  1
  Ag  Ag4  1  0.74635495  0.49930944  0.24999256  1
  Ag  Ag5  1  0.25382777  0.00358834  0.74601861  1
  Ag  Ag6  1  0.25612283  0.24985963  -0.00134219  1
  Ag  Ag7  1  0.25291307  0.49867596  0.25385428  1
  Ag  Ag8  1  0.49974719  0.00041694  0.49989301  1
  Ag  Ag9  1  0.74439213  0.24723191  0.00266221  1
  Ag  Ag10  1  0.00399141  0.50157888  0.49810858  1
  Ag  Ag11  1  0.25119088  0.75013689  0.49900561  1
  Ag  Ag12  1  0.49751267  0.24584852  0.75123872  1
  Ag  Ag13  1  0.50257304  0.75066102  0.25172788  1
  Ag  Ag14  1  0.25168077  0.49670265  0.74656329  1
  Ag  Ag15  1  0.50185800  0.24925168  0.24825363  1
  Sb  Sb16  1  0.25568444  0.00196426  0.25462893  1
  Sb  Sb17  1  0.00055076  0.49953610  0.00125224  1
  Sb  Sb18  1  0.50206643  0.00252125  0.00028936  1
  Sb  Sb19  1  0.25219348  0.25053390  0.50147751  1
  Sb  Sb20  1  0.74739566  0.24777001  0.49648640  1
  Sb  Sb21  1  0.50006023  0.49761551  0.00235020  1
  Sb  Sb22  1  -0.00154400  0.24974277  0.25053703  1
  Sb  Sb23  1  0.49624187  0.50099549  0.49685909  1
  Sb  Sb24  1  -0.00209511  0.75031976  0.25276697  1
  Sb  Sb25  1  0.74735254  0.75316357  0.49596700  1
  Sb  Sb26  1  0.00309188  0.24899345  0.74970455  1
  Sb  Sb27  1  0.74861915  0.49590356  0.74985905  1
  Sb  Sb28  1  0.25408757  0.75033788  0.00196200  1
  Sb  Sb29  1  0.50025100  0.75476593  0.74808152  1
  Sb  Sb30  1  -0.00253301  0.00054565  0.00035955  1
  Sb  Sb31  1  -0.00022282  0.75045500  0.74690939  1
  Te  Te32  1  0.25544915  0.25266827  0.24487103  1
  Te  Te33  1  0.25355515  0.24906993  0.75323769  1
  Te  Te34  1  0.25532555  0.74661793  0.24965175  1
  Te  Te35  1  0.25167723  0.75009095  0.74951787  1
  Te  Te36  1  0.74571319  0.24983143  0.24664073  1
  Te  Te37  1  0.74428845  0.24804318  0.75620191  1
  Te  Te38  1  0.74553196  0.75019788  0.24804954  1
  Te  Te39  1  0.74768418  0.75403732  0.75634759  1
  Te  Te40  1  0.24654771  0.00364133  -0.00701342  1
  Te  Te41  1  0.24972373  -0.00219206  0.50177284  1
  Te  Te42  1  0.24806538  0.49748174  0.00020760  1
  Te  Te43  1  0.24806327  0.50214220  0.49846084  1
  Te  Te44  1  0.75238119  0.00278906  0.00036986  1
  Te  Te45  1  0.75012481  -0.00184594  0.50091697  1
  Te  Te46  1  0.75179822  0.49766554  0.00370595  1
  Te  Te47  1  0.75615781  0.50178528  0.49576816  1
  Te  Te48  1  -0.00086550  0.25001355  0.00021162  1
  Te  Te49  1  -0.00019365  0.24829200  0.49981049  1
  Te  Te50  1  -0.00933856  0.74998016  0.00063501  1
  Te  Te51  1  0.00752353  0.75099481  0.49940354  1
  Te  Te52  1  0.50030512  0.24950018  0.00138847  1
  Te  Te53  1  0.50026591  0.24346350  0.49919380  1
  Te  Te54  1  0.50576079  0.75015094  0.00789873  1
  Te  Te55  1  0.49545847  0.75529619  0.49553601  1
  Te  Te56  1  -0.00728042  -0.00001833  0.25795449  1
  Te  Te57  1  -0.00081462  -0.00006921  0.74234289  1
  Te  Te58  1  0.00118495  0.50003095  0.25579220  1
  Te  Te59  1  0.00563461  0.50017640  0.74235374  1
  Te  Te60  1  0.50260905  0.00216547  0.25423139  1
  Te  Te61  1  0.50033649  0.00253550  0.74533669  1
  Te  Te62  1  0.50070166  0.49795740  0.25258782  1
  Te  Te63  1  0.49467425  0.49365711  0.74702573  1
