# generated using pymatgen
data_AgSbTe2
_symmetry_space_group_name_H-M   'P 1'
_cell_length_a   12.21153529
_cell_length_b   12.21145421
_cell_length_c   12.21904323
_cell_angle_alpha   89.99763728
_cell_angle_beta   89.99985988
_cell_angle_gamma   89.99760722
_symmetry_Int_Tables_number   1
_chemical_formula_structural   AgSbTe2
_chemical_formula_sum   'Ag16 Sb16 Te32'
_cell_volume   1822.11110364
_cell_formula_units_Z   16
loop_
 _symmetry_equiv_pos_site_id
 _symmetry_equiv_pos_as_xyz
  1  'x, y, z'
loop_
 _atom_site_type_symbol
 _atom_site_label
 _atom_site_symmetry_multiplicity
 _atom_site_fract_x
 _atom_site_fract_y
 _atom_site_fract_z
 _atom_site_occupancy
  Ag  Ag0  1  0.25084229  0.24935937  0.50028255  1
  Ag  Ag1  1  0.50213567  0.75045971  0.75074048  1
  Ag  Ag2  1  0.25257320  0.49747114  0.74879065  1
  Ag  Ag3  1  0.49548253  0.24965335  0.25095401  1
  Ag  Ag4  1  0.25094133  0.49568142  0.25153130  1
  Ag  Ag5  1  0.74904018  -0.00057765  0.25376090  1
  Ag  Ag6  1  0.25343824  0.00300225  0.74490354  1
  Ag  Ag7  1  0.49581345  0.25002613  0.74935672  1
  Ag  Ag8  1  0.74723926  -0.00361034  0.74627897  1
  Ag  Ag9  1  0.00402989  0.50007130  0.50096634  1
  Ag  Ag10  1  0.00259585  0.50199832  -0.00079706  1
  Ag  Ag11  1  0.00065309  -0.00013183  0.50056218  1
  Ag  Ag12  1  0.74784121  0.74992432  -0.00303241  1
  Ag  Ag13  1  0.49790779  0.50056746  -0.00288984  1
  Ag  Ag14  1  0.75053997  0.75411889  0.50273857  1
  Ag  Ag15  1  0.25169096  0.00452837  0.25517658  1
  Sb  Sb16  1  0.25289080  0.25232816  -0.00030786  1
  Sb  Sb17  1  0.25213302  0.74647380  -0.00234707  1
  Sb  Sb18  1  0.49516212  0.49944489  0.50207235  1
  Sb  Sb19  1  0.74679826  0.50265555  0.74956255  1
  Sb  Sb20  1  0.49856937  -0.00000383  0.50191177  1
  Sb  Sb21  1  0.74855377  0.49880187  0.25090603  1
  Sb  Sb22  1  0.00513735  0.25074828  0.74804049  1
  Sb  Sb23  1  -0.00113273  0.74966517  0.25063842  1
  Sb  Sb24  1  0.24903563  0.75072252  0.50257671  1
  Sb  Sb25  1  0.74695715  0.25001479  -0.00081755  1
  Sb  Sb26  1  -0.00078911  -0.00218032  -0.00039518  1
  Sb  Sb27  1  0.50082201  -0.00185503  -0.00264489  1
  Sb  Sb28  1  -0.00379038  0.74950079  0.74929777  1
  Sb  Sb29  1  0.50125569  0.74987103  0.24942621  1
  Sb  Sb30  1  0.74964961  0.24635396  0.50113510  1
  Sb  Sb31  1  0.00523385  0.25009372  0.25191052  1
  Te  Te32  1  0.25414408  0.24890146  0.25269281  1
  Te  Te33  1  0.25435446  0.24886893  0.74744525  1
  Te  Te34  1  0.25201497  0.75176600  0.25006798  1
  Te  Te35  1  0.25739831  0.75105589  0.74960086  1
  Te  Te36  1  0.74108571  0.24328720  0.25064752  1
  Te  Te37  1  0.74043874  0.24244712  0.74891749  1
  Te  Te38  1  0.74823243  0.75624446  0.25096988  1
  Te  Te39  1  0.74617223  0.75327849  0.74944302  1
  Te  Te40  1  0.24733960  -0.00143206  0.00019502  1
  Te  Te41  1  0.24684058  -0.00014292  0.50033327  1
  Te  Te42  1  0.24990662  0.50142407  -0.00043370  1
  Te  Te43  1  0.24610189  0.50065010  0.50007674  1
  Te  Te44  1  0.75214228  -0.00588154  -0.00018541  1
  Te  Te45  1  0.75403298  -0.00128107  0.50047427  1
  Te  Te46  1  0.75040589  0.50540583  0.00080347  1
  Te  Te47  1  0.75978897  0.50391975  0.49889720  1
  Te  Te48  1  -0.00185776  0.26103348  -0.00007593  1
  Te  Te49  1  0.00596066  0.25055658  0.50023723  1
  Te  Te50  1  -0.00799947  0.74250773  -0.00031889  1
  Te  Te51  1  -0.00597141  0.75036827  0.50023945  1
  Te  Te52  1  0.50090512  0.25745987  -0.00101333  1
  Te  Te53  1  0.49389099  0.25115109  0.50032526  1
  Te  Te54  1  0.50501656  0.74451761  -0.00508495  1
  Te  Te55  1  0.50813558  0.74873943  0.50662327  1
  Te  Te56  1  0.00179473  0.00043761  0.25312261  1
  Te  Te57  1  0.00176091  0.00032930  0.74723948  1
  Te  Te58  1  0.00515600  0.49950744  0.25099295  1
  Te  Te59  1  0.00600019  0.49952054  0.74866376  1
  Te  Te60  1  0.49686156  0.00355044  0.24780586  1
  Te  Te61  1  0.49766138  0.00092452  0.75196621  1
  Te  Te62  1  0.49629768  0.49727683  0.24727794  1
  Te  Te63  1  0.49673622  0.49842997  0.75176457  1
