# generated using pymatgen
data_AgSbTe2
_symmetry_space_group_name_H-M   'P 1'
_cell_length_a   12.21930368
_cell_length_b   12.21286797
_cell_length_c   12.21342125
_cell_angle_alpha   90.00686633
_cell_angle_beta   90.00375005
_cell_angle_gamma   90.00269894
_symmetry_Int_Tables_number   1
_chemical_formula_structural   AgSbTe2
_chemical_formula_sum   'Ag16 Sb16 Te32'
_cell_volume   1822.64233003
_cell_formula_units_Z   16
loop_
 _symmetry_equiv_pos_site_id
 _symmetry_equiv_pos_as_xyz
  1  'x, y, z'
loop_
 _atom_site_type_symbol
 _atom_site_label
 _atom_site_symmetry_multiplicity
 _atom_site_fract_x
 _atom_site_fract_y
 _atom_site_fract_z
 _atom_site_occupancy
  Ag  Ag0  1  -0.00057116  0.75258034  0.25201496  1
  Ag  Ag1  1  0.74682558  -0.00360805  0.25516039  1
  Ag  Ag2  1  0.25151522  0.75441864  0.50051535  1
  Ag  Ag3  1  0.00198564  0.50252259  -0.00021419  1
  Ag  Ag4  1  0.74820119  0.75937936  0.49528748  1
  Ag  Ag5  1  0.25257531  0.50381218  0.75370919  1
  Ag  Ag6  1  0.50028407  -0.00108664  -0.00059708  1
  Ag  Ag7  1  0.50070172  0.24656410  0.75178193  1
  Ag  Ag8  1  0.50059425  0.75439317  0.25040722  1
  Ag  Ag9  1  0.25334974  0.74899240  -0.00098959  1
  Ag  Ag10  1  0.25466097  -0.00329972  0.74836183  1
  Ag  Ag11  1  0.74739538  0.24162022  0.49991882  1
  Ag  Ag12  1  0.50419078  -0.00341413  0.49994010  1
  Ag  Ag13  1  0.49758785  0.50157717  -0.00179546  1
  Ag  Ag14  1  -0.00391474  -0.00454513  0.49876469  1
  Ag  Ag15  1  0.74555256  0.24777210  -0.00030823  1
  Sb  Sb16  1  0.49600401  0.75336581  0.75019602  1
  Sb  Sb17  1  0.00151731  0.50373814  0.49990777  1
  Sb  Sb18  1  0.50365419  0.24592017  0.24899053  1
  Sb  Sb19  1  0.25245429  0.24453793  0.50368657  1
  Sb  Sb20  1  0.74661601  0.75299206  0.00431727  1
  Sb  Sb21  1  0.25325947  -0.00474300  0.25130343  1
  Sb  Sb22  1  0.00013617  -0.00217182  0.00094923  1
  Sb  Sb23  1  -0.00379085  0.24697093  0.25011486  1
  Sb  Sb24  1  0.74908094  0.50432209  0.24936462  1
  Sb  Sb25  1  0.74501473  0.00124122  0.74485423  1
  Sb  Sb26  1  0.49829167  0.50303185  0.50169737  1
  Sb  Sb27  1  0.25403871  0.25061603  -0.00295862  1
  Sb  Sb28  1  0.74643341  0.49943682  0.75194225  1
  Sb  Sb29  1  -0.00120387  0.24915996  0.75005479  1
  Sb  Sb30  1  0.25100828  0.50536522  0.24552817  1
  Sb  Sb31  1  0.00312097  0.75064021  0.74889130  1
  Te  Te32  1  0.24937930  0.25143526  0.25133785  1
  Te  Te33  1  0.25620498  0.24900219  0.74912073  1
  Te  Te34  1  0.25073296  0.75036733  0.25010394  1
  Te  Te35  1  0.25055965  0.75075736  0.75079677  1
  Te  Te36  1  0.74971125  0.24366822  0.25102926  1
  Te  Te37  1  0.74411045  0.24980529  0.75030593  1
  Te  Te38  1  0.74884806  0.75397309  0.25369708  1
  Te  Te39  1  0.75090406  0.74919287  0.73963727  1
  Te  Te40  1  0.25268613  -0.00292404  -0.00284906  1
  Te  Te41  1  0.25229099  -0.00359605  0.50171894  1
  Te  Te42  1  0.25250444  0.50205372  -0.00383272  1
  Te  Te43  1  0.24933019  0.50635973  0.50746742  1
  Te  Te44  1  0.74708914  0.00192521  0.00174206  1
  Te  Te45  1  0.74746613  -0.00058850  0.50070544  1
  Te  Te46  1  0.74825497  0.49659452  -0.00049699  1
  Te  Te47  1  0.75095835  0.49783624  0.50043061  1
  Te  Te48  1  -0.00669045  0.25437393  0.00061622  1
  Te  Te49  1  -0.00616384  0.24549777  0.49939071  1
  Te  Te50  1  0.00179603  0.74761180  0.00409579  1
  Te  Te51  1  0.00121023  0.75239690  0.49626539  1
  Te  Te52  1  0.50308832  0.24819559  -0.00077170  1
  Te  Te53  1  0.50404058  0.24735079  0.50124838  1
  Te  Te54  1  0.49913391  0.75144079  0.00184150  1
  Te  Te55  1  0.49881285  0.75162354  0.49764495  1
  Te  Te56  1  -0.00444092  -0.00452891  0.25356322  1
  Te  Te57  1  0.00934828  0.00090892  0.74503182  1
  Te  Te58  1  0.00014261  0.50663459  0.24451300  1
  Te  Te59  1  0.00735667  0.49937028  0.75616922  1
  Te  Te60  1  0.50289895  -0.00410921  0.25035511  1
  Te  Te61  1  0.49605561  0.00292958  0.75049073  1
  Te  Te62  1  0.49985332  0.50729604  0.24337462  1
  Te  Te63  1  0.49595702  0.49504291  0.75445932  1
