# generated using pymatgen
data_AgSbTe2
_symmetry_space_group_name_H-M   'P 1'
_cell_length_a   12.21663228
_cell_length_b   12.23149892
_cell_length_c   12.22134534
_cell_angle_alpha   89.99581649
_cell_angle_beta   89.99246927
_cell_angle_gamma   90.00653517
_symmetry_Int_Tables_number   1
_chemical_formula_structural   AgSbTe2
_chemical_formula_sum   'Ag16 Sb16 Te32'
_cell_volume   1826.20779266
_cell_formula_units_Z   16
loop_
 _symmetry_equiv_pos_site_id
 _symmetry_equiv_pos_as_xyz
  1  'x, y, z'
loop_
 _atom_site_type_symbol
 _atom_site_label
 _atom_site_symmetry_multiplicity
 _atom_site_fract_x
 _atom_site_fract_y
 _atom_site_fract_z
 _atom_site_occupancy
  Ag  Ag0  1  -0.00047462  0.74900574  0.75370976  1
  Ag  Ag1  1  0.25845866  0.49955844  0.24978238  1
  Ag  Ag2  1  0.00159680  0.25064618  0.75214272  1
  Ag  Ag3  1  0.49564974  0.25452655  0.24431473  1
  Ag  Ag4  1  0.49780052  0.49592244  0.49645937  1
  Ag  Ag5  1  0.25523004  0.00045083  0.24868233  1
  Ag  Ag6  1  0.74170191  0.25324666  -0.00337279  1
  Ag  Ag7  1  0.25484721  0.25109672  0.50056297  1
  Ag  Ag8  1  0.74663126  0.49738586  0.75520247  1
  Ag  Ag9  1  0.25186885  0.00448208  0.75138968  1
  Ag  Ag10  1  0.50300708  0.49508234  0.00341768  1
  Ag  Ag11  1  0.49927121  0.25259248  0.75608654  1
  Ag  Ag12  1  0.49882951  0.00447151  0.00262749  1
  Ag  Ag13  1  0.74667296  0.74704745  -0.00015206  1
  Ag  Ag14  1  0.49713218  0.74569916  0.24501902  1
  Ag  Ag15  1  0.00246935  0.74889911  0.24622692  1
  Sb  Sb16  1  0.00225076  0.49860916  0.49951064  1
  Sb  Sb17  1  0.74445456  -0.00037556  0.24572922  1
  Sb  Sb18  1  0.00262322  -0.00018983  -0.00042820  1
  Sb  Sb19  1  0.25198750  0.74807134  0.49796859  1
  Sb  Sb20  1  0.49606887  0.00319362  0.49802855  1
  Sb  Sb21  1  0.25319421  0.49688504  0.75045218  1
  Sb  Sb22  1  0.50023531  0.74947212  0.75504486  1
  Sb  Sb23  1  0.00466732  0.25062118  0.24735242  1
  Sb  Sb24  1  0.25332697  0.74981756  0.00163863  1
  Sb  Sb25  1  0.74746415  0.74629702  0.50112682  1
  Sb  Sb26  1  0.74783694  0.00222418  0.75410363  1
  Sb  Sb27  1  0.74110148  0.50046314  0.24513662  1
  Sb  Sb28  1  -0.00282210  0.50031508  -0.00029798  1
  Sb  Sb29  1  0.00302250  0.00070023  0.50038615  1
  Sb  Sb30  1  0.25846729  0.24969531  -0.00069573  1
  Sb  Sb31  1  0.74549003  0.25398647  0.50247602  1
  Te  Te32  1  0.25057964  0.24917975  0.25138403  1
  Te  Te33  1  0.25099212  0.24882000  0.74889361  1
  Te  Te34  1  0.25125102  0.75106300  0.25066121  1
  Te  Te35  1  0.24427745  0.75448456  0.74968127  1
  Te  Te36  1  0.74794973  0.25013085  0.24573797  1
  Te  Te37  1  0.74784139  0.25179093  0.75226064  1
  Te  Te38  1  0.75079500  0.74944014  0.24542030  1
  Te  Te39  1  0.75311275  0.74811963  0.75327446  1
  Te  Te40  1  0.25663782  -0.00053787  0.00045466  1
  Te  Te41  1  0.25118929  0.00670983  0.50022960  1
  Te  Te42  1  0.25787759  0.50041524  0.00599718  1
  Te  Te43  1  0.25566460  0.49478999  0.49606421  1
  Te  Te44  1  0.74184283  -0.00056474  0.00053555  1
  Te  Te45  1  0.75039826  -0.00004114  0.49919126  1
  Te  Te46  1  0.74611782  0.49986876  -0.00368603  1
  Te  Te47  1  0.74284957  0.49968589  0.50895252  1
  Te  Te48  1  -0.01072932  0.24970656  -0.00598225  1
  Te  Te49  1  0.00468341  0.25083810  0.50602782  1
  Te  Te50  1  -0.00687565  0.75011050  -0.00061349  1
  Te  Te51  1  -0.00065557  0.74941607  0.50004797  1
  Te  Te52  1  0.50199853  0.25082629  0.00007499  1
  Te  Te53  1  0.49739634  0.25333250  0.49942914  1
  Te  Te54  1  0.50375443  0.74939823  0.00292519  1
  Te  Te55  1  0.50026479  0.74322391  0.49186670  1
  Te  Te56  1  0.00894633  -0.00496074  0.24941418  1
  Te  Te57  1  0.00578943  0.00012808  0.75063939  1
  Te  Te58  1  0.00744927  0.50489637  0.25072268  1
  Te  Te59  1  -0.00181464  0.50050391  0.75023047  1
  Te  Te60  1  0.49573323  0.00093185  0.24804899  1
  Te  Te61  1  0.49535855  0.00187221  0.75242092  1
  Te  Te62  1  0.49897277  0.49851913  0.24756991  1
  Te  Te63  1  0.50028956  0.49800260  0.75249332  1
