# generated using pymatgen
data_AgSbTe2
_symmetry_space_group_name_H-M   'P 1'
_cell_length_a   12.24003883
_cell_length_b   12.25429157
_cell_length_c   12.23020707
_cell_angle_alpha   89.99171202
_cell_angle_beta   89.99125823
_cell_angle_gamma   89.99847333
_symmetry_Int_Tables_number   1
_chemical_formula_structural   AgSbTe2
_chemical_formula_sum   'Ag16 Sb16 Te32'
_cell_volume   1834.44546497
_cell_formula_units_Z   16
loop_
 _symmetry_equiv_pos_site_id
 _symmetry_equiv_pos_as_xyz
  1  'x, y, z'
loop_
 _atom_site_type_symbol
 _atom_site_label
 _atom_site_symmetry_multiplicity
 _atom_site_fract_x
 _atom_site_fract_y
 _atom_site_fract_z
 _atom_site_occupancy
  Ag  Ag0  1  0.74700243  0.75560030  0.50847625  1
  Ag  Ag1  1  0.50966641  0.75768582  0.74724933  1
  Ag  Ag2  1  -0.00705379  0.24137898  0.75074496  1
  Ag  Ag3  1  0.74645432  0.24454420  0.50719242  1
  Ag  Ag4  1  0.50746238  0.50152208  0.50376500  1
  Ag  Ag5  1  -0.00899919  0.75753144  0.75660645  1
  Ag  Ag6  1  0.50800416  -0.00100852  0.50832068  1
  Ag  Ag7  1  0.50815284  0.24161325  0.74513476  1
  Ag  Ag8  1  -0.00455221  0.50907186  -0.00375818  1
  Ag  Ag9  1  0.75030260  0.50376141  0.25200749  1
  Ag  Ag10  1  -0.00523734  -0.00810682  -0.00811929  1
  Ag  Ag11  1  0.75034204  -0.00371993  0.25427248  1
  Ag  Ag12  1  0.74932466  -0.00580418  0.74663989  1
  Ag  Ag13  1  0.24899104  -0.00412002  0.75143722  1
  Ag  Ag14  1  0.75504220  0.75390909  -0.00980589  1
  Ag  Ag15  1  0.24211219  0.75285393  -0.00738117  1
  Sb  Sb16  1  0.74996513  0.50514934  0.74835723  1
  Sb  Sb17  1  0.24983781  0.50406969  0.75112196  1
  Sb  Sb18  1  0.50502156  0.75109113  0.25385285  1
  Sb  Sb19  1  0.24997729  -0.00199701  0.24931588  1
  Sb  Sb20  1  0.25223682  0.24795501  0.50554124  1
  Sb  Sb21  1  0.25130610  0.75290744  0.50705469  1
  Sb  Sb22  1  0.50601809  0.24834093  0.25495579  1
  Sb  Sb23  1  0.75196283  0.24781131  -0.00752552  1
  Sb  Sb24  1  -0.00604369  0.75077959  0.24292205  1
  Sb  Sb25  1  0.50442456  -0.00280263  -0.00761102  1
  Sb  Sb26  1  0.50400392  0.50405762  -0.00157002  1
  Sb  Sb27  1  0.24721014  0.24725186  -0.00547362  1
  Sb  Sb28  1  0.24955772  0.50271636  0.24805909  1
  Sb  Sb29  1  -0.00559408  0.24781786  0.25047536  1
  Sb  Sb30  1  -0.00851572  -0.00071085  0.50845731  1
  Sb  Sb31  1  -0.00622574  0.50234209  0.50167163  1
  Te  Te32  1  0.24977406  0.25027124  0.24931907  1
  Te  Te33  1  0.24838111  0.24202058  0.74984144  1
  Te  Te34  1  0.25019731  0.75041421  0.23917453  1
  Te  Te35  1  0.24934757  0.75410632  0.75330112  1
  Te  Te36  1  0.74995795  0.24757119  0.25741638  1
  Te  Te37  1  0.74974750  0.24785634  0.74699150  1
  Te  Te38  1  0.74994611  0.75291305  0.25228072  1
  Te  Te39  1  0.74981148  0.75076274  0.74985111  1
  Te  Te40  1  0.24652664  -0.00377178  -0.00287276  1
  Te  Te41  1  0.25845494  -0.00067120  0.50238376  1
  Te  Te42  1  0.24450411  0.50527919  0.00146014  1
  Te  Te43  1  0.25903649  0.50036364  0.49776344  1
  Te  Te44  1  0.75120761  -0.00153547  -0.00224106  1
  Te  Te45  1  0.74990864  -0.00255614  0.50268203  1
  Te  Te46  1  0.75313849  0.50245098  0.00554341  1
  Te  Te47  1  0.74798265  0.50231552  0.49729211  1
  Te  Te48  1  -0.00055019  0.25026498  -0.00550912  1
  Te  Te49  1  -0.00396802  0.25040434  0.50643049  1
  Te  Te50  1  -0.00498914  0.75089106  -0.00261607  1
  Te  Te51  1  -0.00246846  0.74904193  0.50757670  1
  Te  Te52  1  0.49869955  0.25133421  -0.00943272  1
  Te  Te53  1  0.50298294  0.24919988  0.50423093  1
  Te  Te54  1  0.50498251  0.74951964  -0.00657011  1
  Te  Te55  1  0.50155574  0.75077167  0.50384182  1
  Te  Te56  1  -0.00424145  0.00092157  0.24197645  1
  Te  Te57  1  -0.00332084  -0.00159242  0.75044162  1
  Te  Te58  1  -0.00479873  0.49898754  0.24611025  1
  Te  Te59  1  0.00156373  0.50019767  0.75333171  1
  Te  Te60  1  0.50573105  0.00128686  0.25685381  1
  Te  Te61  1  0.50462380  -0.00174784  0.74996136  1
  Te  Te62  1  0.50570938  0.49904746  0.25410696  1
  Te  Te63  1  0.49840801  0.50018841  0.74669168  1
