# generated using pymatgen
data_AgSbTe2
_symmetry_space_group_name_H-M   'P 1'
_cell_length_a   12.21621829
_cell_length_b   12.23269597
_cell_length_c   12.23215388
_cell_angle_alpha   90.00133073
_cell_angle_beta   90.00019422
_cell_angle_gamma   90.00125305
_symmetry_Int_Tables_number   1
_chemical_formula_structural   AgSbTe2
_chemical_formula_sum   'Ag16 Sb16 Te32'
_cell_volume   1827.93985542
_cell_formula_units_Z   16
loop_
 _symmetry_equiv_pos_site_id
 _symmetry_equiv_pos_as_xyz
  1  'x, y, z'
loop_
 _atom_site_type_symbol
 _atom_site_label
 _atom_site_symmetry_multiplicity
 _atom_site_fract_x
 _atom_site_fract_y
 _atom_site_fract_z
 _atom_site_occupancy
  Ag  Ag0  1  0.49845530  0.00603151  0.49689736  1
  Ag  Ag1  1  0.00292081  0.74771346  0.74788230  1
  Ag  Ag2  1  0.50146615  0.00530705  0.00352489  1
  Ag  Ag3  1  -0.00126983  0.49513119  0.00122955  1
  Ag  Ag4  1  0.75288045  0.00877489  0.25021943  1
  Ag  Ag5  1  0.24455586  0.00435598  0.74559233  1
  Ag  Ag6  1  -0.00622894  0.25195558  0.25405975  1
  Ag  Ag7  1  0.00162676  0.49293921  0.49949085  1
  Ag  Ag8  1  0.00360859  0.25258007  0.74386835  1
  Ag  Ag9  1  0.75403207  0.24927357  0.00750829  1
  Ag  Ag10  1  -0.00296185  0.74811038  0.25248767  1
  Ag  Ag11  1  0.50618771  0.24495942  0.25101490  1
  Ag  Ag12  1  0.75830850  0.49084400  0.24892794  1
  Ag  Ag13  1  0.24124732  0.49533891  0.74781602  1
  Ag  Ag14  1  0.24238656  0.24674575  0.50232994  1
  Ag  Ag15  1  0.00272093  0.00739481  0.49898776  1
  Sb  Sb16  1  0.75941482  0.49584134  0.75010512  1
  Sb  Sb17  1  0.75485225  0.00341174  0.74874261  1
  Sb  Sb18  1  0.75343308  0.75075711  0.00218295  1
  Sb  Sb19  1  0.24036694  0.49584419  0.25205310  1
  Sb  Sb20  1  0.24553774  0.75295965  0.50162749  1
  Sb  Sb21  1  0.75463929  0.75074091  0.49852191  1
  Sb  Sb22  1  -0.00050817  0.00453747  0.00076480  1
  Sb  Sb23  1  0.50127708  0.49464875  0.00215627  1
  Sb  Sb24  1  0.49756379  0.75271674  0.74925805  1
  Sb  Sb25  1  0.75919535  0.24945046  0.49186537  1
  Sb  Sb26  1  0.24671516  0.24949932  -0.00253800  1
  Sb  Sb27  1  0.24676781  0.75076243  -0.00162214  1
  Sb  Sb28  1  0.24771845  0.00378686  0.25361944  1
  Sb  Sb29  1  0.49785910  0.49278915  0.49718533  1
  Sb  Sb30  1  0.49803010  0.24796862  0.74859578  1
  Sb  Sb31  1  0.50360293  0.75396994  0.25082185  1
  Te  Te32  1  0.24999314  0.25046686  0.25405424  1
  Te  Te33  1  0.24682302  0.24845222  0.74793671  1
  Te  Te34  1  0.24111840  0.74866635  0.24940772  1
  Te  Te35  1  0.24367006  0.75098411  0.75029306  1
  Te  Te36  1  0.75197001  0.24820863  0.24904937  1
  Te  Te37  1  0.75499712  0.25043993  0.75998984  1
  Te  Te38  1  0.75573701  0.75127413  0.24962175  1
  Te  Te39  1  0.75890751  0.74902829  0.75040003  1
  Te  Te40  1  0.25481808  0.00043928  -0.00690323  1
  Te  Te41  1  0.24563597  0.00367597  0.50305956  1
  Te  Te42  1  0.24559874  0.50041325  -0.00559414  1
  Te  Te43  1  0.24625749  0.49486824  0.50326263  1
  Te  Te44  1  0.74730313  0.00404025  0.00413569  1
  Te  Te45  1  0.75099892  0.00037145  0.49579837  1
  Te  Te46  1  0.75317108  0.49567045  0.00389034  1
  Te  Te47  1  0.75445551  0.50012915  0.49525101  1
  Te  Te48  1  -0.00187276  0.25272995  0.00240982  1
  Te  Te49  1  0.00102361  0.24868597  0.49984481  1
  Te  Te50  1  -0.00074914  0.74357817  0.00025867  1
  Te  Te51  1  0.00067675  0.75068975  0.49961349  1
  Te  Te52  1  0.50317843  0.24612309  0.00371617  1
  Te  Te53  1  0.49367368  0.24547875  0.49748829  1
  Te  Te54  1  0.50059107  0.75892182  0.00033489  1
  Te  Te55  1  0.49926738  0.76033910  0.49998796  1
  Te  Te56  1  -0.00133479  0.00242324  0.25109248  1
  Te  Te57  1  0.00217143  0.00162173  0.74924099  1
  Te  Te58  1  -0.00136727  0.49725599  0.25119528  1
  Te  Te59  1  0.00130529  0.49778868  0.74762059  1
  Te  Te60  1  0.50077184  0.00171933  0.25164780  1
  Te  Te61  1  0.49610475  -0.00135965  0.74721744  1
  Te  Te62  1  0.50711193  0.49729661  0.25013788  1
  Te  Te63  1  0.49159046  0.50243844  0.74936321  1
