# generated using pymatgen
data_AgSbTe2
_symmetry_space_group_name_H-M   'P 1'
_cell_length_a   12.21155723
_cell_length_b   12.22257778
_cell_length_c   12.22188979
_cell_angle_alpha   90.00510838
_cell_angle_beta   90.00120990
_cell_angle_gamma   89.99871647
_symmetry_Int_Tables_number   1
_chemical_formula_structural   AgSbTe2
_chemical_formula_sum   'Ag16 Sb16 Te32'
_cell_volume   1824.19902850
_cell_formula_units_Z   16
loop_
 _symmetry_equiv_pos_site_id
 _symmetry_equiv_pos_as_xyz
  1  'x, y, z'
loop_
 _atom_site_type_symbol
 _atom_site_label
 _atom_site_symmetry_multiplicity
 _atom_site_fract_x
 _atom_site_fract_y
 _atom_site_fract_z
 _atom_site_occupancy
  Ag  Ag0  1  0.24910169  0.75110433  0.50157120  1
  Ag  Ag1  1  0.00666551  0.24970653  0.75482988  1
  Ag  Ag2  1  0.00424444  0.49873296  -0.00117471  1
  Ag  Ag3  1  0.74844913  -0.00345741  0.75529931  1
  Ag  Ag4  1  0.24629924  0.50184159  0.24783832  1
  Ag  Ag5  1  0.75086163  0.75341326  -0.00410342  1
  Ag  Ag6  1  0.25160829  0.00209756  0.75234892  1
  Ag  Ag7  1  0.49834370  0.75418312  0.75176923  1
  Ag  Ag8  1  0.75076927  0.75221659  0.50409259  1
  Ag  Ag9  1  0.24790061  0.49715275  0.75231437  1
  Ag  Ag10  1  0.49798047  -0.00130624  -0.00459491  1
  Ag  Ag11  1  0.75314426  0.24656320  -0.00432224  1
  Ag  Ag12  1  0.00433053  0.74934182  0.24822700  1
  Ag  Ag13  1  0.24702414  0.24902706  -0.00575784  1
  Ag  Ag14  1  0.24762381  0.24873397  0.50574597  1
  Ag  Ag15  1  0.24928629  -0.00159146  0.24796245  1
  Sb  Sb16  1  0.49249779  0.24541855  0.75318979  1
  Sb  Sb17  1  0.75448240  0.50295051  0.24635549  1
  Sb  Sb18  1  0.75024724  -0.00277619  0.24480202  1
  Sb  Sb19  1  0.49568576  0.75189651  0.24788762  1
  Sb  Sb20  1  0.75358365  0.24653529  0.50669436  1
  Sb  Sb21  1  0.00333131  -0.00158778  0.50076375  1
  Sb  Sb22  1  0.49631459  0.24834339  0.24735932  1
  Sb  Sb23  1  0.00489168  0.25083096  0.24479339  1
  Sb  Sb24  1  0.00152249  0.74999811  0.75160816  1
  Sb  Sb25  1  0.75246181  0.50227844  0.75274393  1
  Sb  Sb26  1  0.49634534  0.50212671  0.50273276  1
  Sb  Sb27  1  0.00405859  0.50156266  0.50117956  1
  Sb  Sb28  1  0.00190109  0.00156265  -0.00129226  1
  Sb  Sb29  1  0.49654606  -0.00288611  0.50518541  1
  Sb  Sb30  1  0.49567881  0.50175159  -0.00263979  1
  Sb  Sb31  1  0.24800410  0.75124254  -0.00104171  1
  Te  Te32  1  0.24747536  0.24902027  0.24961520  1
  Te  Te33  1  0.24966030  0.24822991  0.75137966  1
  Te  Te34  1  0.24807167  0.75074300  0.25178965  1
  Te  Te35  1  0.24854697  0.75272977  0.74809123  1
  Te  Te36  1  0.75118988  0.24987273  0.24568326  1
  Te  Te37  1  0.75332323  0.24755141  0.75101779  1
  Te  Te38  1  0.75394454  0.75050661  0.25062545  1
  Te  Te39  1  0.75144725  0.75216204  0.75059060  1
  Te  Te40  1  0.25169750  0.00117728  -0.00271683  1
  Te  Te41  1  0.25117474  -0.00110639  0.50174612  1
  Te  Te42  1  0.24793321  0.49856074  -0.00130368  1
  Te  Te43  1  0.24944358  0.50115957  0.50090655  1
  Te  Te44  1  0.74815402  0.00023383  -0.00210087  1
  Te  Te45  1  0.74824921  -0.00371581  0.50485266  1
  Te  Te46  1  0.75372038  0.49883752  0.00056430  1
  Te  Te47  1  0.74929909  0.50636861  0.49900860  1
  Te  Te48  1  0.00143099  0.25322567  -0.00290713  1
  Te  Te49  1  0.00456892  0.25104448  0.50676670  1
  Te  Te50  1  -0.00376109  0.74539220  0.00276067  1
  Te  Te51  1  0.00137670  0.74901107  0.49556093  1
  Te  Te52  1  0.50075314  0.24579432  -0.00083881  1
  Te  Te53  1  0.49368008  0.25048381  0.49939187  1
  Te  Te54  1  0.50573385  0.75282860  -0.00348526  1
  Te  Te55  1  0.49941694  0.75014000  0.50499159  1
  Te  Te56  1  0.00742509  -0.00594835  0.24993474  1
  Te  Te57  1  0.00134703  0.00414557  0.75002859  1
  Te  Te58  1  0.00556608  0.50386524  0.24436878  1
  Te  Te59  1  0.00529236  0.49628756  0.75560554  1
  Te  Te60  1  0.49280859  -0.00032143  0.24048057  1
  Te  Te61  1  0.49864025  -0.00420043  0.75476275  1
  Te  Te62  1  0.48919283  0.49968504  0.24959213  1
  Te  Te63  1  0.49201157  0.50922807  0.75086873  1
