# generated using pymatgen
data_AgSbTe2
_symmetry_space_group_name_H-M   'P 1'
_cell_length_a   12.22025611
_cell_length_b   12.23882561
_cell_length_c   12.23356396
_cell_angle_alpha   89.99629551
_cell_angle_beta   89.99799243
_cell_angle_gamma   90.00306642
_symmetry_Int_Tables_number   1
_chemical_formula_structural   AgSbTe2
_chemical_formula_sum   'Ag16 Sb16 Te32'
_cell_volume   1829.67118984
_cell_formula_units_Z   16
loop_
 _symmetry_equiv_pos_site_id
 _symmetry_equiv_pos_as_xyz
  1  'x, y, z'
loop_
 _atom_site_type_symbol
 _atom_site_label
 _atom_site_symmetry_multiplicity
 _atom_site_fract_x
 _atom_site_fract_y
 _atom_site_fract_z
 _atom_site_occupancy
  Ag  Ag0  1  0.74995408  -0.00088108  0.25192255  1
  Ag  Ag1  1  0.24969319  0.74880855  0.49928625  1
  Ag  Ag2  1  0.25025926  0.00142137  0.25562823  1
  Ag  Ag3  1  0.24975465  0.25147356  0.49484693  1
  Ag  Ag4  1  0.75022104  0.50797128  0.75531068  1
  Ag  Ag5  1  0.74976524  0.75154125  0.50368627  1
  Ag  Ag6  1  -0.00670522  0.50034980  0.00051881  1
  Ag  Ag7  1  0.75004807  0.25564175  0.00372332  1
  Ag  Ag8  1  0.75047635  0.50047758  0.24393851  1
  Ag  Ag9  1  0.50108106  0.25064841  0.25051105  1
  Ag  Ag10  1  0.25058894  0.49856499  0.25420048  1
  Ag  Ag11  1  0.24972549  0.50310210  0.74643071  1
  Ag  Ag12  1  0.50652137  0.74801317  0.74785892  1
  Ag  Ag13  1  0.74980196  0.74473311  -0.00348448  1
  Ag  Ag14  1  0.75008342  -0.00872449  0.74740257  1
  Ag  Ag15  1  -0.00203572  -0.00198634  0.49790022  1
  Sb  Sb16  1  0.49916705  0.50052489  0.49992353  1
  Sb  Sb17  1  0.50311241  0.74944012  0.25122279  1
  Sb  Sb18  1  0.75054126  0.24973931  0.49727645  1
  Sb  Sb19  1  -0.00166138  0.25116553  0.74969447  1
  Sb  Sb20  1  0.50326849  -0.00040944  0.00072568  1
  Sb  Sb21  1  -0.00251634  0.74984476  0.25057886  1
  Sb  Sb22  1  0.24965263  -0.00354878  0.74321487  1
  Sb  Sb23  1  -0.00054278  0.25035149  0.25011868  1
  Sb  Sb24  1  0.50169513  0.25123627  0.74963824  1
  Sb  Sb25  1  0.25040394  0.25367898  0.00363392  1
  Sb  Sb26  1  0.50262253  -0.00097724  0.49913433  1
  Sb  Sb27  1  -0.00443725  -0.00042040  0.00110652  1
  Sb  Sb28  1  0.00072209  0.50116104  0.49967089  1
  Sb  Sb29  1  0.50739116  0.50024904  0.00030081  1
  Sb  Sb30  1  0.25060084  0.74643064  -0.00005515  1
  Sb  Sb31  1  -0.00631025  0.74890829  0.74922325  1
  Te  Te32  1  0.25296122  0.25182372  0.25100643  1
  Te  Te33  1  0.25305249  0.25425162  0.74754175  1
  Te  Te34  1  0.25358557  0.74820804  0.25239331  1
  Te  Te35  1  0.25542707  0.74740042  0.74822181  1
  Te  Te36  1  0.74681833  0.25094253  0.25061378  1
  Te  Te37  1  0.74767419  0.25265747  0.75148007  1
  Te  Te38  1  0.74701020  0.74960065  0.25291201  1
  Te  Te39  1  0.74812627  0.74838022  0.74679470  1
  Te  Te40  1  0.24653062  -0.00004910  0.00863012  1
  Te  Te41  1  0.24665817  -0.00382023  0.49793517  1
  Te  Te42  1  0.24263715  0.50088562  0.00115361  1
  Te  Te43  1  0.24710826  0.50329490  0.49814054  1
  Te  Te44  1  0.75192045  -0.00149624  0.00305722  1
  Te  Te45  1  0.75271663  -0.00053701  0.49755944  1
  Te  Te46  1  0.75220366  0.50119977  0.00163079  1
  Te  Te47  1  0.75335659  0.50200010  0.49919344  1
  Te  Te48  1  -0.00696415  0.25546598  -0.00086217  1
  Te  Te49  1  0.00715063  0.24305323  0.50061521  1
  Te  Te50  1  -0.00676252  0.74446797  0.00023205  1
  Te  Te51  1  0.00072091  0.75515179  0.49981173  1
  Te  Te52  1  0.50642658  0.24947983  0.00623924  1
  Te  Te53  1  0.49260960  0.25035141  0.49379956  1
  Te  Te54  1  0.50643767  0.75040471  -0.00702799  1
  Te  Te55  1  0.50106226  0.74939716  0.50467157  1
  Te  Te56  1  -0.00146063  -0.00033423  0.25331803  1
  Te  Te57  1  -0.00540195  0.00096186  0.74556912  1
  Te  Te58  1  -0.00108478  0.50032884  0.24731571  1
  Te  Te59  1  -0.00072697  0.49941061  0.75275577  1
  Te  Te60  1  0.50108398  0.00336272  0.24937820  1
  Te  Te61  1  0.50602246  -0.00401915  0.75083243  1
  Te  Te62  1  0.49923959  0.49652024  0.25001092  1
  Te  Te63  1  0.50091772  0.50272506  0.74998729  1
