# generated using pymatgen
data_AgSbTe2
_symmetry_space_group_name_H-M   'P 1'
_cell_length_a   12.20614073
_cell_length_b   12.20274770
_cell_length_c   12.20710247
_cell_angle_alpha   90.00642643
_cell_angle_beta   90.00727231
_cell_angle_gamma   89.99218643
_symmetry_Int_Tables_number   1
_chemical_formula_structural   AgSbTe2
_chemical_formula_sum   'Ag16 Sb16 Te32'
_cell_volume   1818.22901980
_cell_formula_units_Z   16
loop_
 _symmetry_equiv_pos_site_id
 _symmetry_equiv_pos_as_xyz
  1  'x, y, z'
loop_
 _atom_site_type_symbol
 _atom_site_label
 _atom_site_symmetry_multiplicity
 _atom_site_fract_x
 _atom_site_fract_y
 _atom_site_fract_z
 _atom_site_occupancy
  Ag  Ag0  1  0.75131433  0.25267574  -0.00152728  1
  Ag  Ag1  1  -0.00287969  0.50621841  0.50299626  1
  Ag  Ag2  1  -0.00341257  0.74931298  0.74663097  1
  Ag  Ag3  1  0.50355118  0.50311033  -0.00025653  1
  Ag  Ag4  1  0.24796543  0.25094283  0.50195421  1
  Ag  Ag5  1  -0.00280377  -0.00499669  -0.00237962  1
  Ag  Ag6  1  0.75548725  0.74977470  0.50068465  1
  Ag  Ag7  1  0.50324310  0.74810711  0.25104930  1
  Ag  Ag8  1  -0.00370005  -0.00710635  0.50304864  1
  Ag  Ag9  1  0.75369681  0.50431959  0.74980947  1
  Ag  Ag10  1  0.75105447  0.50522641  0.24992641  1
  Ag  Ag11  1  -0.00339517  0.74907412  0.25350657  1
  Ag  Ag12  1  0.24682983  0.50328698  0.74907028  1
  Ag  Ag13  1  0.24684286  0.74830293  -0.00136995  1
  Ag  Ag14  1  0.50252328  -0.00367620  0.50066315  1
  Ag  Ag15  1  0.75450090  -0.00399966  0.74742394  1
  Sb  Sb16  1  -0.00335967  0.50579569  -0.00322735  1
  Sb  Sb17  1  0.24292514  0.74859191  0.50252247  1
  Sb  Sb18  1  0.24898951  -0.00309462  0.25136437  1
  Sb  Sb19  1  0.50228153  0.50427790  0.49943583  1
  Sb  Sb20  1  0.24873847  0.25281543  -0.00284253  1
  Sb  Sb21  1  0.24438049  -0.00404970  0.74817077  1
  Sb  Sb22  1  0.50287472  0.25219076  0.25111101  1
  Sb  Sb23  1  0.75261971  0.74807344  -0.00091517  1
  Sb  Sb24  1  -0.00094088  0.25106535  0.74951859  1
  Sb  Sb25  1  0.75193945  -0.00646814  0.25294443  1
  Sb  Sb26  1  0.24779161  0.50381362  0.25135897  1
  Sb  Sb27  1  0.75125061  0.24994590  0.50138543  1
  Sb  Sb28  1  -0.00238066  0.25218660  0.25074656  1
  Sb  Sb29  1  0.50355785  0.74892069  0.74841856  1
  Sb  Sb30  1  0.50362963  -0.00408377  -0.00070846  1
  Sb  Sb31  1  0.50068901  0.25049511  0.74906678  1
  Te  Te32  1  0.25022821  0.25103794  0.25661890  1
  Te  Te33  1  0.25023630  0.25830554  0.74578470  1
  Te  Te34  1  0.24886031  0.74841053  0.24403041  1
  Te  Te35  1  0.24530922  0.74494867  0.75390087  1
  Te  Te36  1  0.74982582  0.25944515  0.24421434  1
  Te  Te37  1  0.75010569  0.25178412  0.75421664  1
  Te  Te38  1  0.75173940  0.74593801  0.25213812  1
  Te  Te39  1  0.75334073  0.74851285  0.74802468  1
  Te  Te40  1  0.24565149  -0.00206231  -0.00165552  1
  Te  Te41  1  0.24845436  0.00345179  0.50215949  1
  Te  Te42  1  0.25293857  0.50018187  -0.00450159  1
  Te  Te43  1  0.24753073  0.49790452  0.50430877  1
  Te  Te44  1  0.75234786  0.00284264  -0.00418066  1
  Te  Te45  1  0.75336171  -0.00072821  0.50288712  1
  Te  Te46  1  0.74887561  0.49858379  -0.00237319  1
  Te  Te47  1  0.75202599  0.50080676  0.50247749  1
  Te  Te48  1  -0.00326141  0.24154994  0.00128259  1
  Te  Te49  1  0.00336562  0.24910562  0.49876729  1
  Te  Te50  1  0.00248945  0.75270211  0.00002790  1
  Te  Te51  1  0.00033149  0.75063810  0.50005660  1
  Te  Te52  1  0.50307858  0.25466408  0.00124106  1
  Te  Te53  1  0.49547923  0.24283042  0.49861806  1
  Te  Te54  1  0.49590425  0.74779188  0.00442631  1
  Te  Te55  1  0.50334183  0.75355095  0.49595230  1
  Te  Te56  1  -0.00137111  -0.00737910  0.25141146  1
  Te  Te57  1  -0.00335867  -0.00445947  0.74788287  1
  Te  Te58  1  -0.00406242  0.50584851  0.25373391  1
  Te  Te59  1  -0.00290024  0.50412207  0.74799671  1
  Te  Te60  1  0.50050930  -0.00742644  0.25453882  1
  Te  Te61  1  0.50683726  -0.00099920  0.74539537  1
  Te  Te62  1  0.50485253  0.50557583  0.24736862  1
  Te  Te63  1  0.50212761  0.50147161  0.75366881  1
