# generated using pymatgen
data_AgSbTe2
_symmetry_space_group_name_H-M   'P 1'
_cell_length_a   12.24179881
_cell_length_b   12.22257358
_cell_length_c   12.23856256
_cell_angle_alpha   90.00362451
_cell_angle_beta   90.00175818
_cell_angle_gamma   89.99664733
_symmetry_Int_Tables_number   1
_chemical_formula_structural   AgSbTe2
_chemical_formula_sum   'Ag16 Sb16 Te32'
_cell_volume   1831.21066342
_cell_formula_units_Z   16
loop_
 _symmetry_equiv_pos_site_id
 _symmetry_equiv_pos_as_xyz
  1  'x, y, z'
loop_
 _atom_site_type_symbol
 _atom_site_label
 _atom_site_symmetry_multiplicity
 _atom_site_fract_x
 _atom_site_fract_y
 _atom_site_fract_z
 _atom_site_occupancy
  Ag  Ag0  1  0.74528425  -0.00878966  0.25613463  1
  Ag  Ag1  1  0.50243597  -0.00793942  0.00637510  1
  Ag  Ag2  1  0.74677371  0.75320193  0.00569482  1
  Ag  Ag3  1  -0.00309385  0.24665700  0.74759029  1
  Ag  Ag4  1  0.50539326  0.75684177  0.25088655  1
  Ag  Ag5  1  0.75170721  0.24049984  0.49835413  1
  Ag  Ag6  1  0.25523801  -0.00794853  0.25235149  1
  Ag  Ag7  1  0.74668023  0.75787039  0.49406075  1
  Ag  Ag8  1  0.74971198  0.51125069  0.25014801  1
  Ag  Ag9  1  0.25329542  0.75337499  0.00217263  1
  Ag  Ag10  1  0.50240163  0.75428150  0.74914812  1
  Ag  Ag11  1  -0.00263429  0.50704417  -0.00044625  1
  Ag  Ag12  1  -0.00222949  0.75158443  0.74925118  1
  Ag  Ag13  1  0.50655804  -0.00788118  0.49340469  1
  Ag  Ag14  1  0.25324157  0.75632443  0.49749157  1
  Ag  Ag15  1  -0.00690922  -0.00586902  0.49937307  1
  Sb  Sb16  1  0.50250685  0.51033245  0.49786508  1
  Sb  Sb17  1  0.25046418  0.51077520  0.24826509  1
  Sb  Sb18  1  -0.00290989  0.50540769  0.50042506  1
  Sb  Sb19  1  -0.00218620  -0.00585250  -0.00011520  1
  Sb  Sb20  1  0.25007001  -0.00504542  0.74815491  1
  Sb  Sb21  1  0.75045824  -0.00449069  0.74297184  1
  Sb  Sb22  1  0.24814212  0.50517743  0.75125707  1
  Sb  Sb23  1  -0.00213753  0.24789556  0.25244813  1
  Sb  Sb24  1  -0.00624651  0.75107858  0.25171822  1
  Sb  Sb25  1  0.24909546  0.24177776  0.49959722  1
  Sb  Sb26  1  0.75181868  0.24647155  0.00106618  1
  Sb  Sb27  1  0.24750796  0.24544074  0.00069877  1
  Sb  Sb28  1  0.50278890  0.24513646  0.74727838  1
  Sb  Sb29  1  0.50186809  0.51037383  0.00282010  1
  Sb  Sb30  1  0.75157766  0.50469136  0.75057364  1
  Sb  Sb31  1  0.50258321  0.24108998  0.25124804  1
  Te  Te32  1  0.25048443  0.24214134  0.24995760  1
  Te  Te33  1  0.24271432  0.25230638  0.74985975  1
  Te  Te34  1  0.25331532  0.75357580  0.25016431  1
  Te  Te35  1  0.24943008  0.75032031  0.75043147  1
  Te  Te36  1  0.74925215  0.24810120  0.25419706  1
  Te  Te37  1  0.75478962  0.25269514  0.74487173  1
  Te  Te38  1  0.74965674  0.75216668  0.25027869  1
  Te  Te39  1  0.75060843  0.74949210  0.75088518  1
  Te  Te40  1  0.25102805  -0.00531250  0.00537458  1
  Te  Te41  1  0.24975042  -0.00485398  0.49663445  1
  Te  Te42  1  0.24601724  0.50587943  0.00135223  1
  Te  Te43  1  0.25069205  0.50795371  0.49829350  1
  Te  Te44  1  0.74838317  -0.00301329  0.00668419  1
  Te  Te45  1  0.75051576  -0.00340302  0.49845718  1
  Te  Te46  1  0.75266697  0.50206963  0.00522429  1
  Te  Te47  1  0.75010140  0.50189587  0.49364267  1
  Te  Te48  1  0.00007153  0.25451162  -0.00699116  1
  Te  Te49  1  -0.00274277  0.24681492  0.50377922  1
  Te  Te50  1  -0.00164099  0.74958089  -0.00411774  1
  Te  Te51  1  -0.00171721  0.75251523  0.50290616  1
  Te  Te52  1  0.49911381  0.24111883  -0.00329484  1
  Te  Te53  1  0.50377643  0.24202082  0.50267701  1
  Te  Te54  1  0.50170961  0.75247468  -0.00038588  1
  Te  Te55  1  0.50210173  0.75251839  0.50003313  1
  Te  Te56  1  -0.00187746  0.00066866  0.25450851  1
  Te  Te57  1  0.00011301  -0.00335977  0.74615759  1
  Te  Te58  1  -0.00459384  0.49894829  0.24469286  1
  Te  Te59  1  0.00017842  0.50508216  0.75360616  1
  Te  Te60  1  0.50256123  -0.00309101  0.25163204  1
  Te  Te61  1  0.50006370  -0.00597908  0.75025095  1
  Te  Te62  1  0.50493761  0.50642480  0.24959885  1
  Te  Te63  1  0.49928338  0.50697245  0.75037497  1
