# generated using pymatgen
data_AgSbTe2
_symmetry_space_group_name_H-M   'P 1'
_cell_length_a   12.31597923
_cell_length_b   12.33065946
_cell_length_c   12.30927869
_cell_angle_alpha   90.00000026
_cell_angle_beta   90.01999069
_cell_angle_gamma   90.00000004
_symmetry_Int_Tables_number   1
_chemical_formula_structural   AgSbTe2
_chemical_formula_sum   'Ag16 Sb16 Te32'
_cell_volume   1869.33798052
_cell_formula_units_Z   16
loop_
 _symmetry_equiv_pos_site_id
 _symmetry_equiv_pos_as_xyz
  1  'x, y, z'
loop_
 _atom_site_type_symbol
 _atom_site_label
 _atom_site_symmetry_multiplicity
 _atom_site_fract_x
 _atom_site_fract_y
 _atom_site_fract_z
 _atom_site_occupancy
  Ag  Ag0  1  0.49539888  0.26187572  0.76945625  1
  Ag  Ag1  1  0.73189860  0.25415942  0.00318555  1
  Ag  Ag2  1  0.00488637  0.73922341  0.76282607  1
  Ag  Ag3  1  0.50460194  0.26187561  0.23054325  1
  Ag  Ag4  1  0.50000033  0.01816365  0.00000021  1
  Ag  Ag5  1  -0.00488637  0.73922326  0.23717403  1
  Ag  Ag6  1  0.00000029  0.49851019  0.50000005  1
  Ag  Ag7  1  0.50486799  0.73999360  0.23239311  1
  Ag  Ag8  1  0.75135835  0.49523570  0.24394719  1
  Ag  Ag9  1  0.26810181  0.25415931  -0.00318576  1
  Ag  Ag10  1  0.00464397  0.25933844  0.76759152  1
  Ag  Ag11  1  0.50000036  0.48069963  0.00000025  1
  Ag  Ag12  1  0.00000003  0.01388156  -0.00000001  1
  Ag  Ag13  1  -0.00464394  0.25933841  0.23240796  1
  Ag  Ag14  1  0.24864168  0.49523558  0.75605277  1
  Ag  Ag15  1  0.49513201  0.73999365  0.76760707  1
  Sb  Sb16  1  0.75053299  0.74418979  0.49833383  1
  Sb  Sb17  1  0.50000003  0.49995497  0.49999994  1
  Sb  Sb18  1  0.24896400  0.25465743  0.50139760  1
  Sb  Sb19  1  0.00000002  0.49230110  0.00000005  1
  Sb  Sb20  1  -0.00000001  -0.00022248  0.49999994  1
  Sb  Sb21  1  0.25064294  0.49727815  0.24579802  1
  Sb  Sb22  1  0.24982896  0.00309533  0.75636482  1
  Sb  Sb23  1  0.75012125  0.00157221  0.75668129  1
  Sb  Sb24  1  0.74918938  0.74442923  0.00202122  1
  Sb  Sb25  1  0.75103609  0.25465742  0.49860225  1
  Sb  Sb26  1  0.25081066  0.74442971  -0.00202116  1
  Sb  Sb27  1  0.24987875  0.00157227  0.24331888  1
  Sb  Sb28  1  0.75017102  0.00309539  0.24363524  1
  Sb  Sb29  1  0.24946705  0.74418976  0.50166615  1
  Sb  Sb30  1  0.74935713  0.49727818  0.75420191  1
  Sb  Sb31  1  0.49999999  0.00082891  0.49999997  1
  Te  Te32  1  0.24956408  0.24937723  0.24783046  1
  Te  Te33  1  0.24836244  0.25279786  0.75157542  1
  Te  Te34  1  0.24931722  0.74972411  0.25022376  1
  Te  Te35  1  0.24879619  0.74363234  0.75014957  1
  Te  Te36  1  0.75163664  0.25279787  0.24842443  1
  Te  Te37  1  0.75043615  0.24937724  0.75216979  1
  Te  Te38  1  0.75120369  0.74363224  0.24985028  1
  Te  Te39  1  0.75068287  0.74972418  0.74977635  1
  Te  Te40  1  0.24866733  0.01176824  -0.00036513  1
  Te  Te41  1  0.25141208  -0.00054478  0.50092545  1
  Te  Te42  1  0.26063177  0.49632986  -0.00621552  1
  Te  Te43  1  0.23953956  0.50034216  0.51618045  1
  Te  Te44  1  0.75133255  0.01176920  0.00036492  1
  Te  Te45  1  0.74858796  -0.00054482  0.49907450  1
  Te  Te46  1  0.73936813  0.49632930  0.00621520  1
  Te  Te47  1  0.76046011  0.50034221  0.48381993  1
  Te  Te48  1  -0.00000037  0.25095459  0.00000047  1
  Te  Te49  1  -0.00000003  0.25236016  0.49999999  1
  Te  Te50  1  -0.00000008  0.75310259  -0.00000012  1
  Te  Te51  1  -0.00000004  0.74829918  0.50000002  1
  Te  Te52  1  0.49999934  0.24975535  0.00000149  1
  Te  Te53  1  0.50000004  0.24774904  0.49999907  1
  Te  Te54  1  0.50000004  0.75193304  -0.00000015  1
  Te  Te55  1  0.49999999  0.75177207  0.49999995  1
  Te  Te56  1  0.00001307  -0.00187862  0.24678652  1
  Te  Te57  1  -0.00001306  -0.00187859  0.75321360  1
  Te  Te58  1  0.00504890  0.50110116  0.24302497  1
  Te  Te59  1  -0.00504898  0.50110103  0.75697490  1
  Te  Te60  1  0.49993409  -0.00381604  0.24790758  1
  Te  Te61  1  0.50006586  -0.00381654  0.75209243  1
  Te  Te62  1  0.49437873  0.50109609  0.25590258  1
  Te  Te63  1  0.50562122  0.50109656  0.74409738  1
