# generated using pymatgen
data_AgSbTe2
_symmetry_space_group_name_H-M   'P 1'
_cell_length_a   12.20830189
_cell_length_b   12.20936688
_cell_length_c   12.21104656
_cell_angle_alpha   89.99605009
_cell_angle_beta   90.00161372
_cell_angle_gamma   89.99696332
_symmetry_Int_Tables_number   1
_chemical_formula_structural   AgSbTe2
_chemical_formula_sum   'Ag16 Sb16 Te32'
_cell_volume   1820.12531333
_cell_formula_units_Z   16
loop_
 _symmetry_equiv_pos_site_id
 _symmetry_equiv_pos_as_xyz
  1  'x, y, z'
loop_
 _atom_site_type_symbol
 _atom_site_label
 _atom_site_symmetry_multiplicity
 _atom_site_fract_x
 _atom_site_fract_y
 _atom_site_fract_z
 _atom_site_occupancy
  Ag  Ag0  1  0.50199713  0.49705654  0.50011656  1
  Ag  Ag1  1  -0.00059395  0.00125035  0.00066658  1
  Ag  Ag2  1  0.49808443  0.75107302  0.75403478  1
  Ag  Ag3  1  0.50205574  0.50124869  -0.00061204  1
  Ag  Ag4  1  0.74463885  0.24948478  0.49496223  1
  Ag  Ag5  1  0.74571677  -0.00005331  0.75341798  1
  Ag  Ag6  1  0.74581947  0.75155017  -0.00106315  1
  Ag  Ag7  1  0.50555777  0.25076472  0.25061927  1
  Ag  Ag8  1  0.74556057  0.49378721  0.24731111  1
  Ag  Ag9  1  0.74757754  0.24901164  0.00488911  1
  Ag  Ag10  1  0.50106306  0.00275759  0.50186566  1
  Ag  Ag11  1  0.25410047  0.75279706  -0.00348659  1
  Ag  Ag12  1  0.25228022  0.00094766  0.24670569  1
  Ag  Ag13  1  0.25642976  0.50279230  0.75284786  1
  Ag  Ag14  1  -0.00536133  0.24812138  0.24736966  1
  Ag  Ag15  1  0.25480974  -0.00302103  0.75375987  1
  Sb  Sb16  1  0.74300803  0.50141636  0.75259024  1
  Sb  Sb17  1  0.25507319  0.49969678  0.24748448  1
  Sb  Sb18  1  -0.00289987  0.49576409  0.49829357  1
  Sb  Sb19  1  0.50022401  -0.00116573  -0.00231411  1
  Sb  Sb20  1  -0.00146588  0.75315241  0.24620663  1
  Sb  Sb21  1  0.25652256  0.24943881  0.49876220  1
  Sb  Sb22  1  0.50151111  0.24815533  0.74938961  1
  Sb  Sb23  1  0.74727678  0.00763767  0.24597734  1
  Sb  Sb24  1  -0.00232872  0.24819687  0.75387093  1
  Sb  Sb25  1  -0.00177886  0.49737457  0.00171178  1
  Sb  Sb26  1  -0.00185596  0.00402112  0.49841478  1
  Sb  Sb27  1  0.00153547  0.75132139  0.75307618  1
  Sb  Sb28  1  0.25350878  0.24692291  0.00126463  1
  Sb  Sb29  1  0.50129984  0.75044574  0.24492629  1
  Sb  Sb30  1  0.25396911  0.75072487  0.50450907  1
  Sb  Sb31  1  0.74557590  0.75118113  0.50091195  1
  Te  Te32  1  0.25112103  0.24614069  0.24964509  1
  Te  Te33  1  0.24916207  0.24698395  0.74991259  1
  Te  Te34  1  0.24966712  0.75516673  0.24252245  1
  Te  Te35  1  0.25333745  0.75330050  0.75402785  1
  Te  Te36  1  0.74719215  0.24997126  0.24824281  1
  Te  Te37  1  0.75045555  0.24575701  0.75165973  1
  Te  Te38  1  0.74993607  0.74274156  0.24355623  1
  Te  Te39  1  0.74613357  0.75326659  0.75492359  1
  Te  Te40  1  0.25027097  -0.00149775  -0.00244035  1
  Te  Te41  1  0.25410974  0.00013018  0.50196510  1
  Te  Te42  1  0.25299736  0.50337761  -0.00248403  1
  Te  Te43  1  0.25697728  0.49997334  0.50391995  1
  Te  Te44  1  0.75024329  -0.00001484  -0.00165203  1
  Te  Te45  1  0.74650021  0.00227691  0.50409171  1
  Te  Te46  1  0.74749027  0.49948072  0.00041733  1
  Te  Te47  1  0.74509871  0.49679332  0.49844857  1
  Te  Te48  1  -0.00597337  0.24598889  0.00459011  1
  Te  Te49  1  -0.00972366  0.24987274  0.49196314  1
  Te  Te50  1  -0.00088281  0.75592999  0.00046657  1
  Te  Te51  1  -0.00031519  0.74982996  0.49922095  1
  Te  Te52  1  0.50419642  0.25450097  0.00406092  1
  Te  Te53  1  0.50456546  0.25032216  0.49723303  1
  Te  Te54  1  0.50062905  0.74756713  -0.00361724  1
  Te  Te55  1  0.50078865  0.74994423  0.50676412  1
  Te  Te56  1  0.00478404  0.00428257  0.24708310  1
  Te  Te57  1  0.00136392  0.00068939  0.75418704  1
  Te  Te58  1  -0.00457189  0.49272863  0.25030650  1
  Te  Te59  1  0.01131326  0.49958356  0.74938813  1
  Te  Te60  1  0.49678324  0.00260730  0.25435871  1
  Te  Te61  1  0.49869576  -0.00111156  0.74797116  1
  Te  Te62  1  0.50169286  0.49776461  0.25006057  1
  Te  Te63  1  0.49704972  0.50179858  0.75072644  1
