# generated using pymatgen
data_AgSbTe2
_symmetry_space_group_name_H-M   'P 1'
_cell_length_a   12.23251232
_cell_length_b   12.22381088
_cell_length_c   12.22018892
_cell_angle_alpha   90.00295367
_cell_angle_beta   90.00154436
_cell_angle_gamma   89.99599150
_symmetry_Int_Tables_number   1
_chemical_formula_structural   AgSbTe2
_chemical_formula_sum   'Ag16 Sb16 Te32'
_cell_volume   1827.25938841
_cell_formula_units_Z   16
loop_
 _symmetry_equiv_pos_site_id
 _symmetry_equiv_pos_as_xyz
  1  'x, y, z'
loop_
 _atom_site_type_symbol
 _atom_site_label
 _atom_site_symmetry_multiplicity
 _atom_site_fract_x
 _atom_site_fract_y
 _atom_site_fract_z
 _atom_site_occupancy
  Ag  Ag0  1  0.24623260  -0.00415626  0.24753846  1
  Ag  Ag1  1  0.24764525  0.00130738  0.75250318  1
  Ag  Ag2  1  0.75547470  0.49984020  0.75067437  1
  Ag  Ag3  1  -0.00351308  0.50113779  0.49885154  1
  Ag  Ag4  1  -0.00098377  0.25642611  0.24890537  1
  Ag  Ag5  1  0.00298693  0.25890151  0.75075403  1
  Ag  Ag6  1  0.49924222  0.50235574  -0.00143590  1
  Ag  Ag7  1  0.24491008  0.49823533  0.75437796  1
  Ag  Ag8  1  0.24866005  0.74607365  0.00256294  1
  Ag  Ag9  1  0.49707848  0.25580175  0.75258348  1
  Ag  Ag10  1  0.75375502  -0.00731627  0.25095313  1
  Ag  Ag11  1  0.75258936  0.74475152  0.49329210  1
  Ag  Ag12  1  0.00024151  0.50069889  0.00043540  1
  Ag  Ag13  1  0.50265953  0.74729546  0.24755146  1
  Ag  Ag14  1  -0.00408631  0.74458044  0.24937817  1
  Ag  Ag15  1  0.75746788  0.50610642  0.25029008  1
  Sb  Sb16  1  -0.00051028  -0.00205745  0.49791051  1
  Sb  Sb17  1  0.75156389  0.74432746  0.00738784  1
  Sb  Sb18  1  0.75313976  0.25538168  0.49903618  1
  Sb  Sb19  1  0.24281445  0.50320016  0.24535439  1
  Sb  Sb20  1  0.00275653  -0.00201360  0.00218751  1
  Sb  Sb21  1  0.24723684  0.25268357  0.50107985  1
  Sb  Sb22  1  0.49693277  -0.00312405  0.00076019  1
  Sb  Sb23  1  0.75159132  0.25460194  0.00018507  1
  Sb  Sb24  1  0.50298399  0.50272912  0.50083516  1
  Sb  Sb25  1  0.49906714  0.74548066  0.75336259  1
  Sb  Sb26  1  0.00092841  0.74061043  0.75162679  1
  Sb  Sb27  1  0.75238611  0.00004902  0.74801632  1
  Sb  Sb28  1  0.50039137  -0.00210187  0.49948502  1
  Sb  Sb29  1  0.24771461  0.74746645  0.49716884  1
  Sb  Sb30  1  0.50027609  0.25347950  0.24769639  1
  Sb  Sb31  1  0.24862548  0.25433024  -0.00159728  1
  Te  Te32  1  0.24613432  0.24211814  0.25019847  1
  Te  Te33  1  0.24656747  0.25040281  0.74966392  1
  Te  Te34  1  0.24975118  0.75212099  0.24831652  1
  Te  Te35  1  0.25003912  0.75141441  0.75286929  1
  Te  Te36  1  0.75351860  0.25162447  0.25029667  1
  Te  Te37  1  0.75320260  0.25277216  0.74989404  1
  Te  Te38  1  0.75194428  0.74726134  0.25027568  1
  Te  Te39  1  0.74946219  0.74720393  0.74343689  1
  Te  Te40  1  0.24991199  -0.00795143  -0.00016003  1
  Te  Te41  1  0.24983324  -0.00157837  0.50148011  1
  Te  Te42  1  0.24906012  0.50431439  -0.00283944  1
  Te  Te43  1  0.24361508  0.50116546  0.50910589  1
  Te  Te44  1  0.74958746  -0.00154456  0.00736250  1
  Te  Te45  1  0.75045039  -0.00899724  0.49447543  1
  Te  Te46  1  0.75130603  0.50160268  -0.00084582  1
  Te  Te47  1  0.75314001  0.50376168  0.49880824  1
  Te  Te48  1  0.00019897  0.25772808  0.00093618  1
  Te  Te49  1  -0.00085157  0.25751934  0.49932423  1
  Te  Te50  1  0.00516729  0.74425804  0.00434240  1
  Te  Te51  1  -0.00319515  0.74455714  0.49480476  1
  Te  Te52  1  0.49964588  0.25943539  -0.00610242  1
  Te  Te53  1  0.50058454  0.24994144  0.50886186  1
  Te  Te54  1  0.49451731  0.74397787  0.00501223  1
  Te  Te55  1  0.50542959  0.74951519  0.49070242  1
  Te  Te56  1  0.00056465  0.00056783  0.24962216  1
  Te  Te57  1  0.00327507  0.00866137  0.75019248  1
  Te  Te58  1  0.00102477  0.49906430  0.24833541  1
  Te  Te59  1  -0.00132266  0.49933248  0.75236249  1
  Te  Te60  1  0.49934636  -0.00091688  0.24904864  1
  Te  Te61  1  0.49657693  0.00561412  0.75105957  1
  Te  Te62  1  0.50234885  0.49950631  0.24772992  1
  Te  Te63  1  0.50090619  0.49846417  0.75171818  1
