# generated using pymatgen
data_AgSbTe2
_symmetry_space_group_name_H-M   'P 1'
_cell_length_a   12.21666107
_cell_length_b   12.21455563
_cell_length_c   12.22102827
_cell_angle_alpha   90.00095848
_cell_angle_beta   90.00950728
_cell_angle_gamma   89.98941680
_symmetry_Int_Tables_number   1
_chemical_formula_structural   AgSbTe2
_chemical_formula_sum   'Ag16 Sb16 Te32'
_cell_volume   1823.63505674
_cell_formula_units_Z   16
loop_
 _symmetry_equiv_pos_site_id
 _symmetry_equiv_pos_as_xyz
  1  'x, y, z'
loop_
 _atom_site_type_symbol
 _atom_site_label
 _atom_site_symmetry_multiplicity
 _atom_site_fract_x
 _atom_site_fract_y
 _atom_site_fract_z
 _atom_site_occupancy
  Ag  Ag0  1  0.75482306  0.50075381  0.75152354  1
  Ag  Ag1  1  -0.00216482  0.50074841  0.50483149  1
  Ag  Ag2  1  0.49963777  -0.00380846  0.49353943  1
  Ag  Ag3  1  0.24567183  0.49846312  0.75723411  1
  Ag  Ag4  1  0.74844998  0.50434087  0.24891379  1
  Ag  Ag5  1  0.49312745  -0.00305668  0.00545486  1
  Ag  Ag6  1  0.49609959  0.50288719  0.00051035  1
  Ag  Ag7  1  0.74797907  0.74758881  0.49624502  1
  Ag  Ag8  1  0.74189689  -0.00458123  0.24967607  1
  Ag  Ag9  1  0.25018054  0.25065149  -0.00344895  1
  Ag  Ag10  1  0.00345416  0.49937260  -0.00555773  1
  Ag  Ag11  1  0.00384467  0.25652641  0.75235488  1
  Ag  Ag12  1  0.50189413  0.75470588  0.24690865  1
  Ag  Ag13  1  0.25865322  -0.00230180  0.24372265  1
  Ag  Ag14  1  0.25168107  0.00114630  0.75679107  1
  Ag  Ag15  1  0.25406042  0.74986704  0.00001686  1
  Sb  Sb16  1  0.49919995  0.24456828  0.24758982  1
  Sb  Sb17  1  0.24826805  0.25041363  0.50335116  1
  Sb  Sb18  1  0.75060637  0.25190109  -0.00113991  1
  Sb  Sb19  1  -0.00158368  0.74883634  0.24887652  1
  Sb  Sb20  1  0.00085808  0.74202245  0.75091524  1
  Sb  Sb21  1  0.74624122  0.74719283  0.00345030  1
  Sb  Sb22  1  0.00182898  0.25218960  0.24670405  1
  Sb  Sb23  1  0.00754774  -0.00020839  -0.00111939  1
  Sb  Sb24  1  -0.00001047  -0.00110135  0.50115842  1
  Sb  Sb25  1  0.50178524  0.50408560  0.49893803  1
  Sb  Sb26  1  0.25213555  0.74951877  0.49879321  1
  Sb  Sb27  1  0.49576934  0.25081456  0.75286525  1
  Sb  Sb28  1  0.75125593  0.25262043  0.50066736  1
  Sb  Sb29  1  0.25268274  0.50237046  0.24140847  1
  Sb  Sb30  1  0.49889390  0.74960788  0.75456279  1
  Sb  Sb31  1  0.74903434  -0.00079924  0.75047423  1
  Te  Te32  1  0.24906187  0.24346356  0.24347797  1
  Te  Te33  1  0.24698187  0.25118847  0.75316226  1
  Te  Te34  1  0.25442681  0.75416439  0.24708223  1
  Te  Te35  1  0.25014075  0.75039219  0.75406304  1
  Te  Te36  1  0.75082030  0.25019246  0.24975121  1
  Te  Te37  1  0.75752407  0.25595003  0.75070807  1
  Te  Te38  1  0.74721966  0.74978450  0.25166947  1
  Te  Te39  1  0.74992197  0.74506757  0.74417448  1
  Te  Te40  1  0.25020519  -0.00121219  -0.00087098  1
  Te  Te41  1  0.25220009  -0.00069914  0.50025012  1
  Te  Te42  1  0.25172093  0.50044765  -0.00010404  1
  Te  Te43  1  0.24750479  0.50060157  0.50633453  1
  Te  Te44  1  0.74450878  -0.00035047  0.00372733  1
  Te  Te45  1  0.74785955  -0.00367829  0.49783065  1
  Te  Te46  1  0.74868207  0.50082438  -0.00000253  1
  Te  Te47  1  0.74965726  0.50239569  0.49932857  1
  Te  Te48  1  0.00518368  0.25510031  -0.00380377  1
  Te  Te49  1  0.00045196  0.25707738  0.50609513  1
  Te  Te50  1  0.00761159  0.74398252  0.00055710  1
  Te  Te51  1  -0.00601624  0.74388951  0.49958414  1
  Te  Te52  1  0.49365898  0.25089539  -0.00076575  1
  Te  Te53  1  0.49959924  0.23992305  0.50088157  1
  Te  Te54  1  0.49668082  0.74969862  0.00357177  1
  Te  Te55  1  0.50338639  0.75432567  0.49329554  1
  Te  Te56  1  -0.00245998  0.00052648  0.25101949  1
  Te  Te57  1  0.00430445  0.00737040  0.74945294  1
  Te  Te58  1  -0.00498951  0.49942132  0.24991198  1
  Te  Te59  1  0.00082163  0.49872097  0.75210987  1
  Te  Te60  1  0.50035877  -0.00110836  0.24751995  1
  Te  Te61  1  0.49631800  0.00019513  0.75286710  1
  Te  Te62  1  0.50350065  0.50419407  0.24742048  1
  Te  Te63  1  0.49935131  0.49991845  0.75348846  1
