# generated using pymatgen
data_AgSbTe2
_symmetry_space_group_name_H-M   'P 1'
_cell_length_a   12.21488175
_cell_length_b   12.22877915
_cell_length_c   12.22693760
_cell_angle_alpha   90.00362842
_cell_angle_beta   90.00190371
_cell_angle_gamma   90.00679127
_symmetry_Int_Tables_number   1
_chemical_formula_structural   AgSbTe2
_chemical_formula_sum   'Ag16 Sb16 Te32'
_cell_volume   1826.37544654
_cell_formula_units_Z   16
loop_
 _symmetry_equiv_pos_site_id
 _symmetry_equiv_pos_as_xyz
  1  'x, y, z'
loop_
 _atom_site_type_symbol
 _atom_site_label
 _atom_site_symmetry_multiplicity
 _atom_site_fract_x
 _atom_site_fract_y
 _atom_site_fract_z
 _atom_site_occupancy
  Ag  Ag0  1  0.00453266  0.26371754  0.24653328  1
  Ag  Ag1  1  0.25029125  0.00069110  0.75392995  1
  Ag  Ag2  1  0.24417322  -0.00374197  0.24508845  1
  Ag  Ag3  1  0.00690588  0.73668107  0.24766492  1
  Ag  Ag4  1  0.24399711  0.75328735  0.00608362  1
  Ag  Ag5  1  0.23651671  0.50328688  0.24735375  1
  Ag  Ag6  1  0.24682355  0.75207584  0.49428440  1
  Ag  Ag7  1  0.24496260  0.24673418  0.00288257  1
  Ag  Ag8  1  0.74942689  0.00187360  0.75110570  1
  Ag  Ag9  1  0.00184566  0.50135785  0.48575577  1
  Ag  Ag10  1  0.49539565  0.00016304  0.50307806  1
  Ag  Ag11  1  0.76515032  0.49991227  0.24910415  1
  Ag  Ag12  1  0.49860313  0.24631845  0.75030932  1
  Ag  Ag13  1  0.00766973  0.00009933  0.00308174  1
  Ag  Ag14  1  0.75349196  0.49848310  0.75108111  1
  Ag  Ag15  1  0.00368311  0.49985401  0.01421053  1
  Sb  Sb16  1  0.49828628  0.50023394  0.50048123  1
  Sb  Sb17  1  0.75157602  0.25030758  0.50051540  1
  Sb  Sb18  1  0.49142798  0.75058924  0.25109243  1
  Sb  Sb19  1  0.49690812  0.49863113  -0.00040005  1
  Sb  Sb20  1  0.00187109  0.74968430  0.75338571  1
  Sb  Sb21  1  0.49154000  0.00184643  -0.00210347  1
  Sb  Sb22  1  0.75609126  0.74937261  0.00154752  1
  Sb  Sb23  1  0.75543188  0.25047936  -0.00025702  1
  Sb  Sb24  1  0.49558862  0.24924706  0.24914256  1
  Sb  Sb25  1  0.24704650  0.49923504  0.75161516  1
  Sb  Sb26  1  0.00119601  0.25019419  0.75344047  1
  Sb  Sb27  1  0.49825739  0.75277059  0.74860521  1
  Sb  Sb28  1  0.75437370  0.74933766  0.49850182  1
  Sb  Sb29  1  0.24837150  0.24838233  0.49753635  1
  Sb  Sb30  1  0.75582992  -0.00003025  0.24922295  1
  Sb  Sb31  1  0.00374055  -0.00165555  0.49854861  1
  Te  Te32  1  0.24813113  0.25020131  0.24748646  1
  Te  Te33  1  0.25200068  0.24631301  0.75323838  1
  Te  Te34  1  0.24779719  0.75061274  0.24926115  1
  Te  Te35  1  0.24997985  0.75429218  0.74976916  1
  Te  Te36  1  0.75406823  0.25439313  0.24937592  1
  Te  Te37  1  0.74706174  0.24888756  0.75072097  1
  Te  Te38  1  0.75707210  0.74529683  0.24948463  1
  Te  Te39  1  0.74980159  0.74986922  0.75013308  1
  Te  Te40  1  0.24780730  -0.00013792  0.00084570  1
  Te  Te41  1  0.25002190  -0.00208910  0.50078762  1
  Te  Te42  1  0.24680751  0.50026904  0.00047967  1
  Te  Te43  1  0.24711083  0.50352570  0.49948339  1
  Te  Te44  1  0.75642476  -0.00081376  -0.00488396  1
  Te  Te45  1  0.74604542  -0.00109213  0.50588463  1
  Te  Te46  1  0.75456627  0.50055362  -0.00033274  1
  Te  Te47  1  0.75320060  0.50097574  0.50026328  1
  Te  Te48  1  0.00438767  0.25021865  0.00289250  1
  Te  Te49  1  0.00055987  0.25625817  0.49272580  1
  Te  Te50  1  0.00477216  0.74971536  0.00213330  1
  Te  Te51  1  0.00493592  0.74659406  0.49547165  1
  Te  Te52  1  0.49128248  0.25004304  -0.00442053  1
  Te  Te53  1  0.49968319  0.24526992  0.50518083  1
  Te  Te54  1  0.48925319  0.74981847  -0.00007538  1
  Te  Te55  1  0.49155948  0.75475347  0.49979676  1
  Te  Te56  1  0.00181589  -0.00007465  0.24762917  1
  Te  Te57  1  0.00091766  0.00054908  0.75191722  1
  Te  Te58  1  0.00195235  0.49989361  0.24834668  1
  Te  Te59  1  -0.00494386  0.49896241  0.75067501  1
  Te  Te60  1  0.49704156  0.00102212  0.25489056  1
  Te  Te61  1  0.49906072  0.00240456  0.74825262  1
  Te  Te62  1  0.50124510  0.49929008  0.25134160  1
  Te  Te63  1  0.50757326  0.49480522  0.74882269  1
