# generated using pymatgen
data_AgSbTe2
_symmetry_space_group_name_H-M   'P 1'
_cell_length_a   12.28728081
_cell_length_b   12.30306883
_cell_length_c   12.32612342
_cell_angle_alpha   89.99749232
_cell_angle_beta   89.99213499
_cell_angle_gamma   89.99526087
_symmetry_Int_Tables_number   1
_chemical_formula_structural   AgSbTe2
_chemical_formula_sum   'Ag16 Sb16 Te32'
_cell_volume   1863.35560097
_cell_formula_units_Z   16
loop_
 _symmetry_equiv_pos_site_id
 _symmetry_equiv_pos_as_xyz
  1  'x, y, z'
loop_
 _atom_site_type_symbol
 _atom_site_label
 _atom_site_symmetry_multiplicity
 _atom_site_fract_x
 _atom_site_fract_y
 _atom_site_fract_z
 _atom_site_occupancy
  Ag  Ag0  1  0.48863219  0.49711931  -0.01343333  1
  Ag  Ag1  1  0.00555931  0.00017934  -0.00350747  1
  Ag  Ag2  1  0.24524982  0.49908293  0.75014548  1
  Ag  Ag3  1  0.48517480  0.50001731  0.51208003  1
  Ag  Ag4  1  0.24451365  0.26440350  -0.00600280  1
  Ag  Ag5  1  0.24082735  0.50241512  0.24913260  1
  Ag  Ag6  1  0.00821387  0.73567989  0.74426324  1
  Ag  Ag7  1  0.01295730  0.50649814  0.50886765  1
  Ag  Ag8  1  0.00806977  0.25863593  0.24865567  1
  Ag  Ag9  1  0.24050691  0.73968013  0.50342752  1
  Ag  Ag10  1  0.24274181  0.73546814  -0.00271641  1
  Ag  Ag11  1  0.00782877  0.74081205  0.25494863  1
  Ag  Ag12  1  0.48867543  0.26160228  0.75264935  1
  Ag  Ag13  1  0.00490127  -0.00482989  0.50260576  1
  Ag  Ag14  1  0.75852355  0.49939541  0.74951960  1
  Ag  Ag15  1  0.00685693  0.26308429  0.75056804  1
  Sb  Sb16  1  0.24751195  -0.00029081  0.24962950  1
  Sb  Sb17  1  0.48451742  0.25807879  0.24733305  1
  Sb  Sb18  1  0.48612225  0.73731339  0.75037432  1
  Sb  Sb19  1  0.75616995  -0.00107315  0.75063107  1
  Sb  Sb20  1  0.48866089  -0.00069972  0.50513905  1
  Sb  Sb21  1  0.49195597  0.00147662  -0.00358077  1
  Sb  Sb22  1  0.76281363  0.50040037  0.24684813  1
  Sb  Sb23  1  0.75831774  -0.00007125  0.24995295  1
  Sb  Sb24  1  0.76239277  0.74646998  0.50200396  1
  Sb  Sb25  1  0.75350630  0.25263398  0.50090904  1
  Sb  Sb26  1  0.24690081  0.00230014  0.74974541  1
  Sb  Sb27  1  0.24647519  0.26038480  0.50666888  1
  Sb  Sb28  1  0.75914516  0.25470839  -0.00250722  1
  Sb  Sb29  1  0.76426756  0.74406490  -0.00322665  1
  Sb  Sb30  1  0.48572563  0.74340112  0.24971462  1
  Sb  Sb31  1  0.00928177  0.49929379  -0.00945618  1
  Te  Te32  1  0.24381012  0.25515393  0.24325208  1
  Te  Te33  1  0.24433089  0.25101591  0.75165789  1
  Te  Te34  1  0.24515525  0.74573822  0.24585770  1
  Te  Te35  1  0.24606938  0.74832149  0.75325538  1
  Te  Te36  1  0.76714244  0.24945156  0.24991650  1
  Te  Te37  1  0.75794685  0.25870932  0.75019945  1
  Te  Te38  1  0.76566499  0.75060205  0.24898914  1
  Te  Te39  1  0.76271262  0.74300133  0.75071842  1
  Te  Te40  1  0.24479013  -0.00200755  -0.00035943  1
  Te  Te41  1  0.24488041  -0.01689851  0.49983654  1
  Te  Te42  1  0.25108345  0.50056724  -0.00193651  1
  Te  Te43  1  0.24729068  0.50122310  0.50267780  1
  Te  Te44  1  0.75876217  -0.00184791  -0.00015216  1
  Te  Te45  1  0.75942762  -0.00094495  0.49975384  1
  Te  Te46  1  0.72625814  0.50083190  -0.00379065  1
  Te  Te47  1  0.74679970  0.50036392  0.50565793  1
  Te  Te48  1  0.00466275  0.25185487  -0.00468126  1
  Te  Te49  1  0.00436184  0.25124028  0.50484059  1
  Te  Te50  1  0.00534710  0.74893719  -0.00188066  1
  Te  Te51  1  0.00412544  0.74443846  0.50343744  1
  Te  Te52  1  0.49209018  0.24769697  -0.00062815  1
  Te  Te53  1  0.49867098  0.25055095  0.50239777  1
  Te  Te54  1  0.48734065  0.75328985  -0.00068585  1
  Te  Te55  1  0.48976415  0.74957827  0.50071975  1
  Te  Te56  1  0.00247755  0.00205249  0.25431267  1
  Te  Te57  1  0.00075115  0.00412517  0.74707132  1
  Te  Te58  1  0.00343968  0.49970407  0.25492006  1
  Te  Te59  1  0.00662750  0.49830488  0.75039276  1
  Te  Te60  1  0.50472607  0.00143369  0.25276212  1
  Te  Te61  1  0.50527373  0.01952409  0.74761946  1
  Te  Te62  1  0.49362011  0.49929680  0.25572321  1
  Te  Te63  1  0.49159853  0.49705566  0.74676212  1
