# generated using pymatgen
data_AgSbTe2
_symmetry_space_group_name_H-M   'P 1'
_cell_length_a   12.21808896
_cell_length_b   12.21861416
_cell_length_c   12.21265734
_cell_angle_alpha   89.99814187
_cell_angle_beta   89.99344170
_cell_angle_gamma   90.00133306
_symmetry_Int_Tables_number   1
_chemical_formula_structural   AgSbTe2
_chemical_formula_sum   'Ag16 Sb16 Te32'
_cell_volume   1823.20457795
_cell_formula_units_Z   16
loop_
 _symmetry_equiv_pos_site_id
 _symmetry_equiv_pos_as_xyz
  1  'x, y, z'
loop_
 _atom_site_type_symbol
 _atom_site_label
 _atom_site_symmetry_multiplicity
 _atom_site_fract_x
 _atom_site_fract_y
 _atom_site_fract_z
 _atom_site_occupancy
  Ag  Ag0  1  0.75088393  0.24626848  0.50493303  1
  Ag  Ag1  1  0.50095266  0.50583237  -0.00345955  1
  Ag  Ag2  1  -0.00280478  -0.00303331  0.50449513  1
  Ag  Ag3  1  0.74376430  0.75173376  -0.00790775  1
  Ag  Ag4  1  -0.00112225  0.24668677  0.25074798  1
  Ag  Ag5  1  0.75087451  0.75434637  0.50964445  1
  Ag  Ag6  1  0.50197448  0.24661965  0.75336304  1
  Ag  Ag7  1  -0.00358269  0.75427696  0.74805588  1
  Ag  Ag8  1  0.49817406  -0.00502940  -0.00517004  1
  Ag  Ag9  1  0.25344164  0.24640198  -0.00387757  1
  Ag  Ag10  1  0.24984652  0.75474840  0.50621813  1
  Ag  Ag11  1  0.25741946  0.75425420  -0.00547295  1
  Ag  Ag12  1  0.74742877  0.50600610  0.75087587  1
  Ag  Ag13  1  0.25148474  -0.00508377  0.75295089  1
  Ag  Ag14  1  0.50048180  0.75120824  0.24423501  1
  Ag  Ag15  1  0.74931970  -0.00606691  0.74821115  1
  Sb  Sb16  1  0.25048839  -0.00108030  0.24629832  1
  Sb  Sb17  1  0.25365423  0.50567436  0.75304328  1
  Sb  Sb18  1  -0.00175236  0.50106129  -0.00283429  1
  Sb  Sb19  1  -0.00096448  0.24613206  0.74967729  1
  Sb  Sb20  1  0.50273157  0.50328998  0.50507493  1
  Sb  Sb21  1  0.25162318  0.50071440  0.24826637  1
  Sb  Sb22  1  0.74770228  0.24828944  -0.00532544  1
  Sb  Sb23  1  0.50220663  -0.00313065  0.50613670  1
  Sb  Sb24  1  -0.00013355  0.75212892  0.25168657  1
  Sb  Sb25  1  0.24955691  0.24440425  0.50401850  1
  Sb  Sb26  1  0.50576438  0.75429048  0.75777778  1
  Sb  Sb27  1  0.74773205  0.50124585  0.24820343  1
  Sb  Sb28  1  0.50055306  0.24831797  0.24725962  1
  Sb  Sb29  1  0.00104531  -0.00173712  -0.00445132  1
  Sb  Sb30  1  -0.00182532  0.50289852  0.50276845  1
  Sb  Sb31  1  0.74968632  -0.00071452  0.25131975  1
  Te  Te32  1  0.24787005  0.25004926  0.24635275  1
  Te  Te33  1  0.25117586  0.24698773  0.75253754  1
  Te  Te34  1  0.25194010  0.75047808  0.24809505  1
  Te  Te35  1  0.24809361  0.75204098  0.75142309  1
  Te  Te36  1  0.75268863  0.25040296  0.25667052  1
  Te  Te37  1  0.74915768  0.24737147  0.74783527  1
  Te  Te38  1  0.74799586  0.74966241  0.24972366  1
  Te  Te39  1  0.74820017  0.75274472  0.74931800  1
  Te  Te40  1  0.25074916  -0.00243782  -0.00411696  1
  Te  Te41  1  0.24813154  -0.00440874  0.50630956  1
  Te  Te42  1  0.25537056  0.50170101  -0.00139793  1
  Te  Te43  1  0.25056018  0.50941872  0.50041081  1
  Te  Te44  1  0.74817397  -0.00309510  -0.00498981  1
  Te  Te45  1  0.75089948  -0.00260242  0.50391170  1
  Te  Te46  1  0.74606453  0.50300321  -0.00482760  1
  Te  Te47  1  0.74907694  0.50194346  0.50616669  1
  Te  Te48  1  0.00523666  0.24989080  0.00297701  1
  Te  Te49  1  -0.00258996  0.24655969  0.49868390  1
  Te  Te50  1  0.00009024  0.75049611  -0.00066565  1
  Te  Te51  1  -0.00213496  0.75288680  0.50028388  1
  Te  Te52  1  0.49734316  0.24814560  -0.00065345  1
  Te  Te53  1  0.50352373  0.25022968  0.50168112  1
  Te  Te54  1  0.49936919  0.75129787  -0.00028468  1
  Te  Te55  1  0.50087622  0.75046180  0.49258024  1
  Te  Te56  1  0.00003671  0.00466735  0.25845088  1
  Te  Te57  1  -0.00113194  -0.00425563  0.74629211  1
  Te  Te58  1  -0.00024275  0.49168495  0.24975692  1
  Te  Te59  1  -0.00820390  0.50771469  0.75049769  1
  Te  Te60  1  0.50021271  -0.00437868  0.24019465  1
  Te  Te61  1  0.49995236  0.00399151  0.75415543  1
  Te  Te62  1  0.50048345  0.50503940  0.24071919  1
  Te  Te63  1  0.50442531  0.49135332  0.75514575  1
