# generated using pymatgen
data_AgSbTe2
_symmetry_space_group_name_H-M   'P 1'
_cell_length_a   12.28381664
_cell_length_b   12.30678430
_cell_length_c   12.29838629
_cell_angle_alpha   89.99805934
_cell_angle_beta   90.00985623
_cell_angle_gamma   89.99884284
_symmetry_Int_Tables_number   1
_chemical_formula_structural   AgSbTe2
_chemical_formula_sum   'Ag16 Sb16 Te32'
_cell_volume   1859.19968342
_cell_formula_units_Z   16
loop_
 _symmetry_equiv_pos_site_id
 _symmetry_equiv_pos_as_xyz
  1  'x, y, z'
loop_
 _atom_site_type_symbol
 _atom_site_label
 _atom_site_symmetry_multiplicity
 _atom_site_fract_x
 _atom_site_fract_y
 _atom_site_fract_z
 _atom_site_occupancy
  Ag  Ag0  1  0.50311460  0.50003342  0.00480709  1
  Ag  Ag1  1  -0.00035355  0.72991178  0.23781005  1
  Ag  Ag2  1  -0.00422158  0.49288483  0.01666145  1
  Ag  Ag3  1  0.00319757  0.49474575  0.47821393  1
  Ag  Ag4  1  0.76930720  0.49858891  0.24197404  1
  Ag  Ag5  1  0.00051812  0.73844292  0.76183290  1
  Ag  Ag6  1  0.49935093  0.74413342  0.76295734  1
  Ag  Ag7  1  0.50244265  0.00078264  -0.00062752  1
  Ag  Ag8  1  0.24233501  0.25767627  0.49865073  1
  Ag  Ag9  1  -0.00310620  0.00729613  0.00172602  1
  Ag  Ag10  1  0.50032750  0.74054783  0.23554556  1
  Ag  Ag11  1  0.00000971  0.26138359  0.76139393  1
  Ag  Ag12  1  0.00001744  0.27072814  0.23738728  1
  Ag  Ag13  1  0.49955007  0.25554015  0.76027360  1
  Ag  Ag14  1  0.75773066  0.25667496  0.00088801  1
  Ag  Ag15  1  0.23104369  0.49817380  0.24816218  1
  Sb  Sb16  1  0.49818883  0.00294789  0.49944740  1
  Sb  Sb17  1  0.75004425  0.74393296  0.49826484  1
  Sb  Sb18  1  0.75085206  0.74248074  0.00114058  1
  Sb  Sb19  1  0.24816916  0.74379879  0.49715122  1
  Sb  Sb20  1  0.75149957  0.25533946  0.49861152  1
  Sb  Sb21  1  0.75021726  0.00176806  0.75512369  1
  Sb  Sb22  1  0.24957147  0.00190945  0.75089582  1
  Sb  Sb23  1  0.24358820  0.25129173  0.00036666  1
  Sb  Sb24  1  0.24706341  0.49792327  0.75290250  1
  Sb  Sb25  1  0.24898010  0.00219086  0.24884263  1
  Sb  Sb26  1  0.75067152  0.00239215  0.24390590  1
  Sb  Sb27  1  0.49930465  0.26005643  0.23726998  1
  Sb  Sb28  1  0.00104822  0.00265265  0.49956214  1
  Sb  Sb29  1  0.49745548  0.49723732  0.49850378  1
  Sb  Sb30  1  0.24897425  0.74804184  0.00077344  1
  Sb  Sb31  1  0.75265792  0.49756613  0.75597311  1
  Te  Te32  1  0.24828470  0.25277678  0.25245895  1
  Te  Te33  1  0.24670148  0.25150185  0.74613885  1
  Te  Te34  1  0.24771504  0.74478948  0.25013955  1
  Te  Te35  1  0.24940618  0.74977855  0.74876248  1
  Te  Te36  1  0.75191795  0.25229384  0.24768699  1
  Te  Te37  1  0.75236783  0.25114975  0.75380360  1
  Te  Te38  1  0.75207999  0.74459945  0.24893698  1
  Te  Te39  1  0.75032888  0.74947048  0.75027736  1
  Te  Te40  1  0.25154324  0.00040721  0.00014725  1
  Te  Te41  1  0.25089161  0.01577403  0.49971731  1
  Te  Te42  1  0.25293921  0.50075742  0.00618950  1
  Te  Te43  1  0.24645533  0.49567242  0.49345291  1
  Te  Te44  1  0.75151756  0.01586845  0.00025082  1
  Te  Te45  1  0.74875656  0.00002603  0.49847125  1
  Te  Te46  1  0.74964456  0.49430121  0.00332567  1
  Te  Te47  1  0.75871242  0.50084483  0.48624069  1
  Te  Te48  1  0.00065331  0.25268132  -0.00218268  1
  Te  Te49  1  -0.00106387  0.24995096  0.50500230  1
  Te  Te50  1  -0.00103994  0.74763984  -0.00212419  1
  Te  Te51  1  0.00054797  0.74884365  0.50356715  1
  Te  Te52  1  0.49882743  0.25343496  -0.00281350  1
  Te  Te53  1  0.50155925  0.24874717  0.51498534  1
  Te  Te54  1  0.50127186  0.74580250  -0.00202139  1
  Te  Te55  1  0.50033229  0.75093182  0.50656320  1
  Te  Te56  1  0.00025393  -0.00420496  0.24390190  1
  Te  Te57  1  0.00000948  -0.00278668  0.75648492  1
  Te  Te58  1  0.00038278  0.49998171  0.24872913  1
  Te  Te59  1  -0.00026123  0.50133102  0.75709669  1
  Te  Te60  1  0.49973273  -0.01260353  0.24375558  1
  Te  Te61  1  0.50026742  -0.00397186  0.75726910  1
  Te  Te62  1  0.49954552  0.50240561  0.24883432  1
  Te  Te63  1  0.50016835  0.50273044  0.75056021  1
