# generated using pymatgen
data_AgSbTe2
_symmetry_space_group_name_H-M   'P 1'
_cell_length_a   12.23695443
_cell_length_b   12.24145661
_cell_length_c   12.21509348
_cell_angle_alpha   89.99245138
_cell_angle_beta   90.00160613
_cell_angle_gamma   90.00189329
_symmetry_Int_Tables_number   1
_chemical_formula_structural   AgSbTe2
_chemical_formula_sum   'Ag16 Sb16 Te32'
_cell_volume   1829.79834770
_cell_formula_units_Z   16
loop_
 _symmetry_equiv_pos_site_id
 _symmetry_equiv_pos_as_xyz
  1  'x, y, z'
loop_
 _atom_site_type_symbol
 _atom_site_label
 _atom_site_symmetry_multiplicity
 _atom_site_fract_x
 _atom_site_fract_y
 _atom_site_fract_z
 _atom_site_occupancy
  Ag  Ag0  1  0.25572516  0.25393316  0.00104512  1
  Ag  Ag1  1  0.49949454  0.50281504  0.00162726  1
  Ag  Ag2  1  0.50392801  -0.00224144  0.00407297  1
  Ag  Ag3  1  0.74820868  0.50182261  0.24119103  1
  Ag  Ag4  1  0.25304935  0.74591526  -0.00095755  1
  Ag  Ag5  1  0.74593015  -0.00120731  0.24173726  1
  Ag  Ag6  1  0.50328084  0.24759334  0.24115834  1
  Ag  Ag7  1  0.74411291  0.24985641  0.00541372  1
  Ag  Ag8  1  0.25390638  0.74990515  0.49967352  1
  Ag  Ag9  1  0.74810106  0.75017307  0.00476454  1
  Ag  Ag10  1  0.00014719  0.50570763  0.00258746  1
  Ag  Ag11  1  0.50015370  -0.00389906  0.49700663  1
  Ag  Ag12  1  0.49631789  0.74953861  0.75829417  1
  Ag  Ag13  1  -0.00208761  0.75000571  0.24112049  1
  Ag  Ag14  1  -0.00379291  -0.00610108  0.00448192  1
  Ag  Ag15  1  0.25264003  0.50466044  0.75861327  1
  Sb  Sb16  1  0.00028687  -0.00521082  0.49412960  1
  Sb  Sb17  1  0.49821019  0.25052109  0.76016671  1
  Sb  Sb18  1  0.74552627  0.24795916  0.49393413  1
  Sb  Sb19  1  0.74765673  -0.00212125  0.76084893  1
  Sb  Sb20  1  0.74795230  0.50280747  0.76110775  1
  Sb  Sb21  1  -0.00287935  0.25008274  0.24432573  1
  Sb  Sb22  1  0.50227823  0.75172621  0.24124016  1
  Sb  Sb23  1  0.25394879  -0.00150634  0.24517584  1
  Sb  Sb24  1  0.74634305  0.75189426  0.49623074  1
  Sb  Sb25  1  0.49836205  0.50394743  0.49757845  1
  Sb  Sb26  1  0.25249901  -0.00391811  0.75505051  1
  Sb  Sb27  1  0.00334064  0.74764335  0.76041866  1
  Sb  Sb28  1  0.00210411  0.50437597  0.49612262  1
  Sb  Sb29  1  0.25529042  0.24987570  0.49857247  1
  Sb  Sb30  1  0.25163794  0.50206121  0.24077627  1
  Sb  Sb31  1  0.00169396  0.25181703  0.75688696  1
  Te  Te32  1  0.25530223  0.25082558  0.24512419  1
  Te  Te33  1  0.25051938  0.25764252  0.75591038  1
  Te  Te34  1  0.24482570  0.74914898  0.24761107  1
  Te  Te35  1  0.25258951  0.74717312  0.75506772  1
  Te  Te36  1  0.74743768  0.24928768  0.24487809  1
  Te  Te37  1  0.75031015  0.25064755  0.75709410  1
  Te  Te38  1  0.75202945  0.75013589  0.24623991  1
  Te  Te39  1  0.74401766  0.74953108  0.75374489  1
  Te  Te40  1  0.25170540  -0.00133115  0.00000584  1
  Te  Te41  1  0.25398561  -0.00388743  0.50083357  1
  Te  Te42  1  0.25181219  0.50218004  -0.00005753  1
  Te  Te43  1  0.25005546  0.50475452  0.50759632  1
  Te  Te44  1  0.74777080  -0.00180783  0.00259479  1
  Te  Te45  1  0.74549528  0.00010499  0.49175448  1
  Te  Te46  1  0.74871790  0.50182181  0.00200932  1
  Te  Te47  1  0.75069443  0.49938101  0.49107043  1
  Te  Te48  1  0.00111953  0.25015569  0.00101684  1
  Te  Te49  1  0.00066306  0.24918456  0.50098963  1
  Te  Te50  1  0.00040160  0.74975633  0.00182215  1
  Te  Te51  1  0.00570410  0.75080034  0.49321112  1
  Te  Te52  1  0.49960649  0.24914270  0.00170453  1
  Te  Te53  1  0.49940027  0.24338335  0.49310420  1
  Te  Te54  1  0.49851129  0.75008043  0.00031914  1
  Te  Te55  1  0.49569497  0.75353907  0.50473707  1
  Te  Te56  1  -0.00545435  -0.00307362  0.24441233  1
  Te  Te57  1  -0.00073037  0.00010461  0.75674555  1
  Te  Te58  1  -0.00421461  0.50299809  0.24499732  1
  Te  Te59  1  0.00367575  0.50057331  0.75578520  1
  Te  Te60  1  0.50296678  0.00130634  0.24466929  1
  Te  Te61  1  0.50062882  -0.00396082  0.75125306  1
  Te  Te62  1  0.50363024  0.49643873  0.24613023  1
  Te  Te63  1  0.49776100  0.50352990  0.75322908  1
