# generated using pymatgen
data_AgSbTe2
_symmetry_space_group_name_H-M   'P 1'
_cell_length_a   12.21795905
_cell_length_b   12.22236941
_cell_length_c   12.22875968
_cell_angle_alpha   90.00693599
_cell_angle_beta   90.00165790
_cell_angle_gamma   89.99559498
_symmetry_Int_Tables_number   1
_chemical_formula_structural   AgSbTe2
_chemical_formula_sum   'Ag16 Sb16 Te32'
_cell_volume   1826.15012173
_cell_formula_units_Z   16
loop_
 _symmetry_equiv_pos_site_id
 _symmetry_equiv_pos_as_xyz
  1  'x, y, z'
loop_
 _atom_site_type_symbol
 _atom_site_label
 _atom_site_symmetry_multiplicity
 _atom_site_fract_x
 _atom_site_fract_y
 _atom_site_fract_z
 _atom_site_occupancy
  Ag  Ag0  1  -0.01088181  0.75575500  0.24686254  1
  Ag  Ag1  1  0.74985472  -0.00623352  0.24903790  1
  Ag  Ag2  1  0.51051740  0.75658824  0.24684770  1
  Ag  Ag3  1  0.50882388  0.75361391  0.75277665  1
  Ag  Ag4  1  0.50851671  -0.00303886  0.00324177  1
  Ag  Ag5  1  -0.00440054  0.50225167  0.00072983  1
  Ag  Ag6  1  0.50315383  0.24346541  0.24923695  1
  Ag  Ag7  1  0.75006993  0.50618088  0.75194520  1
  Ag  Ag8  1  0.75021191  0.24128513  0.49784370  1
  Ag  Ag9  1  -0.00831107  -0.00065972  0.49733332  1
  Ag  Ag10  1  0.74916333  -0.00568538  0.75069193  1
  Ag  Ag11  1  -0.00880106  -0.00311274  0.00348287  1
  Ag  Ag12  1  0.25045920  0.24709335  0.00298887  1
  Ag  Ag13  1  0.75025495  0.75785179  0.49861226  1
  Ag  Ag14  1  0.25049978  0.24624159  0.49752359  1
  Ag  Ag15  1  0.74985275  0.75715616  0.00160923  1
  Sb  Sb16  1  0.50380395  0.50205442  -0.00061132  1
  Sb  Sb17  1  -0.00388192  0.24395620  0.24996941  1
  Sb  Sb18  1  0.50393665  0.24613337  0.75146900  1
  Sb  Sb19  1  0.75115209  0.50596095  0.24702909  1
  Sb  Sb20  1  0.24903397  0.49831941  0.24860846  1
  Sb  Sb21  1  -0.00421392  0.50177442  0.49908198  1
  Sb  Sb22  1  -0.00301312  0.24859029  0.75038424  1
  Sb  Sb23  1  0.25120796  0.00012422  0.75005013  1
  Sb  Sb24  1  0.74947127  0.24296509  0.00308503  1
  Sb  Sb25  1  0.50946010  0.00006488  0.49594164  1
  Sb  Sb26  1  0.25150817  0.00120730  0.24987104  1
  Sb  Sb27  1  0.24954696  0.49985592  0.75235161  1
  Sb  Sb28  1  0.50289207  0.49991279  0.50032262  1
  Sb  Sb29  1  0.24989104  0.75246941  0.00080865  1
  Sb  Sb30  1  0.24933294  0.75437803  0.49884969  1
  Sb  Sb31  1  -0.00979826  0.75201501  0.75372174  1
  Te  Te32  1  0.25643770  0.24976601  0.25009678  1
  Te  Te33  1  0.25163528  0.25068333  0.74851921  1
  Te  Te34  1  0.25387164  0.74944624  0.25147245  1
  Te  Te35  1  0.26392947  0.74887910  0.74805982  1
  Te  Te36  1  0.74536952  0.24641102  0.25429884  1
  Te  Te37  1  0.74862122  0.24726919  0.74331874  1
  Te  Te38  1  0.74856995  0.75094937  0.24889201  1
  Te  Te39  1  0.74844439  0.75353681  0.75044278  1
  Te  Te40  1  0.24798864  0.00458357  -0.00077494  1
  Te  Te41  1  0.23944132  0.00600195  0.50121562  1
  Te  Te42  1  0.24253301  0.49298921  -0.00135905  1
  Te  Te43  1  0.24796597  0.48933147  0.50111481  1
  Te  Te44  1  0.75061428  -0.00036433  0.00131011  1
  Te  Te45  1  0.75130722  -0.00151505  0.49915065  1
  Te  Te46  1  0.75422277  0.50362252  -0.00388092  1
  Te  Te47  1  0.75190368  0.50090810  0.50636159  1
  Te  Te48  1  0.00258515  0.24685979  0.00115861  1
  Te  Te49  1  -0.00219850  0.24668931  0.49912175  1
  Te  Te50  1  -0.00043593  0.75478364  0.00232054  1
  Te  Te51  1  -0.00226920  0.75307845  0.49583973  1
  Te  Te52  1  0.49828195  0.24783827  0.00300261  1
  Te  Te53  1  0.50079724  0.24934092  0.49600817  1
  Te  Te54  1  0.50010741  0.75196601  0.00388137  1
  Te  Te55  1  0.50255656  0.75063702  0.49621666  1
  Te  Te56  1  -0.00364198  -0.00281001  0.24796919  1
  Te  Te57  1  -0.00543873  -0.00122880  0.75145172  1
  Te  Te58  1  -0.00069131  0.50813370  0.24412846  1
  Te  Te59  1  -0.00594593  0.50101993  0.75600710  1
  Te  Te60  1  0.50285945  -0.00149608  0.24715976  1
  Te  Te61  1  0.50455346  -0.00369765  0.75566651  1
  Te  Te62  1  0.49998384  0.50125970  0.24956891  1
  Te  Te63  1  0.50672660  0.50659268  0.75056311  1
