# generated using pymatgen
data_AgSbTe2
_symmetry_space_group_name_H-M   'P 1'
_cell_length_a   12.20808469
_cell_length_b   12.21261270
_cell_length_c   12.21628685
_cell_angle_alpha   90.00291610
_cell_angle_beta   89.99522598
_cell_angle_gamma   90.00595480
_symmetry_Int_Tables_number   1
_chemical_formula_structural   AgSbTe2
_chemical_formula_sum   'Ag16 Sb16 Te32'
_cell_volume   1821.35807287
_cell_formula_units_Z   16
loop_
 _symmetry_equiv_pos_site_id
 _symmetry_equiv_pos_as_xyz
  1  'x, y, z'
loop_
 _atom_site_type_symbol
 _atom_site_label
 _atom_site_symmetry_multiplicity
 _atom_site_fract_x
 _atom_site_fract_y
 _atom_site_fract_z
 _atom_site_occupancy
  Ag  Ag0  1  0.24899532  0.75044217  -0.00161680  1
  Ag  Ag1  1  0.75240301  -0.00386027  0.24997894  1
  Ag  Ag2  1  -0.00186232  0.25004657  0.25207992  1
  Ag  Ag3  1  0.75079651  -0.00170811  0.74974732  1
  Ag  Ag4  1  0.75070855  0.50151150  0.74573470  1
  Ag  Ag5  1  0.75213380  0.25054050  0.50322960  1
  Ag  Ag6  1  0.50282509  0.24999899  0.74784215  1
  Ag  Ag7  1  0.75133392  0.75356534  -0.00082757  1
  Ag  Ag8  1  0.50072798  0.74989115  0.25085152  1
  Ag  Ag9  1  0.75083026  0.74968345  0.50111545  1
  Ag  Ag10  1  -0.00277424  -0.00246229  -0.00059374  1
  Ag  Ag11  1  0.24891891  -0.00436994  0.75056206  1
  Ag  Ag12  1  0.24901868  0.74632556  0.50132971  1
  Ag  Ag13  1  -0.00029709  0.50130826  0.50040475  1
  Ag  Ag14  1  0.24763341  0.50502830  0.25285500  1
  Ag  Ag15  1  0.24901765  0.50476251  0.74665241  1
  Sb  Sb16  1  -0.00014984  0.50264008  0.00008691  1
  Sb  Sb17  1  0.50036439  0.74989507  0.74859710  1
  Sb  Sb18  1  -0.00337727  -0.00083431  0.49979773  1
  Sb  Sb19  1  0.50032690  0.50282609  -0.00063164  1
  Sb  Sb20  1  0.49991600  0.50116770  0.50106587  1
  Sb  Sb21  1  0.24743187  0.24837223  -0.00162791  1
  Sb  Sb22  1  0.75251739  0.24648976  -0.00291559  1
  Sb  Sb23  1  0.24704956  0.25347678  0.50169718  1
  Sb  Sb24  1  -0.00084779  0.74996199  0.25062165  1
  Sb  Sb25  1  0.24779167  -0.00546845  0.24913424  1
  Sb  Sb26  1  0.75233692  0.50402800  0.25476984  1
  Sb  Sb27  1  -0.00034979  0.75042410  0.74926136  1
  Sb  Sb28  1  0.50235225  -0.00088889  0.50118933  1
  Sb  Sb29  1  -0.00324685  0.24998489  0.74712052  1
  Sb  Sb30  1  0.50285443  -0.00336747  -0.00127438  1
  Sb  Sb31  1  0.50251094  0.25023540  0.25272762  1
  Te  Te32  1  0.24937015  0.25398982  0.25081533  1
  Te  Te33  1  0.25377372  0.25058050  0.74899703  1
  Te  Te34  1  0.25220465  0.74896603  0.25078433  1
  Te  Te35  1  0.25332545  0.74885894  0.74957990  1
  Te  Te36  1  0.74927618  0.24776377  0.25354860  1
  Te  Te37  1  0.74840431  0.24937800  0.74702636  1
  Te  Te38  1  0.74794770  0.75110569  0.25109500  1
  Te  Te39  1  0.74679987  0.75104779  0.74853737  1
  Te  Te40  1  0.24482081  -0.00578345  -0.00371636  1
  Te  Te41  1  0.24693124  -0.00632531  0.50587647  1
  Te  Te42  1  0.24763231  0.50728807  -0.00287960  1
  Te  Te43  1  0.24571305  0.50322607  0.50287088  1
  Te  Te44  1  0.75366519  -0.00402639  -0.00230751  1
  Te  Te45  1  0.75293481  -0.00331153  0.50268558  1
  Te  Te46  1  0.75247522  0.50747626  -0.00686633  1
  Te  Te47  1  0.75447372  0.50295077  0.50266060  1
  Te  Te48  1  -0.00010481  0.24313051  0.00847337  1
  Te  Te49  1  -0.00497212  0.25445774  0.49524227  1
  Te  Te50  1  -0.00051539  0.75503447  0.00069271  1
  Te  Te51  1  -0.00097033  0.74411789  0.49953074  1
  Te  Te52  1  0.49986896  0.25023860  -0.00744374  1
  Te  Te53  1  0.50866041  0.24984186  0.50492706  1
  Te  Te54  1  0.49978863  0.75017581  0.00752720  1
  Te  Te55  1  0.50104993  0.74998858  0.49317687  1
  Te  Te56  1  -0.00436672  0.00547730  0.24698095  1
  Te  Te57  1  -0.00098349  0.00247902  0.75455834  1
  Te  Te58  1  0.00419456  0.49445391  0.25311005  1
  Te  Te59  1  0.00126744  0.49750817  0.74582227  1
  Te  Te60  1  0.50654337  -0.00290770  0.24957370  1
  Te  Te61  1  0.50102763  0.00510704  0.75040183  1
  Te  Te62  1  0.49256751  0.50309792  0.24925393  1
  Te  Te63  1  0.49930582  0.49496722  0.75049958  1
