# generated using pymatgen
data_AgSbTe2
_symmetry_space_group_name_H-M   'P 1'
_cell_length_a   12.31688026
_cell_length_b   12.29238202
_cell_length_c   12.28671352
_cell_angle_alpha   90.00431867
_cell_angle_beta   89.99507004
_cell_angle_gamma   89.99403626
_symmetry_Int_Tables_number   1
_chemical_formula_structural   AgSbTe2
_chemical_formula_sum   'Ag16 Sb16 Te32'
_cell_volume   1860.25506259
_cell_formula_units_Z   16
loop_
 _symmetry_equiv_pos_site_id
 _symmetry_equiv_pos_as_xyz
  1  'x, y, z'
loop_
 _atom_site_type_symbol
 _atom_site_label
 _atom_site_symmetry_multiplicity
 _atom_site_fract_x
 _atom_site_fract_y
 _atom_site_fract_z
 _atom_site_occupancy
  Ag  Ag0  1  0.74703808  0.75027988  -0.00306056  1
  Ag  Ag1  1  0.49542470  0.23563170  0.74846920  1
  Ag  Ag2  1  0.00508193  -0.00637420  -0.01121501  1
  Ag  Ag3  1  0.00664798  -0.00522030  0.51500597  1
  Ag  Ag4  1  0.00258122  0.51220279  -0.00193668  1
  Ag  Ag5  1  0.73598849  0.74991422  0.50448424  1
  Ag  Ag6  1  0.25414666  0.75439634  -0.00567404  1
  Ag  Ag7  1  0.49790752  0.51529539  0.50411698  1
  Ag  Ag8  1  0.00732354  0.24073070  0.75193070  1
  Ag  Ag9  1  0.49499562  0.76133028  0.74356005  1
  Ag  Ag10  1  0.26292367  0.75420528  0.50796032  1
  Ag  Ag11  1  0.49191711  -0.01061641  -0.01666347  1
  Ag  Ag12  1  0.25867103  -0.00414803  0.75013178  1
  Ag  Ag13  1  0.74808451  0.50669631  0.25019413  1
  Ag  Ag14  1  0.49355680  -0.01379314  0.51496492  1
  Ag  Ag15  1  0.25145112  0.50779425  0.24993951  1
  Sb  Sb16  1  0.49948701  0.74924798  0.25364621  1
  Sb  Sb17  1  0.00366071  0.75653417  0.75078652  1
  Sb  Sb18  1  0.74799719  0.24900970  0.50120429  1
  Sb  Sb19  1  0.49915172  0.50824791  -0.00412600  1
  Sb  Sb20  1  0.74974282  0.25012513  -0.00133523  1
  Sb  Sb21  1  0.25036487  -0.00374804  0.24999357  1
  Sb  Sb22  1  0.74614605  -0.00122947  0.75056027  1
  Sb  Sb23  1  0.25017076  0.24647654  -0.00243674  1
  Sb  Sb24  1  0.25122912  0.24583775  0.50238638  1
  Sb  Sb25  1  0.00144079  0.50483440  0.50322318  1
  Sb  Sb26  1  0.74989389  -0.00308788  0.24972334  1
  Sb  Sb27  1  0.25063259  0.50444481  0.75039687  1
  Sb  Sb28  1  0.00043923  0.74941866  0.24813609  1
  Sb  Sb29  1  0.00045557  0.25046014  0.24999057  1
  Sb  Sb30  1  0.75048169  0.50355052  0.75007247  1
  Sb  Sb31  1  0.49923016  0.25036801  0.24889245  1
  Te  Te32  1  0.25018484  0.26861063  0.25003610  1
  Te  Te33  1  0.25226553  0.23689560  0.74989306  1
  Te  Te34  1  0.24971362  0.74582742  0.24736464  1
  Te  Te35  1  0.25253458  0.75682109  0.75016589  1
  Te  Te36  1  0.74997058  0.26611412  0.24987516  1
  Te  Te37  1  0.74541855  0.25011217  0.75011564  1
  Te  Te38  1  0.75014405  0.74674107  0.24802353  1
  Te  Te39  1  0.74078714  0.75150124  0.74992113  1
  Te  Te40  1  0.25000274  -0.00277458  0.00430291  1
  Te  Te41  1  0.25138568  -0.00311388  0.49579425  1
  Te  Te42  1  0.24947990  0.50685194  -0.00291048  1
  Te  Te43  1  0.24772739  0.50779010  0.50296646  1
  Te  Te44  1  0.75433927  -0.00605609  0.00230422  1
  Te  Te45  1  0.74890288  -0.00544729  0.49762445  1
  Te  Te46  1  0.74986909  0.50458500  0.00019800  1
  Te  Te47  1  0.75303035  0.50515698  0.50004360  1
  Te  Te48  1  -0.00065313  0.24089803  -0.00266275  1
  Te  Te49  1  -0.00076534  0.23961569  0.50506810  1
  Te  Te50  1  -0.00050666  0.75065073  -0.00108606  1
  Te  Te51  1  0.00033044  0.75468308  0.50120727  1
  Te  Te52  1  0.50114485  0.23808372  -0.00579062  1
  Te  Te53  1  0.50079330  0.24546559  0.50384937  1
  Te  Te54  1  0.49867394  0.75307957  -0.00046003  1
  Te  Te55  1  0.49915130  0.75008454  0.49993970  1
  Te  Te56  1  -0.00066688  0.00087318  0.24684652  1
  Te  Te57  1  0.00083550  0.00114083  0.75060172  1
  Te  Te58  1  0.00202618  0.49926373  0.24445241  1
  Te  Te59  1  0.00121006  0.48923023  0.75741380  1
  Te  Te60  1  0.50068509  0.00237035  0.25084970  1
  Te  Te61  1  0.49951251  -0.00238379  0.74991076  1
  Te  Te62  1  0.49852916  0.49892152  0.25670136  1
  Te  Te63  1  0.49967932  0.49959210  0.74411792  1
