# generated using pymatgen
data_AgSbTe2
_symmetry_space_group_name_H-M   'P 1'
_cell_length_a   12.27561655
_cell_length_b   12.25869007
_cell_length_c   12.25406733
_cell_angle_alpha   90.00309895
_cell_angle_beta   89.99677090
_cell_angle_gamma   89.99959536
_symmetry_Int_Tables_number   1
_chemical_formula_structural   AgSbTe2
_chemical_formula_sum   'Ag16 Sb16 Te32'
_cell_volume   1844.02854669
_cell_formula_units_Z   16
loop_
 _symmetry_equiv_pos_site_id
 _symmetry_equiv_pos_as_xyz
  1  'x, y, z'
loop_
 _atom_site_type_symbol
 _atom_site_label
 _atom_site_symmetry_multiplicity
 _atom_site_fract_x
 _atom_site_fract_y
 _atom_site_fract_z
 _atom_site_occupancy
  Ag  Ag0  1  0.75787613  0.25449052  0.50332273  1
  Ag  Ag1  1  0.75247543  0.74528038  0.00551784  1
  Ag  Ag2  1  -0.00522629  0.25733622  0.26276787  1
  Ag  Ag3  1  -0.00516241  0.74262524  0.73534756  1
  Ag  Ag4  1  0.24229894  0.50580323  0.25903485  1
  Ag  Ag5  1  -0.00757119  0.74215501  0.26475830  1
  Ag  Ag6  1  0.75993316  0.74550079  0.49489500  1
  Ag  Ag7  1  -0.00587719  0.25835565  0.73767255  1
  Ag  Ag8  1  0.75736239  0.50891256  0.25889728  1
  Ag  Ag9  1  0.50588015  0.25353580  0.74126825  1
  Ag  Ag10  1  0.50483657  -0.00366988  0.50021452  1
  Ag  Ag11  1  0.24013437  0.74541171  0.49702549  1
  Ag  Ag12  1  0.50767892  0.74671983  0.25890030  1
  Ag  Ag13  1  0.24242065  0.50225886  0.74147725  1
  Ag  Ag14  1  -0.00378613  -0.00608753  0.49995899  1
  Ag  Ag15  1  0.75736799  0.50082143  0.74067766  1
  Sb  Sb16  1  0.75070190  -0.00115077  0.74611102  1
  Sb  Sb17  1  0.75142524  -0.01206010  0.25499489  1
  Sb  Sb18  1  0.50321571  0.50396926  0.49983830  1
  Sb  Sb19  1  -0.00211286  -0.00256625  0.00013654  1
  Sb  Sb20  1  0.74995981  0.25645764  -0.00175284  1
  Sb  Sb21  1  0.50781703  0.25207074  0.26345882  1
  Sb  Sb22  1  0.24993001  0.25225559  -0.00000571  1
  Sb  Sb23  1  0.24758500  0.74787372  0.00186548  1
  Sb  Sb24  1  0.23849369  0.25877149  0.50029265  1
  Sb  Sb25  1  0.24785791  -0.00804483  0.25557134  1
  Sb  Sb26  1  -0.00199933  0.50279920  -0.00002576  1
  Sb  Sb27  1  0.50362015  -0.00329904  -0.00074733  1
  Sb  Sb28  1  0.50555399  0.74707212  0.73881870  1
  Sb  Sb29  1  0.24858442  -0.00574891  0.74494906  1
  Sb  Sb30  1  0.50227756  0.50277154  -0.00008538  1
  Sb  Sb31  1  -0.00475513  0.51021260  0.50016556  1
  Te  Te32  1  0.24340552  0.26509637  0.25077241  1
  Te  Te33  1  0.24344010  0.26294381  0.74805749  1
  Te  Te34  1  0.24520508  0.74247426  0.25134581  1
  Te  Te35  1  0.24738782  0.74170605  0.74909920  1
  Te  Te36  1  0.75228603  0.26119883  0.25037524  1
  Te  Te37  1  0.75657755  0.25706089  0.74914437  1
  Te  Te38  1  0.75485348  0.74496482  0.25881988  1
  Te  Te39  1  0.75091883  0.74365597  0.74131658  1
  Te  Te40  1  0.25093531  -0.00090295  -0.00045379  1
  Te  Te41  1  0.24760010  -0.01340093  0.50046870  1
  Te  Te42  1  0.25236542  0.50168606  -0.00093715  1
  Te  Te43  1  0.25507941  0.50813239  0.49996674  1
  Te  Te44  1  0.74959303  -0.01503137  -0.00103030  1
  Te  Te45  1  0.75230944  -0.00003429  0.50030114  1
  Te  Te46  1  0.74913529  0.50888877  0.00009492  1
  Te  Te47  1  0.74820277  0.50037745  0.50042125  1
  Te  Te48  1  -0.00251900  0.24373739  -0.00158916  1
  Te  Te49  1  -0.00157198  0.24180730  0.50128533  1
  Te  Te50  1  -0.00662164  0.75373652  0.00008535  1
  Te  Te51  1  -0.00351892  0.75086641  0.49965517  1
  Te  Te52  1  0.50186283  0.24477432  -0.01336640  1
  Te  Te53  1  0.50705014  0.23941947  0.50161181  1
  Te  Te54  1  0.50785840  0.75322829  0.01167760  1
  Te  Te55  1  0.50324741  0.75637492  0.49739563  1
  Te  Te56  1  0.00060725  0.00101264  0.25898410  1
  Te  Te57  1  0.00085331  0.00042136  0.74104856  1
  Te  Te58  1  -0.00165413  0.50200550  0.24963762  1
  Te  Te59  1  -0.00173730  0.49969757  0.75032826  1
  Te  Te60  1  0.49824465  -0.00411122  0.25863722  1
  Te  Te61  1  0.49877321  0.00761068  0.74156818  1
  Te  Te62  1  0.50054138  0.50474630  0.25075082  1
  Te  Te63  1  0.50049266  0.49502258  0.74920565  1
