# generated using pymatgen
data_AgSbTe2
_symmetry_space_group_name_H-M   'P 1'
_cell_length_a   12.26087363
_cell_length_b   12.25840974
_cell_length_c   12.26027740
_cell_angle_alpha   90.00131448
_cell_angle_beta   90.00379795
_cell_angle_gamma   89.99576417
_symmetry_Int_Tables_number   1
_chemical_formula_structural   AgSbTe2
_chemical_formula_sum   'Ag16 Sb16 Te32'
_cell_volume   1842.70512694
_cell_formula_units_Z   16
loop_
 _symmetry_equiv_pos_site_id
 _symmetry_equiv_pos_as_xyz
  1  'x, y, z'
loop_
 _atom_site_type_symbol
 _atom_site_label
 _atom_site_symmetry_multiplicity
 _atom_site_fract_x
 _atom_site_fract_y
 _atom_site_fract_z
 _atom_site_occupancy
  Ag  Ag0  1  0.25827567  -0.00299818  0.25256496  1
  Ag  Ag1  1  0.00697784  0.25183602  0.25383087  1
  Ag  Ag2  1  0.49418743  0.50398160  0.50205560  1
  Ag  Ag3  1  0.25757315  0.50251765  0.25639237  1
  Ag  Ag4  1  0.49335728  -0.00901250  -0.00784183  1
  Ag  Ag5  1  0.25314394  0.25034394  0.49687233  1
  Ag  Ag6  1  0.49184333  0.75534214  0.74993333  1
  Ag  Ag7  1  0.74116876  0.50721975  0.74593486  1
  Ag  Ag8  1  0.26289515  -0.01257060  0.74840440  1
  Ag  Ag9  1  0.25928114  0.51254156  0.74438049  1
  Ag  Ag10  1  0.00919155  0.74980952  0.75121443  1
  Ag  Ag11  1  0.49143236  0.74837356  0.25070645  1
  Ag  Ag12  1  0.74256672  0.50201169  0.25408736  1
  Ag  Ag13  1  0.49247932  -0.00479744  0.50740428  1
  Ag  Ag14  1  0.25720466  0.75332889  -0.00625079  1
  Ag  Ag15  1  0.73664796  -0.00778069  0.74830345  1
  Sb  Sb16  1  0.74705313  0.25104369  0.49819868  1
  Sb  Sb17  1  0.01101149  0.00003288  0.50069680  1
  Sb  Sb18  1  0.49698231  0.24472844  0.74868528  1
  Sb  Sb19  1  0.74587479  0.74765432  0.50279011  1
  Sb  Sb20  1  0.73820737  -0.00305125  0.25340677  1
  Sb  Sb21  1  0.49359144  0.25564997  0.25161209  1
  Sb  Sb22  1  0.74875267  0.24894287  0.00107641  1
  Sb  Sb23  1  0.00172189  0.50271056  -0.00059304  1
  Sb  Sb24  1  0.49680063  0.50912669  -0.00385972  1
  Sb  Sb25  1  0.25515137  0.74906719  0.50925292  1
  Sb  Sb26  1  0.01248185  0.74922999  0.24895690  1
  Sb  Sb27  1  0.00954131  0.49978769  0.50051521  1
  Sb  Sb28  1  0.25072542  0.24647187  0.00262953  1
  Sb  Sb29  1  0.74095101  0.75211876  -0.00278451  1
  Sb  Sb30  1  0.00373217  0.25108234  0.74624604  1
  Sb  Sb31  1  0.00709340  -0.00312008  -0.00136943  1
  Te  Te32  1  0.24831172  0.25203419  0.25104108  1
  Te  Te33  1  0.24518661  0.25193765  0.74654810  1
  Te  Te34  1  0.24967039  0.74914826  0.24607836  1
  Te  Te35  1  0.25649476  0.74978938  0.74873005  1
  Te  Te36  1  0.75929545  0.25880101  0.25103119  1
  Te  Te37  1  0.75683933  0.25513307  0.74984998  1
  Te  Te38  1  0.74612463  0.74283418  0.24707214  1
  Te  Te39  1  0.74488827  0.74698142  0.75223852  1
  Te  Te40  1  0.25486099  -0.00134706  -0.00119706  1
  Te  Te41  1  0.25641448  0.00265785  0.49974210  1
  Te  Te42  1  0.25329638  0.50372121  -0.00095507  1
  Te  Te43  1  0.25622607  0.49815460  0.49947025  1
  Te  Te44  1  0.73958409  -0.00044700  -0.00866716  1
  Te  Te45  1  0.73624068  0.00342629  0.50681749  1
  Te  Te46  1  0.74756794  0.50004800  -0.00324917  1
  Te  Te47  1  0.73774295  0.49824754  0.50332852  1
  Te  Te48  1  0.00062987  0.24832552  0.01360959  1
  Te  Te49  1  0.01210096  0.24990457  0.49218430  1
  Te  Te50  1  0.01538647  0.75113495  -0.01022799  1
  Te  Te51  1  -0.00275026  0.75075838  0.51234257  1
  Te  Te52  1  0.49820009  0.22977552  0.00263064  1
  Te  Te53  1  0.49033504  0.25147109  0.49902251  1
  Te  Te54  1  0.49229699  0.75672960  -0.00164733  1
  Te  Te55  1  0.49826036  0.74964685  0.49985203  1
  Te  Te56  1  0.00619585  -0.00092131  0.25044177  1
  Te  Te57  1  0.00095823  -0.00477716  0.74963876  1
  Te  Te58  1  0.00261623  0.50087605  0.25061420  1
  Te  Te59  1  -0.00064749  0.50448265  0.74864374  1
  Te  Te60  1  0.49899211  -0.00619905  0.25562786  1
  Te  Te61  1  0.49671634  -0.00020910  0.74488678  1
  Te  Te62  1  0.49574503  0.50367330  0.25026145  1
  Te  Te63  1  0.49832095  0.50258473  0.75078719  1
