# generated using pymatgen
data_AgSbTe2
_symmetry_space_group_name_H-M   'P 1'
_cell_length_a   12.31536186
_cell_length_b   12.32546240
_cell_length_c   12.33714049
_cell_angle_alpha   89.99298266
_cell_angle_beta   90.00693829
_cell_angle_gamma   90.00643325
_symmetry_Int_Tables_number   1
_chemical_formula_structural   AgSbTe2
_chemical_formula_sum   'Ag16 Sb16 Te32'
_cell_volume   1872.68572293
_cell_formula_units_Z   16
loop_
 _symmetry_equiv_pos_site_id
 _symmetry_equiv_pos_as_xyz
  1  'x, y, z'
loop_
 _atom_site_type_symbol
 _atom_site_label
 _atom_site_symmetry_multiplicity
 _atom_site_fract_x
 _atom_site_fract_y
 _atom_site_fract_z
 _atom_site_occupancy
  Ag  Ag0  1  -0.00782346  0.25938117  0.75266268  1
  Ag  Ag1  1  0.76345344  0.49651682  0.73259397  1
  Ag  Ag2  1  -0.01300767  0.50178037  0.51210260  1
  Ag  Ag3  1  0.75793851  0.26886711  -0.01294815  1
  Ag  Ag4  1  -0.00694755  -0.00511044  -0.00829826  1
  Ag  Ag5  1  0.52254509  0.50116263  0.50273405  1
  Ag  Ag6  1  0.23668331  0.73896467  -0.00426672  1
  Ag  Ag7  1  -0.01453325  0.50231059  -0.01070229  1
  Ag  Ag8  1  0.75749055  0.00241603  0.75430841  1
  Ag  Ag9  1  0.24320456  0.73983340  0.50457523  1
  Ag  Ag10  1  0.75453867  0.27120417  0.51301982  1
  Ag  Ag11  1  0.75683610  0.50055504  0.26953663  1
  Ag  Ag12  1  0.24053806  0.50351924  0.25767097  1
  Ag  Ag13  1  0.75478464  0.73345189  0.50913196  1
  Ag  Ag14  1  0.23518236  0.50425250  0.74244761  1
  Ag  Ag15  1  0.76259074  0.73552086  -0.00998017  1
  Sb  Sb16  1  0.50243521  0.74822116  0.75034373  1
  Sb  Sb17  1  0.50842927  0.49964892  -0.00443122  1
  Sb  Sb18  1  0.50975567  0.25450299  0.74966891  1
  Sb  Sb19  1  0.50590382  -0.00157391  -0.00345650  1
  Sb  Sb20  1  0.50394473  0.25823936  0.25094091  1
  Sb  Sb21  1  0.24306603  0.26565989  0.50302490  1
  Sb  Sb22  1  -0.00314326  -0.00138234  0.50790895  1
  Sb  Sb23  1  0.24473146  -0.00841887  0.24765873  1
  Sb  Sb24  1  0.23858471  0.26517032  -0.00316668  1
  Sb  Sb25  1  0.50106751  0.74535024  0.25028421  1
  Sb  Sb26  1  0.50317882  -0.00132969  0.50308079  1
  Sb  Sb27  1  0.75185744  -0.00197391  0.24879622  1
  Sb  Sb28  1  0.23847996  -0.00462213  0.75340411  1
  Sb  Sb29  1  -0.00186040  0.25556234  0.24930607  1
  Sb  Sb30  1  -0.00288770  0.74093568  0.75108710  1
  Sb  Sb31  1  -0.00076524  0.74551800  0.24845737  1
  Te  Te32  1  0.25171093  0.25860474  0.24964966  1
  Te  Te33  1  0.24342392  0.25207180  0.75065962  1
  Te  Te34  1  0.24960315  0.74394399  0.24913872  1
  Te  Te35  1  0.25080032  0.74626463  0.75057557  1
  Te  Te36  1  0.74992734  0.25376548  0.25129409  1
  Te  Te37  1  0.75196310  0.25844567  0.75054373  1
  Te  Te38  1  0.74974859  0.74552236  0.25078720  1
  Te  Te39  1  0.75162950  0.74383039  0.75109087  1
  Te  Te40  1  0.24757530  -0.01099631  -0.00013408  1
  Te  Te41  1  0.25060226  -0.01629323  0.49896891  1
  Te  Te42  1  0.25633577  0.50207734  -0.00214094  1
  Te  Te43  1  0.23849703  0.50177357  0.50213306  1
  Te  Te44  1  0.75205134  -0.00910339  0.00016889  1
  Te  Te45  1  0.75186479  -0.00737460  0.49983516  1
  Te  Te46  1  0.74775852  0.50382410  -0.00314021  1
  Te  Te47  1  0.75332894  0.50128787  0.49850298  1
  Te  Te48  1  -0.00351344  0.26311715  -0.00016005  1
  Te  Te49  1  -0.00294410  0.24770444  0.50222226  1
  Te  Te50  1  -0.00202149  0.73993373  -0.00040676  1
  Te  Te51  1  -0.00285727  0.74904642  0.50021588  1
  Te  Te52  1  0.51555068  0.24738999  0.00036982  1
  Te  Te53  1  0.50825224  0.25032270  0.50023144  1
  Te  Te54  1  0.49856617  0.75024469  -0.00016063  1
  Te  Te55  1  0.50433620  0.74755109  0.50017815  1
  Te  Te56  1  0.00222732  0.00284260  0.23245275  1
  Te  Te57  1  -0.00578937  0.01310305  0.75520799  1
  Te  Te58  1  -0.00224122  0.50156036  0.24869128  1
  Te  Te59  1  -0.00111391  0.49991621  0.75184694  1
  Te  Te60  1  0.49661710  0.00245081  0.24960142  1
  Te  Te61  1  0.51441811  0.00207171  0.74971184  1
  Te  Te62  1  0.50217661  0.50127391  0.25939303  1
  Te  Te63  1  0.49526344  0.49969261  0.74517542  1
