# generated using pymatgen
data_AgSbTe2
_symmetry_space_group_name_H-M   'P 1'
_cell_length_a   12.21038616
_cell_length_b   12.21069137
_cell_length_c   12.21050507
_cell_angle_alpha   90.00002450
_cell_angle_beta   90.00009606
_cell_angle_gamma   90.00262232
_symmetry_Int_Tables_number   1
_chemical_formula_structural   AgSbTe2
_chemical_formula_sum   'Ag16 Sb16 Te32'
_cell_volume   1820.55280888
_cell_formula_units_Z   16
loop_
 _symmetry_equiv_pos_site_id
 _symmetry_equiv_pos_as_xyz
  1  'x, y, z'
loop_
 _atom_site_type_symbol
 _atom_site_label
 _atom_site_symmetry_multiplicity
 _atom_site_fract_x
 _atom_site_fract_y
 _atom_site_fract_z
 _atom_site_occupancy
  Ag  Ag0  1  0.75107591  0.50188018  0.24629832  1
  Ag  Ag1  1  0.25646351  0.74778107  0.00204541  1
  Ag  Ag2  1  0.74870915  0.25327461  -0.00110128  1
  Ag  Ag3  1  0.00086594  0.25135217  0.74749616  1
  Ag  Ag4  1  0.49735348  0.74933742  0.24668176  1
  Ag  Ag5  1  0.25265273  0.74930764  0.49788142  1
  Ag  Ag6  1  0.49620582  -0.00183742  0.50255237  1
  Ag  Ag7  1  0.49975652  -0.00545500  -0.00204990  1
  Ag  Ag8  1  -0.00141021  0.50012882  0.00151345  1
  Ag  Ag9  1  0.24910972  0.50383913  0.25158157  1
  Ag  Ag10  1  0.49824734  0.75278840  0.75372483  1
  Ag  Ag11  1  0.24848398  0.25047039  0.50112795  1
  Ag  Ag12  1  0.00405873  0.00151488  0.50178465  1
  Ag  Ag13  1  0.49926627  0.24758885  0.75042560  1
  Ag  Ag14  1  0.00395091  0.49827829  0.49869330  1
  Ag  Ag15  1  0.74421251  0.74690789  0.00170802  1
  Sb  Sb16  1  0.49973563  0.25004163  0.24901993  1
  Sb  Sb17  1  0.50148575  0.50705148  0.00112067  1
  Sb  Sb18  1  0.25279462  -0.00043422  0.74724500  1
  Sb  Sb19  1  0.24900648  0.50056490  0.74861697  1
  Sb  Sb20  1  0.00325869  0.74574401  0.25035377  1
  Sb  Sb21  1  0.00017312  0.25340270  0.25310826  1
  Sb  Sb22  1  0.25171517  -0.00510839  0.25274538  1
  Sb  Sb23  1  0.74788593  -0.00298433  0.24876869  1
  Sb  Sb24  1  0.25194181  0.25350059  -0.00107942  1
  Sb  Sb25  1  0.74634757  0.74717353  0.49791184  1
  Sb  Sb26  1  0.00139309  0.74998222  0.74916988  1
  Sb  Sb27  1  0.75133114  0.50017394  0.75486156  1
  Sb  Sb28  1  0.00050729  0.00079973  -0.00252660  1
  Sb  Sb29  1  0.74688047  -0.00027255  0.75063874  1
  Sb  Sb30  1  0.75035681  0.25265916  0.50170044  1
  Sb  Sb31  1  0.49424996  0.50140030  0.49853954  1
  Te  Te32  1  0.25140517  0.25916630  0.25610098  1
  Te  Te33  1  0.25139002  0.25122252  0.74516025  1
  Te  Te34  1  0.25319524  0.74549502  0.25098395  1
  Te  Te35  1  0.25543682  0.74899123  0.74983969  1
  Te  Te36  1  0.74877891  0.25757397  0.24227860  1
  Te  Te37  1  0.74812074  0.25129216  0.75550488  1
  Te  Te38  1  0.74447508  0.74521681  0.24572696  1
  Te  Te39  1  0.74301367  0.74852893  0.75651170  1
  Te  Te40  1  0.25395454  -0.00599410  0.00314443  1
  Te  Te41  1  0.25124409  -0.00087282  0.49763846  1
  Te  Te42  1  0.24441088  0.50319071  0.00529253  1
  Te  Te43  1  0.24629824  0.50136033  0.49635070  1
  Te  Te44  1  0.74722821  -0.00070922  0.00181727  1
  Te  Te45  1  0.74930843  -0.00029276  0.49776135  1
  Te  Te46  1  0.75366910  0.50061899  0.00369934  1
  Te  Te47  1  0.75949862  0.50043447  0.49167075  1
  Te  Te48  1  -0.00102842  0.25074528  -0.00519310  1
  Te  Te49  1  0.00137637  0.25097853  0.50334941  1
  Te  Te50  1  0.00010007  0.74813293  -0.00189129  1
  Te  Te51  1  0.00479308  0.74967070  0.50212119  1
  Te  Te52  1  0.50057713  0.24474006  -0.00348094  1
  Te  Te53  1  0.49852825  0.24582935  0.50364934  1
  Te  Te54  1  0.49894514  0.75039231  -0.00107349  1
  Te  Te55  1  0.49733313  0.75268786  0.50103697  1
  Te  Te56  1  -0.00054104  0.00055769  0.25876120  1
  Te  Te57  1  -0.00069549  0.00628091  0.74369732  1
  Te  Te58  1  0.00025931  0.50072242  0.24970179  1
  Te  Te59  1  -0.00053714  0.49545879  0.74946538  1
  Te  Te60  1  0.50058251  -0.00567509  0.25047285  1
  Te  Te61  1  0.50051315  0.00006103  0.74923303  1
  Te  Te62  1  0.49952829  0.50517741  0.25099988  1
  Te  Te63  1  0.50077203  0.49816526  0.74911033  1
