# generated using pymatgen
data_AgSbTe2
_symmetry_space_group_name_H-M   'P 1'
_cell_length_a   12.21688147
_cell_length_b   12.23084182
_cell_length_c   12.22533303
_cell_angle_alpha   89.99966227
_cell_angle_beta   89.99222884
_cell_angle_gamma   89.99530697
_symmetry_Int_Tables_number   1
_chemical_formula_structural   AgSbTe2
_chemical_formula_sum   'Ag16 Sb16 Te32'
_cell_volume   1826.74279349
_cell_formula_units_Z   16
loop_
 _symmetry_equiv_pos_site_id
 _symmetry_equiv_pos_as_xyz
  1  'x, y, z'
loop_
 _atom_site_type_symbol
 _atom_site_label
 _atom_site_symmetry_multiplicity
 _atom_site_fract_x
 _atom_site_fract_y
 _atom_site_fract_z
 _atom_site_occupancy
  Ag  Ag0  1  0.74929533  0.50304302  0.74415575  1
  Ag  Ag1  1  0.50134878  0.74946585  0.25137863  1
  Ag  Ag2  1  0.24763788  0.25179730  0.49391537  1
  Ag  Ag3  1  0.74466353  0.74710270  0.00217291  1
  Ag  Ag4  1  -0.00392783  0.50041663  0.49777208  1
  Ag  Ag5  1  0.25247994  0.00038919  0.25369385  1
  Ag  Ag6  1  0.50043919  -0.00188514  0.00259882  1
  Ag  Ag7  1  0.75243594  0.25812230  0.49714401  1
  Ag  Ag8  1  0.00144444  -0.00063034  0.49710927  1
  Ag  Ag9  1  0.25077591  0.74813594  0.49512503  1
  Ag  Ag10  1  0.50379079  0.74945578  0.74813607  1
  Ag  Ag11  1  0.74953495  0.50237431  0.25572490  1
  Ag  Ag12  1  0.74888693  0.74231713  0.49813257  1
  Ag  Ag13  1  0.74702752  0.25307224  0.00277546  1
  Ag  Ag14  1  0.25098926  0.50002590  0.25574269  1
  Ag  Ag15  1  0.25301734  0.24982209  0.00541738  1
  Sb  Sb16  1  -0.00227281  0.49983560  0.00245653  1
  Sb  Sb17  1  -0.00181647  0.74924993  0.25364881  1
  Sb  Sb18  1  0.49834297  -0.00393107  0.49671606  1
  Sb  Sb19  1  0.74791245  -0.00338468  0.74916846  1
  Sb  Sb20  1  0.25615265  0.74996197  0.00648781  1
  Sb  Sb21  1  0.00097509  0.25053422  0.25292154  1
  Sb  Sb22  1  0.49824273  0.25060893  0.24923896  1
  Sb  Sb23  1  0.00040545  0.00025486  0.00421390  1
  Sb  Sb24  1  -0.00407003  0.74802403  0.74606294  1
  Sb  Sb25  1  0.50193155  0.50211105  0.00157664  1
  Sb  Sb26  1  0.74682203  -0.00212297  0.25172903  1
  Sb  Sb27  1  -0.00219170  0.25158914  0.74706826  1
  Sb  Sb28  1  0.50541541  0.50284988  0.49856325  1
  Sb  Sb29  1  0.50267508  0.25080684  0.75034961  1
  Sb  Sb30  1  0.25075097  0.50161798  0.74337841  1
  Sb  Sb31  1  0.25207617  -0.00098025  0.74689878  1
  Te  Te32  1  0.25210443  0.25268189  0.25250302  1
  Te  Te33  1  0.25211459  0.25118904  0.74974195  1
  Te  Te34  1  0.25355850  0.74700753  0.25211328  1
  Te  Te35  1  0.25718363  0.74806675  0.74412598  1
  Te  Te36  1  0.74793114  0.25391771  0.25045881  1
  Te  Te37  1  0.74769109  0.25606211  0.74979306  1
  Te  Te38  1  0.74695327  0.74833298  0.25214657  1
  Te  Te39  1  0.74623788  0.74711869  0.74744496  1
  Te  Te40  1  0.25029385  0.00327748  0.00383773  1
  Te  Te41  1  0.24890154  0.00099135  0.49711131  1
  Te  Te42  1  0.24756385  0.49460707  0.00528290  1
  Te  Te43  1  0.24715300  0.49900445  0.49814900  1
  Te  Te44  1  0.74971705  0.00278371  0.00069712  1
  Te  Te45  1  0.75319911  0.00141480  0.49841185  1
  Te  Te46  1  0.75213958  0.49782947  0.00366177  1
  Te  Te47  1  0.74999853  0.49968717  0.49636291  1
  Te  Te48  1  -0.00198388  0.24839405  -0.00182024  1
  Te  Te49  1  -0.00076607  0.25079855  0.50037566  1
  Te  Te50  1  -0.01083518  0.75156782  -0.00251498  1
  Te  Te51  1  -0.00075666  0.74911789  0.50051791  1
  Te  Te52  1  0.50163689  0.24445479  -0.00030436  1
  Te  Te53  1  0.50020441  0.24701044  0.50092872  1
  Te  Te54  1  0.50330545  0.75265444  0.00188720  1
  Te  Te55  1  0.50127878  0.75218396  0.49854941  1
  Te  Te56  1  0.00944640  -0.00033265  0.25652292  1
  Te  Te57  1  0.00019597  -0.00069026  0.73931668  1
  Te  Te58  1  -0.00031371  0.49999976  0.25619895  1
  Te  Te59  1  -0.00686950  0.50059023  0.74166605  1
  Te  Te60  1  0.49542559  -0.00625972  0.24573861  1
  Te  Te61  1  0.50013624  -0.00746825  0.75896458  1
  Te  Te62  1  0.49944668  0.50691350  0.24935036  1
  Te  Te63  1  0.50651610  0.50704292  0.75130656  1
