# generated using pymatgen
data_AgSbTe2
_symmetry_space_group_name_H-M   'P 1'
_cell_length_a   12.29521470
_cell_length_b   12.30953502
_cell_length_c   12.28130499
_cell_angle_alpha   89.99988307
_cell_angle_beta   90.02199587
_cell_angle_gamma   89.99902656
_symmetry_Int_Tables_number   1
_chemical_formula_structural   AgSbTe2
_chemical_formula_sum   'Ag16 Sb16 Te32'
_cell_volume   1858.75542756
_cell_formula_units_Z   16
loop_
 _symmetry_equiv_pos_site_id
 _symmetry_equiv_pos_as_xyz
  1  'x, y, z'
loop_
 _atom_site_type_symbol
 _atom_site_label
 _atom_site_symmetry_multiplicity
 _atom_site_fract_x
 _atom_site_fract_y
 _atom_site_fract_z
 _atom_site_occupancy
  Ag  Ag0  1  0.50057776  -0.00680884  0.48547708  1
  Ag  Ag1  1  0.26152936  0.00180157  0.24549500  1
  Ag  Ag2  1  0.49736067  0.00726179  0.01596283  1
  Ag  Ag3  1  0.26638695  0.74767195  0.48957929  1
  Ag  Ag4  1  0.51110082  0.50577263  0.49041263  1
  Ag  Ag5  1  0.74721696  0.49796890  0.74510757  1
  Ag  Ag6  1  0.73678688  0.49522377  0.25525092  1
  Ag  Ag7  1  0.25537430  0.24699620  0.01017646  1
  Ag  Ag8  1  0.49824418  0.74901434  0.25864529  1
  Ag  Ag9  1  0.50181646  0.24995752  0.24973098  1
  Ag  Ag10  1  0.73521445  0.73912100  0.49344129  1
  Ag  Ag11  1  0.74621924  0.25512730  0.00877886  1
  Ag  Ag12  1  0.26310796  0.49921303  0.25106021  1
  Ag  Ag13  1  -0.00025778  0.00721391  0.00607871  1
  Ag  Ag14  1  -0.00499090  0.49131591  0.00536941  1
  Ag  Ag15  1  0.73900918  0.26187961  0.48861191  1
  Sb  Sb16  1  0.26286476  0.25167249  0.48774280  1
  Sb  Sb17  1  0.25393356  0.50011548  0.75001574  1
  Sb  Sb18  1  -0.00275421  0.74961830  0.24975548  1
  Sb  Sb19  1  -0.00414058  0.50022941  0.49449107  1
  Sb  Sb20  1  -0.00512037  0.24999945  0.24885937  1
  Sb  Sb21  1  -0.00160466  0.25158926  0.75230223  1
  Sb  Sb22  1  0.50118743  0.49180933  0.01064218  1
  Sb  Sb23  1  0.25197016  -0.00055879  0.75239914  1
  Sb  Sb24  1  0.74542529  0.74564163  0.00756165  1
  Sb  Sb25  1  0.50030166  0.25090821  0.75141118  1
  Sb  Sb26  1  -0.00172838  0.74753652  0.75065148  1
  Sb  Sb27  1  0.50159020  0.74943772  0.74195556  1
  Sb  Sb28  1  0.25441324  0.75038007  0.00936759  1
  Sb  Sb29  1  0.74876395  0.00010235  0.75046187  1
  Sb  Sb30  1  0.74056960  0.00449715  0.24886756  1
  Sb  Sb31  1  0.00033478  0.00088090  0.49061084  1
  Te  Te32  1  0.25546500  0.25341808  0.24568809  1
  Te  Te33  1  0.24957614  0.25032221  0.76881952  1
  Te  Te34  1  0.25353001  0.74509614  0.25325087  1
  Te  Te35  1  0.24960390  0.74884032  0.73125452  1
  Te  Te36  1  0.74633126  0.25109431  0.24744233  1
  Te  Te37  1  0.74864268  0.25513477  0.75353996  1
  Te  Te38  1  0.74692849  0.74494830  0.25309504  1
  Te  Te39  1  0.74913303  0.74262296  0.73962097  1
  Te  Te40  1  0.25559752  -0.00199680  0.00101499  1
  Te  Te41  1  0.25081557  0.00509625  0.49903776  1
  Te  Te42  1  0.25245537  0.50206568  0.00115011  1
  Te  Te43  1  0.24569697  0.49581444  0.49765306  1
  Te  Te44  1  0.74890288  0.00408796  0.00048979  1
  Te  Te45  1  0.74960698  0.00020607  0.49947849  1
  Te  Te46  1  0.74625279  0.49879879  0.00719051  1
  Te  Te47  1  0.75194434  0.49812534  0.49175956  1
  Te  Te48  1  -0.00598191  0.25053695  0.00265629  1
  Te  Te49  1  -0.01733739  0.24722264  0.50106247  1
  Te  Te50  1  -0.00114808  0.75262185  0.00044799  1
  Te  Te51  1  -0.00296410  0.75171241  0.50003549  1
  Te  Te52  1  0.50386758  0.24845569  0.00347864  1
  Te  Te53  1  0.50348881  0.24895888  0.49612409  1
  Te  Te54  1  0.50123358  0.76282624  0.00959149  1
  Te  Te55  1  0.50213478  0.75129334  0.49537778  1
  Te  Te56  1  0.01753545  0.00023438  0.24423760  1
  Te  Te57  1  0.00037576  -0.00089783  0.76647643  1
  Te  Te58  1  0.00308220  0.49877105  0.24561478  1
  Te  Te59  1  -0.00617249  0.50070327  0.76100377  1
  Te  Te60  1  0.49815105  0.00265967  0.25306349  1
  Te  Te61  1  0.50029236  0.00005537  0.74788280  1
  Te  Te62  1  0.49829576  0.49795567  0.25248162  1
  Te  Te63  1  0.50396080  0.50062552  0.73370553  1
