# generated using pymatgen
data_AgSbTe2
_symmetry_space_group_name_H-M   'P 1'
_cell_length_a   12.22998289
_cell_length_b   12.22393902
_cell_length_c   12.22110787
_cell_angle_alpha   90.01066865
_cell_angle_beta   89.99994830
_cell_angle_gamma   90.00165613
_symmetry_Int_Tables_number   1
_chemical_formula_structural   AgSbTe2
_chemical_formula_sum   'Ag16 Sb16 Te32'
_cell_volume   1827.03805771
_cell_formula_units_Z   16
loop_
 _symmetry_equiv_pos_site_id
 _symmetry_equiv_pos_as_xyz
  1  'x, y, z'
loop_
 _atom_site_type_symbol
 _atom_site_label
 _atom_site_symmetry_multiplicity
 _atom_site_fract_x
 _atom_site_fract_y
 _atom_site_fract_z
 _atom_site_occupancy
  Ag  Ag0  1  -0.00562810  0.00793392  -0.00174028  1
  Ag  Ag1  1  -0.00535114  0.49192125  0.00107710  1
  Ag  Ag2  1  0.75035267  -0.00200342  0.25525150  1
  Ag  Ag3  1  0.25236429  0.74995270  0.49767895  1
  Ag  Ag4  1  0.75670104  0.25120509  -0.00003200  1
  Ag  Ag5  1  0.74816056  0.50175481  0.25175522  1
  Ag  Ag6  1  0.75410117  0.00167381  0.74538834  1
  Ag  Ag7  1  0.50511226  0.74785857  0.25646670  1
  Ag  Ag8  1  0.50556877  0.49905996  0.00441575  1
  Ag  Ag9  1  -0.00298114  0.24780957  0.75489212  1
  Ag  Ag10  1  0.50900245  -0.00698377  0.49748475  1
  Ag  Ag11  1  -0.00902934  -0.00162672  0.50116100  1
  Ag  Ag12  1  -0.00646123  0.50172240  0.49818825  1
  Ag  Ag13  1  0.50660752  0.50685332  0.49522955  1
  Ag  Ag14  1  0.74693375  0.75286504  0.49593370  1
  Ag  Ag15  1  0.24273430  0.25106723  -0.00125155  1
  Sb  Sb16  1  -0.00291730  0.25010183  0.24419505  1
  Sb  Sb17  1  -0.00324019  0.75274774  0.74772858  1
  Sb  Sb18  1  0.50310592  0.75050222  0.74309383  1
  Sb  Sb19  1  -0.00500864  0.74975473  0.25336948  1
  Sb  Sb20  1  0.24642737  0.25032323  0.50093221  1
  Sb  Sb21  1  0.24609740  0.00185464  0.74941992  1
  Sb  Sb22  1  0.25035398  0.74968589  0.00241622  1
  Sb  Sb23  1  0.50339959  0.25253115  0.24986042  1
  Sb  Sb24  1  0.74969706  0.74881383  0.00380245  1
  Sb  Sb25  1  0.50578455  0.00066184  0.00264406  1
  Sb  Sb26  1  0.24864730  0.49890434  0.74990416  1
  Sb  Sb27  1  0.25206215  0.50166972  0.25073941  1
  Sb  Sb28  1  0.75225263  0.49868400  0.74874785  1
  Sb  Sb29  1  0.50420039  0.24873875  0.75055742  1
  Sb  Sb30  1  0.24955666  -0.00183497  0.25142116  1
  Sb  Sb31  1  0.75263312  0.24738959  0.50000878  1
  Te  Te32  1  0.25132287  0.24962511  0.24048063  1
  Te  Te33  1  0.24254303  0.24939278  0.75715373  1
  Te  Te34  1  0.25931972  0.75042742  0.25716184  1
  Te  Te35  1  0.25078542  0.75067655  0.74004031  1
  Te  Te36  1  0.74958931  0.25035766  0.24253293  1
  Te  Te37  1  0.75410315  0.24468620  0.75684062  1
  Te  Te38  1  0.74644073  0.74927692  0.25423841  1
  Te  Te39  1  0.74984123  0.75851651  0.74099442  1
  Te  Te40  1  0.24420177  0.00253920  0.00008929  1
  Te  Te41  1  0.24836649  -0.00214890  0.49936446  1
  Te  Te42  1  0.24739482  0.49779796  0.00039922  1
  Te  Te43  1  0.24832955  0.50253141  0.49937294  1
  Te  Te44  1  0.75217679  -0.00134897  0.00218160  1
  Te  Te45  1  0.75193147  0.00381844  0.49675182  1
  Te  Te46  1  0.75174984  0.50110665  0.00012737  1
  Te  Te47  1  0.75111604  0.49760923  0.49905768  1
  Te  Te48  1  -0.00265679  0.25083838  -0.00088995  1
  Te  Te49  1  0.00242242  0.25075938  0.50563950  1
  Te  Te50  1  0.00258783  0.74831793  0.00006396  1
  Te  Te51  1  -0.00197575  0.74913889  0.49916966  1
  Te  Te52  1  0.50145672  0.25451781  -0.00110999  1
  Te  Te53  1  0.49701102  0.25236116  0.50185673  1
  Te  Te54  1  0.49744059  0.74376799  0.00590418  1
  Te  Te55  1  0.50370275  0.74858128  0.49844523  1
  Te  Te56  1  -0.00553432  -0.00028812  0.25184399  1
  Te  Te57  1  -0.00326946  0.00200787  0.74941299  1
  Te  Te58  1  -0.00604048  0.50011543  0.25150203  1
  Te  Te59  1  -0.00136622  0.49521942  0.75033862  1
  Te  Te60  1  0.50491387  -0.00340795  0.25374719  1
  Te  Te61  1  0.50650593  0.00062469  0.74484128  1
  Te  Te62  1  0.50385139  0.50143070  0.25217086  1
  Te  Te63  1  0.50049842  0.49955870  0.74953634  1
