# generated using pymatgen
data_AgSbTe2
_symmetry_space_group_name_H-M   'P 1'
_cell_length_a   12.22214652
_cell_length_b   12.21724643
_cell_length_c   12.22024667
_cell_angle_alpha   89.99415500
_cell_angle_beta   90.00032152
_cell_angle_gamma   89.99514849
_symmetry_Int_Tables_number   1
_chemical_formula_structural   AgSbTe2
_chemical_formula_sum   'Ag16 Sb16 Te32'
_cell_volume   1824.73914349
_cell_formula_units_Z   16
loop_
 _symmetry_equiv_pos_site_id
 _symmetry_equiv_pos_as_xyz
  1  'x, y, z'
loop_
 _atom_site_type_symbol
 _atom_site_label
 _atom_site_symmetry_multiplicity
 _atom_site_fract_x
 _atom_site_fract_y
 _atom_site_fract_z
 _atom_site_occupancy
  Ag  Ag0  1  -0.00506051  -0.00062355  0.50141224  1
  Ag  Ag1  1  -0.00459655  -0.00002497  -0.00172808  1
  Ag  Ag2  1  0.75186030  0.49561106  0.24136253  1
  Ag  Ag3  1  0.50578975  0.00193151  0.49822725  1
  Ag  Ag4  1  0.75117646  0.25445572  0.00303914  1
  Ag  Ag5  1  0.75136367  0.00409429  0.24783235  1
  Ag  Ag6  1  0.75470656  0.00059089  0.75210953  1
  Ag  Ag7  1  0.75452602  0.49924554  0.75795446  1
  Ag  Ag8  1  -0.00228939  0.49961747  0.00072896  1
  Ag  Ag9  1  -0.00187088  0.74956791  0.75374822  1
  Ag  Ag10  1  0.24544410  0.74464536  0.00061834  1
  Ag  Ag11  1  0.24892271  0.25585647  0.00345903  1
  Ag  Ag12  1  0.50317809  0.25167222  0.24573867  1
  Ag  Ag13  1  0.24786500  0.49753502  0.24247822  1
  Ag  Ag14  1  -0.00273939  0.50064573  0.49958376  1
  Ag  Ag15  1  0.50230397  0.49649947  0.00344201  1
  Sb  Sb16  1  0.50336638  0.49843537  0.49654674  1
  Sb  Sb17  1  0.50173372  0.74978224  0.75336077  1
  Sb  Sb18  1  0.24933244  0.25214501  0.49497445  1
  Sb  Sb19  1  0.50721575  0.00313478  0.00140025  1
  Sb  Sb20  1  0.24414537  -0.00074522  0.75201652  1
  Sb  Sb21  1  0.49957853  0.74861749  0.24691003  1
  Sb  Sb22  1  0.50348435  0.25016737  0.75493334  1
  Sb  Sb23  1  0.24307112  0.50102082  0.75949161  1
  Sb  Sb24  1  0.75495106  0.74386122  -0.00087663  1
  Sb  Sb25  1  0.75281218  0.75172896  0.50069925  1
  Sb  Sb26  1  0.00060300  0.74835281  0.24514944  1
  Sb  Sb27  1  0.24605694  0.74792550  0.49919478  1
  Sb  Sb28  1  0.74994013  0.24806954  0.49489821  1
  Sb  Sb29  1  0.24843570  0.00362085  0.24676330  1
  Sb  Sb30  1  -0.00404880  0.25183133  0.24556679  1
  Sb  Sb31  1  -0.00319725  0.25039306  0.75348434  1
  Te  Te32  1  0.25633058  0.25416838  0.24449684  1
  Te  Te33  1  0.25249160  0.25010632  0.76043636  1
  Te  Te34  1  0.25037171  0.74267864  0.24341198  1
  Te  Te35  1  0.24340451  0.74978852  0.75644613  1
  Te  Te36  1  0.74701161  0.25087232  0.24526489  1
  Te  Te37  1  0.74881822  0.24997310  0.75865891  1
  Te  Te38  1  0.74957310  0.75021123  0.25003382  1
  Te  Te39  1  0.75528553  0.75064576  0.75025122  1
  Te  Te40  1  0.24425150  0.00189357  0.00107710  1
  Te  Te41  1  0.24511065  0.00033662  0.49980757  1
  Te  Te42  1  0.24724943  0.49743979  0.00137146  1
  Te  Te43  1  0.24494070  0.49924667  0.49268148  1
  Te  Te44  1  0.75176946  0.00194511  0.00080503  1
  Te  Te45  1  0.75450084  0.00126166  0.49942727  1
  Te  Te46  1  0.75258883  0.50058451  0.00152076  1
  Te  Te47  1  0.75478751  0.49879697  0.49909553  1
  Te  Te48  1  -0.00145921  0.25025196  0.00067304  1
  Te  Te49  1  0.00144832  0.24887551  0.50063651  1
  Te  Te50  1  0.00365056  0.75004967  -0.00354599  1
  Te  Te51  1  0.00177929  0.75093160  0.50752824  1
  Te  Te52  1  0.50154425  0.25329690  0.00372811  1
  Te  Te53  1  0.49873301  0.24477798  0.49268776  1
  Te  Te54  1  0.48984810  0.74329452  -0.00090757  1
  Te  Te55  1  0.49728094  0.75844749  0.50104339  1
  Te  Te56  1  -0.00420818  -0.00119964  0.25047272  1
  Te  Te57  1  -0.00416869  -0.00164601  0.75065990  1
  Te  Te58  1  -0.00276821  0.50062134  0.24878320  1
  Te  Te59  1  -0.00374937  0.50175934  0.75086448  1
  Te  Te60  1  0.50413481  0.00269675  0.25217002  1
  Te  Te61  1  0.50878122  -0.00072075  0.74513589  1
  Te  Te62  1  0.50340005  0.49803563  0.24941445  1
  Te  Te63  1  0.50920679  0.50091727  0.75134968  1
