# generated using pymatgen
data_AgSbTe2
_symmetry_space_group_name_H-M   'P 1'
_cell_length_a   12.23092771
_cell_length_b   12.22631107
_cell_length_c   12.21667044
_cell_angle_alpha   89.99391401
_cell_angle_beta   89.99215402
_cell_angle_gamma   90.00031263
_symmetry_Int_Tables_number   1
_chemical_formula_structural   AgSbTe2
_chemical_formula_sum   'Ag16 Sb16 Te32'
_cell_volume   1826.87020387
_cell_formula_units_Z   16
loop_
 _symmetry_equiv_pos_site_id
 _symmetry_equiv_pos_as_xyz
  1  'x, y, z'
loop_
 _atom_site_type_symbol
 _atom_site_label
 _atom_site_symmetry_multiplicity
 _atom_site_fract_x
 _atom_site_fract_y
 _atom_site_fract_z
 _atom_site_occupancy
  Ag  Ag0  1  0.50641067  -0.00359397  0.50412865  1
  Ag  Ag1  1  0.75138493  0.50671120  0.26112884  1
  Ag  Ag2  1  0.74733323  -0.00231839  0.74450987  1
  Ag  Ag3  1  0.24823696  0.75191861  -0.00093890  1
  Ag  Ag4  1  0.75238662  -0.00593146  0.25540906  1
  Ag  Ag5  1  -0.00350738  0.25246910  0.74858351  1
  Ag  Ag6  1  0.74765968  0.74556895  0.50117554  1
  Ag  Ag7  1  -0.00072369  -0.00306338  0.00123563  1
  Ag  Ag8  1  0.24734129  -0.00508316  0.24984489  1
  Ag  Ag9  1  0.50426543  0.74682726  0.74484682  1
  Ag  Ag10  1  0.25288805  0.50200026  0.74714921  1
  Ag  Ag11  1  -0.00426255  0.75266797  0.25132721  1
  Ag  Ag12  1  -0.00963701  0.50301292  0.50381945  1
  Ag  Ag13  1  0.74657057  0.50260520  0.73965632  1
  Ag  Ag14  1  0.50853154  0.50382459  0.50767423  1
  Ag  Ag15  1  0.50317000  0.25324513  0.74582870  1
  Sb  Sb16  1  0.74993492  0.25510727  0.50326062  1
  Sb  Sb17  1  0.25215261  0.75028526  0.50106876  1
  Sb  Sb18  1  -0.00316725  0.74871065  0.74830845  1
  Sb  Sb19  1  0.50226511  0.25004990  0.25439975  1
  Sb  Sb20  1  0.50385102  0.75032591  0.25413709  1
  Sb  Sb21  1  0.50050600  0.50246402  -0.00869723  1
  Sb  Sb22  1  0.25125749  -0.00140929  0.74936087  1
  Sb  Sb23  1  0.25037584  0.24984639  0.50227058  1
  Sb  Sb24  1  0.25005767  0.50447600  0.25222012  1
  Sb  Sb25  1  0.50096140  -0.00220178  -0.00254036  1
  Sb  Sb26  1  -0.00719974  -0.00253079  0.49963226  1
  Sb  Sb27  1  -0.00058707  0.50241694  -0.00295806  1
  Sb  Sb28  1  -0.00219343  0.24929489  0.25174975  1
  Sb  Sb29  1  0.75122919  0.24858959  -0.00384290  1
  Sb  Sb30  1  0.75082342  0.75144397  -0.00116178  1
  Sb  Sb31  1  0.24809255  0.24834164  -0.00352288  1
  Te  Te32  1  0.25027298  0.24152975  0.24867207  1
  Te  Te33  1  0.25006288  0.25543273  0.75096150  1
  Te  Te34  1  0.24681603  0.75318377  0.24724247  1
  Te  Te35  1  0.25197238  0.74612752  0.75204987  1
  Te  Te36  1  0.74958976  0.24796414  0.24806612  1
  Te  Te37  1  0.75006389  0.24930420  0.75017706  1
  Te  Te38  1  0.75197149  0.75071595  0.25112632  1
  Te  Te39  1  0.74831197  0.75015168  0.74872356  1
  Te  Te40  1  0.24635384  -0.00432880  0.00273094  1
  Te  Te41  1  0.25631625  -0.00104039  0.49559551  1
  Te  Te42  1  0.24971655  0.50608276  -0.00363554  1
  Te  Te43  1  0.25165538  0.50033738  0.50418689  1
  Te  Te44  1  0.75435187  -0.00095756  0.00045106  1
  Te  Te45  1  0.74812152  -0.00489073  0.50098870  1
  Te  Te46  1  0.75020509  0.50064033  0.00153509  1
  Te  Te47  1  0.74936763  0.50287858  0.50152457  1
  Te  Te48  1  0.00086011  0.24238038  -0.00667596  1
  Te  Te49  1  0.00076480  0.25796076  0.50670625  1
  Te  Te50  1  0.00377060  0.75435951  0.00443800  1
  Te  Te51  1  -0.00456981  0.74563600  0.49602144  1
  Te  Te52  1  0.49918201  0.25062431  -0.01059490  1
  Te  Te53  1  0.49939541  0.24970093  0.50580648  1
  Te  Te54  1  0.49313275  0.75006720  -0.00720610  1
  Te  Te55  1  0.50360496  0.74983356  0.50366402  1
  Te  Te56  1  -0.00373545  -0.00069381  0.25047798  1
  Te  Te57  1  -0.00212898  0.00159768  0.75052726  1
  Te  Te58  1  -0.00296924  0.50064391  0.25246667  1
  Te  Te59  1  -0.00288198  0.49911028  0.74851453  1
  Te  Te60  1  0.50421601  0.00113282  0.25381166  1
  Te  Te61  1  0.50219882  -0.00077704  0.74706174  1
  Te  Te62  1  0.50411549  0.49816263  0.25780554  1
  Te  Te63  1  0.50348693  0.50105819  0.74771516  1
