# generated using pymatgen
data_AgSbTe2
_symmetry_space_group_name_H-M   'P 1'
_cell_length_a   12.28334232
_cell_length_b   12.28830818
_cell_length_c   12.27483053
_cell_angle_alpha   90.00725036
_cell_angle_beta   89.99420392
_cell_angle_gamma   90.00819741
_symmetry_Int_Tables_number   1
_chemical_formula_structural   AgSbTe2
_chemical_formula_sum   'Ag16 Sb16 Te32'
_cell_volume   1852.78123958
_cell_formula_units_Z   16
loop_
 _symmetry_equiv_pos_site_id
 _symmetry_equiv_pos_as_xyz
  1  'x, y, z'
loop_
 _atom_site_type_symbol
 _atom_site_label
 _atom_site_symmetry_multiplicity
 _atom_site_fract_x
 _atom_site_fract_y
 _atom_site_fract_z
 _atom_site_occupancy
  Ag  Ag0  1  0.01137739  0.24833421  0.25144288  1
  Ag  Ag1  1  0.74248162  0.00140059  0.25173025  1
  Ag  Ag2  1  0.74811521  0.75007072  -0.00120522  1
  Ag  Ag3  1  0.25263433  0.48055492  0.74384139  1
  Ag  Ag4  1  0.25389578  0.48485431  0.25641180  1
  Ag  Ag5  1  0.01837600  0.25283295  0.74909065  1
  Ag  Ag6  1  0.49238871  0.49260484  0.50408103  1
  Ag  Ag7  1  0.49648826  0.75426869  0.25240733  1
  Ag  Ag8  1  0.47967114  0.25364599  0.74363798  1
  Ag  Ag9  1  0.00430644  0.74471154  0.75240445  1
  Ag  Ag10  1  0.25006429  0.24984513  -0.01875669  1
  Ag  Ag11  1  0.25415220  0.25001641  0.51773960  1
  Ag  Ag12  1  0.25395259  0.01351537  0.25701203  1
  Ag  Ag13  1  0.25315661  0.02041344  0.74424373  1
  Ag  Ag14  1  0.74944382  0.49638945  0.74826365  1
  Ag  Ag15  1  0.49244729  0.00550940  0.49794899  1
  Sb  Sb16  1  0.48830851  0.24947574  0.25534515  1
  Sb  Sb17  1  0.49772008  0.49841190  -0.00305990  1
  Sb  Sb18  1  0.00090897  0.00121637  -0.00075774  1
  Sb  Sb19  1  0.00095967  0.49881447  -0.00173244  1
  Sb  Sb20  1  0.25118980  0.75010904  -0.00174633  1
  Sb  Sb21  1  0.25140516  0.74981590  0.50121241  1
  Sb  Sb22  1  0.74552017  0.24969183  0.49989810  1
  Sb  Sb23  1  0.74503159  0.49730724  0.25304425  1
  Sb  Sb24  1  0.00786439  0.00253530  0.50010364  1
  Sb  Sb25  1  0.49773459  0.74912435  0.74901309  1
  Sb  Sb26  1  0.00285240  0.75032865  0.24813454  1
  Sb  Sb27  1  0.49781421  0.00111010  0.00253855  1
  Sb  Sb28  1  0.74807599  0.00268591  0.74670829  1
  Sb  Sb29  1  0.74845225  0.24963351  -0.00041516  1
  Sb  Sb30  1  0.74799301  0.74983318  0.50107853  1
  Sb  Sb31  1  0.00790667  0.49705653  0.50172730  1
  Te  Te32  1  0.24990237  0.24998673  0.25112117  1
  Te  Te33  1  0.25103579  0.24873724  0.75006418  1
  Te  Te34  1  0.24912998  0.75186161  0.24803232  1
  Te  Te35  1  0.24583238  0.74912522  0.75209971  1
  Te  Te36  1  0.76295375  0.24775090  0.24867925  1
  Te  Te37  1  0.75567490  0.25301842  0.75015028  1
  Te  Te38  1  0.75327948  0.75030978  0.24801753  1
  Te  Te39  1  0.75050317  0.74970695  0.75260274  1
  Te  Te40  1  0.25046080  0.00351547  -0.00082764  1
  Te  Te41  1  0.25384316  -0.00060768  0.49921556  1
  Te  Te42  1  0.25016013  0.49638809  0.00037764  1
  Te  Te43  1  0.25411029  0.50069418  0.50091367  1
  Te  Te44  1  0.74945477  -0.00267865  0.00688434  1
  Te  Te45  1  0.73749095  0.00098837  0.49379422  1
  Te  Te46  1  0.74980268  0.50234405  -0.00539286  1
  Te  Te47  1  0.73686165  0.49894598  0.50548589  1
  Te  Te48  1  0.00530523  0.25021045  -0.00203353  1
  Te  Te49  1  0.00915379  0.24972063  0.50149125  1
  Te  Te50  1  -0.00503327  0.74995052  -0.00657108  1
  Te  Te51  1  -0.00059988  0.75068727  0.51157652  1
  Te  Te52  1  0.49651792  0.24971582  -0.01342084  1
  Te  Te53  1  0.49588280  0.25020077  0.50375604  1
  Te  Te54  1  0.50294180  0.74989241  0.00871671  1
  Te  Te55  1  0.49885058  0.75200473  0.49350509  1
  Te  Te56  1  0.00770611  0.00085194  0.25093587  1
  Te  Te57  1  0.00139110  0.00654182  0.74890465  1
  Te  Te58  1  0.00627592  0.49778383  0.25204467  1
  Te  Te59  1  0.00374749  0.49558734  0.74847624  1
  Te  Te60  1  0.49478519  0.00223542  0.25177545  1
  Te  Te61  1  0.49835821  -0.00357834  0.74557858  1
  Te  Te62  1  0.49777684  0.49845972  0.25450993  1
  Te  Te63  1  0.49375478  0.50353102  0.74815034  1
