# generated using pymatgen
data_AgSbTe2
_symmetry_space_group_name_H-M   'P 1'
_cell_length_a   12.29655230
_cell_length_b   12.30005670
_cell_length_c   12.29308551
_cell_angle_alpha   89.99532043
_cell_angle_beta   90.00414981
_cell_angle_gamma   90.00036295
_symmetry_Int_Tables_number   1
_chemical_formula_structural   AgSbTe2
_chemical_formula_sum   'Ag16 Sb16 Te32'
_cell_volume   1859.30815605
_cell_formula_units_Z   16
loop_
 _symmetry_equiv_pos_site_id
 _symmetry_equiv_pos_as_xyz
  1  'x, y, z'
loop_
 _atom_site_type_symbol
 _atom_site_label
 _atom_site_symmetry_multiplicity
 _atom_site_fract_x
 _atom_site_fract_y
 _atom_site_fract_z
 _atom_site_occupancy
  Ag  Ag0  1  0.75251269  0.25675762  0.50507444  1
  Ag  Ag1  1  0.75259398  -0.01838133  0.75124053  1
  Ag  Ag2  1  0.24331054  0.49415804  0.75552193  1
  Ag  Ag3  1  0.50132618  0.25435448  0.24707826  1
  Ag  Ag4  1  0.75599957  0.51425578  0.75258181  1
  Ag  Ag5  1  0.75040414  0.74340090  0.51993978  1
  Ag  Ag6  1  0.52184716  0.74535225  0.75073474  1
  Ag  Ag7  1  0.75226398  0.48840479  0.24709088  1
  Ag  Ag8  1  0.24771874  0.48929901  0.24348308  1
  Ag  Ag9  1  0.75639238  0.25779836  -0.00404797  1
  Ag  Ag10  1  0.24870044  0.01887595  0.24575612  1
  Ag  Ag11  1  0.24572443  0.25519622  0.00932033  1
  Ag  Ag12  1  -0.01504180  0.25721742  0.75497432  1
  Ag  Ag13  1  -0.01818768  0.74099760  0.75125500  1
  Ag  Ag14  1  0.75096205  0.74168059  -0.01942816  1
  Ag  Ag15  1  -0.00195761  0.25545763  0.24357949  1
  Sb  Sb16  1  -0.00582352  0.74458391  0.24776750  1
  Sb  Sb17  1  0.24905804  0.00807547  0.75286476  1
  Sb  Sb18  1  0.24716745  0.74381815  -0.00328177  1
  Sb  Sb19  1  0.51074877  0.25337091  0.75228466  1
  Sb  Sb20  1  -0.00242579  0.49800339  -0.00170061  1
  Sb  Sb21  1  0.50300059  0.49864375  0.49996435  1
  Sb  Sb22  1  0.24571878  0.25170230  0.49675594  1
  Sb  Sb23  1  0.50525514  0.74796744  0.25013952  1
  Sb  Sb24  1  0.50242456  0.00173226  0.50022445  1
  Sb  Sb25  1  -0.00014666  0.00258901  -0.00019271  1
  Sb  Sb26  1  -0.00244103  0.49922378  0.50128382  1
  Sb  Sb27  1  -0.00182201  0.00112444  0.50091273  1
  Sb  Sb28  1  0.75089282  0.01011459  0.24836245  1
  Sb  Sb29  1  0.50274672  0.49983009  -0.00003577  1
  Sb  Sb30  1  0.24777641  0.74755715  0.50349964  1
  Sb  Sb31  1  0.50028596  0.00110329  0.00007524  1
  Te  Te32  1  0.24496864  0.25509252  0.25274654  1
  Te  Te33  1  0.25256714  0.25119318  0.74595050  1
  Te  Te34  1  0.24867999  0.73782706  0.24930169  1
  Te  Te35  1  0.24461000  0.74604737  0.75161853  1
  Te  Te36  1  0.75524296  0.25163329  0.24401902  1
  Te  Te37  1  0.74786587  0.25803933  0.75517776  1
  Te  Te38  1  0.75222463  0.74356384  0.24852081  1
  Te  Te39  1  0.75160429  0.74682657  0.75126730  1
  Te  Te40  1  0.25046419  0.00914331  0.00552752  1
  Te  Te41  1  0.25111817  -0.00157640  0.49021203  1
  Te  Te42  1  0.25094911  0.49485527  -0.00084738  1
  Te  Te43  1  0.25154786  0.50089291  0.50197508  1
  Te  Te44  1  0.74994008  0.00367860  -0.00414809  1
  Te  Te45  1  0.74998996  0.00125756  0.50477617  1
  Te  Te46  1  0.74999567  0.49526556  0.00083866  1
  Te  Te47  1  0.74964422  0.49737161  0.49928513  1
  Te  Te48  1  -0.00274857  0.25001799  -0.00230501  1
  Te  Te49  1  -0.00689927  0.24887202  0.50437519  1
  Te  Te50  1  -0.00536102  0.75219335  -0.00423557  1
  Te  Te51  1  -0.00604628  0.75167819  0.50620985  1
  Te  Te52  1  0.50021848  0.24942130  0.00368163  1
  Te  Te53  1  0.51139597  0.24922792  0.49318393  1
  Te  Te54  1  0.50722009  0.75122728  -0.00265301  1
  Te  Te55  1  0.50764023  0.75146218  0.50248596  1
  Te  Te56  1  0.00418513  0.00678135  0.25010915  1
  Te  Te57  1  -0.00173994  0.00667355  0.74958303  1
  Te  Te58  1  -0.00136584  0.49607838  0.25071193  1
  Te  Te59  1  -0.00056335  0.49431316  0.74982481  1
  Te  Te60  1  0.49586127  0.00392194  0.25011222  1
  Te  Te61  1  0.50068299  -0.00631298  0.74963952  1
  Te  Te62  1  0.50072936  0.49654444  0.25079137  1
  Te  Te63  1  0.49839255  0.50252312  0.74918495  1
