# generated using pymatgen
data_AgSbTe2
_symmetry_space_group_name_H-M   'P 1'
_cell_length_a   12.22723714
_cell_length_b   12.23520893
_cell_length_c   12.22686705
_cell_angle_alpha   90.00545486
_cell_angle_beta   90.00087493
_cell_angle_gamma   89.99820837
_symmetry_Int_Tables_number   1
_chemical_formula_structural   AgSbTe2
_chemical_formula_sum   'Ag16 Sb16 Te32'
_cell_volume   1829.17354799
_cell_formula_units_Z   16
loop_
 _symmetry_equiv_pos_site_id
 _symmetry_equiv_pos_as_xyz
  1  'x, y, z'
loop_
 _atom_site_type_symbol
 _atom_site_label
 _atom_site_symmetry_multiplicity
 _atom_site_fract_x
 _atom_site_fract_y
 _atom_site_fract_z
 _atom_site_occupancy
  Ag  Ag0  1  -0.00204708  -0.00587191  -0.00646381  1
  Ag  Ag1  1  0.75682805  -0.00462719  0.75162544  1
  Ag  Ag2  1  0.24174649  0.74939229  -0.00540954  1
  Ag  Ag3  1  0.75253008  0.50433467  0.74880755  1
  Ag  Ag4  1  0.50117625  0.25273097  0.25135104  1
  Ag  Ag5  1  -0.00117807  0.25003686  0.25191678  1
  Ag  Ag6  1  -0.00052369  0.50007173  0.50747421  1
  Ag  Ag7  1  -0.00094585  0.75020962  0.24578132  1
  Ag  Ag8  1  0.75750011  0.75070853  -0.00701285  1
  Ag  Ag9  1  0.24771348  0.50320046  0.74894536  1
  Ag  Ag10  1  0.50101575  0.49864044  0.50782594  1
  Ag  Ag11  1  0.50437396  0.74319081  0.75058043  1
  Ag  Ag12  1  -0.00439439  0.74889174  0.75426669  1
  Ag  Ag13  1  0.50280913  0.25763139  0.74752094  1
  Ag  Ag14  1  -0.00300364  0.25152339  0.74744246  1
  Ag  Ag15  1  -0.00241473  -0.00022092  0.50699945  1
  Sb  Sb16  1  0.75279895  0.25094078  0.50354412  1
  Sb  Sb17  1  0.24584834  0.74766923  0.50622389  1
  Sb  Sb18  1  0.24653082  -0.00065866  0.24830974  1
  Sb  Sb19  1  0.50072692  0.74622589  0.24945506  1
  Sb  Sb20  1  0.24143729  -0.00380253  0.75212012  1
  Sb  Sb21  1  0.75425940  -0.00120022  0.24821569  1
  Sb  Sb22  1  0.75277491  0.50132312  0.25115299  1
  Sb  Sb23  1  0.75402684  0.24990052  -0.00437843  1
  Sb  Sb24  1  0.50281191  -0.00095553  -0.00392959  1
  Sb  Sb25  1  -0.00041007  0.50771609  -0.00996219  1
  Sb  Sb26  1  0.24607679  0.25136235  -0.00383568  1
  Sb  Sb27  1  0.50065747  0.50040408  -0.00931256  1
  Sb  Sb28  1  0.24734909  0.50104166  0.25003557  1
  Sb  Sb29  1  0.50352257  0.00138120  0.50577514  1
  Sb  Sb30  1  0.75429032  0.74922141  0.50957592  1
  Sb  Sb31  1  0.24742523  0.25177771  0.50306732  1
  Te  Te32  1  0.24827559  0.25044674  0.24763236  1
  Te  Te33  1  0.25030415  0.25610791  0.75212344  1
  Te  Te34  1  0.24587723  0.74928061  0.24025282  1
  Te  Te35  1  0.24905297  0.74743158  0.75372051  1
  Te  Te36  1  0.75198356  0.25050354  0.24641270  1
  Te  Te37  1  0.75115936  0.25161431  0.75227571  1
  Te  Te38  1  0.75440999  0.74957631  0.23899605  1
  Te  Te39  1  0.75173402  0.74901625  0.75176580  1
  Te  Te40  1  0.24293086  -0.00779088  -0.00055553  1
  Te  Te41  1  0.23935031  -0.00096231  0.49966327  1
  Te  Te42  1  0.25042211  0.50648167  -0.00661273  1
  Te  Te43  1  0.24870038  0.50022543  0.50647425  1
  Te  Te44  1  0.75424252  -0.00488532  -0.00587997  1
  Te  Te45  1  0.75743522  -0.00059165  0.50777651  1
  Te  Te46  1  0.74946244  0.50669630  -0.00730062  1
  Te  Te47  1  0.75080988  0.50018835  0.50603879  1
  Te  Te48  1  0.00042189  0.24221423  0.00102279  1
  Te  Te49  1  0.00046013  0.25153674  0.50094183  1
  Te  Te50  1  -0.00092496  0.75049723  -0.00190348  1
  Te  Te51  1  0.00033179  0.74824543  0.49997633  1
  Te  Te52  1  0.49892082  0.24904156  0.00004822  1
  Te  Te53  1  0.49922196  0.25253794  0.50268474  1
  Te  Te54  1  0.50053273  0.75086160  -0.00309885  1
  Te  Te55  1  0.49864359  0.74690676  0.50341644  1
  Te  Te56  1  -0.00192042  0.00138704  0.25132993  1
  Te  Te57  1  -0.00092836  0.00060323  0.74955220  1
  Te  Te58  1  -0.00033279  0.49758566  0.25993144  1
  Te  Te59  1  -0.00150549  0.49931979  0.74821455  1
  Te  Te60  1  0.50133557  0.00808090  0.25247608  1
  Te  Te61  1  0.50671291  0.00126502  0.74762373  1
  Te  Te62  1  0.50015138  0.49523586  0.25978221  1
  Te  Te63  1  0.50141599  0.49915220  0.74750995  1
