# generated using pymatgen
data_AgSbTe2
_symmetry_space_group_name_H-M   'P 1'
_cell_length_a   12.30827624
_cell_length_b   12.33515195
_cell_length_c   12.32626093
_cell_angle_alpha   90.01385901
_cell_angle_beta   90.00422502
_cell_angle_gamma   90.00354101
_symmetry_Int_Tables_number   1
_chemical_formula_structural   AgSbTe2
_chemical_formula_sum   'Ag16 Sb16 Te32'
_cell_volume   1871.42781812
_cell_formula_units_Z   16
loop_
 _symmetry_equiv_pos_site_id
 _symmetry_equiv_pos_as_xyz
  1  'x, y, z'
loop_
 _atom_site_type_symbol
 _atom_site_label
 _atom_site_symmetry_multiplicity
 _atom_site_fract_x
 _atom_site_fract_y
 _atom_site_fract_z
 _atom_site_occupancy
  Ag  Ag0  1  0.74434484  0.51652529  0.24343327  1
  Ag  Ag1  1  0.50793021  -0.01466473  0.49747384  1
  Ag  Ag2  1  0.74066512  0.74784222  0.48153797  1
  Ag  Ag3  1  0.26891887  0.74852867  0.49184154  1
  Ag  Ag4  1  -0.01389070  0.25213883  0.24577845  1
  Ag  Ag5  1  0.51172395  0.74450104  0.26198972  1
  Ag  Ag6  1  0.51120641  0.25514786  0.75462202  1
  Ag  Ag7  1  0.74088111  0.74065143  0.01335288  1
  Ag  Ag8  1  0.50753828  0.51038090  0.49410889  1
  Ag  Ag9  1  0.50835116  0.49823156  0.00135847  1
  Ag  Ag10  1  -0.01902639  0.74876716  0.25218310  1
  Ag  Ag11  1  0.74650465  0.26054803  0.00555395  1
  Ag  Ag12  1  0.74483214  -0.00405422  0.74941079  1
  Ag  Ag13  1  0.74424532  0.50275690  0.75857639  1
  Ag  Ag14  1  0.26236795  0.25488578  0.00220799  1
  Ag  Ag15  1  0.74679585  -0.01589914  0.25025821  1
  Sb  Sb16  1  0.50563113  0.74918082  0.74784861  1
  Sb  Sb17  1  -0.00804274  -0.00291106  0.49617007  1
  Sb  Sb18  1  0.50622057  0.25026780  0.25002606  1
  Sb  Sb19  1  -0.00900708  0.50011375  0.00227490  1
  Sb  Sb20  1  -0.00722192  0.24974946  0.75373986  1
  Sb  Sb21  1  0.50694851  -0.00060721  0.00017001  1
  Sb  Sb22  1  -0.01003248  0.75009078  0.74988185  1
  Sb  Sb23  1  0.74848294  0.24993567  0.49791274  1
  Sb  Sb24  1  0.25430330  0.74786119  0.00292377  1
  Sb  Sb25  1  0.25501071  0.50064835  0.24974461  1
  Sb  Sb26  1  -0.00917800  0.50290192  0.49648815  1
  Sb  Sb27  1  0.26080012  0.00134904  0.74620671  1
  Sb  Sb28  1  0.25809516  0.25186932  0.49710631  1
  Sb  Sb29  1  0.25978647  0.49915320  0.74910221  1
  Sb  Sb30  1  -0.00546685  0.00007721  0.00238385  1
  Sb  Sb31  1  0.25389471  -0.00045456  0.25128329  1
  Te  Te32  1  0.24183314  0.24956702  0.24325905  1
  Te  Te33  1  0.24855169  0.24978580  0.75585656  1
  Te  Te34  1  0.25225693  0.75070152  0.25377674  1
  Te  Te35  1  0.24379228  0.75070989  0.74583940  1
  Te  Te36  1  0.75093592  0.25027747  0.24806056  1
  Te  Te37  1  0.74771061  0.25158104  0.74902467  1
  Te  Te38  1  0.74661556  0.75068911  0.24805220  1
  Te  Te39  1  0.74901505  0.75034125  0.75701220  1
  Te  Te40  1  0.24738442  0.00723629  -0.00161664  1
  Te  Te41  1  0.26076589  -0.00386224  0.50065003  1
  Te  Te42  1  0.26291142  0.49488878  -0.00135828  1
  Te  Te43  1  0.26055663  0.50376505  0.50091414  1
  Te  Te44  1  0.75037718  -0.00415138  0.00224643  1
  Te  Te45  1  0.74745040  0.00362038  0.49733807  1
  Te  Te46  1  0.74858965  0.50178954  0.00153420  1
  Te  Te47  1  0.74831537  0.49849082  0.49666272  1
  Te  Te48  1  -0.00863977  0.25116472  0.00308034  1
  Te  Te49  1  0.00522641  0.25008090  0.49160058  1
  Te  Te50  1  0.00457653  0.74883877  0.00458019  1
  Te  Te51  1  -0.00722463  0.74950328  0.49788675  1
  Te  Te52  1  0.50589683  0.24772720  -0.00207806  1
  Te  Te53  1  0.49912679  0.25432868  0.50396459  1
  Te  Te54  1  0.50224689  0.74807654  0.00256762  1
  Te  Te55  1  0.50439270  0.74961863  0.50043784  1
  Te  Te56  1  -0.00642068  -0.00277155  0.25024112  1
  Te  Te57  1  -0.01404091  0.00032596  0.75004833  1
  Te  Te58  1  -0.00684370  0.50140209  0.24907172  1
  Te  Te59  1  -0.01255698  0.49962226  0.75080767  1
  Te  Te60  1  0.50384289  -0.00000753  0.25218252  1
  Te  Te61  1  0.50470651  0.00237026  0.74765507  1
  Te  Te62  1  0.50193518  0.49925946  0.25173670  1
  Te  Te63  1  0.50310047  0.49951674  0.75201454  1
