# generated using pymatgen
data_AgSbTe2
_symmetry_space_group_name_H-M   'P 1'
_cell_length_a   12.23564060
_cell_length_b   12.22887000
_cell_length_c   12.22109647
_cell_angle_alpha   89.99114095
_cell_angle_beta   90.00030084
_cell_angle_gamma   90.00081801
_symmetry_Int_Tables_number   1
_chemical_formula_structural   AgSbTe2
_chemical_formula_sum   'Ag16 Sb16 Te32'
_cell_volume   1828.61891328
_cell_formula_units_Z   16
loop_
 _symmetry_equiv_pos_site_id
 _symmetry_equiv_pos_as_xyz
  1  'x, y, z'
loop_
 _atom_site_type_symbol
 _atom_site_label
 _atom_site_symmetry_multiplicity
 _atom_site_fract_x
 _atom_site_fract_y
 _atom_site_fract_z
 _atom_site_occupancy
  Ag  Ag0  1  0.25859860  0.50003651  0.75590568  1
  Ag  Ag1  1  0.49757339  0.00196400  -0.00207011  1
  Ag  Ag2  1  0.25717461  0.74185638  -0.00144965  1
  Ag  Ag3  1  0.49444037  0.49703754  -0.00834328  1
  Ag  Ag4  1  0.00064805  0.25137695  0.24652689  1
  Ag  Ag5  1  0.25991125  0.74773815  0.50056137  1
  Ag  Ag6  1  0.49916583  -0.00862146  0.50085472  1
  Ag  Ag7  1  0.73901799  0.74859925  0.50074817  1
  Ag  Ag8  1  0.49941963  0.25672679  0.75576832  1
  Ag  Ag9  1  0.49813305  0.74849959  0.25355686  1
  Ag  Ag10  1  0.73983220  0.49842934  0.75262127  1
  Ag  Ag11  1  0.00523931  0.49645346  -0.00158208  1
  Ag  Ag12  1  0.00131109  -0.00132164  0.49907119  1
  Ag  Ag13  1  0.74402434  0.25514029  -0.00238750  1
  Ag  Ag14  1  0.25568518  0.25885559  -0.00252120  1
  Ag  Ag15  1  0.49834200  0.50656800  0.50584770  1
  Sb  Sb16  1  0.25163738  0.50063675  0.24345174  1
  Sb  Sb17  1  0.74145086  0.74562359  -0.00080364  1
  Sb  Sb18  1  0.49968493  0.25096298  0.24517737  1
  Sb  Sb19  1  0.25150146  -0.00045464  0.25073958  1
  Sb  Sb20  1  0.00195166  0.00224360  0.00086414  1
  Sb  Sb21  1  0.25478238  -0.00031849  0.75012099  1
  Sb  Sb22  1  0.74744941  0.25103040  0.50188047  1
  Sb  Sb23  1  0.74773811  0.49971703  0.24807331  1
  Sb  Sb24  1  0.25284036  0.25248681  0.50214882  1
  Sb  Sb25  1  0.00121166  0.74823004  0.75035902  1
  Sb  Sb26  1  0.49908962  0.74219857  0.74573232  1
  Sb  Sb27  1  0.74858165  0.00016045  0.25069913  1
  Sb  Sb28  1  0.00052549  0.25275646  0.75196060  1
  Sb  Sb29  1  0.74489573  0.00023910  0.74975477  1
  Sb  Sb30  1  0.00117348  0.74901996  0.25001922  1
  Sb  Sb31  1  0.00146560  0.50081703  0.50147953  1
  Te  Te32  1  0.24592560  0.24988716  0.24321199  1
  Te  Te33  1  0.25356374  0.25479903  0.75358208  1
  Te  Te34  1  0.25459953  0.75002870  0.25098004  1
  Te  Te35  1  0.24978658  0.74508133  0.75138803  1
  Te  Te36  1  0.75393996  0.24991112  0.24337198  1
  Te  Te37  1  0.74654951  0.25532191  0.75354135  1
  Te  Te38  1  0.74470256  0.75022493  0.25595026  1
  Te  Te39  1  0.75092814  0.74346188  0.74517430  1
  Te  Te40  1  0.25427413  -0.00260615  -0.00164436  1
  Te  Te41  1  0.25451356  -0.00370024  0.50142040  1
  Te  Te42  1  0.25289586  0.50106586  -0.00211838  1
  Te  Te43  1  0.25177086  0.50295758  0.50583264  1
  Te  Te44  1  0.74601200  0.00307535  -0.00188613  1
  Te  Te45  1  0.74497231  -0.00323843  0.50116875  1
  Te  Te46  1  0.74785337  0.49912118  -0.00378628  1
  Te  Te47  1  0.74898733  0.50256659  0.50470818  1
  Te  Te48  1  0.00158719  0.24973728  0.00177382  1
  Te  Te49  1  0.00023608  0.24632381  0.49544573  1
  Te  Te50  1  0.00583939  0.74915051  0.00188266  1
  Te  Te51  1  0.00294217  0.75323188  0.49837224  1
  Te  Te52  1  0.49873915  0.25160853  0.00103104  1
  Te  Te53  1  0.49957320  0.25062839  0.50054985  1
  Te  Te54  1  0.49839911  0.75008350  0.00199335  1
  Te  Te55  1  0.49827809  0.74991574  0.50035056  1
  Te  Te56  1  -0.00088543  0.00443522  0.25524280  1
  Te  Te57  1  -0.00118740  0.00018722  0.74170865  1
  Te  Te58  1  -0.00083106  0.49539394  0.24392979  1
  Te  Te59  1  0.00109790  0.49962764  0.75497339  1
  Te  Te60  1  0.50029947  -0.00355939  0.25177588  1
  Te  Te61  1  0.50022994  0.01018661  0.75052236  1
  Te  Te62  1  0.50056930  0.50298062  0.25361543  1
  Te  Te63  1  0.49934119  0.49742229  0.75117190  1
