# generated using pymatgen
data_AgSbTe2
_symmetry_space_group_name_H-M   'P 1'
_cell_length_a   12.20646347
_cell_length_b   12.21181196
_cell_length_c   12.21151181
_cell_angle_alpha   90.00531939
_cell_angle_beta   90.00742994
_cell_angle_gamma   89.99800552
_symmetry_Int_Tables_number   1
_chemical_formula_structural   AgSbTe2
_chemical_formula_sum   'Ag16 Sb16 Te32'
_cell_volume   1820.28500826
_cell_formula_units_Z   16
loop_
 _symmetry_equiv_pos_site_id
 _symmetry_equiv_pos_as_xyz
  1  'x, y, z'
loop_
 _atom_site_type_symbol
 _atom_site_label
 _atom_site_symmetry_multiplicity
 _atom_site_fract_x
 _atom_site_fract_y
 _atom_site_fract_z
 _atom_site_occupancy
  Ag  Ag0  1  0.50350202  -0.00754457  0.00281558  1
  Ag  Ag1  1  0.50749082  0.75215698  0.24548673  1
  Ag  Ag2  1  0.74413172  0.74813327  0.00416813  1
  Ag  Ag3  1  0.74942999  0.50630324  0.25085382  1
  Ag  Ag4  1  0.75094274  0.75038147  0.49663287  1
  Ag  Ag5  1  0.50487048  0.50715448  0.00083371  1
  Ag  Ag6  1  -0.00516704  0.50163223  0.49916968  1
  Ag  Ag7  1  0.50187445  0.25000106  0.74847630  1
  Ag  Ag8  1  -0.00517754  0.74875347  0.74669476  1
  Ag  Ag9  1  0.25628616  0.74973584  0.00106998  1
  Ag  Ag10  1  0.50463544  -0.00165049  0.49728128  1
  Ag  Ag11  1  0.74719668  -0.00604473  0.25322257  1
  Ag  Ag12  1  0.24919180  0.24916379  0.49944860  1
  Ag  Ag13  1  -0.00253718  0.24990093  0.25511360  1
  Ag  Ag14  1  -0.00438081  -0.00148268  0.49751186  1
  Ag  Ag15  1  0.74955457  0.50468896  0.74936734  1
  Sb  Sb16  1  -0.00526650  0.50333066  0.00132087  1
  Sb  Sb17  1  0.25309070  0.25012663  0.00051156  1
  Sb  Sb18  1  -0.00940485  0.74999579  0.25423552  1
  Sb  Sb19  1  0.25215172  -0.00139874  0.25063059  1
  Sb  Sb20  1  0.50182490  0.24837852  0.25216742  1
  Sb  Sb21  1  0.50612262  0.50172579  0.49956771  1
  Sb  Sb22  1  -0.00158957  0.25118931  0.74452808  1
  Sb  Sb23  1  0.25017445  0.50166753  0.25032138  1
  Sb  Sb24  1  0.74801346  0.25114443  0.00045179  1
  Sb  Sb25  1  0.74844652  -0.00483327  0.74730378  1
  Sb  Sb26  1  0.75077908  0.24866799  0.49910607  1
  Sb  Sb27  1  0.25128210  0.50150297  0.74978126  1
  Sb  Sb28  1  -0.00350373  -0.00425337  0.00269386  1
  Sb  Sb29  1  0.25141625  -0.00108845  0.74978549  1
  Sb  Sb30  1  0.50463989  0.74890228  0.75507718  1
  Sb  Sb31  1  0.24992826  0.75034420  0.49913641  1
  Te  Te32  1  0.24377795  0.25031350  0.25546687  1
  Te  Te33  1  0.25528048  0.25038930  0.74473173  1
  Te  Te34  1  0.25898379  0.74956147  0.24460092  1
  Te  Te35  1  0.24221518  0.74917366  0.75503399  1
  Te  Te36  1  0.75415497  0.25038435  0.24955279  1
  Te  Te37  1  0.74509931  0.25837436  0.75064532  1
  Te  Te38  1  0.74840209  0.74970469  0.25061240  1
  Te  Te39  1  0.75283052  0.74584263  0.74863192  1
  Te  Te40  1  0.25642502  -0.00547809  0.00007375  1
  Te  Te41  1  0.25009813  0.00288112  0.49983641  1
  Te  Te42  1  0.25742242  0.50522543  0.00016785  1
  Te  Te43  1  0.24223949  0.49626006  0.49986453  1
  Te  Te44  1  0.74540837  -0.00448370  0.00376568  1
  Te  Te45  1  0.74921518  -0.00321249  0.49768258  1
  Te  Te46  1  0.74654353  0.50349010  0.00125966  1
  Te  Te47  1  0.75255638  0.50374612  0.49858512  1
  Te  Te48  1  0.00269070  0.24923727  0.00563870  1
  Te  Te49  1  0.00229616  0.24877247  0.49869767  1
  Te  Te50  1  -0.00178192  0.75105915  -0.00434344  1
  Te  Te51  1  -0.00112294  0.75070419  0.50171676  1
  Te  Te52  1  0.49756631  0.24901876  -0.00344854  1
  Te  Te53  1  0.49641133  0.24626600  0.50199768  1
  Te  Te54  1  0.50318053  0.75070311  -0.00126637  1
  Te  Te55  1  0.50128463  0.75399112  0.49809734  1
  Te  Te56  1  -0.00568984  0.00202195  0.25452943  1
  Te  Te57  1  -0.00132175  -0.00266096  0.74393988  1
  Te  Te58  1  -0.00634412  0.49796471  0.25347697  1
  Te  Te59  1  -0.00619021  0.50199314  0.74625564  1
  Te  Te60  1  0.50467749  -0.00109453  0.25079280  1
  Te  Te61  1  0.50184216  0.00444875  0.74901139  1
  Te  Te62  1  0.50650179  0.50150919  0.24741764  1
  Te  Te63  1  0.50539726  0.49720764  0.75220916  1
