# generated using pymatgen
data_AgSbTe2
_symmetry_space_group_name_H-M   'P 1'
_cell_length_a   12.22979165
_cell_length_b   12.21921558
_cell_length_c   12.21793286
_cell_angle_alpha   89.99502729
_cell_angle_beta   90.00104169
_cell_angle_gamma   90.00001324
_symmetry_Int_Tables_number   1
_chemical_formula_structural   AgSbTe2
_chemical_formula_sum   'Ag16 Sb16 Te32'
_cell_volume   1825.82907254
_cell_formula_units_Z   16
loop_
 _symmetry_equiv_pos_site_id
 _symmetry_equiv_pos_as_xyz
  1  'x, y, z'
loop_
 _atom_site_type_symbol
 _atom_site_label
 _atom_site_symmetry_multiplicity
 _atom_site_fract_x
 _atom_site_fract_y
 _atom_site_fract_z
 _atom_site_occupancy
  Ag  Ag0  1  0.25076092  -0.00539277  0.74896826  1
  Ag  Ag1  1  0.00237915  0.74263693  0.74588817  1
  Ag  Ag2  1  0.50459909  0.25159778  0.25224126  1
  Ag  Ag3  1  0.50223349  0.74773101  0.25888828  1
  Ag  Ag4  1  0.74935731  0.25411736  0.00131069  1
  Ag  Ag5  1  0.24677300  0.50498258  0.74720077  1
  Ag  Ag6  1  0.49696265  0.74464403  0.74070392  1
  Ag  Ag7  1  -0.00134115  0.49899071  -0.00857684  1
  Ag  Ag8  1  0.74449381  0.74169020  0.50288357  1
  Ag  Ag9  1  0.74711875  0.25783009  0.49882512  1
  Ag  Ag10  1  0.75330912  0.50281290  0.74349580  1
  Ag  Ag11  1  0.74677083  0.00157236  0.25209649  1
  Ag  Ag12  1  0.25037238  0.25358706  -0.00214950  1
  Ag  Ag13  1  -0.00544108  0.50372231  0.50857831  1
  Ag  Ag14  1  0.25527318  0.74510201  0.50693193  1
  Ag  Ag15  1  0.50480816  0.50619062  0.50352189  1
  Sb  Sb16  1  0.50028925  0.00123579  -0.00046489  1
  Sb  Sb17  1  0.25274170  -0.00121386  0.25038584  1
  Sb  Sb18  1  -0.00008104  0.00048487  -0.00349116  1
  Sb  Sb19  1  -0.00011403  0.25846432  0.74981940  1
  Sb  Sb20  1  0.24988081  0.74663299  -0.00771819  1
  Sb  Sb21  1  0.75015071  0.74468162  -0.00095644  1
  Sb  Sb22  1  -0.00434375  0.25156479  0.25079868  1
  Sb  Sb23  1  -0.00194327  0.74783595  0.25482516  1
  Sb  Sb24  1  0.50170174  0.49839730  -0.00407741  1
  Sb  Sb25  1  0.74755964  0.49855572  0.25705523  1
  Sb  Sb26  1  0.50055230  0.25470006  0.74646172  1
  Sb  Sb27  1  0.50070470  -0.00682716  0.50004735  1
  Sb  Sb28  1  -0.00086103  -0.00313722  0.50313207  1
  Sb  Sb29  1  0.25247497  0.25491585  0.50054437  1
  Sb  Sb30  1  0.25226529  0.50073882  0.25149512  1
  Sb  Sb31  1  0.74903378  -0.00263684  0.74967641  1
  Te  Te32  1  0.25642786  0.24806227  0.24621940  1
  Te  Te33  1  0.25065041  0.25130946  0.75298987  1
  Te  Te34  1  0.25551870  0.75243256  0.25628151  1
  Te  Te35  1  0.25187180  0.74645062  0.74897313  1
  Te  Te36  1  0.74659206  0.24943387  0.25093587  1
  Te  Te37  1  0.74936247  0.25059136  0.74908131  1
  Te  Te38  1  0.74637547  0.75248876  0.25210001  1
  Te  Te39  1  0.74858349  0.74919839  0.74838881  1
  Te  Te40  1  0.24880160  0.00667550  -0.00450880  1
  Te  Te41  1  0.24865757  -0.00345501  0.50514482  1
  Te  Te42  1  0.24749326  0.49628650  -0.00467093  1
  Te  Te43  1  0.25001390  0.50158974  0.50338266  1
  Te  Te44  1  0.75108362  0.00898974  0.00249861  1
  Te  Te45  1  0.75084861  0.00200489  0.49785394  1
  Te  Te46  1  0.75217025  0.49591686  -0.00659063  1
  Te  Te47  1  0.74971323  0.50119671  0.50226771  1
  Te  Te48  1  -0.00094046  0.25576359  0.00018911  1
  Te  Te49  1  -0.00465086  0.25750644  0.49923146  1
  Te  Te50  1  0.00023451  0.74309302  -0.00397763  1
  Te  Te51  1  -0.00125226  0.74595772  0.50201795  1
  Te  Te52  1  0.50183102  0.25118109  0.00483216  1
  Te  Te53  1  0.50322070  0.25610699  0.49669341  1
  Te  Te54  1  0.49995626  0.74956187  0.00312593  1
  Te  Te55  1  0.50157001  0.74760828  0.50050406  1
  Te  Te56  1  -0.00750378  -0.00058921  0.24929580  1
  Te  Te57  1  0.00508747  -0.01066499  0.75022958  1
  Te  Te58  1  0.00099767  0.50066784  0.24916348  1
  Te  Te59  1  -0.00113253  0.50213850  0.74821419  1
  Te  Te60  1  0.50440464  -0.00021731  0.24984596  1
  Te  Te61  1  0.49545630  -0.00847955  0.75032618  1
  Te  Te62  1  0.49930219  0.50168947  0.25514451  1
  Te  Te63  1  0.50081340  0.50329586  0.74647516  1
