# generated using pymatgen
data_AgSbTe2
_symmetry_space_group_name_H-M   'P 1'
_cell_length_a   12.26189812
_cell_length_b   12.26031157
_cell_length_c   12.23775997
_cell_angle_alpha   90.00370776
_cell_angle_beta   89.99975799
_cell_angle_gamma   89.99174651
_symmetry_Int_Tables_number   1
_chemical_formula_structural   AgSbTe2
_chemical_formula_sum   'Ag16 Sb16 Te32'
_cell_volume   1839.75984449
_cell_formula_units_Z   16
loop_
 _symmetry_equiv_pos_site_id
 _symmetry_equiv_pos_as_xyz
  1  'x, y, z'
loop_
 _atom_site_type_symbol
 _atom_site_label
 _atom_site_symmetry_multiplicity
 _atom_site_fract_x
 _atom_site_fract_y
 _atom_site_fract_z
 _atom_site_occupancy
  Ag  Ag0  1  0.24933588  0.00942307  0.74427623  1
  Ag  Ag1  1  -0.00612370  0.49510047  0.51178938  1
  Ag  Ag2  1  0.74717840  0.00427193  0.26278017  1
  Ag  Ag3  1  -0.00349396  0.73558612  0.74684354  1
  Ag  Ag4  1  0.73698461  0.24919291  0.50673402  1
  Ag  Ag5  1  0.74971195  0.00729052  0.74112845  1
  Ag  Ag6  1  0.50358734  0.24890059  0.26686305  1
  Ag  Ag7  1  0.26466163  0.25165914  0.50661236  1
  Ag  Ag8  1  0.23543248  0.49155810  0.74488771  1
  Ag  Ag9  1  -0.00184902  0.26253090  0.74356466  1
  Ag  Ag10  1  0.50755621  0.01478392  0.50411334  1
  Ag  Ag11  1  0.50187807  0.25124084  0.73796863  1
  Ag  Ag12  1  0.76334849  0.49305879  0.74289714  1
  Ag  Ag13  1  -0.00118237  0.49828371  -0.01669204  1
  Ag  Ag14  1  0.50529673  0.48547411  0.50641512  1
  Ag  Ag15  1  0.75066780  0.75010061  0.50496374  1
  Sb  Sb16  1  0.74852041  0.49557893  0.26088967  1
  Sb  Sb17  1  0.24896588  0.25099431  -0.01154059  1
  Sb  Sb18  1  -0.00506500  0.74821338  0.25607072  1
  Sb  Sb19  1  0.50146288  0.00299872  -0.00592504  1
  Sb  Sb20  1  0.25347257  0.00570718  0.26043258  1
  Sb  Sb21  1  -0.00387003  0.25108019  0.25861427  1
  Sb  Sb22  1  0.75340778  0.74865773  -0.00675572  1
  Sb  Sb23  1  -0.00745267  0.00451543  0.50539996  1
  Sb  Sb24  1  0.25127957  0.49591398  0.25748150  1
  Sb  Sb25  1  0.24676172  0.74810069  -0.00736303  1
  Sb  Sb26  1  0.24735916  0.74893897  0.50425142  1
  Sb  Sb27  1  -0.00153090  0.00270923  -0.00742280  1
  Sb  Sb28  1  0.50415049  0.74961058  0.74516641  1
  Sb  Sb29  1  0.50408540  0.75128020  0.25844564  1
  Sb  Sb30  1  0.75078107  0.25079107  -0.00991915  1
  Sb  Sb31  1  0.50115225  0.49610414  -0.01033243  1
  Te  Te32  1  0.25481435  0.24873043  0.25965359  1
  Te  Te33  1  0.25058771  0.25011542  0.74670845  1
  Te  Te34  1  0.24852844  0.75196192  0.24804858  1
  Te  Te35  1  0.24282079  0.75052199  0.74902860  1
  Te  Te36  1  0.74779054  0.24630011  0.25622192  1
  Te  Te37  1  0.74905804  0.24962922  0.74832939  1
  Te  Te38  1  0.75066738  0.75790026  0.25775594  1
  Te  Te39  1  0.75293000  0.75126071  0.74585561  1
  Te  Te40  1  0.24998898  -0.00049498  -0.00974088  1
  Te  Te41  1  0.25505467  0.00119269  0.50484771  1
  Te  Te42  1  0.24679976  0.49978096  -0.00718159  1
  Te  Te43  1  0.25115902  0.49946164  0.50317698  1
  Te  Te44  1  0.74964010  -0.00039402  -0.00270752  1
  Te  Te45  1  0.75059459  0.00284693  0.50349372  1
  Te  Te46  1  0.75274158  0.50125223  -0.00745317  1
  Te  Te47  1  0.74922573  0.49771068  0.50157339  1
  Te  Te48  1  0.00056739  0.25475703  -0.00538374  1
  Te  Te49  1  -0.00134090  0.25301450  0.50330211  1
  Te  Te50  1  -0.00065661  0.74367588  -0.00611857  1
  Te  Te51  1  -0.00379891  0.74381174  0.50373083  1
  Te  Te52  1  0.49983596  0.25015722  0.00197382  1
  Te  Te53  1  0.50084801  0.24989679  0.50277909  1
  Te  Te54  1  0.50017681  0.74957024  0.00354338  1
  Te  Te55  1  0.50630350  0.74933514  0.50023944  1
  Te  Te56  1  -0.00593743  -0.00025906  0.24593195  1
  Te  Te57  1  -0.00115311  0.00267497  0.74968425  1
  Te  Te58  1  0.00039321  0.50024199  0.24945376  1
  Te  Te59  1  -0.00080172  0.49799568  0.74758235  1
  Te  Te60  1  0.50337100  0.00328120  0.25351402  1
  Te  Te61  1  0.50233119  0.00036232  0.74758282  1
  Te  Te62  1  0.49988105  0.49522079  0.25540687  1
  Te  Te63  1  0.50110772  0.49883701  0.74652802  1
