# generated using pymatgen
data_AgSbTe2
_symmetry_space_group_name_H-M   'P 1'
_cell_length_a   12.26728165
_cell_length_b   12.29424029
_cell_length_c   12.28563961
_cell_angle_alpha   89.99842581
_cell_angle_beta   90.00405556
_cell_angle_gamma   89.99372625
_symmetry_Int_Tables_number   1
_chemical_formula_structural   AgSbTe2
_chemical_formula_sum   'Ag16 Sb16 Te32'
_cell_volume   1852.88216601
_cell_formula_units_Z   16
loop_
 _symmetry_equiv_pos_site_id
 _symmetry_equiv_pos_as_xyz
  1  'x, y, z'
loop_
 _atom_site_type_symbol
 _atom_site_label
 _atom_site_symmetry_multiplicity
 _atom_site_fract_x
 _atom_site_fract_y
 _atom_site_fract_z
 _atom_site_occupancy
  Ag  Ag0  1  0.23928876  0.25156445  0.48698909  1
  Ag  Ag1  1  -0.00869684  0.25805879  0.25011340  1
  Ag  Ag2  1  0.24323047  0.74819883  0.48939924  1
  Ag  Ag3  1  0.76010309  0.25713762  0.01275170  1
  Ag  Ag4  1  0.76085496  0.49626389  0.24447381  1
  Ag  Ag5  1  -0.00662865  0.74155212  0.25005392  1
  Ag  Ag6  1  0.75198539  0.00279514  0.75221606  1
  Ag  Ag7  1  0.75498852  0.49720508  0.75486074  1
  Ag  Ag8  1  0.76169940  0.25454006  0.48681816  1
  Ag  Ag9  1  0.23889385  0.25149900  0.01468691  1
  Ag  Ag10  1  0.75701129  0.00310262  0.24696510  1
  Ag  Ag11  1  -0.01011618  0.49490240  0.01325129  1
  Ag  Ag12  1  -0.00530728  0.49472276  0.48682278  1
  Ag  Ag13  1  0.24369326  0.00443965  0.25229329  1
  Ag  Ag14  1  0.50797609  0.75028036  0.25030907  1
  Ag  Ag15  1  0.75583356  0.74351596  0.01100506  1
  Sb  Sb16  1  -0.00361800  0.74774581  0.74900836  1
  Sb  Sb17  1  0.23983351  0.74800938  0.01392846  1
  Sb  Sb18  1  0.23900634  0.49172150  0.25066436  1
  Sb  Sb19  1  0.50205634  -0.00209237  0.49721151  1
  Sb  Sb20  1  0.24364706  0.49988303  0.74986982  1
  Sb  Sb21  1  0.50374241  0.25049913  0.74981317  1
  Sb  Sb22  1  0.50516031  0.74886525  0.74804098  1
  Sb  Sb23  1  0.51106683  0.50112716  0.00421243  1
  Sb  Sb24  1  0.50284449  -0.00121315  0.00290101  1
  Sb  Sb25  1  0.50599063  0.25232774  0.25032251  1
  Sb  Sb26  1  0.24563848  0.00078601  0.74913486  1
  Sb  Sb27  1  -0.00140541  0.00778429  0.49543510  1
  Sb  Sb28  1  0.75934474  0.74510978  0.48731851  1
  Sb  Sb29  1  0.50655036  0.50141515  0.49616565  1
  Sb  Sb30  1  -0.00238402  0.25180394  0.74954936  1
  Sb  Sb31  1  -0.00288544  0.00772996  0.00447471  1
  Te  Te32  1  0.25342700  0.24904556  0.25136763  1
  Te  Te33  1  0.25021484  0.24590384  0.74669390  1
  Te  Te34  1  0.24259035  0.75507834  0.24960184  1
  Te  Te35  1  0.25188794  0.75457375  0.73917977  1
  Te  Te36  1  0.74803072  0.24690603  0.24938950  1
  Te  Te37  1  0.75191538  0.25008847  0.75170826  1
  Te  Te38  1  0.75780110  0.75493191  0.25039594  1
  Te  Te39  1  0.74959883  0.75097037  0.75895074  1
  Te  Te40  1  0.24861247  0.00699554  0.00174253  1
  Te  Te41  1  0.24830199  0.00711883  0.49792968  1
  Te  Te42  1  0.24012190  0.49367538  -0.00328826  1
  Te  Te43  1  0.24216445  0.49257405  0.50238588  1
  Te  Te44  1  0.75282839  0.00392194  0.00733219  1
  Te  Te45  1  0.75181533  0.00757781  0.49465009  1
  Te  Te46  1  0.75415605  0.49583749  0.00487496  1
  Te  Te47  1  0.75457460  0.49748446  0.49660200  1
  Te  Te48  1  -0.00442134  0.25338124  0.00438286  1
  Te  Te49  1  -0.00171022  0.25308615  0.49594648  1
  Te  Te50  1  -0.00294943  0.74067665  0.00622278  1
  Te  Te51  1  0.00233438  0.74122637  0.49368385  1
  Te  Te52  1  0.49719552  0.25201728  0.00169948  1
  Te  Te53  1  0.49373846  0.25133098  0.49799458  1
  Te  Te54  1  0.50617374  0.74836651  0.00733017  1
  Te  Te55  1  0.48702717  0.74871424  0.49280318  1
  Te  Te56  1  -0.00280257  0.00179997  0.25015482  1
  Te  Te57  1  -0.01103294  -0.00210538  0.74980004  1
  Te  Te58  1  -0.00432702  0.49598934  0.25074816  1
  Te  Te59  1  -0.00812065  0.50079351  0.74916251  1
  Te  Te60  1  0.50163097  -0.00957154  0.25022398  1
  Te  Te61  1  0.51531930  -0.00085227  0.74993875  1
  Te  Te62  1  0.51766618  0.51018198  0.24999478  1
  Te  Te63  1  0.51683879  0.50099988  0.74933652  1
