# generated using pymatgen
data_AgSbTe2
_symmetry_space_group_name_H-M   'P 1'
_cell_length_a   12.20633074
_cell_length_b   12.20913939
_cell_length_c   12.20652793
_cell_angle_alpha   89.99778029
_cell_angle_beta   89.99694323
_cell_angle_gamma   89.99679842
_symmetry_Int_Tables_number   1
_chemical_formula_structural   AgSbTe2
_chemical_formula_sum   'Ag16 Sb16 Te32'
_cell_volume   1819.12412355
_cell_formula_units_Z   16
loop_
 _symmetry_equiv_pos_site_id
 _symmetry_equiv_pos_as_xyz
  1  'x, y, z'
loop_
 _atom_site_type_symbol
 _atom_site_label
 _atom_site_symmetry_multiplicity
 _atom_site_fract_x
 _atom_site_fract_y
 _atom_site_fract_z
 _atom_site_occupancy
  Ag  Ag0  1  -0.00380673  0.25229359  0.75641076  1
  Ag  Ag1  1  0.75092063  0.49732816  0.24960796  1
  Ag  Ag2  1  -0.00250060  0.00645127  0.00089199  1
  Ag  Ag3  1  0.74911444  0.25434682  0.50095461  1
  Ag  Ag4  1  0.75529944  0.25143132  -0.00112427  1
  Ag  Ag5  1  -0.00393764  0.25050318  0.24360137  1
  Ag  Ag6  1  0.74617898  0.74556195  0.50130579  1
  Ag  Ag7  1  0.50154629  0.74710085  0.74800655  1
  Ag  Ag8  1  0.24870493  0.00076843  0.24852359  1
  Ag  Ag9  1  0.50352759  0.50187563  0.50388531  1
  Ag  Ag10  1  0.74920422  0.74866329  -0.00103293  1
  Ag  Ag11  1  0.25374891  0.74772452  0.50215427  1
  Ag  Ag12  1  -0.00471983  0.49360047  -0.00094509  1
  Ag  Ag13  1  0.25219350  0.49992169  0.74932658  1
  Ag  Ag14  1  0.50344863  0.25289954  0.75113128  1
  Ag  Ag15  1  0.50256128  0.00123225  -0.00130635  1
  Sb  Sb16  1  0.74822369  0.49756089  0.74962968  1
  Sb  Sb17  1  0.25275711  0.75001888  -0.00234498  1
  Sb  Sb18  1  0.50152447  0.75007458  0.25136848  1
  Sb  Sb19  1  0.50431609  0.25011344  0.24762648  1
  Sb  Sb20  1  -0.00147897  0.74978093  0.24827261  1
  Sb  Sb21  1  0.24374814  0.24978608  -0.00080916  1
  Sb  Sb22  1  0.75002548  0.00217814  0.75325780  1
  Sb  Sb23  1  0.50034641  -0.00111205  0.50133949  1
  Sb  Sb24  1  0.50551819  0.49852499  -0.00484264  1
  Sb  Sb25  1  0.25279038  0.25254445  0.50130565  1
  Sb  Sb26  1  0.75210033  0.00313409  0.24596506  1
  Sb  Sb27  1  0.24854487  0.49962065  0.25063214  1
  Sb  Sb28  1  0.25004871  -0.00076179  0.75078398  1
  Sb  Sb29  1  -0.00441504  0.49791645  0.50139854  1
  Sb  Sb30  1  -0.00195894  0.74695135  0.75235712  1
  Sb  Sb31  1  0.00009855  0.00253034  0.49971666  1
  Te  Te32  1  0.24304465  0.24700063  0.25198610  1
  Te  Te33  1  0.25142114  0.25464215  0.74830004  1
  Te  Te34  1  0.24975653  0.75244168  0.25613512  1
  Te  Te35  1  0.25354300  0.74657629  0.74598633  1
  Te  Te36  1  0.75343491  0.25288570  0.24955807  1
  Te  Te37  1  0.74976288  0.25035203  0.75032872  1
  Te  Te38  1  0.75040516  0.74471394  0.25057877  1
  Te  Te39  1  0.74638526  0.74996782  0.74874080  1
  Te  Te40  1  0.24971665  -0.00150041  0.00415942  1
  Te  Te41  1  0.25036233  -0.00668390  0.49461741  1
  Te  Te42  1  0.24416723  0.50191768  -0.00256353  1
  Te  Te43  1  0.25400025  0.50406601  0.50189204  1
  Te  Te44  1  0.75052318  -0.00033436  0.00216307  1
  Te  Te45  1  0.74957848  -0.00170888  0.49739632  1
  Te  Te46  1  0.75187729  0.49970184  0.00313099  1
  Te  Te47  1  0.74804671  0.50057800  0.49712296  1
  Te  Te48  1  -0.00214245  0.24956301  -0.00157907  1
  Te  Te49  1  -0.00643114  0.24961411  0.50195488  1
  Te  Te50  1  -0.00679808  0.75095035  -0.00157370  1
  Te  Te51  1  -0.00384842  0.75048285  0.50110397  1
  Te  Te52  1  0.50608717  0.24836496  -0.00382817  1
  Te  Te53  1  0.50463663  0.25144061  0.50457542  1
  Te  Te54  1  0.50476108  0.75170938  -0.00469356  1
  Te  Te55  1  0.50377946  0.74902766  0.50383465  1
  Te  Te56  1  0.00317826  0.00504262  0.24450093  1
  Te  Te57  1  0.00212363  0.00751404  0.75717472  1
  Te  Te58  1  -0.00285575  0.49489882  0.24541330  1
  Te  Te59  1  0.00589891  0.49593167  0.75383232  1
  Te  Te60  1  0.49400152  0.00130091  0.24255868  1
  Te  Te61  1  0.49834370  0.00110221  0.75582363  1
  Te  Te62  1  0.50346676  0.49861124  0.25658818  1
  Te  Te63  1  0.49609956  0.49926498  0.74773288  1
