# generated using pymatgen
data_AgSbTe2
_symmetry_space_group_name_H-M   'P 1'
_cell_length_a   12.31902463
_cell_length_b   12.30873954
_cell_length_c   12.29857762
_cell_angle_alpha   89.99112442
_cell_angle_beta   90.00972967
_cell_angle_gamma   90.00564360
_symmetry_Int_Tables_number   1
_chemical_formula_structural   AgSbTe2
_chemical_formula_sum   'Ag16 Sb16 Te32'
_cell_volume   1864.85375040
_cell_formula_units_Z   16
loop_
 _symmetry_equiv_pos_site_id
 _symmetry_equiv_pos_as_xyz
  1  'x, y, z'
loop_
 _atom_site_type_symbol
 _atom_site_label
 _atom_site_symmetry_multiplicity
 _atom_site_fract_x
 _atom_site_fract_y
 _atom_site_fract_z
 _atom_site_occupancy
  Ag  Ag0  1  0.74625699  0.25395362  0.50675775  1
  Ag  Ag1  1  0.24837366  0.27214821  -0.00102045  1
  Ag  Ag2  1  0.01780418  0.51259652  -0.00677842  1
  Ag  Ag3  1  0.25013213  0.51004986  0.76581412  1
  Ag  Ag4  1  0.24250914  0.73522130  -0.01230599  1
  Ag  Ag5  1  0.48130660  0.51047203  -0.00679310  1
  Ag  Ag6  1  0.74532388  0.74825176  0.51509064  1
  Ag  Ag7  1  0.49796190  0.74489661  0.75245995  1
  Ag  Ag8  1  0.75002216  0.51065384  0.75716220  1
  Ag  Ag9  1  0.00190679  0.74492238  0.75682816  1
  Ag  Ag10  1  0.25429753  0.74631941  0.51084657  1
  Ag  Ag11  1  0.49748585  -0.01021621  0.50257358  1
  Ag  Ag12  1  0.25010406  -0.01162561  0.24278530  1
  Ag  Ag13  1  0.75808155  0.73885328  -0.01604420  1
  Ag  Ag14  1  0.01082396  -0.01556557  -0.00194031  1
  Ag  Ag15  1  0.25023511  0.50832058  0.23110290  1
  Sb  Sb16  1  0.49853964  0.50463986  0.50315320  1
  Sb  Sb17  1  0.49834494  0.74863563  0.24810492  1
  Sb  Sb18  1  0.75108896  0.25563767  -0.00507142  1
  Sb  Sb19  1  0.00207865  0.74955699  0.24307231  1
  Sb  Sb20  1  0.25119120  0.25198543  0.50073497  1
  Sb  Sb21  1  0.00073451  0.25558125  0.75269916  1
  Sb  Sb22  1  0.00062786  -0.00665392  0.50123318  1
  Sb  Sb23  1  0.24910422  -0.00980215  0.75384546  1
  Sb  Sb24  1  0.00109660  0.50494238  0.50259648  1
  Sb  Sb25  1  0.49918956  0.25596449  0.75056002  1
  Sb  Sb26  1  0.00216924  0.25122282  0.24768712  1
  Sb  Sb27  1  0.75078257  -0.00281723  0.24877686  1
  Sb  Sb28  1  0.75047605  0.50237106  0.24649553  1
  Sb  Sb29  1  0.49775136  0.25135228  0.24980718  1
  Sb  Sb30  1  0.75015593  -0.01029260  0.75068200  1
  Sb  Sb31  1  0.49681193  -0.00750534  -0.00163141  1
  Te  Te32  1  0.24994044  0.25543420  0.24998870  1
  Te  Te33  1  0.25009349  0.26484654  0.75209016  1
  Te  Te34  1  0.24850187  0.74822894  0.25310922  1
  Te  Te35  1  0.25128810  0.74831452  0.74895661  1
  Te  Te36  1  0.74993748  0.24899540  0.26340173  1
  Te  Te37  1  0.74983925  0.26374945  0.74485496  1
  Te  Te38  1  0.75096881  0.75157047  0.25472358  1
  Te  Te39  1  0.74833117  0.74809927  0.75387143  1
  Te  Te40  1  0.24891914  -0.00634403  0.00079321  1
  Te  Te41  1  0.25033754  -0.00021298  0.49892716  1
  Te  Te42  1  0.25051810  0.49892283  0.00022143  1
  Te  Te43  1  0.24979611  0.50315741  0.49937829  1
  Te  Te44  1  0.75119013  0.00043989  0.00149509  1
  Te  Te45  1  0.75033693  -0.01145612  0.49994683  1
  Te  Te46  1  0.75205437  0.50246696  0.00047227  1
  Te  Te47  1  0.75062720  0.50959087  0.49623585  1
  Te  Te48  1  0.00165017  0.24927779  0.00038753  1
  Te  Te49  1  -0.00847388  0.24859160  0.50035697  1
  Te  Te50  1  -0.00027866  0.74893397  -0.00236216  1
  Te  Te51  1  0.00079972  0.74869924  0.51084155  1
  Te  Te52  1  0.49772733  0.25262813  -0.00082052  1
  Te  Te53  1  0.50449077  0.24174360  0.50053089  1
  Te  Te54  1  0.50061803  0.74763352  -0.00163197  1
  Te  Te55  1  0.49671496  0.75112516  0.50198138  1
  Te  Te56  1  0.00597756  -0.00041868  0.24301159  1
  Te  Te57  1  -0.00058763  -0.00670505  0.75609879  1
  Te  Te58  1  0.00401301  0.50080274  0.24131792  1
  Te  Te59  1  -0.00014590  0.50210530  0.75081146  1
  Te  Te60  1  0.49512542  0.00072157  0.25306343  1
  Te  Te61  1  0.50043080  -0.00882397  0.74648800  1
  Te  Te62  1  0.49625029  0.50000688  0.24074740  1
  Te  Te63  1  0.50023915  0.50380395  0.75142692  1
