# generated using pymatgen
data_AgSbTe2
_symmetry_space_group_name_H-M   'P 1'
_cell_length_a   12.25162847
_cell_length_b   12.22057537
_cell_length_c   12.25162849
_cell_angle_alpha   89.99683725
_cell_angle_beta   89.99789181
_cell_angle_gamma   90.00316274
_symmetry_Int_Tables_number   1
_chemical_formula_structural   AgSbTe2
_chemical_formula_sum   'Ag16 Sb16 Te32'
_cell_volume   1834.33769045
_cell_formula_units_Z   16
loop_
 _symmetry_equiv_pos_site_id
 _symmetry_equiv_pos_as_xyz
  1  'x, y, z'
loop_
 _atom_site_type_symbol
 _atom_site_label
 _atom_site_symmetry_multiplicity
 _atom_site_fract_x
 _atom_site_fract_y
 _atom_site_fract_z
 _atom_site_occupancy
  Ag  Ag0  1  0.75362270  0.24148649  0.50070430  1
  Ag  Ag1  1  0.24929571  0.24148760  -0.00362271  1
  Ag  Ag2  1  0.49796252  0.00380787  0.50494413  1
  Ag  Ag3  1  0.25301649  0.00498634  0.74824149  1
  Ag  Ag4  1  0.75125042  0.24213520  -0.00125041  1
  Ag  Ag5  1  0.24841394  0.75854504  0.50158607  1
  Ag  Ag6  1  0.00175871  0.00498633  0.49698377  1
  Ag  Ag7  1  0.24888962  0.49460053  0.74739090  1
  Ag  Ag8  1  0.24505608  0.00380782  0.25203728  1
  Ag  Ag9  1  0.00086515  0.00725511  0.00277639  1
  Ag  Ag10  1  0.00260905  0.49460058  0.50111037  1
  Ag  Ag11  1  -0.00058128  0.24261782  0.25208993  1
  Ag  Ag12  1  0.75539654  0.00622210  0.25088767  1
  Ag  Ag13  1  0.49791005  0.24261995  0.75058127  1
  Ag  Ag14  1  0.49911211  0.00622202  -0.00539678  1
  Ag  Ag15  1  0.74722334  0.00725526  0.74913508  1
  Sb  Sb16  1  0.49758831  0.76037456  0.74831775  1
  Sb  Sb17  1  0.24594598  0.49473253  0.25255153  1
  Sb  Sb18  1  0.75154586  0.49010657  0.74784158  1
  Sb  Sb19  1  0.00215836  0.49010654  -0.00154575  1
  Sb  Sb20  1  0.00209346  0.24555594  0.74790657  1
  Sb  Sb21  1  0.49744854  0.49473246  0.50405388  1
  Sb  Sb22  1  0.00168224  0.76037551  0.25241163  1
  Sb  Sb23  1  0.75098862  0.76048501  0.49999930  1
  Sb  Sb24  1  0.24740449  0.24279385  0.50259544  1
  Sb  Sb25  1  0.75019884  0.76225806  -0.00019882  1
  Sb  Sb26  1  0.49784290  0.49098918  -0.00421725  1
  Sb  Sb27  1  0.75421733  0.49098911  0.25215713  1
  Sb  Sb28  1  0.49823153  0.75770679  0.25176849  1
  Sb  Sb29  1  0.00183099  0.75516850  0.74816903  1
  Sb  Sb30  1  0.25000071  0.76048604  -0.00098863  1
  Sb  Sb31  1  0.49987643  0.24508375  0.25012360  1
  Te  Te32  1  0.24719493  0.24536323  0.24523023  1
  Te  Te33  1  0.25233724  0.24516019  0.75161891  1
  Te  Te34  1  0.24939224  0.75545158  0.25415175  1
  Te  Te35  1  0.25056587  0.75159747  0.74673527  1
  Te  Te36  1  0.75164716  0.24514041  0.25025251  1
  Te  Te37  1  0.74673330  0.24571661  0.75040143  1
  Te  Te38  1  0.74998459  0.75779182  0.24972217  1
  Te  Te39  1  0.74915737  0.75673950  0.75047038  1
  Te  Te40  1  0.24913758  0.00178220  -0.00158277  1
  Te  Te41  1  0.24876545  0.00173579  0.50123452  1
  Te  Te42  1  0.24946783  0.49513246  -0.00411943  1
  Te  Te43  1  0.24729906  0.50284883  0.50270096  1
  Te  Te44  1  0.75093141  0.00311861  -0.00093147  1
  Te  Te45  1  0.75158281  0.00178426  0.50086247  1
  Te  Te46  1  0.75047398  0.49259030  -0.00047394  1
  Te  Te47  1  0.75411939  0.49513264  0.50053218  1
  Te  Te48  1  -0.00040141  0.24571678  0.00326669  1
  Te  Te49  1  -0.00161887  0.24516020  0.49766274  1
  Te  Te50  1  -0.00047047  0.75673949  0.00084261  1
  Te  Te51  1  0.00326470  0.75159735  0.49943419  1
  Te  Te52  1  0.49974748  0.24514046  -0.00164720  1
  Te  Te53  1  0.50476978  0.24536326  0.50280506  1
  Te  Te54  1  0.50027791  0.75779188  0.00001535  1
  Te  Te55  1  0.49584827  0.75545158  0.50060785  1
  Te  Te56  1  0.00107407  0.00347279  0.25172912  1
  Te  Te57  1  0.00124698  -0.00063282  0.74875303  1
  Te  Te58  1  -0.00009306  0.49168388  0.25510218  1
  Te  Te59  1  0.00462843  0.50180804  0.74537159  1
  Te  Te60  1  0.49834125  0.00061537  0.25165874  1
  Te  Te61  1  0.49827091  0.00347140  0.74892599  1
  Te  Te62  1  0.50057040  0.50327006  0.24942960  1
  Te  Te63  1  0.49489769  0.49168391  0.75009307  1
