# generated using pymatgen
data_AgSbTe2
_symmetry_space_group_name_H-M   'P 1'
_cell_length_a   12.23848713
_cell_length_b   12.21418477
_cell_length_c   12.21826235
_cell_angle_alpha   89.98269773
_cell_angle_beta   90.00012096
_cell_angle_gamma   90.00074116
_symmetry_Int_Tables_number   1
_chemical_formula_structural   AgSbTe2
_chemical_formula_sum   'Ag16 Sb16 Te32'
_cell_volume   1826.42417630
_cell_formula_units_Z   16
loop_
 _symmetry_equiv_pos_site_id
 _symmetry_equiv_pos_as_xyz
  1  'x, y, z'
loop_
 _atom_site_type_symbol
 _atom_site_label
 _atom_site_symmetry_multiplicity
 _atom_site_fract_x
 _atom_site_fract_y
 _atom_site_fract_z
 _atom_site_occupancy
  Ag  Ag0  1  0.75248542  0.24845485  0.50204041  1
  Ag  Ag1  1  0.75060538  0.00450488  0.74509610  1
  Ag  Ag2  1  0.25002937  -0.00030849  0.74876773  1
  Ag  Ag3  1  0.50177797  0.25525185  0.25194471  1
  Ag  Ag4  1  -0.00279198  0.25150690  0.74768814  1
  Ag  Ag5  1  0.50181859  0.00319018  0.50485708  1
  Ag  Ag6  1  0.49554957  0.50013482  -0.00208007  1
  Ag  Ag7  1  0.75036136  0.49541889  0.75220849  1
  Ag  Ag8  1  -0.00244771  0.25483114  0.25232140  1
  Ag  Ag9  1  0.49697947  0.74777384  0.75128522  1
  Ag  Ag10  1  0.24989588  0.49711608  0.24223667  1
  Ag  Ag11  1  -0.00213479  0.00693294  0.50522207  1
  Ag  Ag12  1  0.25152430  0.74236438  -0.00461608  1
  Ag  Ag13  1  0.25035017  0.50104272  0.75763497  1
  Ag  Ag14  1  0.00412292  0.49775716  -0.00174713  1
  Ag  Ag15  1  0.75009601  0.49332472  0.24815799  1
  Sb  Sb16  1  0.74867059  0.75152733  0.50222321  1
  Sb  Sb17  1  0.75040846  0.25339516  -0.00233063  1
  Sb  Sb18  1  0.25000784  0.25778758  -0.00138181  1
  Sb  Sb19  1  0.50223516  0.25140508  0.74777255  1
  Sb  Sb20  1  0.25177284  0.74975182  0.50366247  1
  Sb  Sb21  1  0.00256705  0.74825952  0.75139623  1
  Sb  Sb22  1  0.75016523  0.00817211  0.25497274  1
  Sb  Sb23  1  0.50167819  0.49708891  0.50059550  1
  Sb  Sb24  1  0.74884231  0.74522578  -0.00242962  1
  Sb  Sb25  1  0.00212369  0.00321946  -0.00353840  1
  Sb  Sb26  1  0.49830977  0.74627779  0.24908425  1
  Sb  Sb27  1  0.24971771  0.00241361  0.24959748  1
  Sb  Sb28  1  -0.00179255  0.49463499  0.50089486  1
  Sb  Sb29  1  0.24753089  0.24920051  0.50113649  1
  Sb  Sb30  1  0.49794592  0.00088388  -0.00354840  1
  Sb  Sb31  1  0.00149766  0.74457170  0.24851225  1
  Te  Te32  1  0.24888117  0.25456675  0.25079328  1
  Te  Te33  1  0.24566673  0.25073410  0.74936786  1
  Te  Te34  1  0.25016274  0.74345887  0.24465507  1
  Te  Te35  1  0.25313960  0.74713450  0.75222316  1
  Te  Te36  1  0.75188562  0.25309453  0.25337951  1
  Te  Te37  1  0.75196731  0.25204566  0.74707290  1
  Te  Te38  1  0.74975364  0.73960873  0.24990246  1
  Te  Te39  1  0.74429263  0.74732594  0.74944192  1
  Te  Te40  1  0.25017771  -0.00877311  -0.00636553  1
  Te  Te41  1  0.25103804  -0.00061943  0.50484670  1
  Te  Te42  1  0.25058786  0.50106177  -0.00267852  1
  Te  Te43  1  0.24986075  0.50113405  0.50180699  1
  Te  Te44  1  0.75018347  -0.00286564  -0.00911352  1
  Te  Te45  1  0.74978209  0.00315994  0.50334405  1
  Te  Te46  1  0.75006417  0.50090048  -0.00282492  1
  Te  Te47  1  0.75014799  0.49556168  0.50213722  1
  Te  Te48  1  0.00036927  0.25535059  0.00013427  1
  Te  Te49  1  -0.00375149  0.24654768  0.50146282  1
  Te  Te50  1  0.00578606  0.74233079  0.00125133  1
  Te  Te51  1  0.00022059  0.76322999  0.49884111  1
  Te  Te52  1  0.49992191  0.25590560  0.00841865  1
  Te  Te53  1  0.50554259  0.24546525  0.49612802  1
  Te  Te54  1  0.49614892  0.74522498  -0.00393757  1
  Te  Te55  1  0.50006793  0.75881556  0.50570792  1
  Te  Te56  1  0.00038938  0.00757664  0.25234782  1
  Te  Te57  1  0.00004629  0.00227946  0.74950795  1
  Te  Te58  1  -0.00000922  0.49594715  0.25019390  1
  Te  Te59  1  -0.00056516  0.49775319  0.75070459  1
  Te  Te60  1  0.49967815  0.00428225  0.25352367  1
  Te  Te61  1  0.49903129  0.00159031  0.74894736  1
  Te  Te62  1  0.49993658  0.49771554  0.24998216  1
  Te  Te63  1  0.49969275  0.49934413  0.75116048  1
