# generated using pymatgen
data_AgSbTe2
_symmetry_space_group_name_H-M   'P 1'
_cell_length_a   12.21806210
_cell_length_b   12.20549529
_cell_length_c   12.21899962
_cell_angle_alpha   90.00018740
_cell_angle_beta   89.99710954
_cell_angle_gamma   90.00410263
_symmetry_Int_Tables_number   1
_chemical_formula_structural   AgSbTe2
_chemical_formula_sum   'Ag16 Sb16 Te32'
_cell_volume   1822.18885063
_cell_formula_units_Z   16
loop_
 _symmetry_equiv_pos_site_id
 _symmetry_equiv_pos_as_xyz
  1  'x, y, z'
loop_
 _atom_site_type_symbol
 _atom_site_label
 _atom_site_symmetry_multiplicity
 _atom_site_fract_x
 _atom_site_fract_y
 _atom_site_fract_z
 _atom_site_occupancy
  Ag  Ag0  1  0.25046116  0.74753499  0.49789549  1
  Ag  Ag1  1  0.00004122  0.00315775  0.00337220  1
  Ag  Ag2  1  0.50004684  0.25087055  0.74937238  1
  Ag  Ag3  1  -0.00056314  0.49918661  0.49849049  1
  Ag  Ag4  1  0.50018440  0.00252895  0.00320886  1
  Ag  Ag5  1  0.74999001  0.25107021  0.49946310  1
  Ag  Ag6  1  0.75177706  0.49589072  0.74686645  1
  Ag  Ag7  1  0.24760473  0.50066742  0.25119523  1
  Ag  Ag8  1  -0.00269642  0.00130857  0.49664723  1
  Ag  Ag9  1  0.24968365  0.25224561  -0.00053337  1
  Ag  Ag10  1  0.00216994  0.49727575  0.00146150  1
  Ag  Ag11  1  0.74829841  0.00051161  0.25310706  1
  Ag  Ag12  1  0.24823563  0.49761475  0.74941575  1
  Ag  Ag13  1  0.50251755  0.00055109  0.49649193  1
  Ag  Ag14  1  0.49963089  0.75163332  0.25198489  1
  Ag  Ag15  1  0.75254865  0.49880894  0.25339535  1
  Sb  Sb16  1  0.00197685  0.74735917  0.74868857  1
  Sb  Sb17  1  0.25106078  -0.00066225  0.25054117  1
  Sb  Sb18  1  0.49786670  0.49673289  0.00107791  1
  Sb  Sb19  1  0.74948568  0.74914347  0.49740281  1
  Sb  Sb20  1  0.49788035  0.74949092  0.74822923  1
  Sb  Sb21  1  0.00117798  0.74753165  0.25130560  1
  Sb  Sb22  1  0.74985065  0.25052129  -0.00019382  1
  Sb  Sb23  1  -0.00023611  0.25189042  0.25040653  1
  Sb  Sb24  1  0.50068113  0.24745203  0.25086412  1
  Sb  Sb25  1  -0.00003876  0.25371681  0.74983711  1
  Sb  Sb26  1  0.25050666  0.25307590  0.50062772  1
  Sb  Sb27  1  0.50121304  0.49906726  0.49881704  1
  Sb  Sb28  1  0.25041922  0.00325823  0.75006656  1
  Sb  Sb29  1  0.74917427  0.00430610  0.74657566  1
  Sb  Sb30  1  0.25131413  0.74710175  0.00227305  1
  Sb  Sb31  1  0.74891976  0.74972290  0.00185634  1
  Te  Te32  1  0.25201584  0.25861074  0.24420320  1
  Te  Te33  1  0.25598216  0.25530935  0.75322945  1
  Te  Te34  1  0.25604947  0.74424179  0.25405610  1
  Te  Te35  1  0.25121209  0.74059460  0.74311113  1
  Te  Te36  1  0.74849576  0.25166352  0.25554970  1
  Te  Te37  1  0.74402011  0.25557713  0.74536005  1
  Te  Te38  1  0.74195637  0.74935730  0.25072993  1
  Te  Te39  1  0.74833955  0.73759003  0.75014500  1
  Te  Te40  1  0.24659846  0.00322463  0.00031114  1
  Te  Te41  1  0.24713836  -0.00137619  0.49955414  1
  Te  Te42  1  0.24652353  0.49821361  0.00022505  1
  Te  Te43  1  0.24773854  0.49944280  0.49883419  1
  Te  Te44  1  0.75289559  0.00118092  0.00341980  1
  Te  Te45  1  0.75223102  0.00120374  0.49826927  1
  Te  Te46  1  0.75588310  0.49860064  0.00292634  1
  Te  Te47  1  0.75190714  0.49873642  0.49692026  1
  Te  Te48  1  0.00450824  0.24842556  -0.00044987  1
  Te  Te49  1  -0.00373609  0.24833164  0.50033633  1
  Te  Te50  1  0.00087822  0.75260296  -0.00047941  1
  Te  Te51  1  0.00643424  0.75103476  0.49990970  1
  Te  Te52  1  0.49699797  0.24486331  -0.00395703  1
  Te  Te53  1  0.50230100  0.24460103  0.50355365  1
  Te  Te54  1  0.49893059  0.75997531  0.00457604  1
  Te  Te55  1  0.49525808  0.75611569  0.49729242  1
  Te  Te56  1  -0.00384631  -0.00154728  0.25036229  1
  Te  Te57  1  -0.00123699  -0.00043877  0.75050656  1
  Te  Te58  1  -0.00202372  0.50140958  0.25058526  1
  Te  Te59  1  0.00027989  0.49946848  0.74961182  1
  Te  Te60  1  0.50172129  -0.00170289  0.25070157  1
  Te  Te61  1  0.50088281  0.00324415  0.75041697  1
  Te  Te62  1  0.50239484  0.50391218  0.24929820  1
  Te  Te63  1  0.50008593  0.49696788  0.75068061  1
