# generated using pymatgen
data_AgSbTe2
_symmetry_space_group_name_H-M   'P 1'
_cell_length_a   12.29360351
_cell_length_b   12.32584694
_cell_length_c   12.30591151
_cell_angle_alpha   90.00651163
_cell_angle_beta   89.99080204
_cell_angle_gamma   89.99650792
_symmetry_Int_Tables_number   1
_chemical_formula_structural   AgSbTe2
_chemical_formula_sum   'Ag16 Sb16 Te32'
_cell_volume   1864.70335133
_cell_formula_units_Z   16
loop_
 _symmetry_equiv_pos_site_id
 _symmetry_equiv_pos_as_xyz
  1  'x, y, z'
loop_
 _atom_site_type_symbol
 _atom_site_label
 _atom_site_symmetry_multiplicity
 _atom_site_fract_x
 _atom_site_fract_y
 _atom_site_fract_z
 _atom_site_occupancy
  Ag  Ag0  1  -0.00052981  0.00216834  0.00876576  1
  Ag  Ag1  1  0.76081182  0.50381957  0.26121058  1
  Ag  Ag2  1  0.23427382  0.75318037  0.49426962  1
  Ag  Ag3  1  0.23249891  0.24660827  0.49926879  1
  Ag  Ag4  1  0.76354617  0.74780967  0.49617309  1
  Ag  Ag5  1  0.23158082  0.49630167  0.74439813  1
  Ag  Ag6  1  0.76539577  0.24966431  0.50258782  1
  Ag  Ag7  1  -0.00200018  0.49716207  -0.00005435  1
  Ag  Ag8  1  -0.00161870  0.24385315  0.26408159  1
  Ag  Ag9  1  0.75999889  0.49696790  0.74234845  1
  Ag  Ag10  1  0.50289352  0.75020697  0.25543374  1
  Ag  Ag11  1  -0.00037717  0.75471991  0.25921362  1
  Ag  Ag12  1  0.24026682  -0.00394291  0.25797325  1
  Ag  Ag13  1  0.76102482  0.00493915  0.74077877  1
  Ag  Ag14  1  -0.00543177  0.25155130  0.73575672  1
  Ag  Ag15  1  -0.00030733  0.00714570  0.49412560  1
  Sb  Sb16  1  0.50227606  0.74962441  0.74341405  1
  Sb  Sb17  1  -0.00163453  0.74912768  0.74109921  1
  Sb  Sb18  1  0.50180985  -0.00126626  0.49974138  1
  Sb  Sb19  1  0.50272437  0.25025936  0.74594851  1
  Sb  Sb20  1  0.75508658  0.74889570  0.00412676  1
  Sb  Sb21  1  -0.00147119  0.49626046  0.50095835  1
  Sb  Sb22  1  0.24224628  0.24983789  0.00067778  1
  Sb  Sb23  1  0.50180472  0.50051739  0.49942307  1
  Sb  Sb24  1  0.75630313  0.00007801  0.25527878  1
  Sb  Sb25  1  0.50410195  -0.00308953  0.00287862  1
  Sb  Sb26  1  0.24118078  0.00113305  0.74522591  1
  Sb  Sb27  1  0.24316281  0.74977342  0.00513792  1
  Sb  Sb28  1  0.75501673  0.25085656  -0.00104907  1
  Sb  Sb29  1  0.24043208  0.49977562  0.25300193  1
  Sb  Sb30  1  0.50035620  0.50234332  0.00097567  1
  Sb  Sb31  1  0.50240850  0.24972563  0.25453684  1
  Te  Te32  1  0.24970367  0.25500417  0.25488061  1
  Te  Te33  1  0.24971689  0.25020971  0.74495861  1
  Te  Te34  1  0.23854641  0.74487735  0.25356344  1
  Te  Te35  1  0.25154223  0.74863897  0.74023969  1
  Te  Te36  1  0.75117700  0.24862672  0.25419004  1
  Te  Te37  1  0.75168999  0.25561206  0.74789751  1
  Te  Te38  1  0.75934733  0.75188600  0.25383169  1
  Te  Te39  1  0.74933724  0.74098602  0.74174383  1
  Te  Te40  1  0.24271709  -0.00044754  0.00267812  1
  Te  Te41  1  0.24761077  -0.00078800  0.49821144  1
  Te  Te42  1  0.24529040  0.50008358  -0.01134715  1
  Te  Te43  1  0.25194890  0.50047378  0.50468348  1
  Te  Te44  1  0.75655175  -0.00043439  -0.00976954  1
  Te  Te45  1  0.75233136  0.00111321  0.50107169  1
  Te  Te46  1  0.75447013  0.50063293  -0.00555941  1
  Te  Te47  1  0.74864837  0.50130331  0.49906002  1
  Te  Te48  1  -0.00081286  0.24848940  0.00264130  1
  Te  Te49  1  -0.00111012  0.24888040  0.49964538  1
  Te  Te50  1  -0.00012668  0.75245266  0.01181927  1
  Te  Te51  1  -0.00130599  0.75343415  0.49761109  1
  Te  Te52  1  0.49805073  0.24896045  -0.00037853  1
  Te  Te53  1  0.49868026  0.25051051  0.50118224  1
  Te  Te54  1  0.49942942  0.75132945  0.01490611  1
  Te  Te55  1  0.50085853  0.74999364  0.49489468  1
  Te  Te56  1  0.00127858  0.00618734  0.25369387  1
  Te  Te57  1  -0.00326523  0.00050016  0.74571900  1
  Te  Te58  1  -0.00414521  0.49569534  0.24795467  1
  Te  Te59  1  -0.00043904  0.49949995  0.75037801  1
  Te  Te60  1  0.48567398  -0.00189148  0.24788281  1
  Te  Te61  1  0.51629941  -0.00151592  0.75382734  1
  Te  Te62  1  0.51430783  0.50250731  0.24819041  1
  Te  Te63  1  0.50816616  0.50118061  0.75199142  1
