# generated using pymatgen
data_AgSbTe2
_symmetry_space_group_name_H-M   'P 1'
_cell_length_a   12.22989381
_cell_length_b   12.22345232
_cell_length_c   12.22001694
_cell_angle_alpha   90.00945068
_cell_angle_beta   89.99654458
_cell_angle_gamma   90.00384818
_symmetry_Int_Tables_number   1
_chemical_formula_structural   AgSbTe2
_chemical_formula_sum   'Ag16 Sb16 Te32'
_cell_volume   1826.78892199
_cell_formula_units_Z   16
loop_
 _symmetry_equiv_pos_site_id
 _symmetry_equiv_pos_as_xyz
  1  'x, y, z'
loop_
 _atom_site_type_symbol
 _atom_site_label
 _atom_site_symmetry_multiplicity
 _atom_site_fract_x
 _atom_site_fract_y
 _atom_site_fract_z
 _atom_site_occupancy
  Ag  Ag0  1  0.24955563  -0.00510606  0.75910604  1
  Ag  Ag1  1  0.74831953  0.75133699  0.50159160  1
  Ag  Ag2  1  0.49857205  -0.00390786  -0.00187089  1
  Ag  Ag3  1  -0.00168999  0.50086782  0.00142913  1
  Ag  Ag4  1  -0.00122260  0.24503099  0.75758702  1
  Ag  Ag5  1  0.25018308  0.50343448  0.24514407  1
  Ag  Ag6  1  0.74926082  0.75490011  -0.00221727  1
  Ag  Ag7  1  0.49997601  0.24838182  0.24418501  1
  Ag  Ag8  1  0.00057222  -0.00079353  -0.00393647  1
  Ag  Ag9  1  0.74988801  0.50212290  0.24399069  1
  Ag  Ag10  1  0.25169253  -0.00385458  0.24057922  1
  Ag  Ag11  1  0.50036978  0.75555923  0.75508239  1
  Ag  Ag12  1  0.75058911  -0.00413749  0.75874834  1
  Ag  Ag13  1  0.25138750  0.75237763  0.49957467  1
  Ag  Ag14  1  0.25083624  0.75748612  0.00021524  1
  Ag  Ag15  1  0.75226648  0.24569989  -0.00028692  1
  Sb  Sb16  1  -0.00031708  0.75441754  0.75479315  1
  Sb  Sb17  1  0.00002386  -0.00150706  0.50329159  1
  Sb  Sb18  1  0.74952541  0.24850417  0.50036823  1
  Sb  Sb19  1  0.25026618  0.24905060  0.49871497  1
  Sb  Sb20  1  0.00005479  0.50228127  0.49933171  1
  Sb  Sb21  1  0.50017666  0.50276428  0.00240602  1
  Sb  Sb22  1  0.24717174  0.50534222  0.75557356  1
  Sb  Sb23  1  0.49999540  0.50340336  0.49765288  1
  Sb  Sb24  1  0.00212685  0.75111958  0.24530394  1
  Sb  Sb25  1  0.49972189  -0.00301169  0.50122537  1
  Sb  Sb26  1  0.49753162  0.75211683  0.24525636  1
  Sb  Sb27  1  0.74854057  -0.00160034  0.24125968  1
  Sb  Sb28  1  0.24783121  0.24293534  0.00058359  1
  Sb  Sb29  1  -0.00096820  0.24933788  0.24403719  1
  Sb  Sb30  1  0.50093914  0.24401225  0.75627136  1
  Sb  Sb31  1  0.75223889  0.50392867  0.75513431  1
  Te  Te32  1  0.25318083  0.25112809  0.25111929  1
  Te  Te33  1  0.24924388  0.24427024  0.74808452  1
  Te  Te34  1  0.25128531  0.75042742  0.24809302  1
  Te  Te35  1  0.25141223  0.75304029  0.75252905  1
  Te  Te36  1  0.74777301  0.25212458  0.24769286  1
  Te  Te37  1  0.75014176  0.24665886  0.75242768  1
  Te  Te38  1  0.74842911  0.74717339  0.24854520  1
  Te  Te39  1  0.74837795  0.75241802  0.75355387  1
  Te  Te40  1  0.24942500  -0.00047600  -0.00040474  1
  Te  Te41  1  0.24945644  -0.00636974  0.49976544  1
  Te  Te42  1  0.24720638  0.50463777  0.00387799  1
  Te  Te43  1  0.24904594  0.50711188  0.49279217  1
  Te  Te44  1  0.75135352  -0.00298783  -0.00039986  1
  Te  Te45  1  0.75130451  -0.00695845  0.50608186  1
  Te  Te46  1  0.75208839  0.50242390  0.00296019  1
  Te  Te47  1  0.75100340  0.50701277  0.49286377  1
  Te  Te48  1  -0.00335141  0.24845889  -0.00320952  1
  Te  Te49  1  -0.00081647  0.25030298  0.51050025  1
  Te  Te50  1  -0.00072316  0.75134685  -0.00035679  1
  Te  Te51  1  -0.00017413  0.74938063  0.50097271  1
  Te  Te52  1  0.50573920  0.24528894  0.00291793  1
  Te  Te53  1  0.50051562  0.25009273  0.49139699  1
  Te  Te54  1  0.50003142  0.75362872  -0.00329734  1
  Te  Te55  1  0.50013590  0.75112901  0.50652273  1
  Te  Te56  1  0.00681543  0.00153857  0.24299735  1
  Te  Te57  1  0.00029575  0.00341394  0.75390586  1
  Te  Te58  1  0.00057835  0.49885217  0.24352555  1
  Te  Te59  1  0.00066348  0.49085031  0.75743133  1
  Te  Te60  1  0.49655609  0.00298991  0.24470192  1
  Te  Te61  1  0.49936900  -0.00311605  0.75416163  1
  Te  Te62  1  0.49910062  0.49522626  0.24889455  1
  Te  Te63  1  0.49912131  0.50648756  0.74922680  1
