# generated using pymatgen
data_AgSbTe2
_symmetry_space_group_name_H-M   'P 1'
_cell_length_a   12.27947279
_cell_length_b   12.27204402
_cell_length_c   12.27787923
_cell_angle_alpha   90.00000000
_cell_angle_beta   90.00145363
_cell_angle_gamma   89.99999991
_symmetry_Int_Tables_number   1
_chemical_formula_structural   AgSbTe2
_chemical_formula_sum   'Ag16 Sb16 Te32'
_cell_volume   1850.20556232
_cell_formula_units_Z   16
loop_
 _symmetry_equiv_pos_site_id
 _symmetry_equiv_pos_as_xyz
  1  'x, y, z'
loop_
 _atom_site_type_symbol
 _atom_site_label
 _atom_site_symmetry_multiplicity
 _atom_site_fract_x
 _atom_site_fract_y
 _atom_site_fract_z
 _atom_site_occupancy
  Ag  Ag0  1  -0.00360472  0.24999999  0.26892504  1
  Ag  Ag1  1  0.50239414  0.50488795  -0.00000175  1
  Ag  Ag2  1  -0.00166969  0.25000002  0.72954228  1
  Ag  Ag3  1  0.25262721  0.74999998  -0.00498715  1
  Ag  Ag4  1  0.77074284  0.25000000  0.49577266  1
  Ag  Ag5  1  0.00185661  0.75000002  0.25793588  1
  Ag  Ag6  1  0.74584806  0.74999999  -0.00188100  1
  Ag  Ag7  1  0.00188156  0.01755644  0.49996278  1
  Ag  Ag8  1  0.23016413  0.24999999  0.49838114  1
  Ag  Ag9  1  0.50505461  0.24999994  0.24691306  1
  Ag  Ag10  1  0.00188158  0.48244357  0.49996275  1
  Ag  Ag11  1  0.75053915  0.25000000  0.00448606  1
  Ag  Ag12  1  0.49732748  0.75000002  0.76025711  1
  Ag  Ag13  1  0.23780879  0.75000000  0.50336900  1
  Ag  Ag14  1  0.00457638  0.75000000  0.74307438  1
  Ag  Ag15  1  0.50239409  -0.00488794  -0.00000171  1
  Sb  Sb16  1  0.49888842  0.75000000  0.24346323  1
  Sb  Sb17  1  0.75068834  -0.00021499  0.75021410  1
  Sb  Sb18  1  0.75080640  0.49816791  0.24964696  1
  Sb  Sb19  1  0.50127709  0.24999999  0.75159496  1
  Sb  Sb20  1  0.24800923  0.24999999  0.00073369  1
  Sb  Sb21  1  0.24894130  0.50030495  0.24963179  1
  Sb  Sb22  1  0.76298280  0.74999999  0.50104829  1
  Sb  Sb23  1  0.24894128  -0.00030491  0.24963181  1
  Sb  Sb24  1  -0.00214747  -0.00188964  0.00012198  1
  Sb  Sb25  1  0.75068833  0.50021499  0.75021409  1
  Sb  Sb26  1  0.75080642  0.00183208  0.24964697  1
  Sb  Sb27  1  0.49863058  -0.00068185  0.49966518  1
  Sb  Sb28  1  0.49863059  0.50068185  0.49966516  1
  Sb  Sb29  1  -0.00214749  0.50188964  0.00012200  1
  Sb  Sb30  1  0.24911982  0.50224954  0.75050234  1
  Sb  Sb31  1  0.24911980  -0.00224954  0.75050234  1
  Te  Te32  1  0.24395067  0.25000000  0.25235659  1
  Te  Te33  1  0.24414978  0.25000001  0.74614990  1
  Te  Te34  1  0.24411473  0.74999997  0.25354923  1
  Te  Te35  1  0.24382691  0.74999997  0.74885475  1
  Te  Te36  1  0.75391033  0.25000000  0.24535496  1
  Te  Te37  1  0.75373642  0.25000000  0.75440953  1
  Te  Te38  1  0.75626520  0.74999999  0.24365945  1
  Te  Te39  1  0.75356899  0.74999997  0.75516494  1
  Te  Te40  1  0.25711692  -0.00774134  0.00019895  1
  Te  Te41  1  0.24744066  -0.00181140  0.49968952  1
  Te  Te42  1  0.25711692  0.50774137  0.00019896  1
  Te  Te43  1  0.24744065  0.50181139  0.49968954  1
  Te  Te44  1  0.74672368  0.00164750  -0.00020580  1
  Te  Te45  1  0.75399919  0.00813286  0.49994427  1
  Te  Te46  1  0.74672364  0.49835250  -0.00020580  1
  Te  Te47  1  0.75399916  0.49186716  0.49994427  1
  Te  Te48  1  -0.00113464  0.25000000  0.00181685  1
  Te  Te49  1  0.00095292  0.24999994  0.50044074  1
  Te  Te50  1  0.00022579  0.74999997  -0.00275412  1
  Te  Te51  1  -0.00211306  0.75000006  0.50175341  1
  Te  Te52  1  0.49883341  0.24999997  -0.00312064  1
  Te  Te53  1  0.49853066  0.25000001  0.50058687  1
  Te  Te54  1  0.50143705  0.75000003  0.00270178  1
  Te  Te55  1  0.49552904  0.75000002  0.50048842  1
  Te  Te56  1  -0.00002647  0.00110411  0.25350235  1
  Te  Te57  1  -0.00015027  -0.00164374  0.74641700  1
  Te  Te58  1  -0.00002646  0.49889591  0.25350234  1
  Te  Te59  1  -0.00015027  0.50164376  0.74641701  1
  Te  Te60  1  0.50012171  0.00884500  0.24549480  1
  Te  Te61  1  0.50035369  -0.00802247  0.75519482  1
  Te  Te62  1  0.50012172  0.49115503  0.24549485  1
  Te  Te63  1  0.50035367  0.50802247  0.75519484  1
