# generated using pymatgen
data_AgSbTe2
_symmetry_space_group_name_H-M   'P 1'
_cell_length_a   12.28571411
_cell_length_b   12.23655889
_cell_length_c   12.28098109
_cell_angle_alpha   89.99824146
_cell_angle_beta   89.99942305
_cell_angle_gamma   89.99773788
_symmetry_Int_Tables_number   1
_chemical_formula_structural   AgSbTe2
_chemical_formula_sum   'Ag16 Sb16 Te32'
_cell_volume   1846.25962131
_cell_formula_units_Z   16
loop_
 _symmetry_equiv_pos_site_id
 _symmetry_equiv_pos_as_xyz
  1  'x, y, z'
loop_
 _atom_site_type_symbol
 _atom_site_label
 _atom_site_symmetry_multiplicity
 _atom_site_fract_x
 _atom_site_fract_y
 _atom_site_fract_z
 _atom_site_occupancy
  Ag  Ag0  1  0.73845472  0.49699535  0.75869173  1
  Ag  Ag1  1  0.00948324  -0.00180420  -0.00070445  1
  Ag  Ag2  1  0.00093017  -0.00019510  0.50092657  1
  Ag  Ag3  1  0.75184992  0.00010269  0.24123122  1
  Ag  Ag4  1  0.49108137  0.00010406  -0.00501505  1
  Ag  Ag5  1  0.74772687  0.00256868  0.75893851  1
  Ag  Ag6  1  0.26066916  0.49956628  0.76522543  1
  Ag  Ag7  1  0.49934076  0.25501935  0.75414172  1
  Ag  Ag8  1  0.25434116  0.50239288  0.23406080  1
  Ag  Ag9  1  0.49124764  0.49948780  -0.00662159  1
  Ag  Ag10  1  0.24834981  -0.00235007  0.23424851  1
  Ag  Ag11  1  0.49910388  0.49693021  0.50676873  1
  Ag  Ag12  1  0.00940335  0.50173899  -0.00090961  1
  Ag  Ag13  1  0.25232433  -0.00011145  0.76542932  1
  Ag  Ag14  1  0.25068286  0.75006150  -0.00054049  1
  Ag  Ag15  1  0.74525992  0.49988856  0.24099955  1
  Sb  Sb16  1  0.74848096  0.25006948  -0.00177559  1
  Sb  Sb17  1  0.74873303  0.74985516  -0.00026896  1
  Sb  Sb18  1  0.00148056  0.24764268  0.75133776  1
  Sb  Sb19  1  0.00071495  0.24848297  0.24790632  1
  Sb  Sb20  1  0.00189284  0.75140578  0.24674957  1
  Sb  Sb21  1  0.49832258  0.74888952  0.24694024  1
  Sb  Sb22  1  0.49941408  0.25212910  0.24390190  1
  Sb  Sb23  1  0.49968905  0.00365918  0.50634314  1
  Sb  Sb24  1  0.74728052  0.24997428  0.50160018  1
  Sb  Sb25  1  0.00155230  0.75194793  0.75341681  1
  Sb  Sb26  1  0.74903549  0.75053080  0.50027610  1
  Sb  Sb27  1  0.25221849  0.24996073  -0.00232799  1
  Sb  Sb28  1  0.49844503  0.74305620  0.75265946  1
  Sb  Sb29  1  0.00055594  0.50052714  0.50080141  1
  Sb  Sb30  1  0.25083524  0.75088879  0.50122139  1
  Sb  Sb31  1  0.25267671  0.24986841  0.50194854  1
  Te  Te32  1  0.25213947  0.24999528  0.25355031  1
  Te  Te33  1  0.25750917  0.25034661  0.74840918  1
  Te  Te34  1  0.25030896  0.75004568  0.24113110  1
  Te  Te35  1  0.24979842  0.75107847  0.75815705  1
  Te  Te36  1  0.74785672  0.24993550  0.25108390  1
  Te  Te37  1  0.74164429  0.25013638  0.75009920  1
  Te  Te38  1  0.74962677  0.75008548  0.24864887  1
  Te  Te39  1  0.75059329  0.75128582  0.75171174  1
  Te  Te40  1  0.25057003  0.00592566  -0.00027751  1
  Te  Te41  1  0.24868353  -0.00363031  0.49924056  1
  Te  Te42  1  0.25049802  0.49393258  0.00009319  1
  Te  Te43  1  0.24858241  0.50321248  0.49942913  1
  Te  Te44  1  0.74982169  -0.00410336  -0.00019425  1
  Te  Te45  1  0.75125011  -0.00146288  0.49925894  1
  Te  Te46  1  0.74912292  0.50404366  0.00040307  1
  Te  Te47  1  0.75122854  0.50129287  0.49939148  1
  Te  Te48  1  -0.00264894  0.25037634  -0.00167656  1
  Te  Te49  1  0.00029935  0.23713784  0.50210895  1
  Te  Te50  1  0.01366002  0.74961889  -0.00046315  1
  Te  Te51  1  0.00064018  0.76213657  0.50030005  1
  Te  Te52  1  0.50115110  0.24954623  -0.00847764  1
  Te  Te53  1  0.49966557  0.26091544  0.51460329  1
  Te  Te54  1  0.48742303  0.75197395  0.00048045  1
  Te  Te55  1  0.49919033  0.73453155  0.49858789  1
  Te  Te56  1  -0.00088442  0.00152001  0.24170707  1
  Te  Te57  1  -0.00077993  0.00325349  0.75796121  1
  Te  Te58  1  -0.00078015  0.49834091  0.24869505  1
  Te  Te59  1  -0.00068812  0.49690324  0.75099367  1
  Te  Te60  1  0.50082178  0.00404590  0.24949948  1
  Te  Te61  1  0.50048879  0.00165763  0.74748253  1
  Te  Te62  1  0.50091153  0.49581000  0.24346988  1
  Te  Te63  1  0.50071866  0.50082837  0.75699069  1
