# generated using pymatgen
data_AgSbTe2
_symmetry_space_group_name_H-M   'P 1'
_cell_length_a   12.21121482
_cell_length_b   12.23280603
_cell_length_c   12.22889859
_cell_angle_alpha   90.00093601
_cell_angle_beta   89.99282801
_cell_angle_gamma   90.00320608
_symmetry_Int_Tables_number   1
_chemical_formula_structural   AgSbTe2
_chemical_formula_sum   'Ag16 Sb16 Te32'
_cell_volume   1826.72133121
_cell_formula_units_Z   16
loop_
 _symmetry_equiv_pos_site_id
 _symmetry_equiv_pos_as_xyz
  1  'x, y, z'
loop_
 _atom_site_type_symbol
 _atom_site_label
 _atom_site_symmetry_multiplicity
 _atom_site_fract_x
 _atom_site_fract_y
 _atom_site_fract_z
 _atom_site_occupancy
  Ag  Ag0  1  0.74320361  0.75316856  0.00256063  1
  Ag  Ag1  1  -0.00476761  -0.00108074  -0.00037744  1
  Ag  Ag2  1  0.00124461  0.24669219  0.75000612  1
  Ag  Ag3  1  0.50049509  0.75161376  0.74958741  1
  Ag  Ag4  1  0.49866500  0.24826434  0.74740956  1
  Ag  Ag5  1  0.25850133  0.75079973  0.50115762  1
  Ag  Ag6  1  0.25446505  0.24927267  0.50136079  1
  Ag  Ag7  1  0.49961503  0.50450837  0.49968151  1
  Ag  Ag8  1  0.50503636  -0.00712590  0.00034305  1
  Ag  Ag9  1  0.49962149  -0.00458315  0.50065620  1
  Ag  Ag10  1  0.74597725  -0.00257415  0.24579028  1
  Ag  Ag11  1  0.50458343  0.50666827  0.00108699  1
  Ag  Ag12  1  -0.00156641  0.24742561  0.24987204  1
  Ag  Ag13  1  0.74483456  0.50299900  0.24807956  1
  Ag  Ag14  1  0.50393458  0.75091342  0.24969489  1
  Ag  Ag15  1  -0.00123224  0.75314782  0.75135856  1
  Sb  Sb16  1  0.74908567  0.24627187  0.00141955  1
  Sb  Sb17  1  0.25489213  0.50052098  0.25266046  1
  Sb  Sb18  1  -0.00510698  0.50143211  0.00092519  1
  Sb  Sb19  1  0.25399175  -0.00028958  0.25203037  1
  Sb  Sb20  1  0.25632072  0.75116205  -0.00107682  1
  Sb  Sb21  1  -0.00162838  0.00014281  0.50061673  1
  Sb  Sb22  1  0.74599158  0.24946936  0.49918508  1
  Sb  Sb23  1  -0.00136361  0.50046497  0.49903513  1
  Sb  Sb24  1  0.74192445  0.75072460  0.49795518  1
  Sb  Sb25  1  0.25311066  -0.00031788  0.74832272  1
  Sb  Sb26  1  0.25329123  0.50028740  0.74776632  1
  Sb  Sb27  1  0.25154930  0.24894601  -0.00091713  1
  Sb  Sb28  1  0.50038223  0.24951487  0.25190128  1
  Sb  Sb29  1  0.74557081  0.50203632  0.75169298  1
  Sb  Sb30  1  0.74699140  -0.00189705  0.75406774  1
  Sb  Sb31  1  -0.00276903  0.75253500  0.24946349  1
  Te  Te32  1  0.24284127  0.25055371  0.25591601  1
  Te  Te33  1  0.24957230  0.25060889  0.74465356  1
  Te  Te34  1  0.25508968  0.74905949  0.25650021  1
  Te  Te35  1  0.25130019  0.74960305  0.74483992  1
  Te  Te36  1  0.75464580  0.24911632  0.25003269  1
  Te  Te37  1  0.75182874  0.25080053  0.74986514  1
  Te  Te38  1  0.74716455  0.75092614  0.24718115  1
  Te  Te39  1  0.74966515  0.74956357  0.75507830  1
  Te  Te40  1  0.24993022  -0.00008828  0.00114547  1
  Te  Te41  1  0.25661665  0.00005686  0.49928081  1
  Te  Te42  1  0.26087498  0.49965721  0.00146946  1
  Te  Te43  1  0.25627037  0.49992419  0.49929161  1
  Te  Te44  1  0.74772910  -0.00314223  0.00434660  1
  Te  Te45  1  0.74341895  -0.00020643  0.49036561  1
  Te  Te46  1  0.74421501  0.50560148  0.00556970  1
  Te  Te47  1  0.74360567  0.49988583  0.49191764  1
  Te  Te48  1  0.00075327  0.24680704  -0.00381758  1
  Te  Te49  1  0.00511631  0.24989891  0.50425866  1
  Te  Te50  1  -0.00080992  0.75316550  -0.00398704  1
  Te  Te51  1  0.00680677  0.74973313  0.50652745  1
  Te  Te52  1  0.49865574  0.24800484  -0.00571589  1
  Te  Te53  1  0.49697019  0.24937943  0.50336954  1
  Te  Te54  1  0.49949348  0.75262366  -0.00149764  1
  Te  Te55  1  0.49949989  0.75071933  0.50229531  1
  Te  Te56  1  -0.00512238  0.00222781  0.24724859  1
  Te  Te57  1  -0.00223479  0.00105408  0.75295849  1
  Te  Te58  1  -0.00768484  0.49554189  0.24889903  1
  Te  Te59  1  -0.00212437  0.49844144  0.75116597  1
  Te  Te60  1  0.50322202  -0.00050389  0.24766735  1
  Te  Te61  1  0.50209733  -0.00033683  0.75080740  1
  Te  Te62  1  0.50391634  0.49989486  0.24996111  1
  Te  Te63  1  0.50183128  0.50031485  0.74908929  1
