# generated using pymatgen
data_AgSbTe2
_symmetry_space_group_name_H-M   'P 1'
_cell_length_a   12.20219703
_cell_length_b   12.20614868
_cell_length_c   12.20640383
_cell_angle_alpha   89.99922236
_cell_angle_beta   89.99682367
_cell_angle_gamma   89.99600021
_symmetry_Int_Tables_number   1
_chemical_formula_structural   AgSbTe2
_chemical_formula_sum   'Ag16 Sb16 Te32'
_cell_volume   1818.04413129
_cell_formula_units_Z   16
loop_
 _symmetry_equiv_pos_site_id
 _symmetry_equiv_pos_as_xyz
  1  'x, y, z'
loop_
 _atom_site_type_symbol
 _atom_site_label
 _atom_site_symmetry_multiplicity
 _atom_site_fract_x
 _atom_site_fract_y
 _atom_site_fract_z
 _atom_site_occupancy
  Ag  Ag0  1  0.25573816  0.24990333  0.00264764  1
  Ag  Ag1  1  -0.00188240  0.49748202  0.50022024  1
  Ag  Ag2  1  0.74361433  0.25452021  -0.00173000  1
  Ag  Ag3  1  -0.00501575  0.74740370  0.75109803  1
  Ag  Ag4  1  0.50686776  0.49522112  0.00048238  1
  Ag  Ag5  1  0.74636740  0.49843357  0.24571364  1
  Ag  Ag6  1  0.25207788  0.00477217  0.24765726  1
  Ag  Ag7  1  0.50241650  0.00469585  0.00005694  1
  Ag  Ag8  1  0.74635632  0.74584871  -0.00194890  1
  Ag  Ag9  1  0.74773678  0.00102162  0.75487049  1
  Ag  Ag10  1  0.50357912  0.25286264  0.75560901  1
  Ag  Ag11  1  0.50207150  0.74662081  0.24641738  1
  Ag  Ag12  1  0.00117038  0.25227720  0.24930080  1
  Ag  Ag13  1  0.50245536  0.49696734  0.49932627  1
  Ag  Ag14  1  0.74749251  0.49895004  0.75476257  1
  Ag  Ag15  1  0.25158322  0.25223263  0.49743351  1
  Sb  Sb16  1  -0.00307424  0.74634384  0.24937172  1
  Sb  Sb17  1  0.49911519  0.25328901  0.24235536  1
  Sb  Sb18  1  0.25304553  0.49449606  0.24867286  1
  Sb  Sb19  1  -0.00257848  0.00136566  -0.00038009  1
  Sb  Sb20  1  0.74943314  0.74594352  0.50209350  1
  Sb  Sb21  1  -0.00464992  0.25286157  0.74990745  1
  Sb  Sb22  1  0.50583313  0.74695036  0.75389584  1
  Sb  Sb23  1  0.74735540  0.00170584  0.24387580  1
  Sb  Sb24  1  0.00075355  0.00331396  0.50013397  1
  Sb  Sb25  1  0.25404259  0.74957716  0.00203170  1
  Sb  Sb26  1  0.25158617  0.74762641  0.49821634  1
  Sb  Sb27  1  0.49916658  0.00373576  0.49901119  1
  Sb  Sb28  1  -0.00899875  0.49847644  -0.00040160  1
  Sb  Sb29  1  0.74714711  0.25456911  0.50041846  1
  Sb  Sb30  1  0.25266494  0.00319770  0.75284801  1
  Sb  Sb31  1  0.25304201  0.49777438  0.75117073  1
  Te  Te32  1  0.24775636  0.24747112  0.24866549  1
  Te  Te33  1  0.25402403  0.24827860  0.75121374  1
  Te  Te34  1  0.25369613  0.75737789  0.24892643  1
  Te  Te35  1  0.24095037  0.75161986  0.75067322  1
  Te  Te36  1  0.75384222  0.25282214  0.24597195  1
  Te  Te37  1  0.74766233  0.25215435  0.75363289  1
  Te  Te38  1  0.74741845  0.74720610  0.24437781  1
  Te  Te39  1  0.75167646  0.74808078  0.75447344  1
  Te  Te40  1  0.25590816  0.00467321  0.00336447  1
  Te  Te41  1  0.25110227  0.00743171  0.49495437  1
  Te  Te42  1  0.25853436  0.49437629  0.00054848  1
  Te  Te43  1  0.25083773  0.49437229  0.49987953  1
  Te  Te44  1  0.74557072  0.00100053  -0.00285584  1
  Te  Te45  1  0.74892679  0.00012016  0.50850104  1
  Te  Te46  1  0.74816757  0.49851043  -0.00061871  1
  Te  Te47  1  0.74812621  0.49920005  0.49984301  1
  Te  Te48  1  0.00103343  0.25083942  0.00329982  1
  Te  Te49  1  0.00462602  0.25472079  0.49753173  1
  Te  Te50  1  -0.00531463  0.74964123  -0.00378331  1
  Te  Te51  1  0.00089071  0.74291233  0.50338165  1
  Te  Te52  1  0.50134672  0.25108539  0.00034545  1
  Te  Te53  1  0.49668191  0.25501348  0.50469839  1
  Te  Te54  1  0.50336135  0.74904715  0.00182050  1
  Te  Te55  1  0.49881929  0.74292048  0.49476247  1
  Te  Te56  1  0.00435620  0.00450235  0.25107846  1
  Te  Te57  1  -0.00617259  -0.00453557  0.74895918  1
  Te  Te58  1  -0.00429573  0.49791159  0.25476957  1
  Te  Te59  1  -0.00557635  0.50201768  0.74542151  1
  Te  Te60  1  0.49829912  -0.00440945  0.24734948  1
  Te  Te61  1  0.50412765  0.00247004  0.75349809  1
  Te  Te62  1  0.50325908  0.50233377  0.24978866  1
  Te  Te63  1  0.50384466  0.49839408  0.75038850  1
