# generated using pymatgen
data_AgSbTe2
_symmetry_space_group_name_H-M   'P 1'
_cell_length_a   12.22757748
_cell_length_b   12.25095524
_cell_length_c   12.24775158
_cell_angle_alpha   89.99174383
_cell_angle_beta   90.00030801
_cell_angle_gamma   89.99117138
_symmetry_Int_Tables_number   1
_chemical_formula_structural   AgSbTe2
_chemical_formula_sum   'Ag16 Sb16 Te32'
_cell_volume   1834.70707538
_cell_formula_units_Z   16
loop_
 _symmetry_equiv_pos_site_id
 _symmetry_equiv_pos_as_xyz
  1  'x, y, z'
loop_
 _atom_site_type_symbol
 _atom_site_label
 _atom_site_symmetry_multiplicity
 _atom_site_fract_x
 _atom_site_fract_y
 _atom_site_fract_z
 _atom_site_occupancy
  Ag  Ag0  1  0.74244285  0.50162084  0.75091722  1
  Ag  Ag1  1  0.50024754  0.74929213  0.74442951  1
  Ag  Ag2  1  0.25798173  0.49610230  0.24741293  1
  Ag  Ag3  1  0.49349704  0.23681218  0.24769571  1
  Ag  Ag4  1  0.25825059  0.24906455  0.49221606  1
  Ag  Ag5  1  0.73774488  0.75138898  0.49857689  1
  Ag  Ag6  1  0.49646921  -0.00479652  0.48578717  1
  Ag  Ag7  1  0.00353264  0.49783823  0.00152952  1
  Ag  Ag8  1  0.25760999  0.25263417  0.00748970  1
  Ag  Ag9  1  0.26311011  0.00403574  0.25249324  1
  Ag  Ag10  1  0.49805239  0.25082023  0.75335605  1
  Ag  Ag11  1  0.49716631  0.49493595  0.00223077  1
  Ag  Ag12  1  0.49733181  0.00390402  0.01452758  1
  Ag  Ag13  1  0.26085158  0.75196829  0.49510219  1
  Ag  Ag14  1  0.49676219  0.76458712  0.25668959  1
  Ag  Ag15  1  0.73384663  -0.00105097  0.25143590  1
  Sb  Sb16  1  0.49839173  0.50391714  0.49784940  1
  Sb  Sb17  1  0.74051171  0.25026219  0.00041169  1
  Sb  Sb18  1  0.74451868  0.74958960  0.00131514  1
  Sb  Sb19  1  0.74164698  0.50011174  0.24952420  1
  Sb  Sb20  1  0.74126413  -0.00138323  0.74846053  1
  Sb  Sb21  1  0.00168152  0.25396840  0.75179634  1
  Sb  Sb22  1  0.00313453  -0.00009027  0.49770361  1
  Sb  Sb23  1  0.25654906  0.49978755  0.75269227  1
  Sb  Sb24  1  0.25598834  0.00038481  0.74772662  1
  Sb  Sb25  1  0.00099467  0.74640962  0.74887330  1
  Sb  Sb26  1  0.25590729  0.74913550  0.00466632  1
  Sb  Sb27  1  0.00839461  0.25141450  0.24918173  1
  Sb  Sb28  1  0.73933105  0.24854721  0.49834135  1
  Sb  Sb29  1  0.00367306  0.00267504  0.00379592  1
  Sb  Sb30  1  0.00233799  0.74847299  0.25055044  1
  Sb  Sb31  1  0.00269421  0.49992311  0.49866546  1
  Te  Te32  1  0.25263390  0.25010354  0.24988474  1
  Te  Te33  1  0.25543095  0.25034275  0.74920656  1
  Te  Te34  1  0.25202204  0.75067068  0.25277829  1
  Te  Te35  1  0.25513418  0.74941330  0.74097821  1
  Te  Te36  1  0.74369283  0.24705590  0.25112728  1
  Te  Te37  1  0.74453187  0.25429595  0.74954802  1
  Te  Te38  1  0.74711378  0.75157638  0.25349774  1
  Te  Te39  1  0.74536615  0.74767536  0.74641210  1
  Te  Te40  1  0.25284664  0.00169814  0.00334235  1
  Te  Te41  1  0.25251107  -0.00091555  0.49828098  1
  Te  Te42  1  0.25598001  0.49970547  0.00204074  1
  Te  Te43  1  0.24817050  0.49984407  0.49571153  1
  Te  Te44  1  0.74762841  0.00052402  0.00544663  1
  Te  Te45  1  0.74787777  -0.00257890  0.49719396  1
  Te  Te46  1  0.74602023  0.49941855  -0.00187140  1
  Te  Te47  1  0.75227998  0.50412248  0.50255689  1
  Te  Te48  1  0.01063292  0.25445330  -0.00112326  1
  Te  Te49  1  0.01196333  0.25002632  0.50122583  1
  Te  Te50  1  0.00046107  0.74318067  -0.00162018  1
  Te  Te51  1  0.00140275  0.75023574  0.50122703  1
  Te  Te52  1  0.49813980  0.24936766  0.00012772  1
  Te  Te53  1  0.49661199  0.24792257  0.49956045  1
  Te  Te54  1  0.49940928  0.75151202  -0.00101901  1
  Te  Te55  1  0.49926534  0.75013011  0.49900277  1
  Te  Te56  1  -0.00089293  0.00008012  0.24931303  1
  Te  Te57  1  -0.00294977  0.00012947  0.75181049  1
  Te  Te58  1  0.00583765  0.49970629  0.24440611  1
  Te  Te59  1  -0.00827601  0.50000816  0.75590279  1
  Te  Te60  1  0.49853523  -0.00206708  0.25037858  1
  Te  Te61  1  0.50011362  -0.00033875  0.75111251  1
  Te  Te62  1  0.49686822  0.50003685  0.24747467  1
  Te  Te63  1  0.50172011  0.50038131  0.75264154  1
