# generated using pymatgen
data_AgSbTe2
_symmetry_space_group_name_H-M   'P 1'
_cell_length_a   12.21820631
_cell_length_b   12.21554554
_cell_length_c   12.21297213
_cell_angle_alpha   90.00166163
_cell_angle_beta   90.00973282
_cell_angle_gamma   89.99602459
_symmetry_Int_Tables_number   1
_chemical_formula_structural   AgSbTe2
_chemical_formula_sum   'Ag16 Sb16 Te32'
_cell_volume   1822.81116438
_cell_formula_units_Z   16
loop_
 _symmetry_equiv_pos_site_id
 _symmetry_equiv_pos_as_xyz
  1  'x, y, z'
loop_
 _atom_site_type_symbol
 _atom_site_label
 _atom_site_symmetry_multiplicity
 _atom_site_fract_x
 _atom_site_fract_y
 _atom_site_fract_z
 _atom_site_occupancy
  Ag  Ag0  1  -0.00240822  0.25517519  0.74722966  1
  Ag  Ag1  1  0.50025287  0.74755042  0.25041439  1
  Ag  Ag2  1  0.24746273  0.50097545  0.74832627  1
  Ag  Ag3  1  0.75082824  0.74241829  0.49483426  1
  Ag  Ag4  1  0.25081729  0.74859779  0.00456382  1
  Ag  Ag5  1  0.24798370  -0.00270571  0.24924664  1
  Ag  Ag6  1  0.75195586  0.00386439  0.25130970  1
  Ag  Ag7  1  0.50640253  0.25304994  0.25054613  1
  Ag  Ag8  1  0.24949493  0.74657928  0.49594534  1
  Ag  Ag9  1  -0.00568483  0.49782519  0.50000662  1
  Ag  Ag10  1  0.74910347  0.49638263  0.25636878  1
  Ag  Ag11  1  0.75405709  0.25749671  0.49335510  1
  Ag  Ag12  1  -0.00584095  0.24958884  0.25244836  1
  Ag  Ag13  1  0.00062858  0.00083005  0.00573325  1
  Ag  Ag14  1  0.50009661  0.50130994  0.00481583  1
  Ag  Ag15  1  0.75344246  0.49794095  0.74324117  1
  Sb  Sb16  1  0.24521409  -0.00151099  0.75083619  1
  Sb  Sb17  1  0.49865341  -0.00192221  0.00603562  1
  Sb  Sb18  1  0.50326990  0.25579325  0.74897008  1
  Sb  Sb19  1  0.25096539  0.50370241  0.25153101  1
  Sb  Sb20  1  0.75035062  0.25101357  0.00840822  1
  Sb  Sb21  1  0.50124231  0.74632890  0.74998253  1
  Sb  Sb22  1  -0.00062419  0.75036386  0.25113945  1
  Sb  Sb23  1  -0.00027039  0.00314502  0.49449458  1
  Sb  Sb24  1  0.50687044  0.50060943  0.49430519  1
  Sb  Sb25  1  0.49991643  -0.00044812  0.49596495  1
  Sb  Sb26  1  -0.00067960  0.74425367  0.74853393  1
  Sb  Sb27  1  0.24694292  0.25446096  0.49732767  1
  Sb  Sb28  1  0.75463647  0.00219877  0.74806792  1
  Sb  Sb29  1  -0.00001041  0.49911695  0.00023425  1
  Sb  Sb30  1  0.24943912  0.25150575  0.00165905  1
  Sb  Sb31  1  0.74909732  0.74824851  0.00583646  1
  Te  Te32  1  0.24935478  0.24452032  0.25192817  1
  Te  Te33  1  0.24619313  0.25547569  0.74873434  1
  Te  Te34  1  0.25161899  0.75145775  0.25137073  1
  Te  Te35  1  0.25022618  0.74621595  0.74735753  1
  Te  Te36  1  0.75065060  0.25061896  0.25209439  1
  Te  Te37  1  0.75304457  0.25375325  0.74291460  1
  Te  Te38  1  0.74827633  0.74911774  0.25334130  1
  Te  Te39  1  0.74918388  0.74523038  0.74158156  1
  Te  Te40  1  0.24741849  -0.00515927  0.00313024  1
  Te  Te41  1  0.24917951  -0.00837747  0.49539057  1
  Te  Te42  1  0.25159602  0.50482371  -0.00251892  1
  Te  Te43  1  0.24522523  0.50432547  0.50276701  1
  Te  Te44  1  0.75505537  -0.00221335  0.00587288  1
  Te  Te45  1  0.75077849  -0.00209395  0.49531594  1
  Te  Te46  1  0.74751236  0.50194213  0.00020028  1
  Te  Te47  1  0.75071762  0.50074351  0.49813196  1
  Te  Te48  1  0.00050063  0.24701935  0.00227726  1
  Te  Te49  1  -0.00290055  0.25290467  0.49776348  1
  Te  Te50  1  0.00614788  0.75472970  -0.00068695  1
  Te  Te51  1  -0.00058215  0.74481521  0.50031679  1
  Te  Te52  1  0.49942984  0.25578689  0.00682856  1
  Te  Te53  1  0.50594299  0.24980271  0.49321277  1
  Te  Te54  1  0.49579206  0.74677252  0.00522665  1
  Te  Te55  1  0.49975442  0.74989731  0.49404218  1
  Te  Te56  1  -0.00070720  0.00314347  0.24781598  1
  Te  Te57  1  -0.00033833  0.00976774  0.75713796  1
  Te  Te58  1  -0.00295452  0.49540879  0.25180025  1
  Te  Te59  1  -0.00183271  0.49560679  0.74960603  1
  Te  Te60  1  0.50082911  0.00015774  0.24808483  1
  Te  Te61  1  0.49994082  0.00150393  0.75303802  1
  Te  Te62  1  0.50145136  0.49997687  0.24647164  1
  Te  Te63  1  0.49988861  0.49858643  0.75773955  1
