# generated using pymatgen
data_AgSbTe2
_symmetry_space_group_name_H-M   'P 1'
_cell_length_a   12.22567542
_cell_length_b   12.23408448
_cell_length_c   12.21463980
_cell_angle_alpha   90.00119754
_cell_angle_beta   90.00232063
_cell_angle_gamma   89.99508984
_symmetry_Int_Tables_number   1
_chemical_formula_structural   AgSbTe2
_chemical_formula_sum   'Ag16 Sb16 Te32'
_cell_volume   1826.94300529
_cell_formula_units_Z   16
loop_
 _symmetry_equiv_pos_site_id
 _symmetry_equiv_pos_as_xyz
  1  'x, y, z'
loop_
 _atom_site_type_symbol
 _atom_site_label
 _atom_site_symmetry_multiplicity
 _atom_site_fract_x
 _atom_site_fract_y
 _atom_site_fract_z
 _atom_site_occupancy
  Ag  Ag0  1  0.25063680  0.49496351  0.75169287  1
  Ag  Ag1  1  0.74813069  0.49931461  0.74596171  1
  Ag  Ag2  1  0.25146410  0.49725189  0.24977530  1
  Ag  Ag3  1  0.50386263  0.00102751  0.50873896  1
  Ag  Ag4  1  0.74512137  0.25012668  0.50610082  1
  Ag  Ag5  1  0.74646640  0.00093655  0.25408795  1
  Ag  Ag6  1  0.00345115  0.25587848  0.75083132  1
  Ag  Ag7  1  0.49872406  0.00222649  -0.01067045  1
  Ag  Ag8  1  0.50086542  0.74946779  0.74603257  1
  Ag  Ag9  1  -0.00140296  0.74385139  0.74916259  1
  Ag  Ag10  1  0.25745396  0.00470395  0.75103609  1
  Ag  Ag11  1  0.74534274  0.74985327  0.50600781  1
  Ag  Ag12  1  0.25101052  0.25301902  -0.00816252  1
  Ag  Ag13  1  0.49658208  0.25003244  0.74719357  1
  Ag  Ag14  1  0.50222630  0.49906045  0.50928592  1
  Ag  Ag15  1  0.00320565  0.49802397  -0.00863016  1
  Sb  Sb16  1  0.25313351  0.00270635  0.24912730  1
  Sb  Sb17  1  0.00059589  0.00165044  -0.00551769  1
  Sb  Sb18  1  0.74852657  0.74992713  -0.00681704  1
  Sb  Sb19  1  0.25388860  0.25121322  0.50917776  1
  Sb  Sb20  1  -0.00375809  0.00057592  0.50488681  1
  Sb  Sb21  1  -0.00108966  0.49955553  0.50874995  1
  Sb  Sb22  1  -0.00205925  0.74709153  0.25136420  1
  Sb  Sb23  1  0.74941893  0.49964025  0.25340319  1
  Sb  Sb24  1  0.00022685  0.25269917  0.25048013  1
  Sb  Sb25  1  0.74860528  0.25006947  -0.00667443  1
  Sb  Sb26  1  0.25397433  0.74908029  0.50566573  1
  Sb  Sb27  1  0.49767741  0.49833275  -0.00969671  1
  Sb  Sb28  1  0.50168142  0.74910632  0.25343738  1
  Sb  Sb29  1  0.74168485  0.00037556  0.74760900  1
  Sb  Sb30  1  0.49986366  0.25081553  0.25321269  1
  Sb  Sb31  1  0.25058084  0.74723570  -0.00465003  1
  Te  Te32  1  0.24844664  0.25506484  0.24158350  1
  Te  Te33  1  0.25155773  0.25141248  0.75069881  1
  Te  Te34  1  0.24857171  0.74273026  0.25047400  1
  Te  Te35  1  0.25122520  0.74909391  0.74910389  1
  Te  Te36  1  0.75101003  0.24667478  0.25811786  1
  Te  Te37  1  0.74840233  0.25166984  0.74664301  1
  Te  Te38  1  0.75096820  0.75287723  0.25863052  1
  Te  Te39  1  0.74838694  0.74834867  0.74628361  1
  Te  Te40  1  0.25376744  0.00438291  -0.00183798  1
  Te  Te41  1  0.25726536  0.00058448  0.50213754  1
  Te  Te42  1  0.24950175  0.49691593  -0.00572875  1
  Te  Te43  1  0.25439155  0.49881440  0.50255135  1
  Te  Te44  1  0.74491565  0.00036492  0.00644215  1
  Te  Te45  1  0.74640614  0.00062543  0.49891779  1
  Te  Te46  1  0.75361362  0.49955072  -0.00242794  1
  Te  Te47  1  0.74700462  0.49931955  0.50234411  1
  Te  Te48  1  0.00255543  0.25290621  -0.00596473  1
  Te  Te49  1  -0.00680403  0.24975528  0.50663489  1
  Te  Te50  1  -0.00089112  0.74570985  -0.00751580  1
  Te  Te51  1  -0.00746353  0.75027403  0.50700006  1
  Te  Te52  1  0.49751376  0.24674131  -0.00560551  1
  Te  Te53  1  0.50253036  0.25000486  0.50390170  1
  Te  Te54  1  0.50080623  0.75601124  -0.00723101  1
  Te  Te55  1  0.50309088  0.75006473  0.50404132  1
  Te  Te56  1  -0.00459780  -0.00085639  0.24931769  1
  Te  Te57  1  0.00850987  0.00022564  0.75025550  1
  Te  Te58  1  0.00502552  0.50058607  0.24221429  1
  Te  Te59  1  0.00165018  0.49936386  0.75062990  1
  Te  Te60  1  0.50211652  -0.00020816  0.25222874  1
  Te  Te61  1  0.49888773  0.00058029  0.74877933  1
  Te  Te62  1  0.49566511  0.50087196  0.25607775  1
  Te  Te63  1  0.49987794  0.49972570  0.74909979  1
