# generated using pymatgen
data_AgSbTe2
_symmetry_space_group_name_H-M   'P 1'
_cell_length_a   12.23148551
_cell_length_b   12.23492800
_cell_length_c   12.22525236
_cell_angle_alpha   89.99589411
_cell_angle_beta   90.00478509
_cell_angle_gamma   90.00394183
_symmetry_Int_Tables_number   1
_chemical_formula_structural   AgSbTe2
_chemical_formula_sum   'Ag16 Sb16 Te32'
_cell_volume   1829.52543801
_cell_formula_units_Z   16
loop_
 _symmetry_equiv_pos_site_id
 _symmetry_equiv_pos_as_xyz
  1  'x, y, z'
loop_
 _atom_site_type_symbol
 _atom_site_label
 _atom_site_symmetry_multiplicity
 _atom_site_fract_x
 _atom_site_fract_y
 _atom_site_fract_z
 _atom_site_occupancy
  Ag  Ag0  1  0.51321363  0.75064137  0.75072925  1
  Ag  Ag1  1  0.50039863  -0.00489392  0.50518467  1
  Ag  Ag2  1  0.00105412  0.75372809  0.24704587  1
  Ag  Ag3  1  0.00287349  0.24646140  0.24721346  1
  Ag  Ag4  1  -0.01337005  0.75494640  0.75299381  1
  Ag  Ag5  1  0.49977603  0.50527096  -0.00514404  1
  Ag  Ag6  1  0.00009326  -0.00414657  -0.00509249  1
  Ag  Ag7  1  0.24824665  0.50665478  0.75306709  1
  Ag  Ag8  1  0.24727663  0.50307942  0.24740115  1
  Ag  Ag9  1  0.75173331  0.51449853  0.75231839  1
  Ag  Ag10  1  0.75338677  0.75049287  -0.01365384  1
  Ag  Ag11  1  0.24376987  -0.00635408  0.75081746  1
  Ag  Ag12  1  -0.00007222  0.24470529  0.75267103  1
  Ag  Ag13  1  0.75638388  -0.01380867  0.75041367  1
  Ag  Ag14  1  0.24370067  -0.00280261  0.24925226  1
  Ag  Ag15  1  0.75048412  0.75224248  0.51447628  1
  Sb  Sb16  1  -0.00094035  0.50246406  0.50261853  1
  Sb  Sb17  1  0.24692738  0.24989245  -0.00060142  1
  Sb  Sb18  1  0.49880221  0.24993096  0.75073190  1
  Sb  Sb19  1  0.75371318  0.24912710  -0.00289516  1
  Sb  Sb20  1  0.49827560  0.75069990  0.24880674  1
  Sb  Sb21  1  0.75258388  0.50404660  0.24773175  1
  Sb  Sb22  1  0.24613416  0.75021377  -0.00322499  1
  Sb  Sb23  1  -0.00014499  0.50460585  -0.00310714  1
  Sb  Sb24  1  0.50113382  0.50473716  0.50359716  1
  Sb  Sb25  1  -0.00021823  -0.00258109  0.50572676  1
  Sb  Sb26  1  0.24884104  0.24849863  0.50098060  1
  Sb  Sb27  1  0.75712786  -0.00310890  0.24978602  1
  Sb  Sb28  1  0.50006839  -0.00507783  -0.00309848  1
  Sb  Sb29  1  0.75159931  0.24740471  0.50367618  1
  Sb  Sb30  1  0.24920955  0.75151531  0.50364131  1
  Sb  Sb31  1  0.49599515  0.24893743  0.24908753  1
  Te  Te32  1  0.24437103  0.24971504  0.25007346  1
  Te  Te33  1  0.24437441  0.25024260  0.74973632  1
  Te  Te34  1  0.24592334  0.75026619  0.25080411  1
  Te  Te35  1  0.24889218  0.74987030  0.74951161  1
  Te  Te36  1  0.75940936  0.25070939  0.25102634  1
  Te  Te37  1  0.75627537  0.24993925  0.74934430  1
  Te  Te38  1  0.75506597  0.74919174  0.24942286  1
  Te  Te39  1  0.75087062  0.75042526  0.75064487  1
  Te  Te40  1  0.24768320  0.00032517  -0.00149446  1
  Te  Te41  1  0.25495996  -0.00069874  0.50179195  1
  Te  Te42  1  0.25280774  0.50006611  -0.00247724  1
  Te  Te43  1  0.25169490  0.50027193  0.50091049  1
  Te  Te44  1  0.75162671  -0.00370933  -0.00344159  1
  Te  Te45  1  0.74587573  -0.00335302  0.50343936  1
  Te  Te46  1  0.74824570  0.50396325  -0.00421742  1
  Te  Te47  1  0.74853819  0.50551908  0.50641624  1
  Te  Te48  1  -0.00094748  0.24124764  -0.00123401  1
  Te  Te49  1  -0.00072280  0.25080454  0.49972779  1
  Te  Te50  1  -0.00299132  0.75424284  -0.00146531  1
  Te  Te51  1  -0.00574940  0.74979145  0.49994796  1
  Te  Te52  1  0.50222868  0.26049892  0.00104417  1
  Te  Te53  1  0.50077052  0.23980304  0.49875332  1
  Te  Te54  1  0.50654742  0.74643265  -0.00272286  1
  Te  Te55  1  0.50522360  0.75423506  0.50291672  1
  Te  Te56  1  0.00308741  -0.00225124  0.24861015  1
  Te  Te57  1  0.00196108  -0.00217617  0.74979226  1
  Te  Te58  1  0.00498258  0.50121692  0.24842630  1
  Te  Te59  1  0.00286268  0.50165500  0.75176956  1
  Te  Te60  1  0.49123647  0.00095497  0.25050121  1
  Te  Te61  1  0.49693009  -0.00055185  0.75075418  1
  Te  Te62  1  0.49289783  0.49918953  0.24750976  1
  Te  Te63  1  0.49701150  0.50014060  0.75102629  1
