# generated using pymatgen
data_AgSbTe2
_symmetry_space_group_name_H-M   'P 1'
_cell_length_a   12.21465777
_cell_length_b   12.21880983
_cell_length_c   12.22229712
_cell_angle_alpha   90.00065883
_cell_angle_beta   90.00282219
_cell_angle_gamma   90.00721739
_symmetry_Int_Tables_number   1
_chemical_formula_structural   AgSbTe2
_chemical_formula_sum   'Ag16 Sb16 Te32'
_cell_volume   1824.16047887
_cell_formula_units_Z   16
loop_
 _symmetry_equiv_pos_site_id
 _symmetry_equiv_pos_as_xyz
  1  'x, y, z'
loop_
 _atom_site_type_symbol
 _atom_site_label
 _atom_site_symmetry_multiplicity
 _atom_site_fract_x
 _atom_site_fract_y
 _atom_site_fract_z
 _atom_site_occupancy
  Ag  Ag0  1  0.49885184  0.24572016  0.25559002  1
  Ag  Ag1  1  0.00102939  0.25021726  0.25538398  1
  Ag  Ag2  1  0.00056440  0.50008147  -0.00065546  1
  Ag  Ag3  1  0.74867790  0.00032796  0.74651531  1
  Ag  Ag4  1  0.25269171  -0.00359066  0.74529238  1
  Ag  Ag5  1  0.49724756  0.75745056  0.74451995  1
  Ag  Ag6  1  0.75146588  0.24805683  0.50095293  1
  Ag  Ag7  1  0.24839757  0.75402390  0.50286022  1
  Ag  Ag8  1  0.00349022  0.75140886  0.74479341  1
  Ag  Ag9  1  0.49834478  0.00014624  -0.00357279  1
  Ag  Ag10  1  0.25100316  -0.00014751  0.25446803  1
  Ag  Ag11  1  0.00067764  0.49967377  0.50056932  1
  Ag  Ag12  1  -0.00048563  0.24876690  0.74453384  1
  Ag  Ag13  1  0.49692634  0.00002266  0.50389917  1
  Ag  Ag14  1  0.00405865  0.74982915  0.25482359  1
  Ag  Ag15  1  0.49905598  0.49939801  0.50101082  1
  Sb  Sb16  1  0.24853011  0.24515108  0.49976922  1
  Sb  Sb17  1  0.75109352  0.24718212  -0.00229023  1
  Sb  Sb18  1  0.74899213  0.00251940  0.25400776  1
  Sb  Sb19  1  0.00085556  -0.00008728  -0.00209459  1
  Sb  Sb20  1  0.50026195  0.24201496  0.74346993  1
  Sb  Sb21  1  0.49924524  0.49943077  -0.00133849  1
  Sb  Sb22  1  0.24949020  0.24712141  -0.00018454  1
  Sb  Sb23  1  0.75224995  0.49828166  0.25373026  1
  Sb  Sb24  1  0.75218653  0.49864430  0.74651508  1
  Sb  Sb25  1  0.00363930  0.00023122  0.50137814  1
  Sb  Sb26  1  0.75166359  0.75345215  0.50278536  1
  Sb  Sb27  1  0.24921756  0.75322731  -0.00349031  1
  Sb  Sb28  1  0.75053175  0.75260236  -0.00196721  1
  Sb  Sb29  1  0.49470763  0.75399793  0.25627408  1
  Sb  Sb30  1  0.24776017  0.50365949  0.74517724  1
  Sb  Sb31  1  0.24732061  0.50069705  0.25435567  1
  Te  Te32  1  0.24775037  0.24270622  0.25002815  1
  Te  Te33  1  0.24339827  0.24148649  0.74982569  1
  Te  Te34  1  0.24523548  0.75632816  0.25561667  1
  Te  Te35  1  0.24778446  0.75441603  0.74610513  1
  Te  Te36  1  0.75291837  0.24879668  0.25643519  1
  Te  Te37  1  0.75504553  0.24438651  0.74494522  1
  Te  Te38  1  0.76106594  0.75117918  0.24996837  1
  Te  Te39  1  0.75174434  0.75716340  0.74881649  1
  Te  Te40  1  0.25644541  -0.00064893  0.00014502  1
  Te  Te41  1  0.25325769  -0.00452604  0.50054598  1
  Te  Te42  1  0.24320635  0.50029926  0.00019315  1
  Te  Te43  1  0.25042160  0.50838493  0.50013803  1
  Te  Te44  1  0.74168205  0.00048691  -0.00830591  1
  Te  Te45  1  0.74306690  0.00467320  0.50455273  1
  Te  Te46  1  0.75729021  0.49961486  -0.00073101  1
  Te  Te47  1  0.74955529  0.49262992  0.50070805  1
  Te  Te48  1  -0.00091562  0.25407291  0.00194561  1
  Te  Te49  1  -0.00000217  0.25099538  0.49901847  1
  Te  Te50  1  0.00004083  0.74591778  -0.00135538  1
  Te  Te51  1  0.00040049  0.74884265  0.50241098  1
  Te  Te52  1  0.50079979  0.24951918  0.00773044  1
  Te  Te53  1  0.50023688  0.25104528  0.49808409  1
  Te  Te54  1  0.50041839  0.75120137  -0.00518848  1
  Te  Te55  1  0.49956881  0.74959334  0.50167786  1
  Te  Te56  1  0.00271785  0.00209407  0.24815987  1
  Te  Te57  1  0.00126407  -0.00168810  0.75174277  1
  Te  Te58  1  0.00107676  0.49779875  0.25397177  1
  Te  Te59  1  0.00016563  0.50124085  0.74604226  1
  Te  Te60  1  0.49824944  0.00104972  0.25185408  1
  Te  Te61  1  0.49732535  -0.00014928  0.74745246  1
  Te  Te62  1  0.49922007  0.49613855  0.25264195  1
  Te  Te63  1  0.49982198  0.50543928  0.74774221  1
