# generated using pymatgen
data_AgSbTe2
_symmetry_space_group_name_H-M   'P 1'
_cell_length_a   12.20957810
_cell_length_b   12.20943940
_cell_length_c   12.21089572
_cell_angle_alpha   90.00753988
_cell_angle_beta   90.00298639
_cell_angle_gamma   90.00406677
_symmetry_Int_Tables_number   1
_chemical_formula_structural   AgSbTe2
_chemical_formula_sum   'Ag16 Sb16 Te32'
_cell_volume   1820.30389244
_cell_formula_units_Z   16
loop_
 _symmetry_equiv_pos_site_id
 _symmetry_equiv_pos_as_xyz
  1  'x, y, z'
loop_
 _atom_site_type_symbol
 _atom_site_label
 _atom_site_symmetry_multiplicity
 _atom_site_fract_x
 _atom_site_fract_y
 _atom_site_fract_z
 _atom_site_occupancy
  Ag  Ag0  1  0.00176446  0.50035120  0.50170670  1
  Ag  Ag1  1  0.50229658  -0.00081337  0.00225989  1
  Ag  Ag2  1  0.50144625  0.50067199  -0.00332466  1
  Ag  Ag3  1  0.49704061  0.25523348  0.74941846  1
  Ag  Ag4  1  0.74708287  0.75199947  -0.00016159  1
  Ag  Ag5  1  0.00114098  -0.00042157  0.49842921  1
  Ag  Ag6  1  0.74572832  0.49986268  0.24982751  1
  Ag  Ag7  1  0.25539375  0.49973467  0.74698020  1
  Ag  Ag8  1  -0.00015589  0.74961539  0.75002672  1
  Ag  Ag9  1  0.49831023  0.49714652  0.50341465  1
  Ag  Ag10  1  -0.00200103  -0.00280982  0.00177347  1
  Ag  Ag11  1  0.49993927  0.74537021  0.75304545  1
  Ag  Ag12  1  0.49971468  0.24985663  0.25024615  1
  Ag  Ag13  1  0.25092977  0.00281630  0.25011660  1
  Ag  Ag14  1  0.74856737  0.00007534  0.24664890  1
  Ag  Ag15  1  0.25301028  0.25171156  0.49995870  1
  Sb  Sb16  1  0.25458234  0.49639773  0.25338390  1
  Sb  Sb17  1  0.00398318  0.25163063  0.74736513  1
  Sb  Sb18  1  0.74920442  0.75001114  0.50018637  1
  Sb  Sb19  1  -0.00216301  0.75180315  0.24946808  1
  Sb  Sb20  1  0.25404324  0.24933197  0.00006456  1
  Sb  Sb21  1  0.25098246  0.00107132  0.74869567  1
  Sb  Sb22  1  0.74652296  0.24778170  0.00216789  1
  Sb  Sb23  1  0.74605427  0.25027213  0.49788610  1
  Sb  Sb24  1  0.74977327  -0.00216248  0.75438719  1
  Sb  Sb25  1  0.25013176  0.74812531  0.50193858  1
  Sb  Sb26  1  0.25365550  0.75058592  -0.00217476  1
  Sb  Sb27  1  0.74306513  0.50221793  0.75060350  1
  Sb  Sb28  1  0.49882070  0.00224808  0.49710374  1
  Sb  Sb29  1  -0.00222823  0.50386029  -0.00183789  1
  Sb  Sb30  1  0.00121392  0.24793755  0.25170454  1
  Sb  Sb31  1  0.50245047  0.74996322  0.24632405  1
  Te  Te32  1  0.25583902  0.24569977  0.25486226  1
  Te  Te33  1  0.25527858  0.25462143  0.74493036  1
  Te  Te34  1  0.24990695  0.75953083  0.25010447  1
  Te  Te35  1  0.25045231  0.74475563  0.74998752  1
  Te  Te36  1  0.74290072  0.24985844  0.25029045  1
  Te  Te37  1  0.74001285  0.24965380  0.74962098  1
  Te  Te38  1  0.74955651  0.75082166  0.24423004  1
  Te  Te39  1  0.74977303  0.74991036  0.75562343  1
  Te  Te40  1  0.25057029  0.00041224  0.00449050  1
  Te  Te41  1  0.24618504  0.00385797  0.49692796  1
  Te  Te42  1  0.25478335  0.49968421  -0.00345715  1
  Te  Te43  1  0.25041253  0.49725661  0.50072427  1
  Te  Te44  1  0.74841417  -0.00244767  0.00383668  1
  Te  Te45  1  0.75658712  -0.00038950  0.49142789  1
  Te  Te46  1  0.74658206  0.50394044  0.00539103  1
  Te  Te47  1  0.75048501  0.50051379  0.49371284  1
  Te  Te48  1  0.00065882  0.24139292  -0.00139537  1
  Te  Te49  1  0.00574257  0.25042667  0.50164029  1
  Te  Te50  1  -0.00445475  0.75397955  -0.00520864  1
  Te  Te51  1  -0.00048274  0.74957998  0.50633838  1
  Te  Te52  1  0.49918754  0.24958017  0.00025237  1
  Te  Te53  1  0.49671918  0.25262393  0.50002407  1
  Te  Te54  1  0.50265723  0.75074647  -0.00378687  1
  Te  Te55  1  0.50121625  0.74433815  0.50866730  1
  Te  Te56  1  -0.00150011  0.00059103  0.25001995  1
  Te  Te57  1  0.00057594  -0.00311802  0.74938268  1
  Te  Te58  1  -0.00319744  0.49959259  0.25442993  1
  Te  Te59  1  0.00348038  0.50214990  0.74686245  1
  Te  Te60  1  0.50189437  0.00127156  0.24859937  1
  Te  Te61  1  0.49897648  -0.00112910  0.75371425  1
  Te  Te62  1  0.50050578  0.49843048  0.24989546  1
  Te  Te63  1  0.49998005  0.50038744  0.75022785  1
