# generated using pymatgen
data_AgSbTe2
_symmetry_space_group_name_H-M   'P 1'
_cell_length_a   12.30320158
_cell_length_b   12.28007027
_cell_length_c   12.29425472
_cell_angle_alpha   90.00413441
_cell_angle_beta   90.00124989
_cell_angle_gamma   90.00210326
_symmetry_Int_Tables_number   1
_chemical_formula_structural   AgSbTe2
_chemical_formula_sum   'Ag16 Sb16 Te32'
_cell_volume   1857.46738694
_cell_formula_units_Z   16
loop_
 _symmetry_equiv_pos_site_id
 _symmetry_equiv_pos_as_xyz
  1  'x, y, z'
loop_
 _atom_site_type_symbol
 _atom_site_label
 _atom_site_symmetry_multiplicity
 _atom_site_fract_x
 _atom_site_fract_y
 _atom_site_fract_z
 _atom_site_occupancy
  Ag  Ag0  1  0.48101149  0.00403308  0.00329709  1
  Ag  Ag1  1  0.00175375  0.24105116  0.24184343  1
  Ag  Ag2  1  0.24644672  0.51073327  0.75416485  1
  Ag  Ag3  1  0.24950229  0.76058393  0.51126259  1
  Ag  Ag4  1  0.24984313  0.22954151  0.00498676  1
  Ag  Ag5  1  0.75364358  0.76558770  -0.00443702  1
  Ag  Ag6  1  0.49799987  0.24037823  0.24466216  1
  Ag  Ag7  1  0.75050828  0.23454048  0.00646267  1
  Ag  Ag8  1  0.49491036  0.00019454  0.49699739  1
  Ag  Ag9  1  0.02074413  0.00039646  0.00041657  1
  Ag  Ag10  1  0.24575085  0.77055279  -0.01117220  1
  Ag  Ag11  1  0.25329209  0.00397683  0.23067946  1
  Ag  Ag12  1  0.74659660  0.23783818  0.49456410  1
  Ag  Ag13  1  0.74946753  0.75950543  0.50379981  1
  Ag  Ag14  1  0.00891779  0.75506263  0.75534795  1
  Ag  Ag15  1  0.24842169  -0.00772603  0.77052823  1
  Sb  Sb16  1  0.49791930  0.49641089  0.00082733  1
  Sb  Sb17  1  0.50007896  0.24663319  0.75313073  1
  Sb  Sb18  1  0.49711968  0.49878952  0.49899758  1
  Sb  Sb19  1  0.24964049  0.49996894  0.24889102  1
  Sb  Sb20  1  0.25358190  0.23888442  0.49750341  1
  Sb  Sb21  1  0.49274233  0.75249497  0.75099226  1
  Sb  Sb22  1  0.00206705  0.24457451  0.75372983  1
  Sb  Sb23  1  0.00291806  0.49916783  0.50071190  1
  Sb  Sb24  1  0.00125814  0.50026978  -0.00018663  1
  Sb  Sb25  1  0.75047087  0.49752301  0.24991967  1
  Sb  Sb26  1  0.00165914  0.00028644  0.49820370  1
  Sb  Sb27  1  0.75347189  -0.00265499  0.75270091  1
  Sb  Sb28  1  0.49840638  0.75844618  0.24881862  1
  Sb  Sb29  1  0.74710593  0.00156426  0.24817160  1
  Sb  Sb30  1  0.00247778  0.75834688  0.24667874  1
  Sb  Sb31  1  0.75385124  0.50373029  0.75028338  1
  Te  Te32  1  0.24953673  0.24943862  0.24901130  1
  Te  Te33  1  0.24809475  0.24526256  0.75260376  1
  Te  Te34  1  0.24972529  0.75041164  0.24859377  1
  Te  Te35  1  0.24883530  0.75543126  0.75193324  1
  Te  Te36  1  0.75100712  0.24865483  0.24546470  1
  Te  Te37  1  0.75164745  0.25113139  0.75134966  1
  Te  Te38  1  0.75030266  0.74998842  0.25011312  1
  Te  Te39  1  0.75784099  0.75021538  0.75195038  1
  Te  Te40  1  0.25010758  0.00036440  0.00192313  1
  Te  Te41  1  0.25162896  -0.00250149  0.49908030  1
  Te  Te42  1  0.25138601  0.50449210  -0.00204717  1
  Te  Te43  1  0.25083596  0.51444883  0.50291910  1
  Te  Te44  1  0.74736741  -0.00089721  -0.00114951  1
  Te  Te45  1  0.74770458  -0.00185822  0.50152674  1
  Te  Te46  1  0.74914512  0.50291268  -0.00127329  1
  Te  Te47  1  0.74938836  0.50621715  0.50114320  1
  Te  Te48  1  -0.00353513  0.24808798  -0.00160550  1
  Te  Te49  1  -0.00956333  0.24830171  0.49849662  1
  Te  Te50  1  -0.00205006  0.75192861  0.00214523  1
  Te  Te51  1  -0.00385197  0.75105075  0.49720563  1
  Te  Te52  1  0.50328737  0.24646244  -0.00073447  1
  Te  Te53  1  0.50371209  0.24555651  0.49926907  1
  Te  Te54  1  0.50443710  0.75664936  0.00108335  1
  Te  Te55  1  0.50527927  0.75541784  0.49894895  1
  Te  Te56  1  0.00707315  0.00448689  0.24510620  1
  Te  Te57  1  0.00440428  -0.00453562  0.75491970  1
  Te  Te58  1  -0.00088518  0.48076866  0.25071356  1
  Te  Te59  1  0.00719315  0.51116268  0.74979093  1
  Te  Te60  1  0.49711131  0.00307449  0.24859573  1
  Te  Te61  1  0.49135191  -0.00099135  0.74984710  1
  Te  Te62  1  0.50108354  0.47891869  0.25036707  1
  Te  Te63  1  0.48681892  0.49926173  0.74993051  1
