# generated using pymatgen
data_AgSbTe2
_symmetry_space_group_name_H-M   'P 1'
_cell_length_a   12.21273355
_cell_length_b   12.21227319
_cell_length_c   12.22181307
_cell_angle_alpha   89.99921665
_cell_angle_beta   90.00353936
_cell_angle_gamma   90.00787824
_symmetry_Int_Tables_number   1
_chemical_formula_structural   AgSbTe2
_chemical_formula_sum   'Ag16 Sb16 Te32'
_cell_volume   1822.82520492
_cell_formula_units_Z   16
loop_
 _symmetry_equiv_pos_site_id
 _symmetry_equiv_pos_as_xyz
  1  'x, y, z'
loop_
 _atom_site_type_symbol
 _atom_site_label
 _atom_site_symmetry_multiplicity
 _atom_site_fract_x
 _atom_site_fract_y
 _atom_site_fract_z
 _atom_site_occupancy
  Ag  Ag0  1  0.00520920  0.74979097  0.75026169  1
  Ag  Ag1  1  0.24863275  0.74851215  0.50241718  1
  Ag  Ag2  1  -0.00198675  0.00119194  0.49939013  1
  Ag  Ag3  1  0.24796946  0.50772802  0.75068321  1
  Ag  Ag4  1  0.50385861  -0.00737445  0.00188547  1
  Ag  Ag5  1  0.50049636  0.75017195  0.24339723  1
  Ag  Ag6  1  0.49547940  0.75000592  0.75667617  1
  Ag  Ag7  1  0.75081023  0.00198364  0.24710655  1
  Ag  Ag8  1  -0.00126572  0.24926345  0.74837209  1
  Ag  Ag9  1  0.75079220  0.49800355  0.24800128  1
  Ag  Ag10  1  0.25451784  0.74876899  -0.00259795  1
  Ag  Ag11  1  0.74482829  0.75268078  0.00334464  1
  Ag  Ag12  1  0.75558297  0.24826970  0.49441842  1
  Ag  Ag13  1  0.75194367  0.24809991  0.00602050  1
  Ag  Ag14  1  -0.00717461  0.24970639  0.25106797  1
  Ag  Ag15  1  0.24966255  0.50428222  0.24937477  1
  Sb  Sb16  1  0.75090212  -0.00060221  0.75335806  1
  Sb  Sb17  1  0.24901016  -0.00848980  0.75053318  1
  Sb  Sb18  1  -0.00017102  0.50169064  0.00068408  1
  Sb  Sb19  1  0.50242853  -0.00300158  0.49795346  1
  Sb  Sb20  1  0.24859611  0.25125599  0.00083882  1
  Sb  Sb21  1  0.00016226  0.74970268  0.24996098  1
  Sb  Sb22  1  0.24959377  -0.00398091  0.24920075  1
  Sb  Sb23  1  0.75187975  0.75110580  0.49674043  1
  Sb  Sb24  1  0.24421166  0.25051529  0.49946277  1
  Sb  Sb25  1  0.50068058  0.25074878  0.75330735  1
  Sb  Sb26  1  0.75166632  0.50143940  0.75207666  1
  Sb  Sb27  1  -0.00368225  -0.00143162  0.00141899  1
  Sb  Sb28  1  0.00020077  0.49954828  0.49973085  1
  Sb  Sb29  1  0.50687330  0.25041654  0.24763140  1
  Sb  Sb30  1  0.49975498  0.50235704  0.49928185  1
  Sb  Sb31  1  0.50030172  0.50841410  0.00088860  1
  Te  Te32  1  0.24495763  0.25781657  0.24974987  1
  Te  Te33  1  0.24427871  0.25841629  0.75035217  1
  Te  Te34  1  0.25013830  0.74641485  0.24880579  1
  Te  Te35  1  0.24865852  0.74758653  0.75147763  1
  Te  Te36  1  0.75076744  0.25106955  0.24768940  1
  Te  Te37  1  0.75429917  0.25165236  0.75154603  1
  Te  Te38  1  0.74956237  0.74889023  0.24868367  1
  Te  Te39  1  0.75074648  0.74794016  0.75317679  1
  Te  Te40  1  0.25617439  -0.00528720  0.00114993  1
  Te  Te41  1  0.24475607  -0.00456147  0.49916889  1
  Te  Te42  1  0.25021479  0.50423755  0.00195723  1
  Te  Te43  1  0.25039912  0.50492812  0.49796569  1
  Te  Te44  1  0.74799180  -0.00223664  0.00353084  1
  Te  Te45  1  0.75363199  0.00260605  0.49452586  1
  Te  Te46  1  0.74987167  0.50005730  0.00549770  1
  Te  Te47  1  0.74944891  0.49517931  0.49272026  1
  Te  Te48  1  -0.00393116  0.24697956  -0.00073546  1
  Te  Te49  1  -0.00262872  0.24587474  0.50077337  1
  Te  Te50  1  -0.00026412  0.75278139  -0.00522174  1
  Te  Te51  1  0.00268532  0.75481001  0.50420901  1
  Te  Te52  1  0.50580231  0.24021232  -0.00166859  1
  Te  Te53  1  0.50797326  0.24737749  0.50150803  1
  Te  Te54  1  0.50136021  0.75245500  0.00068182  1
  Te  Te55  1  0.49580459  0.75182385  0.50030884  1
  Te  Te56  1  -0.00383052  0.00367111  0.25283733  1
  Te  Te57  1  -0.00039062  0.00118266  0.74549957  1
  Te  Te58  1  -0.00040502  0.49586576  0.25024863  1
  Te  Te59  1  0.00363817  0.50112394  0.74961516  1
  Te  Te60  1  0.50375215  -0.00451660  0.24730083  1
  Te  Te61  1  0.49973601  -0.00638411  0.75421190  1
  Te  Te62  1  0.49902960  0.50507559  0.25047081  1
  Te  Te63  1  0.49400593  0.50618419  0.74907517  1
