# generated using pymatgen
data_AgSbTe2
_symmetry_space_group_name_H-M   'P 1'
_cell_length_a   12.22652940
_cell_length_b   12.21837816
_cell_length_c   12.21983675
_cell_angle_alpha   89.99464602
_cell_angle_beta   90.00137763
_cell_angle_gamma   89.99915631
_symmetry_Int_Tables_number   1
_chemical_formula_structural   AgSbTe2
_chemical_formula_sum   'Ag16 Sb16 Te32'
_cell_volume   1825.50136023
_cell_formula_units_Z   16
loop_
 _symmetry_equiv_pos_site_id
 _symmetry_equiv_pos_as_xyz
  1  'x, y, z'
loop_
 _atom_site_type_symbol
 _atom_site_label
 _atom_site_symmetry_multiplicity
 _atom_site_fract_x
 _atom_site_fract_y
 _atom_site_fract_z
 _atom_site_occupancy
  Ag  Ag0  1  0.75020290  0.49755731  0.75241467  1
  Ag  Ag1  1  0.74806369  0.24766255  0.50488737  1
  Ag  Ag2  1  -0.00030006  0.50461496  -0.00157625  1
  Ag  Ag3  1  0.50206002  -0.00137285  -0.00580670  1
  Ag  Ag4  1  0.74780336  0.00211802  0.75055393  1
  Ag  Ag5  1  0.24991405  0.74962966  0.50182861  1
  Ag  Ag6  1  0.24727422  0.74799472  -0.00178033  1
  Ag  Ag7  1  0.24988180  0.49989593  0.75052194  1
  Ag  Ag8  1  -0.00202403  -0.00416117  -0.00406611  1
  Ag  Ag9  1  0.50227880  0.24725102  0.74673495  1
  Ag  Ag10  1  0.75232393  0.75002608  -0.00246439  1
  Ag  Ag11  1  0.00018716  0.00096871  0.50417426  1
  Ag  Ag12  1  0.25201056  0.24943500  0.50288804  1
  Ag  Ag13  1  0.75180306  0.49955538  0.24729861  1
  Ag  Ag14  1  0.24838707  0.50115395  0.24939425  1
  Ag  Ag15  1  0.50042835  0.00391346  0.50630854  1
  Sb  Sb16  1  0.75039732  0.00098946  0.24922981  1
  Sb  Sb17  1  0.49959696  0.74971072  0.25018988  1
  Sb  Sb18  1  0.00048859  0.74812348  0.24801163  1
  Sb  Sb19  1  0.00139331  0.75117870  0.75202084  1
  Sb  Sb20  1  0.49959998  0.75389409  0.74994930  1
  Sb  Sb21  1  0.49868302  0.49637757  0.50303554  1
  Sb  Sb22  1  0.25212861  0.00154967  0.74845407  1
  Sb  Sb23  1  -0.00021478  0.25182874  0.25104097  1
  Sb  Sb24  1  0.25146022  0.25209781  -0.00314937  1
  Sb  Sb25  1  0.74885112  0.25013167  -0.00484161  1
  Sb  Sb26  1  0.24951578  -0.00053881  0.25132659  1
  Sb  Sb27  1  0.50016500  0.25013368  0.25330293  1
  Sb  Sb28  1  0.50004832  0.50271165  -0.00290952  1
  Sb  Sb29  1  0.75013888  0.75204549  0.50160361  1
  Sb  Sb30  1  0.00201211  0.50071523  0.50253159  1
  Sb  Sb31  1  -0.00206306  0.24944386  0.74884800  1
  Te  Te32  1  0.25109561  0.25736673  0.25802181  1
  Te  Te33  1  0.25495630  0.25388657  0.74537945  1
  Te  Te34  1  0.25057889  0.74373635  0.24909062  1
  Te  Te35  1  0.25112137  0.74331333  0.75103261  1
  Te  Te36  1  0.74896762  0.25689978  0.25952683  1
  Te  Te37  1  0.74665404  0.25049650  0.74591136  1
  Te  Te38  1  0.74930050  0.74190935  0.24448326  1
  Te  Te39  1  0.74873490  0.74799254  0.75419886  1
  Te  Te40  1  0.24717671  -0.00390013  0.00012297  1
  Te  Te41  1  0.24915177  0.00019822  0.50025791  1
  Te  Te42  1  0.24974726  0.50223098  -0.00162166  1
  Te  Te43  1  0.24834554  0.50140518  0.50173030  1
  Te  Te44  1  0.75210780  -0.00073731  -0.00053787  1
  Te  Te45  1  0.75020074  -0.00117657  0.50024674  1
  Te  Te46  1  0.75065363  0.50064839  -0.00310621  1
  Te  Te47  1  0.75134432  0.50034536  0.50348630  1
  Te  Te48  1  0.00112501  0.24657090  0.00028451  1
  Te  Te49  1  0.00071085  0.24382887  0.49997244  1
  Te  Te50  1  0.00149664  0.75141177  0.00028728  1
  Te  Te51  1  0.00600089  0.75746871  0.49934313  1
  Te  Te52  1  0.49883824  0.24003524  -0.00611012  1
  Te  Te53  1  0.49984440  0.24646173  0.50304894  1
  Te  Te54  1  0.49867886  0.75675803  0.00012624  1
  Te  Te55  1  0.49407349  0.75944545  0.49979227  1
  Te  Te56  1  -0.00026495  0.00137711  0.24744456  1
  Te  Te57  1  -0.00552081  0.00054188  0.75209522  1
  Te  Te58  1  -0.00011028  0.49911381  0.24344507  1
  Te  Te59  1  -0.00160923  0.49898822  0.75462756  1
  Te  Te60  1  0.50018219  0.00074615  0.24880521  1
  Te  Te61  1  0.50199717  0.00373659  0.74912308  1
  Te  Te62  1  0.50006352  0.49915678  0.24976251  1
  Te  Te63  1  0.50186075  0.49310781  0.74977321  1
