# generated using pymatgen
data_AgSbTe2
_symmetry_space_group_name_H-M   'P 1'
_cell_length_a   12.20627595
_cell_length_b   12.20299049
_cell_length_c   12.20627589
_cell_angle_alpha   89.99440026
_cell_angle_beta   89.99446389
_cell_angle_gamma   90.00559974
_symmetry_Int_Tables_number   1
_chemical_formula_structural   AgSbTe2
_chemical_formula_sum   'Ag16 Sb16 Te32'
_cell_volume   1818.16223391
_cell_formula_units_Z   16
loop_
 _symmetry_equiv_pos_site_id
 _symmetry_equiv_pos_as_xyz
  1  'x, y, z'
loop_
 _atom_site_type_symbol
 _atom_site_label
 _atom_site_symmetry_multiplicity
 _atom_site_fract_x
 _atom_site_fract_y
 _atom_site_fract_z
 _atom_site_occupancy
  Ag  Ag0  1  0.75004285  0.49750409  0.75248018  1
  Ag  Ag1  1  0.25220461  0.24999996  0.00220460  1
  Ag  Ag2  1  0.00388817  0.49873289  0.00200862  1
  Ag  Ag3  1  0.49881664  0.24807972  0.75301482  1
  Ag  Ag4  1  0.75167635  0.49578159  0.24728857  1
  Ag  Ag5  1  0.00248020  0.00249592  0.50004285  1
  Ag  Ag6  1  0.25200862  0.00126713  0.75388821  1
  Ag  Ag7  1  0.24997542  0.00346403  0.24568941  1
  Ag  Ag8  1  0.00225393  0.75000001  0.75225392  1
  Ag  Ag9  1  0.24801764  0.49622200  0.24225948  1
  Ag  Ag10  1  0.49225966  0.00377799  -0.00198236  1
  Ag  Ag11  1  0.49568943  0.49653595  -0.00002458  1
  Ag  Ag12  1  0.24946829  0.75000003  -0.00053172  1
  Ag  Ag13  1  0.00301482  0.25192028  0.24881663  1
  Ag  Ag14  1  0.74970291  0.25000000  0.49970291  1
  Ag  Ag15  1  0.49728854  0.00421839  0.50167635  1
  Sb  Sb16  1  0.75196129  0.74703374  -0.00181477  1
  Sb  Sb17  1  0.00146024  0.25000001  0.75146024  1
  Sb  Sb18  1  0.25028870  0.24649813  0.49784168  1
  Sb  Sb19  1  0.49636776  0.24999999  0.24636778  1
  Sb  Sb20  1  0.24965344  0.49830563  0.75948636  1
  Sb  Sb21  1  0.75172572  0.00465609  0.25052112  1
  Sb  Sb22  1  0.49765712  0.75000003  0.24765713  1
  Sb  Sb23  1  -0.00019383  0.49699452  0.49846693  1
  Sb  Sb24  1  0.00331489  0.74790063  0.24712321  1
  Sb  Sb25  1  0.74784170  0.25350189  0.00028868  1
  Sb  Sb26  1  0.50052111  0.49534390  0.50172575  1
  Sb  Sb27  1  0.00948613  0.00169438  -0.00034654  1
  Sb  Sb28  1  0.75193418  0.74999999  0.50193417  1
  Sb  Sb29  1  0.24818523  0.75296625  0.50196129  1
  Sb  Sb30  1  0.49712325  0.75209938  0.75331488  1
  Sb  Sb31  1  0.74846691  0.00300549  0.74980615  1
  Te  Te32  1  0.24711299  0.24936650  0.24729850  1
  Te  Te33  1  0.25349466  0.24623894  0.75375029  1
  Te  Te34  1  0.24863583  0.75072335  0.24320718  1
  Te  Te35  1  0.24576549  0.75426844  0.75500905  1
  Te  Te36  1  0.75490663  0.25527106  0.25352168  1
  Te  Te37  1  0.74686146  0.25450239  0.74645915  1
  Te  Te38  1  0.75103165  0.73929274  0.25039940  1
  Te  Te39  1  0.75699473  0.74218265  0.74979486  1
  Te  Te40  1  0.25157845  0.00120718  0.00087054  1
  Te  Te41  1  0.25056177  0.00036604  0.49936245  1
  Te  Te42  1  0.25087053  0.49879281  0.00157842  1
  Te  Te43  1  0.25117122  0.50054400  0.48932039  1
  Te  Te44  1  0.73932039  -0.00054403  0.00117122  1
  Te  Te45  1  0.74943848  0.00532887  0.49873638  1
  Te  Te46  1  0.74936246  0.49963401  0.00056176  1
  Te  Te47  1  0.74873639  0.49467114  0.49943847  1
  Te  Te48  1  0.00375028  0.25376106  0.00349466  1
  Te  Te49  1  -0.00354087  0.24549761  0.49686144  1
  Te  Te50  1  0.00500905  0.74573156  -0.00423450  1
  Te  Te51  1  -0.00020516  0.75781735  0.50699475  1
  Te  Te52  1  0.49729849  0.25063352  -0.00288701  1
  Te  Te53  1  0.50352167  0.24472896  0.50490663  1
  Te  Te54  1  0.49320716  0.74927666  -0.00136417  1
  Te  Te55  1  0.50039940  0.76070726  0.50103166  1
  Te  Te56  1  0.00322575  0.00338772  0.25277096  1
  Te  Te57  1  0.00246201  -0.00146414  0.74771979  1
  Te  Te58  1  0.00116371  0.49771098  0.24783867  1
  Te  Te59  1  -0.00228021  0.50146414  0.75246203  1
  Te  Te60  1  0.49529882  0.00047254  0.24965516  1
  Te  Te61  1  0.49783871  0.00228899  0.75116370  1
  Te  Te62  1  0.49965515  0.49952744  0.24529880  1
  Te  Te63  1  0.50277097  0.49661228  0.75322574  1
