# generated using pymatgen
data_AgSbTe2
_symmetry_space_group_name_H-M   'P 1'
_cell_length_a   12.21895795
_cell_length_b   12.23575468
_cell_length_c   12.22841974
_cell_angle_alpha   90.00120924
_cell_angle_beta   89.99271015
_cell_angle_gamma   89.99610127
_symmetry_Int_Tables_number   1
_chemical_formula_structural   AgSbTe2
_chemical_formula_sum   'Ag16 Sb16 Te32'
_cell_volume   1828.24866059
_cell_formula_units_Z   16
loop_
 _symmetry_equiv_pos_site_id
 _symmetry_equiv_pos_as_xyz
  1  'x, y, z'
loop_
 _atom_site_type_symbol
 _atom_site_label
 _atom_site_symmetry_multiplicity
 _atom_site_fract_x
 _atom_site_fract_y
 _atom_site_fract_z
 _atom_site_occupancy
  Ag  Ag0  1  0.00262875  0.49958398  0.00515237  1
  Ag  Ag1  1  0.25001301  0.24677245  -0.00113302  1
  Ag  Ag2  1  0.00098142  0.50046672  0.49478041  1
  Ag  Ag3  1  0.50246328  0.75780030  0.24791295  1
  Ag  Ag4  1  0.49368091  0.24599574  0.75422940  1
  Ag  Ag5  1  0.25116053  0.00347921  0.75546237  1
  Ag  Ag6  1  0.50109737  0.24204638  0.24581220  1
  Ag  Ag7  1  0.24614889  0.49746562  0.75305595  1
  Ag  Ag8  1  0.49900745  0.00230580  0.49258646  1
  Ag  Ag9  1  0.00404602  0.00081636  0.00476088  1
  Ag  Ag10  1  -0.00117138  0.25221141  0.24492529  1
  Ag  Ag11  1  0.74675309  0.00064994  0.24782151  1
  Ag  Ag12  1  0.49710922  0.00479007  0.00599627  1
  Ag  Ag13  1  -0.00281258  0.74768962  0.24557367  1
  Ag  Ag14  1  0.75658967  0.49941167  0.24886076  1
  Ag  Ag15  1  0.00335341  0.74871784  0.75370316  1
  Sb  Sb16  1  0.75051859  0.75042772  0.49575073  1
  Sb  Sb17  1  0.25396259  0.00159623  0.24465208  1
  Sb  Sb18  1  0.24260001  0.49755597  0.24673765  1
  Sb  Sb19  1  0.49868494  0.49834194  0.49620673  1
  Sb  Sb20  1  0.75077140  0.24983086  0.49611337  1
  Sb  Sb21  1  0.49764951  0.75350509  0.75187100  1
  Sb  Sb22  1  0.24930202  0.75079649  0.50015593  1
  Sb  Sb23  1  0.75397969  0.49873872  0.75171098  1
  Sb  Sb24  1  0.75241368  0.75029670  0.00385953  1
  Sb  Sb25  1  0.24968303  0.24921838  0.50071826  1
  Sb  Sb26  1  0.24731214  0.75345643  -0.00081089  1
  Sb  Sb27  1  0.75002209  0.00112079  0.75243888  1
  Sb  Sb28  1  0.49639922  0.49576970  0.00306659  1
  Sb  Sb29  1  0.00182863  -0.00029006  0.49479660  1
  Sb  Sb30  1  0.00594214  0.25019158  0.75614580  1
  Sb  Sb31  1  0.75067685  0.24949542  0.00418250  1
  Te  Te32  1  0.25084487  0.25099422  0.24483634  1
  Te  Te33  1  0.25317870  0.24850239  0.75363344  1
  Te  Te34  1  0.24904561  0.74895395  0.25039331  1
  Te  Te35  1  0.24478738  0.74904357  0.74966965  1
  Te  Te36  1  0.74944594  0.24893522  0.24947115  1
  Te  Te37  1  0.73702510  0.25056754  0.74893209  1
  Te  Te38  1  0.75164264  0.75079901  0.24989484  1
  Te  Te39  1  0.75916274  0.74896257  0.74917758  1
  Te  Te40  1  0.24799719  0.00456378  -0.00421643  1
  Te  Te41  1  0.25491945  0.00064249  0.51180277  1
  Te  Te42  1  0.24539428  0.49333631  -0.00450181  1
  Te  Te43  1  0.24465455  0.49926501  0.50865613  1
  Te  Te44  1  0.75095605  0.00018259  0.00536562  1
  Te  Te45  1  0.74366820  0.00032675  0.49289264  1
  Te  Te46  1  0.75832151  0.49992867  0.00590899  1
  Te  Te47  1  0.75632952  0.49970008  0.49371090  1
  Te  Te48  1  0.00407928  0.24723949  0.00271843  1
  Te  Te49  1  0.00099707  0.25380015  0.49195953  1
  Te  Te50  1  0.00103042  0.75206564  0.00330081  1
  Te  Te51  1  0.00029162  0.74692502  0.49744499  1
  Te  Te52  1  0.49563736  0.24850404  0.00292501  1
  Te  Te53  1  0.49913335  0.24681015  0.49637490  1
  Te  Te54  1  0.49833032  0.75557054  0.00542869  1
  Te  Te55  1  0.49962693  0.75488957  0.49456347  1
  Te  Te56  1  -0.00023255  -0.00066793  0.24946623  1
  Te  Te57  1  0.00043240  -0.00087762  0.75156462  1
  Te  Te58  1  -0.00030290  0.50057219  0.24744785  1
  Te  Te59  1  0.00063213  0.50030033  0.75250623  1
  Te  Te60  1  0.49836377  0.00156521  0.24757495  1
  Te  Te61  1  0.49975082  -0.00082578  0.75373759  1
  Te  Te62  1  0.50472646  0.49951648  0.25054061  1
  Te  Te63  1  0.49733420  0.49965329  0.74972249  1
