# generated using pymatgen
data_AgSbTe2
_symmetry_space_group_name_H-M   'P 1'
_cell_length_a   12.21377277
_cell_length_b   12.23251694
_cell_length_c   12.23052344
_cell_angle_alpha   89.99911212
_cell_angle_beta   90.00502450
_cell_angle_gamma   90.00070342
_symmetry_Int_Tables_number   1
_chemical_formula_structural   AgSbTe2
_chemical_formula_sum   'Ag16 Sb16 Te32'
_cell_volume   1827.30357653
_cell_formula_units_Z   16
loop_
 _symmetry_equiv_pos_site_id
 _symmetry_equiv_pos_as_xyz
  1  'x, y, z'
loop_
 _atom_site_type_symbol
 _atom_site_label
 _atom_site_symmetry_multiplicity
 _atom_site_fract_x
 _atom_site_fract_y
 _atom_site_fract_z
 _atom_site_occupancy
  Ag  Ag0  1  0.50199826  -0.00123176  -0.00078552  1
  Ag  Ag1  1  0.00822223  0.50411030  0.50461594  1
  Ag  Ag2  1  0.49684045  0.50176501  -0.00304295  1
  Ag  Ag3  1  0.24304616  0.25579119  0.50232272  1
  Ag  Ag4  1  0.24218528  0.74431213  0.50318650  1
  Ag  Ag5  1  0.24416911  0.50220039  0.25195882  1
  Ag  Ag6  1  0.00388875  0.50091901  -0.00472203  1
  Ag  Ag7  1  0.00299133  0.74925626  0.25197725  1
  Ag  Ag8  1  0.24269637  0.50315734  0.74761445  1
  Ag  Ag9  1  0.00303287  0.25447285  0.75090558  1
  Ag  Ag10  1  -0.00290596  -0.00053783  -0.00006307  1
  Ag  Ag11  1  0.75465333  0.24757428  -0.00021994  1
  Ag  Ag12  1  0.00530729  0.74511130  0.74748377  1
  Ag  Ag13  1  0.49484112  0.74709105  0.75253002  1
  Ag  Ag14  1  0.00229146  -0.00429062  0.50066566  1
  Ag  Ag15  1  0.75547280  -0.00022329  0.24535938  1
  Sb  Sb16  1  0.75786322  0.24852481  0.50072455  1
  Sb  Sb17  1  0.49857010  -0.00291635  0.50118857  1
  Sb  Sb18  1  0.00117093  0.25056108  0.24887357  1
  Sb  Sb19  1  0.75318654  0.75302560  0.00024573  1
  Sb  Sb20  1  0.49596368  0.25237575  0.75316466  1
  Sb  Sb21  1  0.75346795  0.00053426  0.75400749  1
  Sb  Sb22  1  0.49852549  0.25048970  0.24814946  1
  Sb  Sb23  1  0.24518539  0.25395130  -0.00213824  1
  Sb  Sb24  1  0.75527717  0.50076061  0.24638373  1
  Sb  Sb25  1  0.75805086  0.49977819  0.75222215  1
  Sb  Sb26  1  0.49628758  0.74899916  0.24820845  1
  Sb  Sb27  1  0.49040837  0.50264498  0.50296929  1
  Sb  Sb28  1  0.24673711  0.74673401  -0.00387698  1
  Sb  Sb29  1  0.24560823  -0.00274948  0.25000907  1
  Sb  Sb30  1  0.75959681  0.75073996  0.49975539  1
  Sb  Sb31  1  0.24685007  -0.00395404  0.74958166  1
  Te  Te32  1  0.25037682  0.25711864  0.25714828  1
  Te  Te33  1  0.24460862  0.25591628  0.74639183  1
  Te  Te34  1  0.24482005  0.74600687  0.25628096  1
  Te  Te35  1  0.24578672  0.74656803  0.74701444  1
  Te  Te36  1  0.74898962  0.24463470  0.24477643  1
  Te  Te37  1  0.75680261  0.24992710  0.75472223  1
  Te  Te38  1  0.75635013  0.75488981  0.25122246  1
  Te  Te39  1  0.74965522  0.74989041  0.74884212  1
  Te  Te40  1  0.24932725  0.00223592  0.00133474  1
  Te  Te41  1  0.24544310  0.00017793  0.49940232  1
  Te  Te42  1  0.24730377  0.49840318  -0.00026288  1
  Te  Te43  1  0.24756688  0.50119688  0.50128398  1
  Te  Te44  1  0.75399438  0.00275177  0.00295678  1
  Te  Te45  1  0.75577899  0.00135435  0.49281723  1
  Te  Te46  1  0.75068147  0.49425279  0.00133494  1
  Te  Te47  1  0.75760270  0.49839104  0.49786411  1
  Te  Te48  1  -0.00132889  0.24943624  -0.00302550  1
  Te  Te49  1  0.00261030  0.24964126  0.50353984  1
  Te  Te50  1  0.00028511  0.74994170  -0.00187049  1
  Te  Te51  1  0.00254413  0.75012573  0.50255352  1
  Te  Te52  1  0.50419127  0.24932740  -0.00193512  1
  Te  Te53  1  0.49303362  0.24894170  0.50130595  1
  Te  Te54  1  0.50022384  0.74924893  -0.00376868  1
  Te  Te55  1  0.49242194  0.75059675  0.50564572  1
  Te  Te56  1  -0.00042579  -0.00302081  0.24699913  1
  Te  Te57  1  0.00050861  -0.00223774  0.75181938  1
  Te  Te58  1  0.00293823  0.50327843  0.24725977  1
  Te  Te59  1  0.00194688  0.50259391  0.75234741  1
  Te  Te60  1  0.50398130  -0.00147610  0.24318537  1
  Te  Te61  1  0.50032652  -0.00439866  0.75571634  1
  Te  Te62  1  0.49517459  0.50173001  0.24350169  1
  Te  Te63  1  0.49499964  0.50357840  0.75434054  1
