# generated using pymatgen
data_AgSbTe2
_symmetry_space_group_name_H-M   'P 1'
_cell_length_a   12.21992738
_cell_length_b   12.21402866
_cell_length_c   12.22093939
_cell_angle_alpha   90.00069800
_cell_angle_beta   90.00054167
_cell_angle_gamma   89.99464655
_symmetry_Int_Tables_number   1
_chemical_formula_structural   AgSbTe2
_chemical_formula_sum   'Ag16 Sb16 Te32'
_cell_volume   1824.03071756
_cell_formula_units_Z   16
loop_
 _symmetry_equiv_pos_site_id
 _symmetry_equiv_pos_as_xyz
  1  'x, y, z'
loop_
 _atom_site_type_symbol
 _atom_site_label
 _atom_site_symmetry_multiplicity
 _atom_site_fract_x
 _atom_site_fract_y
 _atom_site_fract_z
 _atom_site_occupancy
  Ag  Ag0  1  0.50570434  0.00310219  -0.00518387  1
  Ag  Ag1  1  0.74606780  0.00226651  0.24720084  1
  Ag  Ag2  1  0.50095678  0.24452928  0.74412856  1
  Ag  Ag3  1  0.25386623  0.00275572  0.25182385  1
  Ag  Ag4  1  0.75114415  0.75572655  -0.00326308  1
  Ag  Ag5  1  0.24834556  0.49711314  0.74571090  1
  Ag  Ag6  1  0.49876044  0.49082688  0.50558363  1
  Ag  Ag7  1  -0.00121513  0.50033059  -0.00678084  1
  Ag  Ag8  1  -0.00124215  0.74812273  0.75100976  1
  Ag  Ag9  1  0.74760689  0.24343274  -0.00436282  1
  Ag  Ag10  1  0.74332899  0.24679443  0.50438811  1
  Ag  Ag11  1  0.25668707  0.24868067  0.50523461  1
  Ag  Ag12  1  0.00132418  0.49761312  0.50643506  1
  Ag  Ag13  1  0.74378829  0.00373954  0.75310312  1
  Ag  Ag14  1  0.50019428  0.00825163  0.50590638  1
  Ag  Ag15  1  0.25634292  0.00417378  0.74729128  1
  Sb  Sb16  1  0.50254429  0.75668930  0.75074773  1
  Sb  Sb17  1  0.75163173  0.49663851  0.74894389  1
  Sb  Sb18  1  0.25017332  0.49570635  0.25488368  1
  Sb  Sb19  1  -0.00730233  0.00039378  -0.00345835  1
  Sb  Sb20  1  0.50062861  0.49603992  -0.00770902  1
  Sb  Sb21  1  0.74937128  0.49738927  0.25120185  1
  Sb  Sb22  1  0.50035277  0.24579219  0.25767495  1
  Sb  Sb23  1  -0.00119210  0.25236055  0.74939810  1
  Sb  Sb24  1  0.75082192  0.75466315  0.50324576  1
  Sb  Sb25  1  0.00018880  0.00390704  0.50297335  1
  Sb  Sb26  1  0.25294667  0.24696034  -0.00602493  1
  Sb  Sb27  1  -0.00236073  0.75068760  0.24892591  1
  Sb  Sb28  1  0.50156666  0.75391139  0.24956018  1
  Sb  Sb29  1  -0.00047112  0.24923326  0.25009282  1
  Sb  Sb30  1  0.24959782  0.75243889  0.50236483  1
  Sb  Sb31  1  0.24806935  0.75197409  -0.00315431  1
  Te  Te32  1  0.24965057  0.24324142  0.25746911  1
  Te  Te33  1  0.25167981  0.24814353  0.74689078  1
  Te  Te34  1  0.24939949  0.76061062  0.24904197  1
  Te  Te35  1  0.24443742  0.75013296  0.75074415  1
  Te  Te36  1  0.75006600  0.24394258  0.25044957  1
  Te  Te37  1  0.74854038  0.24714249  0.74850191  1
  Te  Te38  1  0.75067460  0.75818921  0.24282409  1
  Te  Te39  1  0.75353346  0.75501090  0.75381522  1
  Te  Te40  1  0.25546789  0.00162327  -0.00177590  1
  Te  Te41  1  0.25103832  0.00227006  0.50346727  1
  Te  Te42  1  0.24663410  0.49954913  -0.00317563  1
  Te  Te43  1  0.25074045  0.49710128  0.50188863  1
  Te  Te44  1  0.74937874  0.00276062  -0.00163797  1
  Te  Te45  1  0.74899876  0.00251023  0.50107823  1
  Te  Te46  1  0.75242448  0.49869921  0.00100324  1
  Te  Te47  1  0.74894282  0.49536053  0.49888254  1
  Te  Te48  1  -0.00673235  0.25620604  -0.00008244  1
  Te  Te49  1  -0.00128810  0.25589236  0.50022266  1
  Te  Te50  1  -0.00461649  0.74515456  -0.00386621  1
  Te  Te51  1  -0.00134372  0.73983574  0.50549951  1
  Te  Te52  1  0.50421111  0.24720998  -0.00714812  1
  Te  Te53  1  0.50107695  0.24797277  0.50333222  1
  Te  Te54  1  0.50744479  0.75415403  -0.00056297  1
  Te  Te55  1  0.50131129  0.74960122  0.50047552  1
  Te  Te56  1  0.00054261  -0.00110517  0.24999435  1
  Te  Te57  1  0.00174581  -0.00488608  0.75046186  1
  Te  Te58  1  0.00135372  0.50104828  0.25098180  1
  Te  Te59  1  0.00175018  0.50158532  0.74905866  1
  Te  Te60  1  0.50077439  0.00026779  0.25019618  1
  Te  Te61  1  0.49967416  0.00069929  0.74859602  1
  Te  Te62  1  0.49842336  0.50185050  0.25910256  1
  Te  Te63  1  0.49583740  0.49598022  0.74637924  1
