# generated using pymatgen
data_AgSbTe2
_symmetry_space_group_name_H-M   'P 1'
_cell_length_a   12.31873575
_cell_length_b   12.31286341
_cell_length_c   12.28806195
_cell_angle_alpha   89.99621591
_cell_angle_beta   89.99601356
_cell_angle_gamma   90.00000630
_symmetry_Int_Tables_number   1
_chemical_formula_structural   AgSbTe2
_chemical_formula_sum   'Ag16 Sb16 Te32'
_cell_volume   1863.83984301
_cell_formula_units_Z   16
loop_
 _symmetry_equiv_pos_site_id
 _symmetry_equiv_pos_as_xyz
  1  'x, y, z'
loop_
 _atom_site_type_symbol
 _atom_site_label
 _atom_site_symmetry_multiplicity
 _atom_site_fract_x
 _atom_site_fract_y
 _atom_site_fract_z
 _atom_site_occupancy
  Ag  Ag0  1  0.49064334  0.24974126  0.26218182  1
  Ag  Ag1  1  0.25596830  0.74026920  0.50065695  1
  Ag  Ag2  1  0.49305687  0.75121724  0.26020683  1
  Ag  Ag3  1  0.25468357  0.26024081  0.50811088  1
  Ag  Ag4  1  0.48611881  0.26281546  0.73645315  1
  Ag  Ag5  1  0.01614848  0.26125113  0.74285808  1
  Ag  Ag6  1  0.74050878  -0.00257247  0.25179674  1
  Ag  Ag7  1  0.01474066  0.49894160  0.50647319  1
  Ag  Ag8  1  0.25451367  -0.00358176  0.26175772  1
  Ag  Ag9  1  0.25405702  0.00656660  0.73928216  1
  Ag  Ag10  1  0.74847719  0.49717986  0.74621257  1
  Ag  Ag11  1  0.00361177  0.50012006  -0.01132145  1
  Ag  Ag12  1  0.48737380  0.50011613  0.51081854  1
  Ag  Ag13  1  0.01152269  0.74793017  0.25661468  1
  Ag  Ag14  1  0.48974736  0.73467012  0.73395553  1
  Ag  Ag15  1  0.25266028  0.49034192  0.74034394  1
  Sb  Sb16  1  0.75012259  0.74683507  -0.00006890  1
  Sb  Sb17  1  0.00836172  0.24991661  0.25683339  1
  Sb  Sb18  1  0.75005885  0.25256770  -0.00032515  1
  Sb  Sb19  1  0.25062772  0.50109932  0.25637397  1
  Sb  Sb20  1  0.74447299  0.25344876  0.49978328  1
  Sb  Sb21  1  0.74351066  0.74607901  0.50049489  1
  Sb  Sb22  1  0.49587466  0.50007679  -0.00524861  1
  Sb  Sb23  1  0.00265103  -0.00103778  -0.00011138  1
  Sb  Sb24  1  0.74728659  0.00175740  0.74923971  1
  Sb  Sb25  1  0.00545971  -0.00174063  0.50064399  1
  Sb  Sb26  1  0.49905188  0.00010169  0.00138979  1
  Sb  Sb27  1  0.74897562  0.49943735  0.25264430  1
  Sb  Sb28  1  0.49625261  0.00013949  0.50021828  1
  Sb  Sb29  1  0.24985302  0.74888011  0.00221335  1
  Sb  Sb30  1  0.01202112  0.74209779  0.74228777  1
  Sb  Sb31  1  0.24939506  0.25018246  -0.00588707  1
  Te  Te32  1  0.25428740  0.25001453  0.25430506  1
  Te  Te33  1  0.25154096  0.24661554  0.74907451  1
  Te  Te34  1  0.25293196  0.74753965  0.25177972  1
  Te  Te35  1  0.25234129  0.75706858  0.74735369  1
  Te  Te36  1  0.74141739  0.24738267  0.25083431  1
  Te  Te37  1  0.74402324  0.24826373  0.75033127  1
  Te  Te38  1  0.74168929  0.75092102  0.25004879  1
  Te  Te39  1  0.73698388  0.75334217  0.74907580  1
  Te  Te40  1  0.24996509  -0.00017894  -0.00267114  1
  Te  Te41  1  0.25039424  -0.00179607  0.50304729  1
  Te  Te42  1  0.24618558  0.49978276  -0.01779599  1
  Te  Te43  1  0.25382288  0.50102170  0.50137703  1
  Te  Te44  1  0.75007548  0.00000410  0.01223086  1
  Te  Te45  1  0.75318338  -0.00027548  0.49114538  1
  Te  Te46  1  0.75860133  0.49962354  -0.01238140  1
  Te  Te47  1  0.74940613  0.49996555  0.50477834  1
  Te  Te48  1  0.00046422  0.25605609  -0.00561173  1
  Te  Te49  1  0.00572229  0.25345116  0.50268321  1
  Te  Te50  1  0.00026463  0.74729711  0.01136495  1
  Te  Te51  1  0.00708100  0.74803393  0.49680478  1
  Te  Te52  1  0.49986921  0.24981984  0.00527902  1
  Te  Te53  1  0.49736801  0.25139118  0.50004899  1
  Te  Te54  1  0.50031756  0.75049500  0.00908085  1
  Te  Te55  1  0.49673901  0.74883794  0.50028828  1
  Te  Te56  1  0.01083946  -0.00135198  0.24971889  1
  Te  Te57  1  -0.00226702  0.00691741  0.75108360  1
  Te  Te58  1  -0.00005355  0.50166471  0.25759289  1
  Te  Te59  1  0.00163380  0.50128863  0.74381650  1
  Te  Te60  1  0.49274196  -0.00176840  0.24980352  1
  Te  Te61  1  0.49844817  0.00337543  0.75092000  1
  Te  Te62  1  0.49949444  0.50001134  0.24893234  1
  Te  Te63  1  0.49667887  0.50009705  0.74877746  1
