# generated using pymatgen
data_AgSbTe2
_symmetry_space_group_name_H-M   'P 1'
_cell_length_a   12.22155126
_cell_length_b   12.22692163
_cell_length_c   12.22765092
_cell_angle_alpha   89.99930318
_cell_angle_beta   90.00274530
_cell_angle_gamma   89.99382037
_symmetry_Int_Tables_number   1
_chemical_formula_structural   AgSbTe2
_chemical_formula_sum   'Ag16 Sb16 Te32'
_cell_volume   1827.20170159
_cell_formula_units_Z   16
loop_
 _symmetry_equiv_pos_site_id
 _symmetry_equiv_pos_as_xyz
  1  'x, y, z'
loop_
 _atom_site_type_symbol
 _atom_site_label
 _atom_site_symmetry_multiplicity
 _atom_site_fract_x
 _atom_site_fract_y
 _atom_site_fract_z
 _atom_site_occupancy
  Ag  Ag0  1  0.25913230  0.00185853  0.74730583  1
  Ag  Ag1  1  0.74368935  0.75314715  0.50783132  1
  Ag  Ag2  1  0.25296222  0.49808323  0.25091400  1
  Ag  Ag3  1  0.74581578  -0.00080007  0.25398907  1
  Ag  Ag4  1  0.50401174  0.49975542  0.50514075  1
  Ag  Ag5  1  0.74461317  0.50297786  0.74966069  1
  Ag  Ag6  1  -0.00380735  0.25082852  0.74864318  1
  Ag  Ag7  1  0.74472327  0.74937460  -0.00760890  1
  Ag  Ag8  1  0.74604621  0.24669143  0.50569257  1
  Ag  Ag9  1  -0.00439041  0.50018125  -0.00354335  1
  Ag  Ag10  1  0.74113947  -0.00361071  0.74596425  1
  Ag  Ag11  1  0.50506401  -0.00413678  -0.01012680  1
  Ag  Ag12  1  0.25406962  0.24972415  0.50360108  1
  Ag  Ag13  1  0.50681975  0.75352846  0.75000001  1
  Ag  Ag14  1  0.50450855  0.50383407  -0.00614662  1
  Ag  Ag15  1  0.50694789  -0.00022971  0.50908239  1
  Sb  Sb16  1  0.25636195  0.49739575  0.74909081  1
  Sb  Sb17  1  0.25765081  0.75032246  0.50349107  1
  Sb  Sb18  1  0.50139295  0.25040512  0.25275609  1
  Sb  Sb19  1  0.50378683  0.24562588  0.74647111  1
  Sb  Sb20  1  0.74873700  0.25022337  -0.00625148  1
  Sb  Sb21  1  0.74845316  0.49966057  0.25024453  1
  Sb  Sb22  1  -0.00598369  -0.00080409  -0.00468573  1
  Sb  Sb23  1  -0.00291757  0.49827050  0.50315582  1
  Sb  Sb24  1  0.50267601  0.74996902  0.24983681  1
  Sb  Sb25  1  0.25595617  0.74951979  -0.00324869  1
  Sb  Sb26  1  -0.00302713  0.74853428  0.24865318  1
  Sb  Sb27  1  -0.00869988  0.00134546  0.50297698  1
  Sb  Sb28  1  0.25105435  0.24987101  -0.00452436  1
  Sb  Sb29  1  -0.00165126  0.25179574  0.25017836  1
  Sb  Sb30  1  -0.00792554  0.74833034  0.75154464  1
  Sb  Sb31  1  0.25455510  0.00214707  0.25319248  1
  Te  Te32  1  0.24817311  0.25363003  0.25870397  1
  Te  Te33  1  0.24385402  0.24589892  0.74510205  1
  Te  Te34  1  0.24840308  0.74382319  0.25035392  1
  Te  Te35  1  0.25683375  0.75778947  0.74940351  1
  Te  Te36  1  0.75160944  0.24458019  0.26032667  1
  Te  Te37  1  0.75296996  0.25123545  0.74597643  1
  Te  Te38  1  0.75009153  0.75438063  0.25015228  1
  Te  Te39  1  0.74723238  0.74945467  0.75016863  1
  Te  Te40  1  0.25679881  0.00020751  -0.00080202  1
  Te  Te41  1  0.25581644  0.00166709  0.50003731  1
  Te  Te42  1  0.25439582  0.49963732  0.00148933  1
  Te  Te43  1  0.25348424  0.49848922  0.49899767  1
  Te  Te44  1  0.74647169  -0.00017396  -0.00347700  1
  Te  Te45  1  0.74775249  0.00042473  0.50397008  1
  Te  Te46  1  0.74509423  0.49995476  0.00008518  1
  Te  Te47  1  0.74687092  0.49948418  0.50024210  1
  Te  Te48  1  0.00040831  0.25581237  -0.00565487  1
  Te  Te49  1  -0.00042594  0.25029283  0.50519801  1
  Te  Te50  1  -0.00799243  0.74430001  -0.00065402  1
  Te  Te51  1  -0.01028277  0.74947110  0.49998328  1
  Te  Te52  1  0.49952924  0.25203051  0.00109808  1
  Te  Te53  1  0.50123752  0.25108220  0.50067145  1
  Te  Te54  1  0.50421716  0.74927207  -0.00304600  1
  Te  Te55  1  0.50430809  0.74971310  0.50307381  1
  Te  Te56  1  -0.00574489  -0.00015949  0.24824288  1
  Te  Te57  1  0.00032421  0.00348896  0.75127893  1
  Te  Te58  1  0.00427043  0.49959763  0.24280534  1
  Te  Te59  1  -0.00310562  0.49821961  0.75390213  1
  Te  Te60  1  0.50421822  0.00025848  0.25000111  1
  Te  Te61  1  0.50247690  -0.00045975  0.74928468  1
  Te  Te62  1  0.49683685  0.50020814  0.24994398  1
  Te  Te63  1  0.50210800  0.50256917  0.74986004  1
