# generated using pymatgen
data_AgSbTe2
_symmetry_space_group_name_H-M   'P 1'
_cell_length_a   12.27921479
_cell_length_b   12.28124377
_cell_length_c   12.28108092
_cell_angle_alpha   89.98768434
_cell_angle_beta   89.99792237
_cell_angle_gamma   89.99877175
_symmetry_Int_Tables_number   1
_chemical_formula_structural   AgSbTe2
_chemical_formula_sum   'Ag16 Sb16 Te32'
_cell_volume   1852.03645349
_cell_formula_units_Z   16
loop_
 _symmetry_equiv_pos_site_id
 _symmetry_equiv_pos_as_xyz
  1  'x, y, z'
loop_
 _atom_site_type_symbol
 _atom_site_label
 _atom_site_symmetry_multiplicity
 _atom_site_fract_x
 _atom_site_fract_y
 _atom_site_fract_z
 _atom_site_occupancy
  Ag  Ag0  1  0.25085159  0.49999780  0.74153156  1
  Ag  Ag1  1  0.74824324  0.24618631  -0.00559908  1
  Ag  Ag2  1  0.02046292  0.74634861  0.75092832  1
  Ag  Ag3  1  0.25469630  0.75992236  -0.01414930  1
  Ag  Ag4  1  0.01629210  0.50007618  0.50973356  1
  Ag  Ag5  1  0.01902522  0.25248874  0.75384381  1
  Ag  Ag6  1  0.48979537  0.75225782  0.24752962  1
  Ag  Ag7  1  0.48478803  0.50242552  0.50778495  1
  Ag  Ag8  1  0.25123742  0.23899853  -0.01659420  1
  Ag  Ag9  1  0.48499553  0.00045672  -0.00235489  1
  Ag  Ag10  1  0.48058860  0.74605632  0.75136707  1
  Ag  Ag11  1  0.25369311  0.74028679  0.51685126  1
  Ag  Ag12  1  0.48122463  0.25283184  0.75464364  1
  Ag  Ag13  1  0.25271540  -0.00380279  0.24093222  1
  Ag  Ag14  1  0.01546414  0.00344749  -0.00431205  1
  Ag  Ag15  1  0.25101312  0.26047304  0.51822922  1
  Sb  Sb16  1  0.25194454  0.50396188  0.25808549  1
  Sb  Sb17  1  0.74523391  -0.00052646  0.24508698  1
  Sb  Sb18  1  0.01096512  0.75178961  0.24845722  1
  Sb  Sb19  1  0.74779279  0.49925607  0.75027752  1
  Sb  Sb20  1  0.00688724  0.49820876  -0.00998730  1
  Sb  Sb21  1  0.49460635  0.49976880  -0.00746406  1
  Sb  Sb22  1  0.74691567  0.74806274  0.50159350  1
  Sb  Sb23  1  0.49133604  -0.00065998  0.50482893  1
  Sb  Sb24  1  0.01080421  0.00040306  0.50758392  1
  Sb  Sb25  1  0.74787359  0.49984359  0.24914312  1
  Sb  Sb26  1  0.00458787  0.25005838  0.24547043  1
  Sb  Sb27  1  0.74891626  0.25261504  0.50610057  1
  Sb  Sb28  1  0.49569755  0.24775750  0.24717314  1
  Sb  Sb29  1  0.74913169  0.00088548  0.75252632  1
  Sb  Sb30  1  0.25067339  -0.00035572  0.76027601  1
  Sb  Sb31  1  0.74761103  0.75303806  -0.00159787  1
  Te  Te32  1  0.25081869  0.24520857  0.24860425  1
  Te  Te33  1  0.25088077  0.24302889  0.74939519  1
  Te  Te34  1  0.25549275  0.75024075  0.24701101  1
  Te  Te35  1  0.25045604  0.75687334  0.75023857  1
  Te  Te36  1  0.74915047  0.25006676  0.23840497  1
  Te  Te37  1  0.74923972  0.25069699  0.75618626  1
  Te  Te38  1  0.73355701  0.74917059  0.24897520  1
  Te  Te39  1  0.74952801  0.74953212  0.75075625  1
  Te  Te40  1  0.25236569  -0.00121326  0.00380220  1
  Te  Te41  1  0.25022216  -0.00036699  0.48095500  1
  Te  Te42  1  0.24941540  0.50144009  -0.00904244  1
  Te  Te43  1  0.25159737  0.49994755  0.50508734  1
  Te  Te44  1  0.74936565  0.00595155  0.00021895  1
  Te  Te45  1  0.75214398  0.00217650  0.49563969  1
  Te  Te46  1  0.75152074  0.48810380  0.00108419  1
  Te  Te47  1  0.74966834  0.49859954  0.49891545  1
  Te  Te48  1  0.01105769  0.24991608  -0.00414029  1
  Te  Te49  1  0.00169502  0.24868938  0.50736682  1
  Te  Te50  1  -0.00022470  0.75021444  -0.00346725  1
  Te  Te51  1  0.00276476  0.75149912  0.50503336  1
  Te  Te52  1  0.48932812  0.25150994  -0.00344873  1
  Te  Te53  1  0.49818677  0.24934534  0.50492969  1
  Te  Te54  1  0.49932167  0.74829313  -0.00803347  1
  Te  Te55  1  0.49720973  0.75129692  0.51014400  1
  Te  Te56  1  0.00473099  -0.00116179  0.23782524  1
  Te  Te57  1  -0.00289765  0.00064501  0.75720026  1
  Te  Te58  1  -0.00067142  0.50136680  0.26764640  1
  Te  Te59  1  0.00541859  0.50054701  0.74633930  1
  Te  Te60  1  0.49698421  -0.00307012  0.24296823  1
  Te  Te61  1  0.50244884  0.00028462  0.75554300  1
  Te  Te62  1  0.49781874  0.50778581  0.26306534  1
  Te  Te63  1  0.49534189  0.50082343  0.74687643  1
