# generated using pymatgen
data_AgSbTe2
_symmetry_space_group_name_H-M   'P 1'
_cell_length_a   12.26503542
_cell_length_b   12.26654163
_cell_length_c   12.26533734
_cell_angle_alpha   89.99618144
_cell_angle_beta   90.00413916
_cell_angle_gamma   90.00457701
_symmetry_Int_Tables_number   1
_chemical_formula_structural   AgSbTe2
_chemical_formula_sum   'Ag16 Sb16 Te32'
_cell_volume   1845.31468280
_cell_formula_units_Z   16
loop_
 _symmetry_equiv_pos_site_id
 _symmetry_equiv_pos_as_xyz
  1  'x, y, z'
loop_
 _atom_site_type_symbol
 _atom_site_label
 _atom_site_symmetry_multiplicity
 _atom_site_fract_x
 _atom_site_fract_y
 _atom_site_fract_z
 _atom_site_occupancy
  Ag  Ag0  1  0.00550151  -0.00567889  -0.00004749  1
  Ag  Ag1  1  0.49098394  0.74528073  0.74197971  1
  Ag  Ag2  1  0.00608557  0.50963530  0.49947252  1
  Ag  Ag3  1  0.00238909  0.74452513  0.25859396  1
  Ag  Ag4  1  0.24512863  0.25340893  0.50191951  1
  Ag  Ag5  1  0.00761921  0.50489593  0.00000250  1
  Ag  Ag6  1  0.49426847  -0.00704038  0.49962443  1
  Ag  Ag7  1  0.49694512  0.74523097  0.25688059  1
  Ag  Ag8  1  0.75471069  0.50325584  0.25370218  1
  Ag  Ag9  1  0.00870124  0.74467831  0.74041159  1
  Ag  Ag10  1  0.24592381  0.25812830  -0.00372649  1
  Ag  Ag11  1  0.24241037  0.74708343  0.50367396  1
  Ag  Ag12  1  0.24568213  0.50531574  0.74801263  1
  Ag  Ag13  1  0.00561164  -0.00904969  0.50003384  1
  Ag  Ag14  1  0.49220576  0.50487755  0.00023842  1
  Ag  Ag15  1  0.75596053  0.25316170  0.49704556  1
  Sb  Sb16  1  0.75274797  0.50014870  0.74579997  1
  Sb  Sb17  1  0.75125276  -0.00053031  0.74787979  1
  Sb  Sb18  1  0.49586871  0.25742279  0.74713399  1
  Sb  Sb19  1  0.75333471  0.25340141  0.00277216  1
  Sb  Sb20  1  0.24685763  0.74199763  -0.00659238  1
  Sb  Sb21  1  0.75776672  0.74522462  0.49923685  1
  Sb  Sb22  1  0.24785695  -0.00306823  0.25113933  1
  Sb  Sb23  1  0.24672664  0.50280971  0.25174588  1
  Sb  Sb24  1  0.75205068  -0.00254758  0.25278858  1
  Sb  Sb25  1  -0.00019866  0.25746936  0.25262754  1
  Sb  Sb26  1  0.00345542  0.25695468  0.74809174  1
  Sb  Sb27  1  0.49175894  -0.00382865  0.00026807  1
  Sb  Sb28  1  0.75312609  0.74773550  0.00043144  1
  Sb  Sb29  1  0.24882915  -0.00749990  0.74814698  1
  Sb  Sb30  1  0.49990032  0.25780190  0.25308689  1
  Sb  Sb31  1  0.49361485  0.50937474  0.49887917  1
  Te  Te32  1  0.25010233  0.25041191  0.25660511  1
  Te  Te33  1  0.24933441  0.26349480  0.74506767  1
  Te  Te34  1  0.24931888  0.74918010  0.26197300  1
  Te  Te35  1  0.24774060  0.74323442  0.74503435  1
  Te  Te36  1  0.75012828  0.26058244  0.25794810  1
  Te  Te37  1  0.74847262  0.25067425  0.73725105  1
  Te  Te38  1  0.75065857  0.74182360  0.25021684  1
  Te  Te39  1  0.74825835  0.74909158  0.75061767  1
  Te  Te40  1  0.24406881  0.01262171  -0.00114905  1
  Te  Te41  1  0.24492816  0.00217103  0.50089270  1
  Te  Te42  1  0.24567603  0.49843378  -0.00085798  1
  Te  Te43  1  0.24708470  0.49978250  0.50049403  1
  Te  Te44  1  0.76293764  0.00610220  0.00066588  1
  Te  Te45  1  0.75506173  0.01072155  0.49851687  1
  Te  Te46  1  0.75391313  0.49741870  0.00440666  1
  Te  Te47  1  0.75666388  0.49549690  0.49800645  1
  Te  Te48  1  0.00475106  0.25357540  -0.00013021  1
  Te  Te49  1  0.00907079  0.24743175  0.50012200  1
  Te  Te50  1  0.00353796  0.74656690  0.00082523  1
  Te  Te51  1  -0.00037646  0.74981849  0.49996576  1
  Te  Te52  1  0.49446640  0.25082822  0.00024780  1
  Te  Te53  1  0.48984538  0.24122420  0.49940871  1
  Te  Te54  1  0.49671778  0.74946635  0.00125511  1
  Te  Te55  1  0.49851562  0.75054276  0.50003207  1
  Te  Te56  1  -0.00077223  -0.01342604  0.25287340  1
  Te  Te57  1  0.00071676  -0.01329926  0.74696645  1
  Te  Te58  1  -0.00088067  0.50559730  0.24940844  1
  Te  Te59  1  0.00134866  0.50509489  0.75108584  1
  Te  Te60  1  0.50138244  -0.01400743  0.25227757  1
  Te  Te61  1  0.50035887  -0.01458873  0.74773889  1
  Te  Te62  1  0.50288548  0.50641567  0.24747654  1
  Te  Te63  1  0.49900751  0.50694281  0.75350361  1
