# generated using pymatgen
data_AgSbTe2
_symmetry_space_group_name_H-M   'P 1'
_cell_length_a   12.21268001
_cell_length_b   12.21158466
_cell_length_c   12.21209990
_cell_angle_alpha   89.99747191
_cell_angle_beta   89.99901945
_cell_angle_gamma   90.00039432
_symmetry_Int_Tables_number   1
_chemical_formula_structural   AgSbTe2
_chemical_formula_sum   'Ag16 Sb16 Te32'
_cell_volume   1821.26587569
_cell_formula_units_Z   16
loop_
 _symmetry_equiv_pos_site_id
 _symmetry_equiv_pos_as_xyz
  1  'x, y, z'
loop_
 _atom_site_type_symbol
 _atom_site_label
 _atom_site_symmetry_multiplicity
 _atom_site_fract_x
 _atom_site_fract_y
 _atom_site_fract_z
 _atom_site_occupancy
  Ag  Ag0  1  0.75050937  0.25710860  0.49308242  1
  Ag  Ag1  1  0.75402519  0.49475766  0.25365768  1
  Ag  Ag2  1  0.75378814  0.25583269  0.00706886  1
  Ag  Ag3  1  0.75238148  0.74488043  0.00409880  1
  Ag  Ag4  1  -0.00371822  0.49728965  0.00690905  1
  Ag  Ag5  1  0.50023161  0.00292662  0.49676116  1
  Ag  Ag6  1  -0.00124216  0.25153349  0.74944629  1
  Ag  Ag7  1  0.24932726  0.00125348  0.74941568  1
  Ag  Ag8  1  0.50686130  0.49687300  0.49414687  1
  Ag  Ag9  1  0.25081239  0.00193418  0.25045629  1
  Ag  Ag10  1  0.24735200  0.74854001  0.00301355  1
  Ag  Ag11  1  0.50359311  0.25271996  0.25387475  1
  Ag  Ag12  1  -0.00600201  0.49595098  0.49250903  1
  Ag  Ag13  1  0.24562936  0.49759144  0.24996469  1
  Ag  Ag14  1  0.74982332  0.74252127  0.49564132  1
  Ag  Ag15  1  -0.00426775  0.25688874  0.25059072  1
  Sb  Sb16  1  0.24735862  0.49854543  0.75152651  1
  Sb  Sb17  1  0.00089463  0.74946847  0.75028140  1
  Sb  Sb18  1  0.74861486  0.00699022  0.25183251  1
  Sb  Sb19  1  0.75082957  0.00257920  0.74820043  1
  Sb  Sb20  1  0.24908220  0.25091232  0.49651954  1
  Sb  Sb21  1  -0.00034299  0.00484416  0.49743902  1
  Sb  Sb22  1  0.75206117  0.49850165  0.74486784  1
  Sb  Sb23  1  0.24905892  0.74900994  0.49691589  1
  Sb  Sb24  1  0.24505166  0.25305445  0.00399567  1
  Sb  Sb25  1  0.00094894  0.00377090  0.00227006  1
  Sb  Sb26  1  0.49942163  0.75105007  0.74881847  1
  Sb  Sb27  1  0.50475169  0.49784825  0.00725188  1
  Sb  Sb28  1  0.50128876  0.74710682  0.25140777  1
  Sb  Sb29  1  0.50059826  0.24859877  0.74525548  1
  Sb  Sb30  1  -0.00119889  0.74115995  0.24924732  1
  Sb  Sb31  1  0.49799295  0.00210407  0.00473094  1
  Te  Te32  1  0.25000609  0.25189334  0.24900344  1
  Te  Te33  1  0.24506262  0.24499170  0.75184346  1
  Te  Te34  1  0.25027798  0.74985620  0.24538899  1
  Te  Te35  1  0.24918689  0.75597947  0.75730524  1
  Te  Te36  1  0.75103940  0.25052842  0.25088956  1
  Te  Te37  1  0.75494134  0.24839837  0.75052494  1
  Te  Te38  1  0.74984307  0.74541112  0.24876851  1
  Te  Te39  1  0.75039636  0.75136735  0.75266919  1
  Te  Te40  1  0.25079493  -0.00606764  0.00227389  1
  Te  Te41  1  0.25419926  -0.00211768  0.49767380  1
  Te  Te42  1  0.24717797  0.50361644  0.00381397  1
  Te  Te43  1  0.24855372  0.50203471  0.49443212  1
  Te  Te44  1  0.74945542  -0.00359336  -0.00000859  1
  Te  Te45  1  0.74542645  -0.00086718  0.49954934  1
  Te  Te46  1  0.75135017  0.50045844  0.00303460  1
  Te  Te47  1  0.75110826  0.49924688  0.49927176  1
  Te  Te48  1  -0.00439633  0.25372715  0.00197222  1
  Te  Te49  1  -0.00310205  0.25308045  0.49803773  1
  Te  Te50  1  -0.00301589  0.74370970  -0.00070466  1
  Te  Te51  1  -0.00683192  0.74328558  0.50121076  1
  Te  Te52  1  0.50933444  0.25028209  0.00519779  1
  Te  Te53  1  0.50360452  0.25091544  0.49735652  1
  Te  Te54  1  0.50325354  0.74996929  -0.00010351  1
  Te  Te55  1  0.50615713  0.74949055  0.49951367  1
  Te  Te56  1  0.00840836  0.01032398  0.25114870  1
  Te  Te57  1  0.00686853  0.00724547  0.74915757  1
  Te  Te58  1  -0.00071007  0.49728302  0.25029437  1
  Te  Te59  1  0.00210646  0.49317824  0.75023271  1
  Te  Te60  1  0.49465179  0.00642333  0.25495532  1
  Te  Te61  1  0.49246693  0.00147829  0.74173967  1
  Te  Te62  1  0.50022844  0.49568820  0.25447431  1
  Te  Te63  1  0.49663979  0.49863578  0.73788471  1
