# generated using pymatgen
data_AgSbTe2
_symmetry_space_group_name_H-M   'P 1'
_cell_length_a   12.22951018
_cell_length_b   12.22798604
_cell_length_c   12.22288239
_cell_angle_alpha   89.99707724
_cell_angle_beta   89.99772655
_cell_angle_gamma   89.99013974
_symmetry_Int_Tables_number   1
_chemical_formula_structural   AgSbTe2
_chemical_formula_sum   'Ag16 Sb16 Te32'
_cell_volume   1827.83766712
_cell_formula_units_Z   16
loop_
 _symmetry_equiv_pos_site_id
 _symmetry_equiv_pos_as_xyz
  1  'x, y, z'
loop_
 _atom_site_type_symbol
 _atom_site_label
 _atom_site_symmetry_multiplicity
 _atom_site_fract_x
 _atom_site_fract_y
 _atom_site_fract_z
 _atom_site_occupancy
  Ag  Ag0  1  0.50231094  0.00557327  -0.00889541  1
  Ag  Ag1  1  0.50424437  0.24487464  0.74920484  1
  Ag  Ag2  1  0.50282583  0.00432560  0.50835206  1
  Ag  Ag3  1  0.75467454  0.24519366  -0.01000770  1
  Ag  Ag4  1  -0.00243521  0.00570437  -0.01001580  1
  Ag  Ag5  1  0.00185819  0.75628937  0.74914461  1
  Ag  Ag6  1  0.24637677  0.75131392  0.50402828  1
  Ag  Ag7  1  0.24477658  0.24872689  -0.00748389  1
  Ag  Ag8  1  0.74943380  0.24535170  0.51005119  1
  Ag  Ag9  1  0.00103791  0.49421608  -0.00582948  1
  Ag  Ag10  1  0.24717822  0.49713165  0.74989534  1
  Ag  Ag11  1  0.75415912  0.00694246  0.74981691  1
  Ag  Ag12  1  -0.00417668  0.24391425  0.75548310  1
  Ag  Ag13  1  0.49900339  0.49628809  0.50600628  1
  Ag  Ag14  1  -0.00218457  -0.00003267  0.50983083  1
  Ag  Ag15  1  0.00193095  0.75213223  0.25098081  1
  Sb  Sb16  1  0.49686023  0.75556945  0.74827502  1
  Sb  Sb17  1  0.24811943  -0.00079179  0.25014065  1
  Sb  Sb18  1  0.75238023  0.49200595  0.74977655  1
  Sb  Sb19  1  0.49921593  0.49284573  -0.00708836  1
  Sb  Sb20  1  0.75300411  0.75483091  -0.00421103  1
  Sb  Sb21  1  0.24761861  0.50111222  0.25048396  1
  Sb  Sb22  1  -0.00034275  0.24831203  0.24550170  1
  Sb  Sb23  1  0.75165053  0.00102833  0.24993145  1
  Sb  Sb24  1  0.24993994  0.24941456  0.50692025  1
  Sb  Sb25  1  0.75294405  0.75429161  0.50357051  1
  Sb  Sb26  1  0.49813672  0.75146391  0.25228153  1
  Sb  Sb27  1  0.75208864  0.49877463  0.25003691  1
  Sb  Sb28  1  0.00020291  0.49973253  0.50566888  1
  Sb  Sb29  1  0.24461139  0.00330633  0.75027286  1
  Sb  Sb30  1  0.24612389  0.75108786  -0.00430066  1
  Sb  Sb31  1  0.50008565  0.24922905  0.25190726  1
  Te  Te32  1  0.24984068  0.25053662  0.23690840  1
  Te  Te33  1  0.24937714  0.25372375  0.75382776  1
  Te  Te34  1  0.24363460  0.74945798  0.25803357  1
  Te  Te35  1  0.24592367  0.74293055  0.74577254  1
  Te  Te36  1  0.75032642  0.25065524  0.25073283  1
  Te  Te37  1  0.75086730  0.24729217  0.74972580  1
  Te  Te38  1  0.75912859  0.74914114  0.25017179  1
  Te  Te39  1  0.75735900  0.75893119  0.75010125  1
  Te  Te40  1  0.24946133  0.00263816  0.00039563  1
  Te  Te41  1  0.24964564  -0.00207524  0.49986117  1
  Te  Te42  1  0.24771231  0.49792381  -0.00412575  1
  Te  Te43  1  0.25265956  0.50090054  0.50320382  1
  Te  Te44  1  0.75136312  0.00355725  -0.00301984  1
  Te  Te45  1  0.75033222  0.00340912  0.50296446  1
  Te  Te46  1  0.75303337  0.49276042  -0.00028507  1
  Te  Te47  1  0.74474390  0.49309610  0.50062143  1
  Te  Te48  1  -0.00153772  0.24689144  -0.00003995  1
  Te  Te49  1  -0.00074754  0.24751344  0.50106897  1
  Te  Te50  1  0.00088006  0.75299183  -0.00427918  1
  Te  Te51  1  0.00141812  0.75094630  0.50444512  1
  Te  Te52  1  0.50195285  0.24686747  -0.00237648  1
  Te  Te53  1  0.49988546  0.24536265  0.50210803  1
  Te  Te54  1  0.49990605  0.75836228  0.00176945  1
  Te  Te55  1  0.49679766  0.75337185  0.49955102  1
  Te  Te56  1  -0.00018169  -0.00410344  0.25066873  1
  Te  Te57  1  0.00062485  0.00306428  0.75000806  1
  Te  Te58  1  0.00039830  0.50585669  0.24215001  1
  Te  Te59  1  0.00172217  0.49764068  0.75316656  1
  Te  Te60  1  0.50021889  -0.00112091  0.25169050  1
  Te  Te61  1  0.50213557  0.00184410  0.74914563  1
  Te  Te62  1  0.50013268  0.50182012  0.25925342  1
  Te  Te63  1  0.49733179  0.49765360  0.74705083  1
