# generated using pymatgen
data_AgSbTe2
_symmetry_space_group_name_H-M   'P 1'
_cell_length_a   12.21806166
_cell_length_b   12.21556118
_cell_length_c   12.21491308
_cell_angle_alpha   89.99268453
_cell_angle_beta   90.00655250
_cell_angle_gamma   90.00143173
_symmetry_Int_Tables_number   1
_chemical_formula_structural   AgSbTe2
_chemical_formula_sum   'Ag16 Sb16 Te32'
_cell_volume   1823.08160982
_cell_formula_units_Z   16
loop_
 _symmetry_equiv_pos_site_id
 _symmetry_equiv_pos_as_xyz
  1  'x, y, z'
loop_
 _atom_site_type_symbol
 _atom_site_label
 _atom_site_symmetry_multiplicity
 _atom_site_fract_x
 _atom_site_fract_y
 _atom_site_fract_z
 _atom_site_occupancy
  Ag  Ag0  1  0.00083955  -0.00326716  -0.00304873  1
  Ag  Ag1  1  0.00281455  0.24610600  0.74696504  1
  Ag  Ag2  1  0.75078230  -0.00552696  0.74746323  1
  Ag  Ag3  1  0.24857567  -0.00463213  0.25807642  1
  Ag  Ag4  1  0.49349476  -0.00795817  0.50371551  1
  Ag  Ag5  1  0.00685998  0.50443436  0.49925294  1
  Ag  Ag6  1  0.25326821  0.75098059  0.49840570  1
  Ag  Ag7  1  0.49812835  0.50562051  -0.00085067  1
  Ag  Ag8  1  0.74648724  0.75170799  0.50321101  1
  Ag  Ag9  1  0.24983688  0.50449082  0.25781956  1
  Ag  Ag10  1  0.50101937  0.75240712  0.74317535  1
  Ag  Ag11  1  0.00434379  0.75077752  0.25442448  1
  Ag  Ag12  1  0.24943067  -0.00217924  0.74244302  1
  Ag  Ag13  1  0.49343005  0.50788139  0.50048072  1
  Ag  Ag14  1  0.74925242  0.75185110  -0.00287039  1
  Ag  Ag15  1  0.24913439  0.24887750  0.50137383  1
  Sb  Sb16  1  -0.00038152  0.75326085  0.74655623  1
  Sb  Sb17  1  0.00750679  -0.00337344  0.50171298  1
  Sb  Sb18  1  0.75169671  0.24769926  0.50358692  1
  Sb  Sb19  1  0.49970589  -0.00624018  -0.00282436  1
  Sb  Sb20  1  0.75120022  0.24768853  -0.00417869  1
  Sb  Sb21  1  0.00434098  0.24888710  0.25267628  1
  Sb  Sb22  1  0.00133632  0.50364603  0.00056326  1
  Sb  Sb23  1  0.25109941  0.75031496  0.00099105  1
  Sb  Sb24  1  0.49480756  0.74977001  0.25826048  1
  Sb  Sb25  1  0.49741550  0.24739589  0.74684463  1
  Sb  Sb26  1  0.49690240  0.25032021  0.25190807  1
  Sb  Sb27  1  0.24885520  0.24981284  -0.00364219  1
  Sb  Sb28  1  0.74999222  0.50400159  0.25196127  1
  Sb  Sb29  1  0.74908735  0.50622397  0.74871125  1
  Sb  Sb30  1  0.25061062  0.50356600  0.74110468  1
  Sb  Sb31  1  0.75199678  -0.00501053  0.25286596  1
  Te  Te32  1  0.24891579  0.24870680  0.25718365  1
  Te  Te33  1  0.24641002  0.24370807  0.74527764  1
  Te  Te34  1  0.24597515  0.75106534  0.25263295  1
  Te  Te35  1  0.25273376  0.75415792  0.74631437  1
  Te  Te36  1  0.75078724  0.24941608  0.24986286  1
  Te  Te37  1  0.75620720  0.23964684  0.74932355  1
  Te  Te38  1  0.75771965  0.75092260  0.25167466  1
  Te  Te39  1  0.74875189  0.75469279  0.74723071  1
  Te  Te40  1  0.24773736  0.00022040  -0.00014950  1
  Te  Te41  1  0.24952182  -0.00211724  0.50037301  1
  Te  Te42  1  0.25414560  0.49937162  0.00774541  1
  Te  Te43  1  0.25134735  0.50242948  0.49946853  1
  Te  Te44  1  0.75150978  -0.00440228  -0.00252917  1
  Te  Te45  1  0.74518687  -0.00389219  0.50297939  1
  Te  Te46  1  0.74589172  0.50629666  0.00010878  1
  Te  Te47  1  0.74770050  0.50449112  0.50000274  1
  Te  Te48  1  -0.00053688  0.24533605  -0.00558368  1
  Te  Te49  1  0.00286447  0.25546130  0.50363335  1
  Te  Te50  1  -0.00366726  0.75222411  0.00228329  1
  Te  Te51  1  0.00065445  0.74712615  0.49847357  1
  Te  Te52  1  0.50094165  0.26058295  -0.00036889  1
  Te  Te53  1  0.49585771  0.25177058  0.50137736  1
  Te  Te54  1  0.50399967  0.74673619  -0.00521607  1
  Te  Te55  1  0.49912644  0.74984143  0.50066293  1
  Te  Te56  1  0.00387297  -0.00248012  0.24660181  1
  Te  Te57  1  0.00141899  0.00040304  0.75155473  1
  Te  Te58  1  0.00499772  0.50256736  0.25257197  1
  Te  Te59  1  0.00026088  0.49476193  0.74707319  1
  Te  Te60  1  0.49348059  0.00027472  0.25380611  1
  Te  Te61  1  0.49852113  -0.00288747  0.74796919  1
  Te  Te62  1  0.49443073  0.50017801  0.25327914  1
  Te  Te63  1  0.49936441  0.50385545  0.74724759  1
