# generated using pymatgen
data_AgSbTe2
_symmetry_space_group_name_H-M   'P 1'
_cell_length_a   12.23254849
_cell_length_b   12.24147642
_cell_length_c   12.22316120
_cell_angle_alpha   90.00503999
_cell_angle_beta   90.01641066
_cell_angle_gamma   90.00189371
_symmetry_Int_Tables_number   1
_chemical_formula_structural   AgSbTe2
_chemical_formula_sum   'Ag16 Sb16 Te32'
_cell_volume   1830.35051607
_cell_formula_units_Z   16
loop_
 _symmetry_equiv_pos_site_id
 _symmetry_equiv_pos_as_xyz
  1  'x, y, z'
loop_
 _atom_site_type_symbol
 _atom_site_label
 _atom_site_symmetry_multiplicity
 _atom_site_fract_x
 _atom_site_fract_y
 _atom_site_fract_z
 _atom_site_occupancy
  Ag  Ag0  1  0.74838977  0.00391709  0.74631721  1
  Ag  Ag1  1  0.01036562  0.49883684  0.49209829  1
  Ag  Ag2  1  0.49019363  0.75012405  0.25632604  1
  Ag  Ag3  1  0.00882634  0.74672064  0.25530780  1
  Ag  Ag4  1  0.75214664  0.24935834  -0.00057610  1
  Ag  Ag5  1  0.24893889  0.23666233  0.49701978  1
  Ag  Ag6  1  0.48943626  0.49962151  0.49672810  1
  Ag  Ag7  1  0.01473591  0.00088527  0.49611247  1
  Ag  Ag8  1  0.00228741  0.49735203  0.00930889  1
  Ag  Ag9  1  0.24734465  -0.00338852  0.26343075  1
  Ag  Ag10  1  0.24940813  0.76284344  0.49371613  1
  Ag  Ag11  1  0.00503511  0.25364765  0.25468862  1
  Ag  Ag12  1  0.24417224  0.50299646  0.25754197  1
  Ag  Ag13  1  0.49827608  0.24587768  0.74462028  1
  Ag  Ag14  1  0.48516828  0.00091733  0.50095391  1
  Ag  Ag15  1  0.25139754  0.00245705  0.73450644  1
  Sb  Sb16  1  0.74912746  0.49636384  0.74911747  1
  Sb  Sb17  1  0.49466321  0.25019379  0.25527070  1
  Sb  Sb18  1  0.24893949  0.25047903  0.00231544  1
  Sb  Sb19  1  0.00069090  0.00166226  0.00450351  1
  Sb  Sb20  1  0.75113107  0.24837650  0.49974044  1
  Sb  Sb21  1  0.00188963  0.24825319  0.74574384  1
  Sb  Sb22  1  0.75269820  0.75048670  0.00118238  1
  Sb  Sb23  1  0.49731049  0.49763921  0.00487055  1
  Sb  Sb24  1  0.49932642  0.00076298  0.00001244  1
  Sb  Sb25  1  0.25067594  0.49727111  0.73906621  1
  Sb  Sb26  1  0.24824446  0.74994851  0.00810816  1
  Sb  Sb27  1  0.49647997  0.75352977  0.74227838  1
  Sb  Sb28  1  0.00354612  0.75163121  0.74431004  1
  Sb  Sb29  1  0.75074271  0.00143731  0.25337794  1
  Sb  Sb30  1  0.75638242  0.49882626  0.25068162  1
  Sb  Sb31  1  0.75124644  0.75119803  0.49888500  1
  Te  Te32  1  0.24706362  0.24908323  0.25258899  1
  Te  Te33  1  0.25312014  0.24690041  0.74668849  1
  Te  Te34  1  0.24899222  0.75088473  0.25289121  1
  Te  Te35  1  0.25052840  0.75657436  0.74238548  1
  Te  Te36  1  0.75724331  0.24932443  0.24458558  1
  Te  Te37  1  0.74714513  0.24614053  0.75259932  1
  Te  Te38  1  0.75007343  0.74992687  0.24895844  1
  Te  Te39  1  0.74918583  0.75953610  0.75150572  1
  Te  Te40  1  0.24936488  0.00011648  0.00002571  1
  Te  Te41  1  0.24967226  0.00191069  0.49800133  1
  Te  Te42  1  0.24515101  0.50006927  0.00714090  1
  Te  Te43  1  0.24907726  0.49897809  0.49893814  1
  Te  Te44  1  0.75044259  0.00445053  -0.00689922  1
  Te  Te45  1  0.74941679  0.00023187  0.50443828  1
  Te  Te46  1  0.75510746  0.49541782  -0.00130754  1
  Te  Te47  1  0.75014333  0.50008621  0.50151513  1
  Te  Te48  1  -0.00216810  0.25315777  0.00337760  1
  Te  Te49  1  0.00135771  0.25018041  0.49749601  1
  Te  Te50  1  -0.00024534  0.74377071  0.00795213  1
  Te  Te51  1  0.00116697  0.74975468  0.49676359  1
  Te  Te52  1  0.50453761  0.25153931  -0.00664451  1
  Te  Te53  1  0.49910557  0.24907668  0.50176047  1
  Te  Te54  1  0.50059662  0.74825362  0.01071868  1
  Te  Te55  1  0.49886709  0.74992424  0.49610404  1
  Te  Te56  1  0.00116512  -0.00024844  0.25274008  1
  Te  Te57  1  0.00297573  -0.00032093  0.74593905  1
  Te  Te58  1  0.00105512  0.49971963  0.25390105  1
  Te  Te59  1  -0.00026868  0.50071979  0.74789283  1
  Te  Te60  1  0.49819962  -0.00067476  0.25312610  1
  Te  Te61  1  0.49696197  0.00153923  0.74793341  1
  Te  Te62  1  0.49553679  0.50046821  0.25490070  1
  Te  Te63  1  0.50021112  0.49661935  0.74441812  1
