# generated using pymatgen
data_AgSbTe2
_symmetry_space_group_name_H-M   'P 1'
_cell_length_a   12.21527687
_cell_length_b   12.21176683
_cell_length_c   12.21547404
_cell_angle_alpha   90.00195848
_cell_angle_beta   89.99945336
_cell_angle_gamma   89.99767999
_symmetry_Int_Tables_number   1
_chemical_formula_structural   AgSbTe2
_chemical_formula_sum   'Ag16 Sb16 Te32'
_cell_volume   1822.18363898
_cell_formula_units_Z   16
loop_
 _symmetry_equiv_pos_site_id
 _symmetry_equiv_pos_as_xyz
  1  'x, y, z'
loop_
 _atom_site_type_symbol
 _atom_site_label
 _atom_site_symmetry_multiplicity
 _atom_site_fract_x
 _atom_site_fract_y
 _atom_site_fract_z
 _atom_site_occupancy
  Ag  Ag0  1  0.24999311  0.50139613  0.75076795  1
  Ag  Ag1  1  0.24627209  0.74291600  0.00441335  1
  Ag  Ag2  1  0.24878912  0.25712446  0.00530898  1
  Ag  Ag3  1  0.24881103  0.50052079  0.24893561  1
  Ag  Ag4  1  0.00053689  -0.00289026  0.00869509  1
  Ag  Ag5  1  0.75694301  -0.00147943  0.24833144  1
  Ag  Ag6  1  0.49416695  0.49995734  0.00260364  1
  Ag  Ag7  1  0.00298016  0.75157747  0.24905480  1
  Ag  Ag8  1  0.00312505  0.24863843  0.24893543  1
  Ag  Ag9  1  0.75391301  0.74750562  0.00333709  1
  Ag  Ag10  1  0.00133177  -0.00225303  0.49095393  1
  Ag  Ag11  1  0.49362630  0.50043474  0.49718291  1
  Ag  Ag12  1  0.00643236  0.50265429  0.49582372  1
  Ag  Ag13  1  0.49553737  0.25500006  0.24800536  1
  Ag  Ag14  1  0.75062369  0.50195417  0.75177908  1
  Ag  Ag15  1  0.24533004  0.74283122  0.49570189  1
  Sb  Sb16  1  0.24831147  0.25993976  0.49250987  1
  Sb  Sb17  1  0.75082407  0.50224841  0.24720964  1
  Sb  Sb18  1  0.49709514  -0.00089054  0.49326679  1
  Sb  Sb19  1  0.00094019  0.74606966  0.75179588  1
  Sb  Sb20  1  0.75305303  -0.00356486  0.75247350  1
  Sb  Sb21  1  0.75623969  0.74738381  0.49544369  1
  Sb  Sb22  1  0.49926857  0.74514617  0.75073606  1
  Sb  Sb23  1  0.75118574  0.25204046  0.49733127  1
  Sb  Sb24  1  0.49726996  0.25561801  0.75257209  1
  Sb  Sb25  1  0.49898632  0.00060527  0.00520886  1
  Sb  Sb26  1  0.00245789  0.25407166  0.75240655  1
  Sb  Sb27  1  0.49504075  0.74363874  0.24897669  1
  Sb  Sb28  1  0.00760696  0.50310987  0.00660052  1
  Sb  Sb29  1  0.75250952  0.25349976  0.00317488  1
  Sb  Sb30  1  0.24780761  -0.00131781  0.75064781  1
  Sb  Sb31  1  0.24101468  -0.00055851  0.24987019  1
  Te  Te32  1  0.24821237  0.25242930  0.24647712  1
  Te  Te33  1  0.25000988  0.25739303  0.76005086  1
  Te  Te34  1  0.24708575  0.74771414  0.24832491  1
  Te  Te35  1  0.25001452  0.74332138  0.75207112  1
  Te  Te36  1  0.75330183  0.24531588  0.24852534  1
  Te  Te37  1  0.74962024  0.25845765  0.75093748  1
  Te  Te38  1  0.75537845  0.75306723  0.24523551  1
  Te  Te39  1  0.74983543  0.74445407  0.75861666  1
  Te  Te40  1  0.24636685  -0.00284736  -0.00149155  1
  Te  Te41  1  0.24474089  -0.00877581  0.50176696  1
  Te  Te42  1  0.24926883  0.50208388  0.00144189  1
  Te  Te43  1  0.24967372  0.50133653  0.49911435  1
  Te  Te44  1  0.75388012  -0.00490193  0.00167461  1
  Te  Te45  1  0.75603069  -0.00138493  0.49728879  1
  Te  Te46  1  0.74526425  0.50357760  -0.00228390  1
  Te  Te47  1  0.74922989  0.50198109  0.50470714  1
  Te  Te48  1  0.00299994  0.24548920  0.00558223  1
  Te  Te49  1  0.00123753  0.24963944  0.49303809  1
  Te  Te50  1  0.00218579  0.75169778  0.00315827  1
  Te  Te51  1  0.00279125  0.74866104  0.49610394  1
  Te  Te52  1  0.49563370  0.25395233  0.00518581  1
  Te  Te53  1  0.49929623  0.25584101  0.49262545  1
  Te  Te54  1  0.49754138  0.74559722  0.00112537  1
  Te  Te55  1  0.49269310  0.74419939  0.49918952  1
  Te  Te56  1  -0.00088946  -0.00015842  0.25016237  1
  Te  Te57  1  -0.00099039  0.00197149  0.74845364  1
  Te  Te58  1  0.00137134  0.50014692  0.25280298  1
  Te  Te59  1  0.00099590  0.49909043  0.74113984  1
  Te  Te60  1  0.50972985  0.00909743  0.25101533  1
  Te  Te61  1  0.50197372  0.00274774  0.74843958  1
  Te  Te62  1  0.49932599  0.49698915  0.24957763  1
  Te  Te63  1  0.49816690  0.49888825  0.74988810  1
