# generated using pymatgen
data_AgSbTe2
_symmetry_space_group_name_H-M   'P 1'
_cell_length_a   12.21842557
_cell_length_b   12.22060128
_cell_length_c   12.21178055
_cell_angle_alpha   90.00319027
_cell_angle_beta   90.00854670
_cell_angle_gamma   90.00559121
_symmetry_Int_Tables_number   1
_chemical_formula_structural   AgSbTe2
_chemical_formula_sum   'Ag16 Sb16 Te32'
_cell_volume   1823.42038628
_cell_formula_units_Z   16
loop_
 _symmetry_equiv_pos_site_id
 _symmetry_equiv_pos_as_xyz
  1  'x, y, z'
loop_
 _atom_site_type_symbol
 _atom_site_label
 _atom_site_symmetry_multiplicity
 _atom_site_fract_x
 _atom_site_fract_y
 _atom_site_fract_z
 _atom_site_occupancy
  Ag  Ag0  1  0.24875122  0.50379953  0.24700071  1
  Ag  Ag1  1  0.50398415  0.50231828  -0.00691593  1
  Ag  Ag2  1  0.49971354  0.75379180  0.75324167  1
  Ag  Ag3  1  0.74935368  0.24972646  0.51064526  1
  Ag  Ag4  1  0.00144423  0.74590186  0.24737893  1
  Ag  Ag5  1  -0.00654273  0.25318021  0.75189309  1
  Ag  Ag6  1  0.50355197  -0.00305562  -0.01080296  1
  Ag  Ag7  1  0.50078108  -0.00212383  0.51150777  1
  Ag  Ag8  1  0.25195069  0.50303996  0.75351184  1
  Ag  Ag9  1  0.74728219  0.74630863  -0.00559579  1
  Ag  Ag10  1  0.74267841  0.00371621  0.75306296  1
  Ag  Ag11  1  0.74979235  0.25370702  -0.00974616  1
  Ag  Ag12  1  0.74860715  0.49565255  0.75743027  1
  Ag  Ag13  1  0.25168499  0.74939921  0.50464041  1
  Ag  Ag14  1  -0.00294506  0.50099186  -0.00421980  1
  Ag  Ag15  1  0.25876888  -0.00320503  0.74998126  1
  Sb  Sb16  1  -0.00304833  -0.00104904  -0.00408486  1
  Sb  Sb17  1  0.74870138  0.75020320  0.50599006  1
  Sb  Sb18  1  0.00016497  0.74624735  0.75236243  1
  Sb  Sb19  1  -0.00092552  0.25361695  0.24745350  1
  Sb  Sb20  1  0.25066909  0.25219118  -0.00509458  1
  Sb  Sb21  1  0.25152711  0.24914353  0.50566279  1
  Sb  Sb22  1  0.50041653  0.50159478  0.50884862  1
  Sb  Sb23  1  0.49876260  0.74781303  0.24704048  1
  Sb  Sb24  1  0.50047710  0.25202197  0.24852397  1
  Sb  Sb25  1  0.25298132  0.74794507  -0.00403090  1
  Sb  Sb26  1  0.50856321  0.24537204  0.75069010  1
  Sb  Sb27  1  0.25150119  -0.00342839  0.25008509  1
  Sb  Sb28  1  0.75079200  0.50151232  0.24149440  1
  Sb  Sb29  1  0.74865204  -0.00127038  0.24713344  1
  Sb  Sb30  1  -0.00010786  0.50017587  0.50406566  1
  Sb  Sb31  1  -0.00157749  -0.00051076  0.50423733  1
  Te  Te32  1  0.24827514  0.25836333  0.25208237  1
  Te  Te33  1  0.24123946  0.25165873  0.74896435  1
  Te  Te34  1  0.24750768  0.74573384  0.25433708  1
  Te  Te35  1  0.25053056  0.74914029  0.74754664  1
  Te  Te36  1  0.75153218  0.25026398  0.25022734  1
  Te  Te37  1  0.75133828  0.25080190  0.75164929  1
  Te  Te38  1  0.75476518  0.74955836  0.24503666  1
  Te  Te39  1  0.74951119  0.74981194  0.75252475  1
  Te  Te40  1  0.25638018  0.00067683  -0.00527174  1
  Te  Te41  1  0.25449502  -0.00221515  0.50388397  1
  Te  Te42  1  0.25049439  0.49963049  -0.00486635  1
  Te  Te43  1  0.25078210  0.50294654  0.50377277  1
  Te  Te44  1  0.74674095  -0.00002580  -0.00294656  1
  Te  Te45  1  0.74598153  0.00170458  0.50425430  1
  Te  Te46  1  0.74869680  0.49997670  -0.00217497  1
  Te  Te47  1  0.74849351  0.49650549  0.50671253  1
  Te  Te48  1  -0.00519707  0.25384046  -0.00339848  1
  Te  Te49  1  -0.00669181  0.24960887  0.50406661  1
  Te  Te50  1  -0.00409095  0.74640194  0.00199661  1
  Te  Te51  1  0.00437833  0.74992952  0.49471275  1
  Te  Te52  1  0.50574758  0.25078060  0.00059091  1
  Te  Te53  1  0.50577114  0.24367514  0.49880208  1
  Te  Te54  1  0.50254611  0.74978015  -0.00354866  1
  Te  Te55  1  0.49731347  0.75377732  0.50386528  1
  Te  Te56  1  0.00169717  -0.00652835  0.24931081  1
  Te  Te57  1  -0.00064991  0.00426020  0.75105533  1
  Te  Te58  1  0.00368547  0.50332703  0.24437349  1
  Te  Te59  1  0.00014605  0.49868837  0.75406721  1
  Te  Te60  1  0.49853613  -0.00026319  0.24822811  1
  Te  Te61  1  0.50046392  -0.00131273  0.75166505  1
  Te  Te62  1  0.49411341  0.50082730  0.24162475  1
  Te  Te63  1  0.49906074  0.50394748  0.75346466  1
