# generated using pymatgen
data_AgSbTe2
_symmetry_space_group_name_H-M   'P 1'
_cell_length_a   12.21393299
_cell_length_b   12.23276360
_cell_length_c   12.22348929
_cell_angle_alpha   90.00565583
_cell_angle_beta   90.01700025
_cell_angle_gamma   89.99850914
_symmetry_Int_Tables_number   1
_chemical_formula_structural   AgSbTe2
_chemical_formula_sum   'Ag16 Sb16 Te32'
_cell_volume   1826.31333870
_cell_formula_units_Z   16
loop_
 _symmetry_equiv_pos_site_id
 _symmetry_equiv_pos_as_xyz
  1  'x, y, z'
loop_
 _atom_site_type_symbol
 _atom_site_label
 _atom_site_symmetry_multiplicity
 _atom_site_fract_x
 _atom_site_fract_y
 _atom_site_fract_z
 _atom_site_occupancy
  Ag  Ag0  1  0.50023978  0.50034125  0.49801526  1
  Ag  Ag1  1  0.49701136  0.24264827  0.25336026  1
  Ag  Ag2  1  0.74502030  0.24804405  0.50018258  1
  Ag  Ag3  1  0.25980565  0.00048834  0.24767994  1
  Ag  Ag4  1  0.25135919  0.75816583  -0.00047728  1
  Ag  Ag5  1  0.73910084  0.00127074  0.25556630  1
  Ag  Ag6  1  0.25556932  0.50026303  0.25243530  1
  Ag  Ag7  1  0.00159085  0.24871939  0.74847190  1
  Ag  Ag8  1  0.74976234  0.50011960  0.74443851  1
  Ag  Ag9  1  0.00369318  0.75158298  0.74757330  1
  Ag  Ag10  1  0.49883960  0.00016476  0.49351899  1
  Ag  Ag11  1  0.25364632  0.75394441  0.50048148  1
  Ag  Ag12  1  0.49224507  0.00150448  0.00603118  1
  Ag  Ag13  1  0.25289773  0.24228922  0.00206492  1
  Ag  Ag14  1  0.74604925  0.75186834  0.50157573  1
  Ag  Ag15  1  0.25136235  -0.00259451  0.75210095  1
  Sb  Sb16  1  0.25069222  0.50149655  0.74771268  1
  Sb  Sb17  1  0.49862331  0.24844315  0.74755200  1
  Sb  Sb18  1  0.00401984  0.75120445  0.25154169  1
  Sb  Sb19  1  0.74857038  0.75474643  -0.00179726  1
  Sb  Sb20  1  0.00274939  -0.00056853  0.50091124  1
  Sb  Sb21  1  -0.00004450  0.50011930  0.50179091  1
  Sb  Sb22  1  0.74336691  0.49984955  0.25559233  1
  Sb  Sb23  1  0.49696010  0.49886534  0.00289822  1
  Sb  Sb24  1  0.74844639  -0.00038011  0.74465515  1
  Sb  Sb25  1  0.74814024  0.24657986  -0.00018200  1
  Sb  Sb26  1  0.00182501  0.50011715  -0.00196150  1
  Sb  Sb27  1  0.25413808  0.24649136  0.49908995  1
  Sb  Sb28  1  0.49663726  0.75116499  0.74703910  1
  Sb  Sb29  1  0.00873229  -0.00004456  -0.00152632  1
  Sb  Sb30  1  0.49746735  0.75820803  0.25289284  1
  Sb  Sb31  1  0.00216320  0.24849415  0.25134662  1
  Te  Te32  1  0.25098044  0.24625322  0.24903510  1
  Te  Te33  1  0.24684573  0.24924306  0.75151988  1
  Te  Te34  1  0.24799183  0.75273646  0.25179925  1
  Te  Te35  1  0.24693006  0.75082139  0.74779162  1
  Te  Te36  1  0.74849753  0.24762799  0.25260270  1
  Te  Te37  1  0.75359302  0.25053674  0.74784871  1
  Te  Te38  1  0.75310559  0.75287339  0.25546241  1
  Te  Te39  1  0.75559859  0.74918045  0.74638149  1
  Te  Te40  1  0.25342218  -0.00064655  0.00097807  1
  Te  Te41  1  0.25389609  -0.00173497  0.49915853  1
  Te  Te42  1  0.25190762  0.50087696  0.00415911  1
  Te  Te43  1  0.25533771  0.50313222  0.49712482  1
  Te  Te44  1  0.74005103  -0.00126711  0.00724896  1
  Te  Te45  1  0.74513028  -0.00126162  0.49806620  1
  Te  Te46  1  0.74896471  0.50101573  -0.00663500  1
  Te  Te47  1  0.74572767  0.50179834  0.50156105  1
  Te  Te48  1  0.00523395  0.25011791  -0.00640090  1
  Te  Te49  1  -0.00823748  0.25026251  0.50554495  1
  Te  Te50  1  0.00587251  0.74986534  -0.00762062  1
  Te  Te51  1  0.00101721  0.74989731  0.50546395  1
  Te  Te52  1  0.49585968  0.24696744  0.00402939  1
  Te  Te53  1  0.50289532  0.24807133  0.49754023  1
  Te  Te54  1  0.49396429  0.75462290  -0.00049417  1
  Te  Te55  1  0.49962945  0.75095426  0.49964173  1
  Te  Te56  1  0.00055449  0.00092392  0.24916311  1
  Te  Te57  1  0.00541106  0.00037584  0.75030372  1
  Te  Te58  1  0.00996704  0.49937286  0.24974634  1
  Te  Te59  1  -0.00406552  0.49905824  0.74954674  1
  Te  Te60  1  0.49772800  0.00209193  0.25298029  1
  Te  Te61  1  0.49426601  0.00104444  0.74825630  1
  Te  Te62  1  0.49570942  0.49237855  0.25412092  1
  Te  Te63  1  0.50553387  0.49920226  0.74350013  1
