# generated using pymatgen
data_AgSbTe2
_symmetry_space_group_name_H-M   'P 1'
_cell_length_a   12.22587586
_cell_length_b   12.25136128
_cell_length_c   12.23115541
_cell_angle_alpha   89.99913383
_cell_angle_beta   90.01322044
_cell_angle_gamma   89.99919349
_symmetry_Int_Tables_number   1
_chemical_formula_structural   AgSbTe2
_chemical_formula_sum   'Ag16 Sb16 Te32'
_cell_volume   1832.02671132
_cell_formula_units_Z   16
loop_
 _symmetry_equiv_pos_site_id
 _symmetry_equiv_pos_as_xyz
  1  'x, y, z'
loop_
 _atom_site_type_symbol
 _atom_site_label
 _atom_site_symmetry_multiplicity
 _atom_site_fract_x
 _atom_site_fract_y
 _atom_site_fract_z
 _atom_site_occupancy
  Ag  Ag0  1  0.74675220  -0.00451811  0.25215947  1
  Ag  Ag1  1  0.74675588  0.50478952  0.25363010  1
  Ag  Ag2  1  0.50466907  0.25551706  0.75007318  1
  Ag  Ag3  1  0.74627199  0.49707637  0.74668880  1
  Ag  Ag4  1  0.25397665  0.49821279  0.74296976  1
  Ag  Ag5  1  -0.00605586  0.50001076  0.50091948  1
  Ag  Ag6  1  0.50927467  0.49974729  -0.00239908  1
  Ag  Ag7  1  0.50851609  0.74811209  0.24971316  1
  Ag  Ag8  1  0.50713641  -0.00033672  0.00188054  1
  Ag  Ag9  1  0.74311356  0.74440961  0.00676871  1
  Ag  Ag10  1  -0.00558705  0.00009857  0.49792638  1
  Ag  Ag11  1  0.74319716  0.25598788  -0.00103511  1
  Ag  Ag12  1  0.75019666  0.74304083  0.49380358  1
  Ag  Ag13  1  0.75059181  0.25729986  0.50057042  1
  Ag  Ag14  1  0.25023481  0.25564692  0.50361845  1
  Ag  Ag15  1  0.24950213  0.74458793  0.49998678  1
  Sb  Sb16  1  -0.00268782  0.74757356  0.74595583  1
  Sb  Sb17  1  -0.00766298  0.00010231  0.00301611  1
  Sb  Sb18  1  -0.00914456  0.74929717  0.25503003  1
  Sb  Sb19  1  0.50731761  0.49948909  0.50314928  1
  Sb  Sb20  1  0.25650043  0.74611228  -0.00004375  1
  Sb  Sb21  1  0.74754444  0.00277813  0.74861424  1
  Sb  Sb22  1  0.25380724  0.00116971  0.74640814  1
  Sb  Sb23  1  0.25687119  0.25398455  -0.00333787  1
  Sb  Sb24  1  0.25343317  -0.00226494  0.25349978  1
  Sb  Sb25  1  -0.00470021  0.25082382  0.25452671  1
  Sb  Sb26  1  0.50512797  0.25245262  0.24920726  1
  Sb  Sb27  1  0.50326611  0.74567519  0.75051237  1
  Sb  Sb28  1  -0.00437999  0.25275684  0.74600788  1
  Sb  Sb29  1  0.50492797  -0.00012829  0.49818281  1
  Sb  Sb30  1  0.25406015  0.50230513  0.25744659  1
  Sb  Sb31  1  -0.00913476  0.50008672  0.00006019  1
  Te  Te32  1  0.25066842  0.24986079  0.25871910  1
  Te  Te33  1  0.25540391  0.25435126  0.74561340  1
  Te  Te34  1  0.25938281  0.75001552  0.25526222  1
  Te  Te35  1  0.25113568  0.74405174  0.74342139  1
  Te  Te36  1  0.74855613  0.25123301  0.25311379  1
  Te  Te37  1  0.74630745  0.25307485  0.74750051  1
  Te  Te38  1  0.74685805  0.74829481  0.25239131  1
  Te  Te39  1  0.74837640  0.74390841  0.74715373  1
  Te  Te40  1  0.25418057  -0.00006716  -0.00001720  1
  Te  Te41  1  0.24484537  -0.00052328  0.49934800  1
  Te  Te42  1  0.25228333  0.49980779  -0.00562703  1
  Te  Te43  1  0.24715793  0.49997566  0.50167060  1
  Te  Te44  1  0.74814543  -0.00016399  0.00150527  1
  Te  Te45  1  0.75218372  -0.00012226  0.49807878  1
  Te  Te46  1  0.74988348  0.49952162  -0.00052894  1
  Te  Te47  1  0.74941573  0.49956203  0.50023938  1
  Te  Te48  1  -0.00802513  0.24855887  -0.00000604  1
  Te  Te49  1  -0.00346971  0.25208428  0.50052467  1
  Te  Te50  1  -0.00714022  0.75153662  -0.00009362  1
  Te  Te51  1  -0.00223903  0.74800574  0.49946673  1
  Te  Te52  1  0.50384894  0.25191863  -0.00198713  1
  Te  Te53  1  0.50217233  0.24820377  0.50409698  1
  Te  Te54  1  0.50383775  0.74907788  0.00101896  1
  Te  Te55  1  0.50264928  0.75175244  0.49716816  1
  Te  Te56  1  -0.00699097  -0.00005730  0.25506295  1
  Te  Te57  1  0.00178634  -0.00035313  0.74183311  1
  Te  Te58  1  -0.00650172  0.50015691  0.25533234  1
  Te  Te59  1  -0.00122444  0.50010501  0.74508198  1
  Te  Te60  1  0.50499347  -0.00418754  0.24520876  1
  Te  Te61  1  0.49970301  0.00814243  0.75804105  1
  Te  Te62  1  0.50477342  0.50390913  0.24220994  1
  Te  Te63  1  0.50335011  0.49646893  0.75368661  1
