# generated using pymatgen
data_AgSbTe2
_symmetry_space_group_name_H-M   'P 1'
_cell_length_a   12.22853507
_cell_length_b   12.25364803
_cell_length_c   12.24769858
_cell_angle_alpha   90.00152209
_cell_angle_beta   89.99645061
_cell_angle_gamma   89.99094696
_symmetry_Int_Tables_number   1
_chemical_formula_structural   AgSbTe2
_chemical_formula_sum   'Ag16 Sb16 Te32'
_cell_volume   1835.24613641
_cell_formula_units_Z   16
loop_
 _symmetry_equiv_pos_site_id
 _symmetry_equiv_pos_as_xyz
  1  'x, y, z'
loop_
 _atom_site_type_symbol
 _atom_site_label
 _atom_site_symmetry_multiplicity
 _atom_site_fract_x
 _atom_site_fract_y
 _atom_site_fract_z
 _atom_site_occupancy
  Ag  Ag0  1  0.49204328  0.49918605  0.48371562  1
  Ag  Ag1  1  0.49619639  0.26499707  0.24671241  1
  Ag  Ag2  1  0.26426508  0.49849197  0.24849838  1
  Ag  Ag3  1  0.73379051  0.49646901  0.24738969  1
  Ag  Ag4  1  0.24817136  0.00112083  0.75142265  1
  Ag  Ag5  1  0.00581673  0.00211458  0.00276702  1
  Ag  Ag6  1  0.74562765  0.25106078  0.00855388  1
  Ag  Ag7  1  0.74831964  0.00416583  0.24735760  1
  Ag  Ag8  1  0.25411159  0.25452715  0.00414953  1
  Ag  Ag9  1  0.25291092  0.74508020  0.00369350  1
  Ag  Ag10  1  0.49239130  0.49678791  0.01526537  1
  Ag  Ag11  1  0.25323518  0.25453506  0.49568690  1
  Ag  Ag12  1  0.25463897  0.49883280  0.75145052  1
  Ag  Ag13  1  0.25283558  0.74551032  0.49643153  1
  Ag  Ag14  1  0.49450918  0.73403675  0.24918192  1
  Ag  Ag15  1  0.00648455  0.00049106  0.49679056  1
  Sb  Sb16  1  0.74722970  0.74961050  0.00532070  1
  Sb  Sb17  1  0.75276364  0.00256911  0.75177800  1
  Sb  Sb18  1  0.49449767  0.74746752  0.75104759  1
  Sb  Sb19  1  0.00509797  0.24892424  0.75048458  1
  Sb  Sb20  1  0.25172071  0.00089177  0.24955414  1
  Sb  Sb21  1  0.00609525  0.75133765  0.24956160  1
  Sb  Sb22  1  0.74714314  0.25034123  0.49187681  1
  Sb  Sb23  1  0.00568402  0.75155580  0.75026937  1
  Sb  Sb24  1  0.00740260  0.49914146  0.00204279  1
  Sb  Sb25  1  0.00366956  0.24882536  0.24910072  1
  Sb  Sb26  1  0.74697033  0.74956236  0.49441038  1
  Sb  Sb27  1  0.49621894  0.00223021  0.00389987  1
  Sb  Sb28  1  0.00898131  0.49993573  0.49728522  1
  Sb  Sb29  1  0.49521309  0.25204797  0.75304315  1
  Sb  Sb30  1  0.74499977  0.49757292  0.75199937  1
  Sb  Sb31  1  0.49548290  0.00077906  0.49550989  1
  Te  Te32  1  0.25283052  0.25044854  0.24863035  1
  Te  Te33  1  0.25086090  0.25044896  0.75118294  1
  Te  Te34  1  0.25379865  0.75046623  0.24935863  1
  Te  Te35  1  0.25086964  0.74963432  0.75041819  1
  Te  Te36  1  0.74716319  0.25133573  0.24696760  1
  Te  Te37  1  0.74950909  0.25039216  0.76129431  1
  Te  Te38  1  0.74285523  0.74786612  0.25036301  1
  Te  Te39  1  0.74972179  0.74965292  0.74909293  1
  Te  Te40  1  0.24851031  0.00205397  -0.00042395  1
  Te  Te41  1  0.24751513  0.00086545  0.49969606  1
  Te  Te42  1  0.24990763  0.49849289  0.00277716  1
  Te  Te43  1  0.25121439  0.49910376  0.49743435  1
  Te  Te44  1  0.75307347  0.00152419  0.00099755  1
  Te  Te45  1  0.75697077  0.00103512  0.49941443  1
  Te  Te46  1  0.74819770  0.49775119  0.00111538  1
  Te  Te47  1  0.74533825  0.49887216  0.49919028  1
  Te  Te48  1  0.00379799  0.24601771  -0.00037144  1
  Te  Te49  1  0.00568770  0.24560009  0.50065193  1
  Te  Te50  1  0.00703427  0.75569995  -0.00002691  1
  Te  Te51  1  0.00668226  0.75425536  0.50037089  1
  Te  Te52  1  0.49575927  0.25159920  0.00332043  1
  Te  Te53  1  0.49584488  0.25232246  0.49530451  1
  Te  Te54  1  0.49509649  0.74655576  0.00386333  1
  Te  Te55  1  0.49544263  0.74750547  0.49588612  1
  Te  Te56  1  -0.00656486  -0.00050015  0.24893219  1
  Te  Te57  1  0.00496739  -0.00000483  0.75080593  1
  Te  Te58  1  -0.00466801  0.50090211  0.25013915  1
  Te  Te59  1  0.00770502  0.50042820  0.74941637  1
  Te  Te60  1  0.50691598  0.00126301  0.25034690  1
  Te  Te61  1  0.49176010  -0.00044676  0.74867448  1
  Te  Te62  1  0.49777215  0.49854893  0.24907036  1
  Te  Te63  1  0.49391157  0.50010952  0.74985529  1
