# generated using pymatgen
data_AgSbTe2
_symmetry_space_group_name_H-M   'P 1'
_cell_length_a   12.20950837
_cell_length_b   12.21068918
_cell_length_c   12.21280804
_cell_angle_alpha   90.00289072
_cell_angle_beta   90.00248345
_cell_angle_gamma   90.00155080
_symmetry_Int_Tables_number   1
_chemical_formula_structural   AgSbTe2
_chemical_formula_sum   'Ag16 Sb16 Te32'
_cell_volume   1820.76494523
_cell_formula_units_Z   16
loop_
 _symmetry_equiv_pos_site_id
 _symmetry_equiv_pos_as_xyz
  1  'x, y, z'
loop_
 _atom_site_type_symbol
 _atom_site_label
 _atom_site_symmetry_multiplicity
 _atom_site_fract_x
 _atom_site_fract_y
 _atom_site_fract_z
 _atom_site_occupancy
  Ag  Ag0  1  0.50610196  0.74450519  0.74460502  1
  Ag  Ag1  1  0.74337796  0.74633926  0.50489299  1
  Ag  Ag2  1  0.50161607  0.49815164  0.00015214  1
  Ag  Ag3  1  0.25119780  0.00189193  0.24860505  1
  Ag  Ag4  1  0.74275869  0.50564675  0.74836062  1
  Ag  Ag5  1  0.25347007  0.24915024  0.00358130  1
  Ag  Ag6  1  0.49837486  0.25584937  0.24748317  1
  Ag  Ag7  1  0.50125179  0.74431594  0.25498537  1
  Ag  Ag8  1  0.74245313  0.50144403  0.25133842  1
  Ag  Ag9  1  0.50329556  0.50597804  0.49977740  1
  Ag  Ag10  1  0.74834952  -0.00625694  0.74991787  1
  Ag  Ag11  1  0.00091219  0.00067450  0.00011979  1
  Ag  Ag12  1  0.50159662  0.25566992  0.75203539  1
  Ag  Ag13  1  -0.00599300  0.75040655  0.74938500  1
  Ag  Ag14  1  0.25751455  0.74930301  0.49969738  1
  Ag  Ag15  1  0.00168709  0.24961507  0.24712709  1
  Sb  Sb16  1  -0.00121905  0.25019824  0.75352897  1
  Sb  Sb17  1  -0.00064513  0.49902139  0.00020332  1
  Sb  Sb18  1  0.74766974  0.74945634  -0.00693181  1
  Sb  Sb19  1  0.25914070  0.49870873  0.25033608  1
  Sb  Sb20  1  0.74929233  -0.00198938  0.25029122  1
  Sb  Sb21  1  -0.00078712  -0.00126880  0.50082397  1
  Sb  Sb22  1  0.74545904  0.25090380  0.00023826  1
  Sb  Sb23  1  0.25968949  0.50129712  0.74956176  1
  Sb  Sb24  1  0.25286268  0.75060351  0.00163343  1
  Sb  Sb25  1  -0.00367061  0.50205957  0.49997100  1
  Sb  Sb26  1  0.25487743  0.25012523  0.49704883  1
  Sb  Sb27  1  0.25157748  -0.00175207  0.75105265  1
  Sb  Sb28  1  0.50037884  -0.00860726  0.50021496  1
  Sb  Sb29  1  0.49907981  0.00256311  -0.00018824  1
  Sb  Sb30  1  0.74559575  0.25456409  0.49992850  1
  Sb  Sb31  1  -0.00095624  0.74979621  0.25011988  1
  Te  Te32  1  0.25316703  0.24747392  0.24865846  1
  Te  Te33  1  0.25462410  0.24873198  0.75328386  1
  Te  Te34  1  0.25195507  0.75348131  0.25302304  1
  Te  Te35  1  0.25153006  0.75140566  0.74538378  1
  Te  Te36  1  0.74676271  0.25171625  0.25098997  1
  Te  Te37  1  0.74525314  0.25106413  0.74908248  1
  Te  Te38  1  0.74695504  0.74825136  0.25547105  1
  Te  Te39  1  0.74726346  0.74873254  0.74873150  1
  Te  Te40  1  0.24647099  0.00415867  0.00412621  1
  Te  Te41  1  0.24958595  -0.00620292  0.49354383  1
  Te  Te42  1  0.25559540  0.49372002  -0.00012638  1
  Te  Te43  1  0.25658849  0.50682205  0.49998940  1
  Te  Te44  1  0.75638959  0.00043671  -0.00532183  1
  Te  Te45  1  0.75068719  -0.00799842  0.50606497  1
  Te  Te46  1  0.74419872  0.49982322  0.00057067  1
  Te  Te47  1  0.74608544  0.50362640  0.50035272  1
  Te  Te48  1  0.00611932  0.24793018  0.00339317  1
  Te  Te49  1  0.00193174  0.25054397  0.49255101  1
  Te  Te50  1  0.00283881  0.75377243  -0.00515305  1
  Te  Te51  1  -0.00009714  0.74901236  0.50490063  1
  Te  Te52  1  0.49656110  0.25244633  0.00125831  1
  Te  Te53  1  0.49890353  0.25787810  0.49959291  1
  Te  Te54  1  0.49783048  0.74527566  0.00048289  1
  Te  Te55  1  0.50078765  0.74777364  0.50053689  1
  Te  Te56  1  0.00101985  0.00292332  0.24543494  1
  Te  Te57  1  -0.00382871  -0.00205735  0.75378911  1
  Te  Te58  1  -0.00909859  0.49600258  0.24829582  1
  Te  Te59  1  -0.00987626  0.50342591  0.75148649  1
  Te  Te60  1  0.49800273  0.00090831  0.24857961  1
  Te  Te61  1  0.50412500  -0.00043850  0.75133097  1
  Te  Te62  1  0.50244090  0.49998551  0.24965700  1
  Te  Te63  1  0.50291720  0.50101031  0.75014279  1
