# generated using pymatgen
data_AgSbTe2
_symmetry_space_group_name_H-M   'P 1'
_cell_length_a   12.27827802
_cell_length_b   12.25487350
_cell_length_c   12.28323549
_cell_angle_alpha   89.99735049
_cell_angle_beta   89.99266845
_cell_angle_gamma   90.00163351
_symmetry_Int_Tables_number   1
_chemical_formula_structural   AgSbTe2
_chemical_formula_sum   'Ag16 Sb16 Te32'
_cell_volume   1848.24299834
_cell_formula_units_Z   16
loop_
 _symmetry_equiv_pos_site_id
 _symmetry_equiv_pos_as_xyz
  1  'x, y, z'
loop_
 _atom_site_type_symbol
 _atom_site_label
 _atom_site_symmetry_multiplicity
 _atom_site_fract_x
 _atom_site_fract_y
 _atom_site_fract_z
 _atom_site_occupancy
  Ag  Ag0  1  0.00761726  0.50331612  0.00460542  1
  Ag  Ag1  1  0.74827719  0.50996567  0.24891808  1
  Ag  Ag2  1  0.49209860  0.50559023  0.00221170  1
  Ag  Ag3  1  0.74804263  0.74514397  0.00664307  1
  Ag  Ag4  1  0.49756076  0.74571552  0.74777080  1
  Ag  Ag5  1  0.74306392  0.74535366  0.49361360  1
  Ag  Ag6  1  0.00175431  0.50585867  0.49455373  1
  Ag  Ag7  1  0.00647321  -0.00340915  0.00386723  1
  Ag  Ag8  1  0.25387560  -0.00257163  0.75637924  1
  Ag  Ag9  1  0.25153686  0.50175664  0.24158303  1
  Ag  Ag10  1  0.25435580  0.50192908  0.75806764  1
  Ag  Ag11  1  0.49906772  -0.00985697  0.49851239  1
  Ag  Ag12  1  0.25131191  -0.00225889  0.24328163  1
  Ag  Ag13  1  0.74808904  -0.00960742  0.24851751  1
  Ag  Ag14  1  0.49962957  0.50902538  0.49850967  1
  Ag  Ag15  1  0.24920661  0.25606842  0.00083221  1
  Sb  Sb16  1  0.00341986  0.25195471  0.75149792  1
  Sb  Sb17  1  0.00155339  0.25242758  0.24893185  1
  Sb  Sb18  1  0.25089611  0.25243322  0.49757747  1
  Sb  Sb19  1  0.49650392  0.25409049  0.75202666  1
  Sb  Sb20  1  0.74370795  -0.00655918  0.75276984  1
  Sb  Sb21  1  0.25482989  0.74463817  -0.00023663  1
  Sb  Sb22  1  0.00565930  0.74788894  0.75114338  1
  Sb  Sb23  1  -0.00145047  0.74707292  0.24744525  1
  Sb  Sb24  1  0.74416582  0.50421093  0.75167162  1
  Sb  Sb25  1  0.74817853  0.25460055  0.49710549  1
  Sb  Sb26  1  0.50206606  0.74754258  0.25224374  1
  Sb  Sb27  1  0.74939027  0.25285961  0.00251622  1
  Sb  Sb28  1  0.49548089  -0.00868404  0.00096320  1
  Sb  Sb29  1  -0.00079238  -0.00858483  0.49737108  1
  Sb  Sb30  1  0.49859975  0.25214164  0.24765464  1
  Sb  Sb31  1  0.25814956  0.74740012  0.50048184  1
  Te  Te32  1  0.25062845  0.24948428  0.24172208  1
  Te  Te33  1  0.25044355  0.25031773  0.75954750  1
  Te  Te34  1  0.24996359  0.75188550  0.25080874  1
  Te  Te35  1  0.25727088  0.74961665  0.74968666  1
  Te  Te36  1  0.74924141  0.24725485  0.24959165  1
  Te  Te37  1  0.75030503  0.24815827  0.75047337  1
  Te  Te38  1  0.74955604  0.74871025  0.24855927  1
  Te  Te39  1  0.73958147  0.74971368  0.75049509  1
  Te  Te40  1  0.25125921  -0.00464078  0.00430884  1
  Te  Te41  1  0.24966437  0.00049649  0.49590842  1
  Te  Te42  1  0.24737133  0.50536582  0.00443342  1
  Te  Te43  1  0.25381743  0.50008362  0.49558257  1
  Te  Te44  1  0.74959773  0.00203768  0.00446456  1
  Te  Te45  1  0.75244444  -0.00232024  0.49470940  1
  Te  Te46  1  0.75329220  0.49895529  0.00212905  1
  Te  Te47  1  0.74461435  0.50137287  0.49734951  1
  Te  Te48  1  0.00600265  0.25230371  -0.00093527  1
  Te  Te49  1  -0.00036219  0.26707294  0.50288165  1
  Te  Te50  1  -0.01212304  0.74757634  -0.00156308  1
  Te  Te51  1  -0.01535880  0.74182023  0.50312298  1
  Te  Te52  1  0.49366200  0.26481225  -0.00119247  1
  Te  Te53  1  0.49997724  0.25154952  0.50151188  1
  Te  Te54  1  0.50716492  0.74332200  -0.00640345  1
  Te  Te55  1  0.50421956  0.74718821  0.50281598  1
  Te  Te56  1  0.00413375  -0.00099858  0.24747144  1
  Te  Te57  1  0.01216959  -0.00090673  0.75291482  1
  Te  Te58  1  0.00281400  0.50149794  0.24622060  1
  Te  Te59  1  0.01149073  0.50138756  0.75457023  1
  Te  Te60  1  0.49735246  -0.00089609  0.25350834  1
  Te  Te61  1  0.49470507  -0.00332934  0.74751717  1
  Te  Te62  1  0.49767247  0.50151494  0.25245811  1
  Te  Te63  1  0.49510869  0.50214044  0.74630041  1
