# generated using pymatgen
data_AgSbTe2
_symmetry_space_group_name_H-M   'P 1'
_cell_length_a   12.30842790
_cell_length_b   12.30879965
_cell_length_c   12.28431938
_cell_angle_alpha   90.00764187
_cell_angle_beta   89.99538482
_cell_angle_gamma   89.99124142
_symmetry_Int_Tables_number   1
_chemical_formula_structural   AgSbTe2
_chemical_formula_sum   'Ag16 Sb16 Te32'
_cell_volume   1861.09857788
_cell_formula_units_Z   16
loop_
 _symmetry_equiv_pos_site_id
 _symmetry_equiv_pos_as_xyz
  1  'x, y, z'
loop_
 _atom_site_type_symbol
 _atom_site_label
 _atom_site_symmetry_multiplicity
 _atom_site_fract_x
 _atom_site_fract_y
 _atom_site_fract_z
 _atom_site_occupancy
  Ag  Ag0  1  0.25419315  0.24504949  0.49516939  1
  Ag  Ag1  1  -0.00368626  0.50407112  0.49295211  1
  Ag  Ag2  1  0.51087242  0.75957916  0.26587718  1
  Ag  Ag3  1  0.49962404  0.24246840  0.26171992  1
  Ag  Ag4  1  0.49919562  0.23974759  0.73423799  1
  Ag  Ag5  1  -0.01047324  -0.00444549  0.49275185  1
  Ag  Ag6  1  0.74201770  -0.00300457  0.73314738  1
  Ag  Ag7  1  0.74453759  0.76023073  0.49042386  1
  Ag  Ag8  1  0.74848302  -0.00554763  0.26323785  1
  Ag  Ag9  1  0.75316007  0.50509961  0.25852607  1
  Ag  Ag10  1  -0.00099138  0.24614566  0.26058535  1
  Ag  Ag11  1  0.50500257  0.76272404  0.72968736  1
  Ag  Ag12  1  0.25220068  0.24882218  0.00933117  1
  Ag  Ag13  1  0.50954225  -0.00804928  0.49781859  1
  Ag  Ag14  1  0.25515646  0.75552650  0.49475590  1
  Ag  Ag15  1  -0.01172841  0.75365822  0.26033951  1
  Sb  Sb16  1  0.74897491  0.24887190  0.00454973  1
  Sb  Sb17  1  0.25947704  0.00000695  0.74408673  1
  Sb  Sb18  1  0.74971108  0.50141030  0.73649781  1
  Sb  Sb19  1  0.25108361  0.75197617  0.00366588  1
  Sb  Sb20  1  0.25128349  0.49923363  0.74433102  1
  Sb  Sb21  1  0.24651248  0.49912408  0.25406482  1
  Sb  Sb22  1  -0.00577214  0.75564768  0.73501770  1
  Sb  Sb23  1  -0.00153130  0.49723723  0.00972251  1
  Sb  Sb24  1  0.74931600  0.75153519  0.00837020  1
  Sb  Sb25  1  0.50616424  0.50226704  0.49825595  1
  Sb  Sb26  1  0.50084600  0.49912427  0.00267188  1
  Sb  Sb27  1  -0.00315476  0.00235846  0.01262483  1
  Sb  Sb28  1  0.25416364  0.00065851  0.25386008  1
  Sb  Sb29  1  0.00075103  0.24470748  0.73592578  1
  Sb  Sb30  1  0.74336771  0.24122499  0.49711669  1
  Sb  Sb31  1  0.50188806  0.00102043  0.00494013  1
  Te  Te32  1  0.25457183  0.24954963  0.25967812  1
  Te  Te33  1  0.25594528  0.25004501  0.73793075  1
  Te  Te34  1  0.25513481  0.74993765  0.25328841  1
  Te  Te35  1  0.25930713  0.75039341  0.74841758  1
  Te  Te36  1  0.74739750  0.24480443  0.25148628  1
  Te  Te37  1  0.74265766  0.24911834  0.75208714  1
  Te  Te38  1  0.74735469  0.75618966  0.25120301  1
  Te  Te39  1  0.74600677  0.75078291  0.74843163  1
  Te  Te40  1  0.24805732  0.00768281  -0.00318905  1
  Te  Te41  1  0.25293212  -0.00254571  0.49794954  1
  Te  Te42  1  0.24886800  0.48971287  -0.00139890  1
  Te  Te43  1  0.23907328  0.50144848  0.49829105  1
  Te  Te44  1  0.75118494  -0.00144500  -0.00139891  1
  Te  Te45  1  0.74494213  -0.00126072  0.49646486  1
  Te  Te46  1  0.75078252  0.50061686  0.01445119  1
  Te  Te47  1  0.75549738  0.51210290  0.49360538  1
  Te  Te48  1  0.00564644  0.25006155  0.01104920  1
  Te  Te49  1  0.00203319  0.24298177  0.49716963  1
  Te  Te50  1  0.00525578  0.74926359  0.01597252  1
  Te  Te51  1  0.00344853  0.75786397  0.49535474  1
  Te  Te52  1  0.49569878  0.24911360  0.00648460  1
  Te  Te53  1  0.50030076  0.25412273  0.49660846  1
  Te  Te54  1  0.49662214  0.74976418  0.00301938  1
  Te  Te55  1  0.49786901  0.74740400  0.49650423  1
  Te  Te56  1  -0.00312173  0.00231662  0.25433260  1
  Te  Te57  1  -0.01351378  -0.00046270  0.74086883  1
  Te  Te58  1  -0.00176942  0.49742910  0.25486215  1
  Te  Te59  1  -0.00204954  0.50004196  0.74244590  1
  Te  Te60  1  0.50043219  0.00082071  0.25379855  1
  Te  Te61  1  0.50401465  0.00020144  0.74533677  1
  Te  Te62  1  0.50781785  0.49714529  0.25147735  1
  Te  Te63  1  0.50141441  0.49631860  0.75115375  1
