# generated using pymatgen
data_AgSbTe2
_symmetry_space_group_name_H-M   'P 1'
_cell_length_a   12.31635891
_cell_length_b   12.30587739
_cell_length_c   12.31825248
_cell_angle_alpha   90.00283193
_cell_angle_beta   89.98432329
_cell_angle_gamma   89.99400102
_symmetry_Int_Tables_number   1
_chemical_formula_structural   AgSbTe2
_chemical_formula_sum   'Ag16 Sb16 Te32'
_cell_volume   1866.99864235
_cell_formula_units_Z   16
loop_
 _symmetry_equiv_pos_site_id
 _symmetry_equiv_pos_as_xyz
  1  'x, y, z'
loop_
 _atom_site_type_symbol
 _atom_site_label
 _atom_site_symmetry_multiplicity
 _atom_site_fract_x
 _atom_site_fract_y
 _atom_site_fract_z
 _atom_site_occupancy
  Ag  Ag0  1  0.01087085  0.23251934  0.24518780  1
  Ag  Ag1  1  0.49087681  0.23340987  0.25204035  1
  Ag  Ag2  1  0.25552289  0.24236115  0.50626959  1
  Ag  Ag3  1  0.48879193  0.23296972  0.74822113  1
  Ag  Ag4  1  0.25094826  0.23881789  -0.00435581  1
  Ag  Ag5  1  0.73913497  -0.00131792  0.75119174  1
  Ag  Ag6  1  0.49577896  0.00350748  0.50591867  1
  Ag  Ag7  1  0.01788659  0.76033375  0.76237954  1
  Ag  Ag8  1  0.25257778  0.50224195  0.75156258  1
  Ag  Ag9  1  0.49215202  0.76607793  0.24717069  1
  Ag  Ag10  1  0.24743182  0.76081504  -0.01105697  1
  Ag  Ag11  1  0.74605884  0.00021208  0.24831998  1
  Ag  Ag12  1  0.00642858  -0.00421191  0.00258896  1
  Ag  Ag13  1  0.00930755  0.76321272  0.24239657  1
  Ag  Ag14  1  0.26157219  -0.00170774  0.75484360  1
  Ag  Ag15  1  0.48733685  0.76512717  0.75330915  1
  Sb  Sb16  1  0.25179677  0.75617362  0.50381205  1
  Sb  Sb17  1  0.25041190  0.00044618  0.24629124  1
  Sb  Sb18  1  0.01022115  0.23895123  0.75593933  1
  Sb  Sb19  1  0.74919264  0.75532103  0.50007379  1
  Sb  Sb20  1  0.75005030  0.49979289  0.25025839  1
  Sb  Sb21  1  0.49488123  -0.00014884  -0.00156999  1
  Sb  Sb22  1  0.74709398  0.24280750  0.49943211  1
  Sb  Sb23  1  0.00721151  0.49874610  0.50192592  1
  Sb  Sb24  1  0.74881857  0.50227645  0.74983487  1
  Sb  Sb25  1  0.74895424  0.24247323  -0.00081221  1
  Sb  Sb26  1  0.25030433  0.49889919  0.24989283  1
  Sb  Sb27  1  0.49494629  0.49734972  0.50119992  1
  Sb  Sb28  1  0.00615808  0.00177937  0.49993186  1
  Sb  Sb29  1  0.75232659  0.75551065  -0.00060362  1
  Sb  Sb30  1  0.00645017  0.50256757  -0.00099365  1
  Sb  Sb31  1  0.49560890  0.50042985  -0.00036524  1
  Te  Te32  1  0.25325842  0.25173480  0.24168654  1
  Te  Te33  1  0.24971008  0.24344165  0.75632168  1
  Te  Te34  1  0.25180630  0.74667349  0.25044691  1
  Te  Te35  1  0.25132837  0.75646294  0.74915876  1
  Te  Te36  1  0.74522165  0.24562460  0.24918944  1
  Te  Te37  1  0.74004479  0.24659123  0.75056581  1
  Te  Te38  1  0.74588261  0.75551635  0.24977342  1
  Te  Te39  1  0.74264103  0.75411564  0.75000374  1
  Te  Te40  1  0.24279490  -0.00228345  -0.00194389  1
  Te  Te41  1  0.25767328  0.00426953  0.50952461  1
  Te  Te42  1  0.25007315  0.50058947  -0.00640661  1
  Te  Te43  1  0.25094805  0.48482390  0.50960491  1
  Te  Te44  1  0.76806749  -0.00062259  0.00099286  1
  Te  Te45  1  0.73626334  -0.00048194  0.50076498  1
  Te  Te46  1  0.75053365  0.49844521  0.00093388  1
  Te  Te47  1  0.75145935  0.49938477  0.49920538  1
  Te  Te48  1  0.00322726  0.24830917  0.00400733  1
  Te  Te49  1  0.00578016  0.25068397  0.48949272  1
  Te  Te50  1  0.00122301  0.75162189  0.00117303  1
  Te  Te51  1  0.00020797  0.74890503  0.48967160  1
  Te  Te52  1  0.49545427  0.25082883  0.00366796  1
  Te  Te53  1  0.49749396  0.24687564  0.49719613  1
  Te  Te54  1  0.49442463  0.74935395  0.00223778  1
  Te  Te55  1  0.49957821  0.75511327  0.49540045  1
  Te  Te56  1  0.00522239  -0.00068463  0.25417062  1
  Te  Te57  1  -0.00397918  -0.00271738  0.74398083  1
  Te  Te58  1  -0.00081323  0.50691348  0.25076225  1
  Te  Te59  1  -0.00142183  0.51498981  0.74928661  1
  Te  Te60  1  0.49762300  -0.00064453  0.24245163  1
  Te  Te61  1  0.50157273  -0.00018755  0.75635505  1
  Te  Te62  1  0.50079827  0.50396284  0.25032045  1
  Te  Te63  1  0.49879841  0.50464634  0.74976801  1
