# generated using pymatgen
data_AgSbTe2
_symmetry_space_group_name_H-M   'P 1'
_cell_length_a   12.21827068
_cell_length_b   12.22954943
_cell_length_c   12.23138561
_cell_angle_alpha   90.00745079
_cell_angle_beta   89.99643552
_cell_angle_gamma   89.99618319
_symmetry_Int_Tables_number   1
_chemical_formula_structural   AgSbTe2
_chemical_formula_sum   'Ag16 Sb16 Te32'
_cell_volume   1827.66186917
_cell_formula_units_Z   16
loop_
 _symmetry_equiv_pos_site_id
 _symmetry_equiv_pos_as_xyz
  1  'x, y, z'
loop_
 _atom_site_type_symbol
 _atom_site_label
 _atom_site_symmetry_multiplicity
 _atom_site_fract_x
 _atom_site_fract_y
 _atom_site_fract_z
 _atom_site_occupancy
  Ag  Ag0  1  0.74436569  0.74614674  0.49958691  1
  Ag  Ag1  1  0.00172958  0.24993953  0.24974703  1
  Ag  Ag2  1  0.49063721  -0.00057653  -0.00346797  1
  Ag  Ag3  1  0.49539065  0.74991298  0.75003687  1
  Ag  Ag4  1  0.74598389  0.49907544  0.25398056  1
  Ag  Ag5  1  -0.00081415  0.50010254  0.49846200  1
  Ag  Ag6  1  0.25496116  0.00121893  0.24303737  1
  Ag  Ag7  1  0.25547492  0.75562526  -0.00318604  1
  Ag  Ag8  1  0.49581406  0.25019105  0.75001621  1
  Ag  Ag9  1  0.50110090  0.50061541  0.50318464  1
  Ag  Ag10  1  0.25865618  -0.00205891  0.75659331  1
  Ag  Ag11  1  0.49717917  -0.00013579  0.50350775  1
  Ag  Ag12  1  0.49842426  0.24984810  0.24992884  1
  Ag  Ag13  1  0.01074860  0.00006255  0.00175772  1
  Ag  Ag14  1  0.49602606  0.50001851  -0.00430657  1
  Ag  Ag15  1  0.25915727  0.50158751  0.75120759  1
  Sb  Sb16  1  0.25358599  0.25057698  0.49995534  1
  Sb  Sb17  1  0.25544256  0.74946862  0.50317772  1
  Sb  Sb18  1  0.74003002  -0.00175801  0.74939184  1
  Sb  Sb19  1  0.00141013  0.75015006  0.25029386  1
  Sb  Sb20  1  0.25399246  0.49828554  0.24851025  1
  Sb  Sb21  1  0.74563870  0.00076694  0.25030102  1
  Sb  Sb22  1  0.74473617  0.74901345  -0.00012740  1
  Sb  Sb23  1  0.49900584  0.75034942  0.25039584  1
  Sb  Sb24  1  0.00460497  0.75009544  0.75010975  1
  Sb  Sb25  1  0.00464033  0.24979349  0.75022932  1
  Sb  Sb26  1  0.25333507  0.24320020  0.00020270  1
  Sb  Sb27  1  0.74056515  0.50241898  0.74687414  1
  Sb  Sb28  1  0.00197208  -0.00002741  0.49898330  1
  Sb  Sb29  1  0.74609832  0.25349629  0.49808478  1
  Sb  Sb30  1  0.00449580  0.49944023  0.00101003  1
  Sb  Sb31  1  0.74622697  0.25145701  0.00164253  1
  Te  Te32  1  0.25247805  0.24497218  0.25040400  1
  Te  Te33  1  0.25655818  0.25065155  0.74978325  1
  Te  Te34  1  0.24915841  0.75764398  0.24307735  1
  Te  Te35  1  0.25430125  0.75058159  0.75256965  1
  Te  Te36  1  0.74761527  0.25526258  0.24964723  1
  Te  Te37  1  0.74099127  0.25005875  0.75026363  1
  Te  Te38  1  0.75085968  0.74325667  0.25487572  1
  Te  Te39  1  0.74265828  0.74983532  0.74511098  1
  Te  Te40  1  0.25334130  -0.00189132  -0.00060702  1
  Te  Te41  1  0.25488357  -0.00233593  0.50065669  1
  Te  Te42  1  0.25376694  0.50660255  -0.00276992  1
  Te  Te43  1  0.25267270  0.50230841  0.50281462  1
  Te  Te44  1  0.74914260  -0.00249017  -0.00003936  1
  Te  Te45  1  0.74504510  -0.00789914  0.49977536  1
  Te  Te46  1  0.74561689  0.50187940  0.00577549  1
  Te  Te47  1  0.74600441  0.50339223  0.49759601  1
  Te  Te48  1  -0.00232005  0.24518352  0.00486994  1
  Te  Te49  1  -0.00213235  0.25467059  0.49510987  1
  Te  Te50  1  0.00432115  0.75534764  -0.00101674  1
  Te  Te51  1  -0.00649364  0.74478151  0.50093174  1
  Te  Te52  1  0.50070281  0.25047630  0.00164568  1
  Te  Te53  1  0.50091922  0.25038667  0.49822734  1
  Te  Te54  1  0.49761915  0.75074585  -0.00251085  1
  Te  Te55  1  0.50112931  0.74847474  0.50218004  1
  Te  Te56  1  0.00220830  0.00491525  0.24910004  1
  Te  Te57  1  0.00836183  0.00261922  0.75258292  1
  Te  Te58  1  0.00005226  0.49512821  0.25250922  1
  Te  Te59  1  0.00684333  0.49742772  0.74703672  1
  Te  Te60  1  0.49854630  0.00344486  0.24942481  1
  Te  Te61  1  0.49754028  0.00073173  0.75049251  1
  Te  Te62  1  0.49901766  0.49637038  0.25178361  1
  Te  Te63  1  0.49797454  0.49916663  0.74957826  1
