# generated using pymatgen
data_AgSbTe2
_symmetry_space_group_name_H-M   'P 1'
_cell_length_a   12.21564810
_cell_length_b   12.23492692
_cell_length_c   12.22617558
_cell_angle_alpha   90.00133969
_cell_angle_beta   90.00422291
_cell_angle_gamma   89.99468597
_symmetry_Int_Tables_number   1
_chemical_formula_structural   AgSbTe2
_chemical_formula_sum   'Ag16 Sb16 Te32'
_cell_volume   1827.29438019
_cell_formula_units_Z   16
loop_
 _symmetry_equiv_pos_site_id
 _symmetry_equiv_pos_as_xyz
  1  'x, y, z'
loop_
 _atom_site_type_symbol
 _atom_site_label
 _atom_site_symmetry_multiplicity
 _atom_site_fract_x
 _atom_site_fract_y
 _atom_site_fract_z
 _atom_site_occupancy
  Ag  Ag0  1  0.49973597  0.74614017  0.75284828  1
  Ag  Ag1  1  0.24880344  0.25024301  0.49769435  1
  Ag  Ag2  1  0.00416298  0.00111699  0.49816490  1
  Ag  Ag3  1  0.49372226  0.74712878  0.24764320  1
  Ag  Ag4  1  0.74424782  0.50089803  0.75492188  1
  Ag  Ag5  1  0.25196860  0.74914808  0.49580543  1
  Ag  Ag6  1  0.74769143  -0.00084785  0.75142752  1
  Ag  Ag7  1  0.74546433  0.74586572  -0.00185438  1
  Ag  Ag8  1  0.25196581  0.50536511  0.25163554  1
  Ag  Ag9  1  0.00223535  0.25034611  0.25190656  1
  Ag  Ag10  1  0.24907236  -0.00442993  0.25405103  1
  Ag  Ag11  1  0.74885985  0.25396592  -0.00276813  1
  Ag  Ag12  1  0.25544469  0.74720257  0.00385317  1
  Ag  Ag13  1  0.50211666  0.25382520  0.75037155  1
  Ag  Ag14  1  0.74839676  0.50174803  0.24540016  1
  Ag  Ag15  1  0.25564447  0.50319942  0.74843610  1
  Sb  Sb16  1  0.00382091  0.49934500  0.49812809  1
  Sb  Sb17  1  0.00027785  0.00057780  0.00136481  1
  Sb  Sb18  1  0.50006516  -0.00287031  -0.00081516  1
  Sb  Sb19  1  0.25203975  -0.00308763  0.74765448  1
  Sb  Sb20  1  0.49691838  0.50077155  0.50192465  1
  Sb  Sb21  1  0.75079824  -0.00196409  0.24857895  1
  Sb  Sb22  1  -0.00092661  0.24963989  0.74854455  1
  Sb  Sb23  1  -0.00124420  0.49958363  0.00176412  1
  Sb  Sb24  1  0.49671278  -0.00073157  0.50005347  1
  Sb  Sb25  1  -0.00010401  0.75005442  0.74913059  1
  Sb  Sb26  1  0.50174222  0.50273020  -0.00208924  1
  Sb  Sb27  1  0.00596421  0.74950771  0.25100142  1
  Sb  Sb28  1  0.75021560  0.24999716  0.50140600  1
  Sb  Sb29  1  0.25153095  0.25239270  0.00087668  1
  Sb  Sb30  1  0.49813132  0.25284715  0.24950230  1
  Sb  Sb31  1  0.74747960  0.74988545  0.50069759  1
  Te  Te32  1  0.25201736  0.25308644  0.24940591  1
  Te  Te33  1  0.25261363  0.25266810  0.75032104  1
  Te  Te34  1  0.25016302  0.74639785  0.24925691  1
  Te  Te35  1  0.25341910  0.74863792  0.75128694  1
  Te  Te36  1  0.74879546  0.25265946  0.24831911  1
  Te  Te37  1  0.74797301  0.25400613  0.75145538  1
  Te  Te38  1  0.74678782  0.74702518  0.24847143  1
  Te  Te39  1  0.74675505  0.74612091  0.75059166  1
  Te  Te40  1  0.24828489  -0.00519298  0.00534526  1
  Te  Te41  1  0.24688753  0.00029441  0.49801322  1
  Te  Te42  1  0.24835928  0.50441945  0.00003754  1
  Te  Te43  1  0.24853920  0.50054932  0.49989018  1
  Te  Te44  1  0.75120996  -0.00212086  -0.00412203  1
  Te  Te45  1  0.75701086  0.00003130  0.50454876  1
  Te  Te46  1  0.75077084  0.50232793  -0.00047170  1
  Te  Te47  1  0.75273219  0.50023467  0.49947511  1
  Te  Te48  1  -0.00602844  0.24896600  0.00707174  1
  Te  Te49  1  0.00578438  0.24503197  0.49535823  1
  Te  Te50  1  -0.00232020  0.75100648  -0.00006489  1
  Te  Te51  1  0.00854081  0.75743586  0.49967636  1
  Te  Te52  1  0.50595317  0.24857580  -0.00651498  1
  Te  Te53  1  0.49273386  0.24891275  0.50626006  1
  Te  Te54  1  0.50018764  0.75049905  -0.00099513  1
  Te  Te55  1  0.49393480  0.75054113  0.50042914  1
  Te  Te56  1  0.00320936  0.00510898  0.25430554  1
  Te  Te57  1  -0.00582808  0.00097309  0.74430897  1
  Te  Te58  1  -0.00011610  0.49390898  0.25077626  1
  Te  Te59  1  0.00000584  0.49913778  0.74907500  1
  Te  Te60  1  0.49445410  -0.00579028  0.25103881  1
  Te  Te61  1  0.50501851  -0.00160518  0.74926861  1
  Te  Te62  1  0.49939910  0.50459443  0.25123086  1
  Te  Te63  1  0.49979714  0.50196354  0.74969028  1
