# generated using pymatgen
data_AgSbTe2
_symmetry_space_group_name_H-M   'P 1'
_cell_length_a   12.21527673
_cell_length_b   12.21176680
_cell_length_c   12.21547409
_cell_angle_alpha   90.00195850
_cell_angle_beta   90.00054670
_cell_angle_gamma   90.00232000
_symmetry_Int_Tables_number   1
_chemical_formula_structural   AgSbTe2
_chemical_formula_sum   'Ag16 Sb16 Te32'
_cell_volume   1822.18361971
_cell_formula_units_Z   16
loop_
 _symmetry_equiv_pos_site_id
 _symmetry_equiv_pos_as_xyz
  1  'x, y, z'
loop_
 _atom_site_type_symbol
 _atom_site_label
 _atom_site_symmetry_multiplicity
 _atom_site_fract_x
 _atom_site_fract_y
 _atom_site_fract_z
 _atom_site_occupancy
  Ag  Ag0  1  0.25298016  0.49842254  0.25094521  1
  Ag  Ag1  1  0.74553736  -0.00500010  0.25199461  1
  Ag  Ag2  1  0.74416687  0.75004267  0.49739634  1
  Ag  Ag3  1  0.25312504  0.00136156  0.25106462  1
  Ag  Ag4  1  0.25133176  0.25225305  0.00904608  1
  Ag  Ag5  1  0.00391300  0.50249441  0.49666300  1
  Ag  Ag6  1  0.00694325  0.25147946  0.25166857  1
  Ag  Ag7  1  0.49533003  0.50716875  0.00429811  1
  Ag  Ag8  1  0.49881101  0.74947923  0.25106438  1
  Ag  Ag9  1  0.25643228  0.74734571  0.00417628  1
  Ag  Ag10  1  0.49999311  0.74860386  0.74923204  1
  Ag  Ag11  1  0.25053689  0.25289026  0.49130505  1
  Ag  Ag12  1  0.49878911  -0.00712444  0.49469106  1
  Ag  Ag13  1  0.49627209  0.50708375  0.49558665  1
  Ag  Ag14  1  0.00062371  0.74804588  0.74822092  1
  Ag  Ag15  1  0.74362632  0.74956524  0.00281710  1
  Sb  Sb16  1  0.49780760  0.25131780  0.74935223  1
  Sb  Sb17  1  0.25245789  -0.00407165  0.74759344  1
  Sb  Sb18  1  0.74926859  0.50485385  0.74926394  1
  Sb  Sb19  1  0.74504076  0.50636125  0.25102332  1
  Sb  Sb20  1  0.74898634  0.24939472  0.49479114  1
  Sb  Sb21  1  0.74709511  0.25089052  0.00673317  1
  Sb  Sb22  1  0.00305301  0.25356488  0.74752648  1
  Sb  Sb23  1  0.00082408  0.74775160  0.25279040  1
  Sb  Sb24  1  0.74726998  -0.00561800  0.74742792  1
  Sb  Sb25  1  0.00623971  0.50261619  0.00455629  1
  Sb  Sb26  1  0.49101445  0.25055848  0.25012979  1
  Sb  Sb27  1  0.49831154  -0.00994010  0.00749015  1
  Sb  Sb28  1  0.25760769  0.74689012  0.49339950  1
  Sb  Sb29  1  0.00250950  -0.00349980  0.49682513  1
  Sb  Sb30  1  0.25094019  0.50393035  0.74820411  1
  Sb  Sb31  1  0.00118574  -0.00204046  0.00266874  1
  Te  Te32  1  0.24911053  0.25015842  0.24983746  1
  Te  Te33  1  0.24900961  0.24802852  0.75154637  1
  Te  Te34  1  0.25137135  0.74985308  0.24719701  1
  Te  Te35  1  0.25099590  0.75090955  0.75886015  1
  Te  Te36  1  0.75972985  0.24090259  0.24898472  1
  Te  Te37  1  0.75197373  0.24725224  0.75156041  1
  Te  Te38  1  0.74932596  0.75301087  0.25042238  1
  Te  Te39  1  0.74816688  0.75111171  0.75011188  1
  Te  Te40  1  0.25123751  0.00036057  0.00696189  1
  Te  Te41  1  0.25299994  0.00451081  0.49441776  1
  Te  Te42  1  0.25279128  0.50133895  0.00389607  1
  Te  Te43  1  0.25218578  0.49830225  0.49684174  1
  Te  Te44  1  0.74929621  -0.00584099  0.00737459  1
  Te  Te45  1  0.74563371  -0.00395234  0.49481416  1
  Te  Te46  1  0.74269306  0.50580064  0.00081047  1
  Te  Te47  1  0.74754137  0.50440280  0.49887465  1
  Te  Te48  1  0.00603073  0.25138494  0.00271122  1
  Te  Te49  1  0.00388011  0.25490192  0.49832540  1
  Te  Te50  1  -0.00077010  0.74801890  -0.00470715  1
  Te  Te51  1  -0.00473572  0.74642241  0.50228387  1
  Te  Te52  1  0.49474089  0.25877584  -0.00176697  1
  Te  Te53  1  0.49636688  0.25284738  0.50149155  1
  Te  Te54  1  0.49967377  0.74866381  0.00088566  1
  Te  Te55  1  0.49926817  0.74791632  0.49855810  1
  Te  Te56  1  0.00330186  0.00468412  0.25147464  1
  Te  Te57  1  -0.00037976  -0.00845770  0.74906252  1
  Te  Te58  1  0.00537844  0.49693273  0.25476447  1
  Te  Te59  1  -0.00016459  0.50554591  0.74138330  1
  Te  Te60  1  0.49821237  -0.00242932  0.25352288  1
  Te  Te61  1  0.50000986  -0.00739304  0.73994909  1
  Te  Te62  1  0.49708574  0.50228589  0.25167505  1
  Te  Te63  1  0.50001453  0.50667866  0.74792891  1
