# generated using pymatgen
data_AgSbTe2
_symmetry_space_group_name_H-M   'P 1'
_cell_length_a   12.21574509
_cell_length_b   12.21605423
_cell_length_c   12.21704150
_cell_angle_alpha   89.99885033
_cell_angle_beta   89.99506361
_cell_angle_gamma   90.00868840
_symmetry_Int_Tables_number   1
_chemical_formula_structural   AgSbTe2
_chemical_formula_sum   'Ag16 Sb16 Te32'
_cell_volume   1823.12714009
_cell_formula_units_Z   16
loop_
 _symmetry_equiv_pos_site_id
 _symmetry_equiv_pos_as_xyz
  1  'x, y, z'
loop_
 _atom_site_type_symbol
 _atom_site_label
 _atom_site_symmetry_multiplicity
 _atom_site_fract_x
 _atom_site_fract_y
 _atom_site_fract_z
 _atom_site_occupancy
  Ag  Ag0  1  0.74633914  0.48965396  0.75035050  1
  Ag  Ag1  1  0.00378622  0.75079097  0.25331618  1
  Ag  Ag2  1  0.49922594  0.49003117  -0.00658483  1
  Ag  Ag3  1  0.00071586  0.49781938  0.50091780  1
  Ag  Ag4  1  0.74883932  0.24923093  0.50775036  1
  Ag  Ag5  1  0.50295930  0.24582638  0.75516840  1
  Ag  Ag6  1  0.24895891  0.75261795  0.50044742  1
  Ag  Ag7  1  0.74308922  0.24957579  -0.00816610  1
  Ag  Ag8  1  0.74140877  0.01065933  0.74983654  1
  Ag  Ag9  1  0.49739174  0.00934239  -0.00793085  1
  Ag  Ag10  1  0.25381434  0.49444695  0.75024091  1
  Ag  Ag11  1  0.00162682  0.24945107  0.25102008  1
  Ag  Ag12  1  0.25828391  0.00593684  0.74973754  1
  Ag  Ag13  1  0.49703819  0.00402479  0.50755594  1
  Ag  Ag14  1  0.25012562  0.00210389  0.25060288  1
  Ag  Ag15  1  0.25635874  0.24755582  -0.00471281  1
  Sb  Sb16  1  0.49871251  0.75616712  0.74925838  1
  Sb  Sb17  1  0.25122340  0.24797026  0.50473144  1
  Sb  Sb18  1  0.74909043  0.00382145  0.24939703  1
  Sb  Sb19  1  0.49619520  0.75263577  0.25192025  1
  Sb  Sb20  1  0.00257579  0.00385167  0.00034877  1
  Sb  Sb21  1  0.50002179  0.49540953  0.50812650  1
  Sb  Sb22  1  0.00204304  0.00234838  0.49922379  1
  Sb  Sb23  1  0.24840429  0.49774226  0.25041840  1
  Sb  Sb24  1  0.74875630  0.75118367  -0.00168748  1
  Sb  Sb25  1  0.25071489  0.75201992  -0.00032236  1
  Sb  Sb26  1  0.00296671  0.74907816  0.74684990  1
  Sb  Sb27  1  0.75109910  0.75086754  0.50132557  1
  Sb  Sb28  1  0.49712789  0.24783101  0.24425839  1
  Sb  Sb29  1  0.00063757  0.49606671  -0.00196837  1
  Sb  Sb30  1  -0.00348778  0.25074910  0.74793171  1
  Sb  Sb31  1  0.75096013  0.49656729  0.24948807  1
  Te  Te32  1  0.24667493  0.24625698  0.24662792  1
  Te  Te33  1  0.25057869  0.24873344  0.75159874  1
  Te  Te34  1  0.24596433  0.75404270  0.25377418  1
  Te  Te35  1  0.24840692  0.75017727  0.74534839  1
  Te  Te36  1  0.75554746  0.24912855  0.25005319  1
  Te  Te37  1  0.75075380  0.24912132  0.75087964  1
  Te  Te38  1  0.75931034  0.75017987  0.25061580  1
  Te  Te39  1  0.75135831  0.74963829  0.74995628  1
  Te  Te40  1  0.25252314  0.00243291  -0.00267709  1
  Te  Te41  1  0.25200566  -0.00058552  0.50209180  1
  Te  Te42  1  0.25225375  0.49699806  -0.00520653  1
  Te  Te43  1  0.24868548  0.50197506  0.50383258  1
  Te  Te44  1  0.74537228  0.00356635  -0.00365081  1
  Te  Te45  1  0.74669510  0.00258413  0.50360574  1
  Te  Te46  1  0.74716719  0.49600473  -0.00550972  1
  Te  Te47  1  0.75068460  0.49744565  0.50493896  1
  Te  Te48  1  0.00010901  0.25081557  0.00700310  1
  Te  Te49  1  -0.00355691  0.25335075  0.49520493  1
  Te  Te50  1  0.00020856  0.74901842  0.01024040  1
  Te  Te51  1  0.00306738  0.74584691  0.49587187  1
  Te  Te52  1  0.49982995  0.24851846  -0.00122161  1
  Te  Te53  1  0.50387999  0.24616703  0.50383009  1
  Te  Te54  1  0.50030737  0.75052703  0.00138049  1
  Te  Te55  1  0.49446801  0.75666227  0.49797638  1
  Te  Te56  1  0.00544564  0.00183963  0.25033831  1
  Te  Te57  1  0.00131450  -0.00103778  0.74987996  1
  Te  Te58  1  0.00071206  0.49790145  0.25548316  1
  Te  Te59  1  0.00078727  0.50030541  0.74516576  1
  Te  Te60  1  0.49435076  0.00031073  0.24972657  1
  Te  Te61  1  0.49889274  0.00252260  0.75099863  1
  Te  Te62  1  0.49975002  0.50078515  0.24054433  1
  Te  Te63  1  0.49944839  0.49538911  0.75244863  1
