# generated using pymatgen
data_AgSbTe2
_symmetry_space_group_name_H-M   'P 1'
_cell_length_a   12.21788538
_cell_length_b   12.24236023
_cell_length_c   12.23175170
_cell_angle_alpha   90.00431293
_cell_angle_beta   89.98812551
_cell_angle_gamma   89.99834277
_symmetry_Int_Tables_number   1
_chemical_formula_structural   AgSbTe2
_chemical_formula_sum   'Ag16 Sb16 Te32'
_cell_volume   1829.57343904
_cell_formula_units_Z   16
loop_
 _symmetry_equiv_pos_site_id
 _symmetry_equiv_pos_as_xyz
  1  'x, y, z'
loop_
 _atom_site_type_symbol
 _atom_site_label
 _atom_site_symmetry_multiplicity
 _atom_site_fract_x
 _atom_site_fract_y
 _atom_site_fract_z
 _atom_site_occupancy
  Ag  Ag0  1  0.00029307  0.00118933  0.49810546  1
  Ag  Ag1  1  0.49374529  0.24335562  0.24806638  1
  Ag  Ag2  1  0.50225097  -0.00356866  0.00694605  1
  Ag  Ag3  1  0.25394679  0.75507480  0.49498718  1
  Ag  Ag4  1  0.25737837  0.49531924  0.24997302  1
  Ag  Ag5  1  0.74743147  0.24425064  0.49743321  1
  Ag  Ag6  1  0.50032870  0.50340959  0.00275264  1
  Ag  Ag7  1  0.26010063  0.00460708  0.25277539  1
  Ag  Ag8  1  0.50394292  0.75226555  0.75535830  1
  Ag  Ag9  1  0.74159725  0.75309745  -0.00092734  1
  Ag  Ag10  1  0.25344981  0.24589355  0.49135718  1
  Ag  Ag11  1  0.25794810  0.24810566  0.01122430  1
  Ag  Ag12  1  0.49838267  0.75711959  0.24578317  1
  Ag  Ag13  1  0.74382077  0.50267028  0.75109650  1
  Ag  Ag14  1  0.74003965  0.00069388  0.25047689  1
  Ag  Ag15  1  0.74490207  -0.00209201  0.74923466  1
  Sb  Sb16  1  0.00054157  0.49971999  0.49990123  1
  Sb  Sb17  1  -0.00134096  0.24796210  0.74814174  1
  Sb  Sb18  1  0.00211228  0.75291106  0.25110911  1
  Sb  Sb19  1  0.74684188  0.75486398  0.49955122  1
  Sb  Sb20  1  0.00011082  0.50034832  0.00054028  1
  Sb  Sb21  1  0.00554003  0.24788617  0.25127532  1
  Sb  Sb22  1  0.74296586  0.49959704  0.25004953  1
  Sb  Sb23  1  -0.00061995  -0.00020798  0.00114146  1
  Sb  Sb24  1  0.49954180  0.00073692  0.49318542  1
  Sb  Sb25  1  -0.00319399  0.75263317  0.74808403  1
  Sb  Sb26  1  0.25596163  0.50136073  0.75060468  1
  Sb  Sb27  1  0.25574998  -0.00119816  0.74797257  1
  Sb  Sb28  1  0.49952346  0.49998821  0.49780791  1
  Sb  Sb29  1  0.25858792  0.75133180  0.00519815  1
  Sb  Sb30  1  0.50154579  0.24727916  0.75099164  1
  Sb  Sb31  1  0.74413353  0.24752775  0.00330055  1
  Te  Te32  1  0.25237125  0.24627445  0.25195631  1
  Te  Te33  1  0.24980903  0.25084197  0.74426864  1
  Te  Te34  1  0.25367184  0.75342156  0.25150811  1
  Te  Te35  1  0.25570873  0.74923021  0.74458897  1
  Te  Te36  1  0.74564771  0.24817015  0.25300017  1
  Te  Te37  1  0.74906515  0.24691197  0.74583663  1
  Te  Te38  1  0.74508758  0.75129317  0.24980738  1
  Te  Te39  1  0.74599298  0.75267128  0.74885294  1
  Te  Te40  1  0.25107641  0.00175023  0.00127640  1
  Te  Te41  1  0.24920674  0.00247976  0.49956542  1
  Te  Te42  1  0.25318691  0.49857397  0.00213582  1
  Te  Te43  1  0.24928148  0.49612066  0.49795987  1
  Te  Te44  1  0.74876036  0.00038717  0.00231082  1
  Te  Te45  1  0.75064023  0.00205794  0.49801082  1
  Te  Te46  1  0.74700077  0.50040778  -0.00154517  1
  Te  Te47  1  0.75127307  0.49393197  0.50264230  1
  Te  Te48  1  0.01252003  0.25026144  -0.00049237  1
  Te  Te49  1  0.00010729  0.24525997  0.49975739  1
  Te  Te50  1  -0.01292275  0.74988251  -0.00059767  1
  Te  Te51  1  0.00823463  0.75484077  0.49973091  1
  Te  Te52  1  0.49654349  0.24909463  0.00252354  1
  Te  Te53  1  0.49862428  0.25137771  0.49615758  1
  Te  Te54  1  0.50195564  0.75160934  0.00171454  1
  Te  Te55  1  0.49515719  0.74866062  0.49799116  1
  Te  Te56  1  -0.00171988  -0.00058016  0.25358815  1
  Te  Te57  1  -0.00881658  -0.00066071  0.74547747  1
  Te  Te58  1  0.01144712  0.50077342  0.24977946  1
  Te  Te59  1  -0.01116340  0.50025894  0.75075816  1
  Te  Te60  1  0.49971263  -0.00001787  0.24714278  1
  Te  Te61  1  0.50447052  -0.00337116  0.75860072  1
  Te  Te62  1  0.49631000  0.50025877  0.24674267  1
  Te  Te63  1  0.50419939  0.50369568  0.75545224  1
