# generated using pymatgen
data_AgSbTe2
_symmetry_space_group_name_H-M   'P 1'
_cell_length_a   12.21096811
_cell_length_b   12.22030515
_cell_length_c   12.21419752
_cell_angle_alpha   90.00343235
_cell_angle_beta   90.00351312
_cell_angle_gamma   89.99213218
_symmetry_Int_Tables_number   1
_chemical_formula_structural   AgSbTe2
_chemical_formula_sum   'Ag16 Sb16 Te32'
_cell_volume   1822.62398373
_cell_formula_units_Z   16
loop_
 _symmetry_equiv_pos_site_id
 _symmetry_equiv_pos_as_xyz
  1  'x, y, z'
loop_
 _atom_site_type_symbol
 _atom_site_label
 _atom_site_symmetry_multiplicity
 _atom_site_fract_x
 _atom_site_fract_y
 _atom_site_fract_z
 _atom_site_occupancy
  Ag  Ag0  1  0.74725329  0.49649953  0.75109996  1
  Ag  Ag1  1  -0.00094879  -0.00300096  0.00125720  1
  Ag  Ag2  1  0.50510099  0.49848269  0.50865219  1
  Ag  Ag3  1  -0.00177045  0.24933175  0.24532825  1
  Ag  Ag4  1  0.50214285  0.49893156  -0.00862809  1
  Ag  Ag5  1  0.75309622  0.25369284  -0.00577195  1
  Ag  Ag6  1  0.24405773  -0.00149592  0.24596138  1
  Ag  Ag7  1  0.75247558  0.00217688  0.75170556  1
  Ag  Ag8  1  0.24322231  0.74689124  -0.00113118  1
  Ag  Ag9  1  0.25128555  0.50087987  0.75457189  1
  Ag  Ag10  1  0.50661198  0.25704792  0.75095428  1
  Ag  Ag11  1  -0.00316357  0.74653030  0.75573424  1
  Ag  Ag12  1  0.00043816  0.75126521  0.24271464  1
  Ag  Ag13  1  -0.00136698  0.50349495  -0.00391889  1
  Ag  Ag14  1  0.75195146  0.74657305  0.50487234  1
  Ag  Ag15  1  0.74959823  0.25358089  0.50723163  1
  Sb  Sb16  1  0.24833948  0.74679238  0.50111748  1
  Sb  Sb17  1  -0.00559539  0.49986318  0.50538245  1
  Sb  Sb18  1  0.50349657  0.00128269  0.50272560  1
  Sb  Sb19  1  0.24712754  0.25295198  -0.00141131  1
  Sb  Sb20  1  0.75237689  0.49999416  0.24836688  1
  Sb  Sb21  1  0.24699949  -0.00094663  0.75360922  1
  Sb  Sb22  1  0.24943339  0.25324235  0.50157726  1
  Sb  Sb23  1  0.24652192  0.50144689  0.24596779  1
  Sb  Sb24  1  0.50190205  0.25125624  0.24925650  1
  Sb  Sb25  1  -0.00800736  0.25257416  0.75474808  1
  Sb  Sb26  1  0.50106136  0.74877646  0.24814679  1
  Sb  Sb27  1  0.75528607  -0.00048777  0.24697784  1
  Sb  Sb28  1  0.50171796  0.00076956  -0.00330142  1
  Sb  Sb29  1  -0.00203553  0.00018803  0.49982454  1
  Sb  Sb30  1  0.75769916  0.74593949  -0.00497052  1
  Sb  Sb31  1  0.50361506  0.74186902  0.75115842  1
  Te  Te32  1  0.24385319  0.24599562  0.25043297  1
  Te  Te33  1  0.25696871  0.25420751  0.74928322  1
  Te  Te34  1  0.24420872  0.75199986  0.24807994  1
  Te  Te35  1  0.24506328  0.74727784  0.75245460  1
  Te  Te36  1  0.75412734  0.24901360  0.24916876  1
  Te  Te37  1  0.75038128  0.25274270  0.75029820  1
  Te  Te38  1  0.75611667  0.75166070  0.25702022  1
  Te  Te39  1  0.75318226  0.74882082  0.74823361  1
  Te  Te40  1  0.24610836  -0.00390921  0.00159591  1
  Te  Te41  1  0.25056800  -0.00010112  0.49469235  1
  Te  Te42  1  0.24841687  0.50251613  -0.00413573  1
  Te  Te43  1  0.25769939  0.50012893  0.50748763  1
  Te  Te44  1  0.75325545  0.00352269  -0.00442376  1
  Te  Te45  1  0.74935621  0.00104548  0.50599161  1
  Te  Te46  1  0.75088705  0.49857970  -0.00240767  1
  Te  Te47  1  0.74772219  0.49877989  0.50277596  1
  Te  Te48  1  -0.00318975  0.25063789  0.00162726  1
  Te  Te49  1  -0.00605056  0.25104976  0.49314167  1
  Te  Te50  1  -0.00024102  0.74861626  0.00006224  1
  Te  Te51  1  -0.00389553  0.74918143  0.50054790  1
  Te  Te52  1  0.50455452  0.25427509  -0.00178039  1
  Te  Te53  1  0.50560984  0.25441804  0.50141928  1
  Te  Te54  1  0.49276179  0.74450011  0.00078020  1
  Te  Te55  1  0.50596938  0.74426182  0.49947772  1
  Te  Te56  1  0.00181648  -0.00136010  0.24588962  1
  Te  Te57  1  -0.00303263  -0.00318497  0.75458519  1
  Te  Te58  1  0.00122783  0.50056620  0.24326057  1
  Te  Te59  1  -0.00133259  0.50163990  0.75371277  1
  Te  Te60  1  0.49119762  0.00010231  0.24958660  1
  Te  Te61  1  0.50499742  0.00789857  0.75073275  1
  Te  Te62  1  0.49871699  0.49981666  0.24824456  1
  Te  Te63  1  0.50305199  0.49890587  0.75235520  1
