# generated using pymatgen
data_AgSbTe2
_symmetry_space_group_name_H-M   'P 1'
_cell_length_a   12.32178767
_cell_length_b   12.32107528
_cell_length_c   12.30941320
_cell_angle_alpha   89.99473653
_cell_angle_beta   90.00676356
_cell_angle_gamma   89.99596369
_symmetry_Int_Tables_number   1
_chemical_formula_structural   AgSbTe2
_chemical_formula_sum   'Ag16 Sb16 Te32'
_cell_volume   1868.78644981
_cell_formula_units_Z   16
loop_
 _symmetry_equiv_pos_site_id
 _symmetry_equiv_pos_as_xyz
  1  'x, y, z'
loop_
 _atom_site_type_symbol
 _atom_site_label
 _atom_site_symmetry_multiplicity
 _atom_site_fract_x
 _atom_site_fract_y
 _atom_site_fract_z
 _atom_site_occupancy
  Ag  Ag0  1  0.73848246  0.50026348  0.73583580  1
  Ag  Ag1  1  0.49498479  0.26213018  0.26736276  1
  Ag  Ag2  1  0.26346599  0.49978966  0.25926666  1
  Ag  Ag3  1  0.49957737  0.73581953  0.26751830  1
  Ag  Ag4  1  0.49987322  0.25550715  0.73326191  1
  Ag  Ag5  1  0.73935800  0.50354348  0.26099278  1
  Ag  Ag6  1  0.00306201  0.26015148  0.26042591  1
  Ag  Ag7  1  0.50030698  -0.00090893  0.00569228  1
  Ag  Ag8  1  -0.00014596  0.73715005  0.25930175  1
  Ag  Ag9  1  0.73007613  0.74072917  0.49456039  1
  Ag  Ag10  1  0.49891616  -0.02085908  0.49841090  1
  Ag  Ag11  1  0.00033532  0.25586706  0.73527675  1
  Ag  Ag12  1  0.26701418  0.74138451  0.49380035  1
  Ag  Ag13  1  0.26197064  0.25704045  0.49408057  1
  Ag  Ag14  1  0.50361305  0.74337006  0.72985928  1
  Ag  Ag15  1  0.50074629  0.51578998  0.48928133  1
  Sb  Sb16  1  0.74682893  0.74770022  0.00411422  1
  Sb  Sb17  1  -0.00227637  0.00282699  0.49900837  1
  Sb  Sb18  1  -0.00227787  0.74412589  0.73882408  1
  Sb  Sb19  1  -0.00031633  0.00054595  0.00248326  1
  Sb  Sb20  1  0.25940663  0.49797475  0.73858932  1
  Sb  Sb21  1  0.74515105  0.00078137  0.74598042  1
  Sb  Sb22  1  0.73826277  0.25626698  0.49806097  1
  Sb  Sb23  1  0.25327085  0.00156178  0.74557686  1
  Sb  Sb24  1  0.50029008  0.49995059  0.00277321  1
  Sb  Sb25  1  0.25336629  0.25172684  0.00651594  1
  Sb  Sb26  1  0.74604391  -0.00235429  0.25305904  1
  Sb  Sb27  1  -0.00102716  0.50003326  0.00292600  1
  Sb  Sb28  1  -0.00165543  0.49695701  0.49873198  1
  Sb  Sb29  1  0.25488832  0.74810558  0.00901467  1
  Sb  Sb30  1  0.25213327  0.00014235  0.25392375  1
  Sb  Sb31  1  0.74837236  0.25154599  0.00174294  1
  Te  Te32  1  0.25391857  0.24831302  0.25334930  1
  Te  Te33  1  0.25323830  0.25228709  0.74380216  1
  Te  Te34  1  0.25343289  0.75181056  0.25335355  1
  Te  Te35  1  0.24666968  0.74735832  0.74206866  1
  Te  Te36  1  0.75106722  0.25599047  0.25192041  1
  Te  Te37  1  0.74621595  0.25438340  0.74875334  1
  Te  Te38  1  0.74683867  0.74903473  0.25003461  1
  Te  Te39  1  0.75295098  0.74577935  0.75001119  1
  Te  Te40  1  0.25883493  -0.00026960  -0.00235887  1
  Te  Te41  1  0.25531409  0.00129234  0.50089134  1
  Te  Te42  1  0.24717442  0.50038011  0.02051810  1
  Te  Te43  1  0.25342712  0.49860052  0.49585754  1
  Te  Te44  1  0.74127382  0.00058623  -0.00111392  1
  Te  Te45  1  0.74546594  -0.01500543  0.50002300  1
  Te  Te46  1  0.75123688  0.49901688  0.00046887  1
  Te  Te47  1  0.74860126  0.50210009  0.49844091  1
  Te  Te48  1  -0.00010077  0.24878370  0.00376760  1
  Te  Te49  1  0.00784469  0.24771997  0.49820961  1
  Te  Te50  1  0.00180280  0.75268701  0.01122301  1
  Te  Te51  1  0.00524058  0.75306607  0.49526636  1
  Te  Te52  1  0.49976784  0.24626274  -0.00223344  1
  Te  Te53  1  0.50072381  0.25649974  0.49859059  1
  Te  Te54  1  0.49853855  0.75407442  -0.00286274  1
  Te  Te55  1  0.49921068  0.74745372  0.50183622  1
  Te  Te56  1  -0.00198708  0.00690273  0.24882611  1
  Te  Te57  1  -0.00088136  0.01227951  0.75284170  1
  Te  Te58  1  -0.00648969  0.49887272  0.25017336  1
  Te  Te59  1  -0.00736302  0.49444183  0.75110225  1
  Te  Te60  1  0.50150617  0.00376043  0.25711145  1
  Te  Te61  1  0.50030634  0.00288825  0.73923676  1
  Te  Te62  1  0.50252483  0.49903638  0.24957685  1
  Te  Te63  1  0.50159700  0.49895323  0.75506135  1
