# generated using pymatgen
data_AgSbTe2
_symmetry_space_group_name_H-M   'P 1'
_cell_length_a   12.21253111
_cell_length_b   12.22232171
_cell_length_c   12.22256318
_cell_angle_alpha   90.00720766
_cell_angle_beta   89.99702187
_cell_angle_gamma   89.99705677
_symmetry_Int_Tables_number   1
_chemical_formula_structural   AgSbTe2
_chemical_formula_sum   'Ag16 Sb16 Te32'
_cell_volume   1824.40679077
_cell_formula_units_Z   16
loop_
 _symmetry_equiv_pos_site_id
 _symmetry_equiv_pos_as_xyz
  1  'x, y, z'
loop_
 _atom_site_type_symbol
 _atom_site_label
 _atom_site_symmetry_multiplicity
 _atom_site_fract_x
 _atom_site_fract_y
 _atom_site_fract_z
 _atom_site_occupancy
  Ag  Ag0  1  0.75649347  0.00090740  0.25069136  1
  Ag  Ag1  1  0.00118424  0.00649457  -0.00266575  1
  Ag  Ag2  1  0.24582024  0.24988834  0.49808191  1
  Ag  Ag3  1  0.49572082  0.25078640  0.25164582  1
  Ag  Ag4  1  0.76036419  0.24767521  0.00202586  1
  Ag  Ag5  1  0.76032522  0.75227892  0.49785034  1
  Ag  Ag6  1  0.00266608  0.75630675  0.74362766  1
  Ag  Ag7  1  0.24048730  0.24948074  0.00107063  1
  Ag  Ag8  1  0.24735552  0.49608378  0.25341486  1
  Ag  Ag9  1  0.00495550  0.24452320  0.75467440  1
  Ag  Ag10  1  0.24032271  0.00286024  0.74705837  1
  Ag  Ag11  1  0.49500369  0.49846370  0.49616046  1
  Ag  Ag12  1  0.00109362  0.75332956  0.25627927  1
  Ag  Ag13  1  0.00360684  -0.00467267  0.50203672  1
  Ag  Ag14  1  0.24100647  0.75100909  0.49921845  1
  Ag  Ag15  1  0.00265099  0.49334301  0.00149015  1
  Sb  Sb16  1  0.76006385  0.00011568  0.74922516  1
  Sb  Sb17  1  0.75469243  0.50001506  0.74960103  1
  Sb  Sb18  1  0.49700258  0.49526100  0.00311689  1
  Sb  Sb19  1  0.24574953  0.49788219  0.74761559  1
  Sb  Sb20  1  0.49855277  0.00345881  0.00278328  1
  Sb  Sb21  1  0.75304199  0.49908109  0.25009421  1
  Sb  Sb22  1  0.24411113  0.75073116  0.00070970  1
  Sb  Sb23  1  0.49863438  0.74882891  0.25392188  1
  Sb  Sb24  1  0.49648134  0.24919581  0.74834532  1
  Sb  Sb25  1  0.75555188  0.24872025  0.49847895  1
  Sb  Sb26  1  0.49666790  0.75121644  0.74499018  1
  Sb  Sb27  1  0.49699091  0.00171256  0.49764063  1
  Sb  Sb28  1  0.00381479  0.50390187  0.49705104  1
  Sb  Sb29  1  0.24352546  0.00213520  0.25182891  1
  Sb  Sb30  1  0.00260390  0.24793348  0.24560228  1
  Sb  Sb31  1  0.75726628  0.75247187  0.00192991  1
  Te  Te32  1  0.25232254  0.25131106  0.25188684  1
  Te  Te33  1  0.24639246  0.24782809  0.74926130  1
  Te  Te34  1  0.24667130  0.74781094  0.25395963  1
  Te  Te35  1  0.24512299  0.75391250  0.74562290  1
  Te  Te36  1  0.74617379  0.24735325  0.24733180  1
  Te  Te37  1  0.75463847  0.24913022  0.75541145  1
  Te  Te38  1  0.75356893  0.75372338  0.25372669  1
  Te  Te39  1  0.75610353  0.75082177  0.74401154  1
  Te  Te40  1  0.24523705  0.00396595  -0.00167746  1
  Te  Te41  1  0.24615687  0.00083881  0.50033712  1
  Te  Te42  1  0.24591493  0.49554122  0.00464435  1
  Te  Te43  1  0.25082748  0.49809693  0.49646794  1
  Te  Te44  1  0.75492298  0.00407599  0.00388816  1
  Te  Te45  1  0.75426508  -0.00333202  0.49656174  1
  Te  Te46  1  0.75500942  0.49418487  0.00032482  1
  Te  Te47  1  0.74450115  0.50424987  0.49897159  1
  Te  Te48  1  0.00194428  0.24795083  0.00108091  1
  Te  Te49  1  0.00280935  0.24892174  0.50286891  1
  Te  Te50  1  -0.00035658  0.75202688  -0.00041040  1
  Te  Te51  1  0.00188806  0.74833969  0.49996736  1
  Te  Te52  1  0.49822062  0.25090674  0.00442990  1
  Te  Te53  1  0.49677668  0.25310760  0.49644211  1
  Te  Te54  1  0.50189638  0.74844795  -0.00071425  1
  Te  Te55  1  0.49763584  0.74586489  0.50017788  1
  Te  Te56  1  -0.00233530  -0.00351876  0.25129969  1
  Te  Te57  1  0.00287445  0.00034185  0.74938968  1
  Te  Te58  1  0.00463316  0.50560514  0.24528679  1
  Te  Te59  1  0.00089123  0.49908454  0.75755296  1
  Te  Te60  1  0.50845152  0.00535395  0.24943859  1
  Te  Te61  1  0.48860357  -0.00007822  0.75060405  1
  Te  Te62  1  0.49425240  0.49657305  0.25393408  1
  Te  Te63  1  0.50017737  0.50013965  0.74232590  1
