# generated using pymatgen
data_AgSbTe2
_symmetry_space_group_name_H-M   'P 1'
_cell_length_a   12.22371093
_cell_length_b   12.22912409
_cell_length_c   12.22712367
_cell_angle_alpha   89.99657186
_cell_angle_beta   90.00044310
_cell_angle_gamma   90.00091264
_symmetry_Int_Tables_number   1
_chemical_formula_structural   AgSbTe2
_chemical_formula_sum   'Ag16 Sb16 Te32'
_cell_volume   1827.77497429
_cell_formula_units_Z   16
loop_
 _symmetry_equiv_pos_site_id
 _symmetry_equiv_pos_as_xyz
  1  'x, y, z'
loop_
 _atom_site_type_symbol
 _atom_site_label
 _atom_site_symmetry_multiplicity
 _atom_site_fract_x
 _atom_site_fract_y
 _atom_site_fract_z
 _atom_site_occupancy
  Ag  Ag0  1  0.26343025  0.49827510  0.74656982  1
  Ag  Ag1  1  0.74883452  0.74588850  0.50236147  1
  Ag  Ag2  1  0.50223522  0.00672103  -0.00383878  1
  Ag  Ag3  1  -0.00169447  -0.00160526  0.50033864  1
  Ag  Ag4  1  0.50189440  0.73611748  0.74676785  1
  Ag  Ag5  1  0.25638659  0.25395843  0.50247209  1
  Ag  Ag6  1  0.50056982  0.49589852  0.51360319  1
  Ag  Ag7  1  0.50063021  0.25264666  0.25130051  1
  Ag  Ag8  1  -0.00266491  0.74667405  0.25507104  1
  Ag  Ag9  1  -0.00325970  0.49869982  -0.00383785  1
  Ag  Ag10  1  0.50070636  0.00453037  0.50424543  1
  Ag  Ag11  1  -0.00131860  0.50180688  0.50354649  1
  Ag  Ag12  1  0.73619853  0.49923528  0.74879657  1
  Ag  Ag13  1  0.50312998  0.49419217  -0.01360182  1
  Ag  Ag14  1  0.50061604  0.26345692  0.74873144  1
  Ag  Ag15  1  0.74265459  0.25532133  -0.00248692  1
  Sb  Sb16  1  -0.00113536  0.25179710  0.25322051  1
  Sb  Sb17  1  0.25132064  0.49788285  0.25406462  1
  Sb  Sb18  1  0.74330826  0.25465197  0.50265591  1
  Sb  Sb19  1  0.74847197  0.00057075  0.25225784  1
  Sb  Sb20  1  0.74515639  0.00131171  0.74802035  1
  Sb  Sb21  1  0.74919876  0.49980373  0.25160827  1
  Sb  Sb22  1  0.25102990  0.74630807  0.50251203  1
  Sb  Sb23  1  -0.00100946  0.25449582  0.74870066  1
  Sb  Sb24  1  -0.00303381  0.74501865  0.74620331  1
  Sb  Sb25  1  0.74787031  0.74397941  -0.00383105  1
  Sb  Sb26  1  0.25101521  0.74663603  -0.00272348  1
  Sb  Sb27  1  0.25149356  0.00186075  0.25254834  1
  Sb  Sb28  1  0.25492861  0.00253461  0.74678759  1
  Sb  Sb29  1  0.50198110  0.74832877  0.25347245  1
  Sb  Sb30  1  -0.00334391  0.00128388  0.00002623  1
  Sb  Sb31  1  0.25781233  0.25363896  -0.00358420  1
  Te  Te32  1  0.25658737  0.25000511  0.25750158  1
  Te  Te33  1  0.25469087  0.25508824  0.74568449  1
  Te  Te34  1  0.24170670  0.75014377  0.24921726  1
  Te  Te35  1  0.25841097  0.74234283  0.75035614  1
  Te  Te36  1  0.74338204  0.24982870  0.24294594  1
  Te  Te37  1  0.74579552  0.25513740  0.75327404  1
  Te  Te38  1  0.75467686  0.75052419  0.25807792  1
  Te  Te39  1  0.74484970  0.74434494  0.74511914  1
  Te  Te40  1  0.25554481  0.00082770  -0.00072469  1
  Te  Te41  1  0.25202229  0.00589030  0.50139066  1
  Te  Te42  1  0.24928103  0.49865813  -0.00637435  1
  Te  Te43  1  0.25020579  0.49686152  0.50340036  1
  Te  Te44  1  0.74626903  0.00542729  -0.00131264  1
  Te  Te45  1  0.74948589  -0.00397578  0.50180613  1
  Te  Te46  1  0.74932585  0.49842405  -0.00292141  1
  Te  Te47  1  0.75062402  0.50063131  0.50253267  1
  Te  Te48  1  -0.00430946  0.25273753  0.00090055  1
  Te  Te49  1  0.00247883  0.25137849  0.49877217  1
  Te  Te50  1  -0.00056944  0.74773207  0.00382352  1
  Te  Te51  1  -0.00097593  0.74772448  0.49949643  1
  Te  Te52  1  0.50023429  0.25154532  -0.00161836  1
  Te  Te53  1  0.50199758  0.25033068  0.50170886  1
  Te  Te54  1  0.50135546  0.74921487  -0.00065144  1
  Te  Te55  1  0.50125683  0.75001207  0.49931653  1
  Te  Te56  1  0.00055398  -0.00327729  0.25408261  1
  Te  Te57  1  0.00117730  -0.00117868  0.74462395  1
  Te  Te58  1  0.00050127  0.50207882  0.25122116  1
  Te  Te59  1  -0.00100266  0.50028906  0.74887610  1
  Te  Te60  1  0.49977997  0.00229443  0.25156844  1
  Te  Te61  1  0.50000838  0.00044374  0.74765947  1
  Te  Te62  1  0.49933626  0.49734300  0.24965976  1
  Te  Te63  1  0.50190527  0.49925133  0.74860845  1
