# generated using pymatgen
data_AgSbTe2
_symmetry_space_group_name_H-M   'P 1'
_cell_length_a   12.30254349
_cell_length_b   12.30041660
_cell_length_c   12.29579407
_cell_angle_alpha   89.99828104
_cell_angle_beta   90.00416963
_cell_angle_gamma   90.01548639
_symmetry_Int_Tables_number   1
_chemical_formula_structural   AgSbTe2
_chemical_formula_sum   'Ag16 Sb16 Te32'
_cell_volume   1860.67830228
_cell_formula_units_Z   16
loop_
 _symmetry_equiv_pos_site_id
 _symmetry_equiv_pos_as_xyz
  1  'x, y, z'
loop_
 _atom_site_type_symbol
 _atom_site_label
 _atom_site_symmetry_multiplicity
 _atom_site_fract_x
 _atom_site_fract_y
 _atom_site_fract_z
 _atom_site_occupancy
  Ag  Ag0  1  0.74985374  -0.01930684  0.74698061  1
  Ag  Ag1  1  0.74084307  0.26289374  0.51162356  1
  Ag  Ag2  1  0.25004371  0.00336694  0.74694407  1
  Ag  Ag3  1  -0.01440303  0.25383290  0.74596379  1
  Ag  Ag4  1  0.74989904  0.51701270  0.74197827  1
  Ag  Ag5  1  -0.01955088  0.74475216  0.75130849  1
  Ag  Ag6  1  0.26078998  0.25278393  0.50774978  1
  Ag  Ag7  1  0.74824229  0.73834330  0.51783025  1
  Ag  Ag8  1  0.50913192  0.49135674  0.50719179  1
  Ag  Ag9  1  -0.01000020  0.50545890  -0.00774627  1
  Ag  Ag10  1  -0.01101372  0.74269403  0.25016164  1
  Ag  Ag11  1  0.75517484  0.74284169  -0.02286326  1
  Ag  Ag12  1  0.75000126  0.50320270  0.25943295  1
  Ag  Ag13  1  0.52135324  0.74611208  0.74396062  1
  Ag  Ag14  1  0.50803515  0.25713795  0.26777081  1
  Ag  Ag15  1  0.51360381  0.25414035  0.73891058  1
  Sb  Sb16  1  0.74991323  -0.00024210  0.25486414  1
  Sb  Sb17  1  0.24956895  0.49769648  0.74845851  1
  Sb  Sb18  1  0.24599658  0.74835661  -0.00475620  1
  Sb  Sb19  1  0.50135365  0.00781784  0.50254028  1
  Sb  Sb20  1  -0.00776027  0.25763205  0.25348877  1
  Sb  Sb21  1  0.50347475  -0.00113760  -0.00361408  1
  Sb  Sb22  1  0.25245740  0.74553668  0.50471191  1
  Sb  Sb23  1  -0.00868257  0.50071692  0.50639220  1
  Sb  Sb24  1  -0.00107459  0.00001194  0.50215987  1
  Sb  Sb25  1  0.24904866  0.49891984  0.25383401  1
  Sb  Sb26  1  -0.00334344  -0.00405615  -0.00401928  1
  Sb  Sb27  1  0.51087272  0.74261793  0.25812912  1
  Sb  Sb28  1  0.25032922  0.25013060  -0.00741715  1
  Sb  Sb29  1  0.75079183  0.25507817  -0.01365989  1
  Sb  Sb30  1  0.24957674  0.00268294  0.25669683  1
  Sb  Sb31  1  0.50594094  0.50118207  -0.00620741  1
  Te  Te32  1  0.25273274  0.24808930  0.25781787  1
  Te  Te33  1  0.25129278  0.24898125  0.74718788  1
  Te  Te34  1  0.24095285  0.75325995  0.25059400  1
  Te  Te35  1  0.24878449  0.75645903  0.74716282  1
  Te  Te36  1  0.75032158  0.24804828  0.25561273  1
  Te  Te37  1  0.75003045  0.25374072  0.75012986  1
  Te  Te38  1  0.75153404  0.75041209  0.25648866  1
  Te  Te39  1  0.74900982  0.74857716  0.74761467  1
  Te  Te40  1  0.25034159  0.00004555  -0.01183252  1
  Te  Te41  1  0.24964964  0.00763260  0.50642239  1
  Te  Te42  1  0.23683928  0.49980588  0.00211272  1
  Te  Te43  1  0.26658578  0.49443038  0.49902717  1
  Te  Te44  1  0.75000346  -0.01147937  -0.00749652  1
  Te  Te45  1  0.75001835  -0.00205410  0.50458436  1
  Te  Te46  1  0.75308233  0.50220893  -0.00198513  1
  Te  Te47  1  0.74701921  0.49995779  0.50284859  1
  Te  Te48  1  -0.00061403  0.25705487  -0.00514943  1
  Te  Te49  1  -0.00497375  0.25134027  0.50561552  1
  Te  Te50  1  -0.00160524  0.74716673  -0.00862327  1
  Te  Te51  1  -0.00098512  0.74866576  0.50629510  1
  Te  Te52  1  0.49994752  0.25267657  -0.00390331  1
  Te  Te53  1  0.50713852  0.25153145  0.50479806  1
  Te  Te54  1  0.50356916  0.74834708  -0.00518493  1
  Te  Te55  1  0.50149105  0.74378415  0.50227805  1
  Te  Te56  1  0.00019854  -0.01017822  0.24825448  1
  Te  Te57  1  -0.00646859  0.00153534  0.74839673  1
  Te  Te58  1  -0.00555337  0.50268632  0.24883217  1
  Te  Te59  1  -0.00005482  0.50075585  0.74804208  1
  Te  Te60  1  0.49905943  0.01080790  0.24778354  1
  Te  Te61  1  0.50624901  0.00109452  0.74781165  1
  Te  Te62  1  0.50475139  0.49721344  0.24942194  1
  Te  Te63  1  0.49918389  0.49783502  0.75024277  1
