# generated using pymatgen
data_AgSbTe2
_symmetry_space_group_name_H-M   'P 1'
_cell_length_a   12.21808272
_cell_length_b   12.20961541
_cell_length_c   12.21549448
_cell_angle_alpha   89.99593481
_cell_angle_beta   90.00106587
_cell_angle_gamma   90.00165922
_symmetry_Int_Tables_number   1
_chemical_formula_structural   AgSbTe2
_chemical_formula_sum   'Ag16 Sb16 Te32'
_cell_volume   1822.28414112
_cell_formula_units_Z   16
loop_
 _symmetry_equiv_pos_site_id
 _symmetry_equiv_pos_as_xyz
  1  'x, y, z'
loop_
 _atom_site_type_symbol
 _atom_site_label
 _atom_site_symmetry_multiplicity
 _atom_site_fract_x
 _atom_site_fract_y
 _atom_site_fract_z
 _atom_site_occupancy
  Ag  Ag0  1  0.50421385  0.25377926  0.74846365  1
  Ag  Ag1  1  0.25013237  0.74786995  0.49956197  1
  Ag  Ag2  1  0.49887460  0.74491385  0.24776603  1
  Ag  Ag3  1  -0.00308946  0.50374966  0.50080086  1
  Ag  Ag4  1  0.74940824  0.00048534  0.75211064  1
  Ag  Ag5  1  -0.00369793  0.50913150  -0.00022333  1
  Ag  Ag6  1  0.50321195  0.50373389  -0.00028519  1
  Ag  Ag7  1  0.50244126  0.25522944  0.25131282  1
  Ag  Ag8  1  -0.00078005  -0.00938495  -0.00216822  1
  Ag  Ag9  1  0.74687508  0.49928730  0.75053661  1
  Ag  Ag10  1  0.24635656  0.74934242  0.00082397  1
  Ag  Ag11  1  0.50315100  0.49915978  0.50051451  1
  Ag  Ag12  1  0.74578772  0.25457222  0.50381880  1
  Ag  Ag13  1  0.25028714  -0.00248963  0.75212397  1
  Ag  Ag14  1  0.75346000  0.74613412  -0.00072334  1
  Ag  Ag15  1  0.00045627  0.74703169  0.24395772  1
  Sb  Sb16  1  0.25237598  0.50287154  0.24903589  1
  Sb  Sb17  1  0.74716198  0.50062137  0.24786349  1
  Sb  Sb18  1  -0.00081504  -0.00556499  0.50203053  1
  Sb  Sb19  1  0.25350689  0.25237370  0.50262087  1
  Sb  Sb20  1  -0.00037039  0.74876072  0.75745193  1
  Sb  Sb21  1  0.25220289  0.25011304  -0.00224824  1
  Sb  Sb22  1  0.50043704  0.74565396  0.75184500  1
  Sb  Sb23  1  0.50079098  -0.00554494  -0.00237825  1
  Sb  Sb24  1  -0.00422351  0.25146904  0.74924664  1
  Sb  Sb25  1  0.75034828  0.74486954  0.50123731  1
  Sb  Sb26  1  0.25283324  0.50205611  0.75102931  1
  Sb  Sb27  1  -0.00236464  0.25292861  0.25094097  1
  Sb  Sb28  1  0.50044582  -0.00061262  0.50156060  1
  Sb  Sb29  1  0.74749648  0.25351361  -0.00362587  1
  Sb  Sb30  1  0.24949894  -0.00452952  0.24728029  1
  Sb  Sb31  1  0.75056487  -0.00122840  0.24665846  1
  Te  Te32  1  0.25945816  0.24721532  0.25047523  1
  Te  Te33  1  0.25784315  0.24255155  0.74960838  1
  Te  Te34  1  0.25145774  0.75120141  0.24882109  1
  Te  Te35  1  0.25153850  0.75475402  0.75008306  1
  Te  Te36  1  0.74356817  0.24799036  0.25694475  1
  Te  Te37  1  0.74623604  0.25091341  0.74734041  1
  Te  Te38  1  0.74907204  0.75172868  0.24463862  1
  Te  Te39  1  0.74856766  0.75033856  0.75429777  1
  Te  Te40  1  0.24621030  -0.00531859  -0.00496294  1
  Te  Te41  1  0.24829228  -0.00660284  0.50735595  1
  Te  Te42  1  0.24910101  0.50628145  -0.00242834  1
  Te  Te43  1  0.24957115  0.50524380  0.50269940  1
  Te  Te44  1  0.75327239  -0.00319770  -0.00537935  1
  Te  Te45  1  0.75194274  0.00490375  0.50927829  1
  Te  Te46  1  0.74996593  0.50224211  -0.00451273  1
  Te  Te47  1  0.74877470  0.49927032  0.50588379  1
  Te  Te48  1  0.00025762  0.25353413  0.00276841  1
  Te  Te49  1  -0.00324182  0.25818598  0.49699976  1
  Te  Te50  1  0.00058561  0.74704732  0.00183093  1
  Te  Te51  1  0.00152172  0.74501701  0.49292795  1
  Te  Te52  1  0.49999090  0.25735035  0.00119798  1
  Te  Te53  1  0.50149458  0.25432850  0.49993551  1
  Te  Te54  1  0.49954187  0.74598330  0.00287199  1
  Te  Te55  1  0.49863842  0.74520006  0.49511030  1
  Te  Te56  1  -0.00051042  -0.00458417  0.24392379  1
  Te  Te57  1  -0.00145847  0.00182694  0.75431008  1
  Te  Te58  1  0.00002229  0.50420015  0.24802542  1
  Te  Te59  1  -0.00451940  0.49847972  0.75060110  1
  Te  Te60  1  0.50053261  -0.00125153  0.24970549  1
  Te  Te61  1  0.50240765  0.00596906  0.75108229  1
  Te  Te62  1  0.50033099  0.50191080  0.24963539  1
  Te  Te63  1  0.50255545  0.49699016  0.74998982  1
