# generated using pymatgen
data_AgSbTe2
_symmetry_space_group_name_H-M   'P 1'
_cell_length_a   12.31794293
_cell_length_b   12.32699293
_cell_length_c   12.30059542
_cell_angle_alpha   90.00250199
_cell_angle_beta   90.02670184
_cell_angle_gamma   89.99435578
_symmetry_Int_Tables_number   1
_chemical_formula_structural   AgSbTe2
_chemical_formula_sum   'Ag16 Sb16 Te32'
_cell_volume   1867.76150034
_cell_formula_units_Z   16
loop_
 _symmetry_equiv_pos_site_id
 _symmetry_equiv_pos_as_xyz
  1  'x, y, z'
loop_
 _atom_site_type_symbol
 _atom_site_label
 _atom_site_symmetry_multiplicity
 _atom_site_fract_x
 _atom_site_fract_y
 _atom_site_fract_z
 _atom_site_occupancy
  Ag  Ag0  1  -0.00257559  0.49814913  -0.00854965  1
  Ag  Ag1  1  0.50937613  0.48738030  0.50070040  1
  Ag  Ag2  1  0.74571471  0.01392657  0.73336974  1
  Ag  Ag3  1  0.24284506  0.49482608  0.74307201  1
  Ag  Ag4  1  0.50994225  0.25245068  0.26415698  1
  Ag  Ag5  1  0.51369595  0.25657095  0.73411236  1
  Ag  Ag6  1  0.26065722  0.01035186  0.25786890  1
  Ag  Ag7  1  -0.01586047  0.26138154  0.74586194  1
  Ag  Ag8  1  0.74143096  0.25251674  0.50687063  1
  Ag  Ag9  1  0.75284333  0.48777761  0.73691897  1
  Ag  Ag10  1  0.74168170  0.48921164  0.26578275  1
  Ag  Ag11  1  -0.00832541  0.73467529  0.74796357  1
  Ag  Ag12  1  0.25544780  0.49413508  0.25756055  1
  Ag  Ag13  1  0.74814000  0.74595426  0.50449614  1
  Ag  Ag14  1  0.51104257  0.01498016  0.49557659  1
  Ag  Ag15  1  0.74103390  0.01214240  0.26608053  1
  Sb  Sb16  1  0.50123362  0.49676857  -0.00100220  1
  Sb  Sb17  1  -0.00143542  0.00372110  -0.00247201  1
  Sb  Sb18  1  -0.00434206  0.74641618  0.25286595  1
  Sb  Sb19  1  0.24971001  0.25127802  0.00040467  1
  Sb  Sb20  1  0.75239371  0.74792778  -0.00319009  1
  Sb  Sb21  1  -0.00617131  0.25275667  0.25653596  1
  Sb  Sb22  1  -0.00801186  0.49869907  0.50193807  1
  Sb  Sb23  1  -0.00967823  0.00150790  0.50056019  1
  Sb  Sb24  1  0.50490350  0.74407352  0.74319717  1
  Sb  Sb25  1  0.25314646  0.00270219  0.74166645  1
  Sb  Sb26  1  0.74971481  0.25039935  -0.00393629  1
  Sb  Sb27  1  0.24877217  0.74638616  0.50105326  1
  Sb  Sb28  1  0.50184777  0.00415966  0.00184742  1
  Sb  Sb29  1  0.24626123  0.74711648  -0.00021273  1
  Sb  Sb30  1  0.25732136  0.25369286  0.49930376  1
  Sb  Sb31  1  0.50183382  0.74746436  0.25399442  1
  Te  Te32  1  0.24982002  0.25402561  0.25182415  1
  Te  Te33  1  0.25323167  0.25433545  0.74832175  1
  Te  Te34  1  0.24830594  0.74238486  0.25072854  1
  Te  Te35  1  0.24234025  0.74594686  0.74929695  1
  Te  Te36  1  0.74886796  0.25208157  0.24963518  1
  Te  Te37  1  0.74610322  0.24983072  0.75099918  1
  Te  Te38  1  0.75180320  0.74805014  0.25606066  1
  Te  Te39  1  0.75097474  0.74929571  0.74703523  1
  Te  Te40  1  0.24959770  -0.00024717  0.01642200  1
  Te  Te41  1  0.26226144  -0.00112330  0.49398329  1
  Te  Te42  1  0.24778232  0.49961473  0.00041148  1
  Te  Te43  1  0.26156370  0.49991780  0.49824418  1
  Te  Te44  1  0.75182897  -0.00070063  0.00520599  1
  Te  Te45  1  0.74799959  0.00424374  0.50190802  1
  Te  Te46  1  0.75222357  0.50034212  0.00303872  1
  Te  Te47  1  0.74800325  0.49699145  0.50016432  1
  Te  Te48  1  0.00063200  0.25273361  -0.01203956  1
  Te  Te49  1  -0.01251624  0.24938654  0.50614369  1
  Te  Te50  1  -0.00019263  0.74501534  -0.00894619  1
  Te  Te51  1  -0.00734623  0.75056288  0.50436422  1
  Te  Te52  1  0.49878914  0.24878359  0.00126148  1
  Te  Te53  1  0.50190554  0.25313815  0.49808119  1
  Te  Te54  1  0.49870076  0.75251507  -0.00096754  1
  Te  Te55  1  0.50749790  0.74750009  0.49933056  1
  Te  Te56  1  -0.00051562  0.00035175  0.24931538  1
  Te  Te57  1  0.00233301  0.00579683  0.74972839  1
  Te  Te58  1  0.00241868  0.49925681  0.24773754  1
  Te  Te59  1  -0.00058165  0.49718884  0.74691857  1
  Te  Te60  1  0.50413697  0.00087629  0.25048868  1
  Te  Te61  1  0.49936388  0.00243877  0.75143611  1
  Te  Te62  1  0.50389786  0.49951141  0.24704399  1
  Te  Te63  1  0.50417941  0.49845421  0.75242746  1
