# generated using pymatgen
data_AgSbTe2
_symmetry_space_group_name_H-M   'P 1'
_cell_length_a   12.22828220
_cell_length_b   12.21802619
_cell_length_c   12.21670250
_cell_angle_alpha   90.01520192
_cell_angle_beta   89.99243016
_cell_angle_gamma   90.01069165
_symmetry_Int_Tables_number   1
_chemical_formula_structural   AgSbTe2
_chemical_formula_sum   'Ag16 Sb16 Te32'
_cell_volume   1825.24209316
_cell_formula_units_Z   16
loop_
 _symmetry_equiv_pos_site_id
 _symmetry_equiv_pos_as_xyz
  1  'x, y, z'
loop_
 _atom_site_type_symbol
 _atom_site_label
 _atom_site_symmetry_multiplicity
 _atom_site_fract_x
 _atom_site_fract_y
 _atom_site_fract_z
 _atom_site_occupancy
  Ag  Ag0  1  0.25104785  0.24960750  0.49692638  1
  Ag  Ag1  1  0.24734356  0.50391833  0.75388032  1
  Ag  Ag2  1  0.50601732  0.24708296  0.24775473  1
  Ag  Ag3  1  0.49928505  0.74888327  0.75644082  1
  Ag  Ag4  1  0.75243924  0.49356252  0.24512055  1
  Ag  Ag5  1  -0.00331582  0.50651464  -0.00167709  1
  Ag  Ag6  1  -0.00040730  0.75229534  0.23928545  1
  Ag  Ag7  1  0.50132909  -0.00092973  0.00387464  1
  Ag  Ag8  1  -0.00071187  -0.00673645  0.00459709  1
  Ag  Ag9  1  0.75007954  0.25036533  0.00682178  1
  Ag  Ag10  1  0.24836960  0.00118013  0.24486172  1
  Ag  Ag11  1  0.75330758  0.50034934  0.75496963  1
  Ag  Ag12  1  0.74903983  0.25115673  0.49247886  1
  Ag  Ag13  1  0.75103781  0.00582464  0.24384114  1
  Ag  Ag14  1  0.00159609  0.74583975  0.76085454  1
  Ag  Ag15  1  0.24329025  0.75161319  -0.00206395  1
  Sb  Sb16  1  0.50049881  0.00265115  0.49614199  1
  Sb  Sb17  1  0.75052206  0.75002264  0.49927961  1
  Sb  Sb18  1  -0.00070797  0.25398701  0.75279931  1
  Sb  Sb19  1  0.24678912  0.49880863  0.24741850  1
  Sb  Sb20  1  0.75727450  0.74900963  0.00023413  1
  Sb  Sb21  1  -0.00063805  0.00014230  0.49546979  1
  Sb  Sb22  1  0.75152893  0.00051282  0.75539848  1
  Sb  Sb23  1  0.24864046  -0.00200983  0.75415974  1
  Sb  Sb24  1  -0.00628163  0.24834850  0.24764340  1
  Sb  Sb25  1  -0.00128996  0.49993669  0.50079385  1
  Sb  Sb26  1  0.24907259  0.75044864  0.50097072  1
  Sb  Sb27  1  0.50364483  0.50149741  -0.00048609  1
  Sb  Sb28  1  0.50056433  0.49823183  0.50016750  1
  Sb  Sb29  1  0.50076841  0.24973534  0.75209925  1
  Sb  Sb30  1  0.25065732  0.24926063  0.00250898  1
  Sb  Sb31  1  0.50041510  0.75253070  0.24318409  1
  Te  Te32  1  0.25449166  0.24824441  0.25221868  1
  Te  Te33  1  0.25118755  0.25471095  0.74512592  1
  Te  Te34  1  0.24807493  0.75141858  0.24804104  1
  Te  Te35  1  0.24723862  0.74741053  0.75155061  1
  Te  Te36  1  0.74979580  0.24997040  0.24868209  1
  Te  Te37  1  0.74920682  0.25472080  0.75007489  1
  Te  Te38  1  0.75214256  0.75029365  0.25208523  1
  Te  Te39  1  0.75134348  0.74495976  0.74844468  1
  Te  Te40  1  0.24793100  -0.00116562  0.00347817  1
  Te  Te41  1  0.24962097  0.00603449  0.49299436  1
  Te  Te42  1  0.24591008  0.50194746  -0.00327498  1
  Te  Te43  1  0.24993513  0.49421441  0.50443835  1
  Te  Te44  1  0.75117883  0.00282281  0.00259876  1
  Te  Te45  1  0.75053768  0.00699147  0.49338086  1
  Te  Te46  1  0.75260588  0.49754569  -0.00004410  1
  Te  Te47  1  0.75009010  0.49426274  0.49947021  1
  Te  Te48  1  -0.00434408  0.24962980  -0.00091312  1
  Te  Te49  1  -0.00051199  0.24932504  0.50121248  1
  Te  Te50  1  0.00175159  0.74989152  0.00059464  1
  Te  Te51  1  0.00059142  0.75068664  0.50055309  1
  Te  Te52  1  0.50334121  0.24555972  0.00428938  1
  Te  Te53  1  0.50155610  0.24909019  0.49517444  1
  Te  Te54  1  0.49252581  0.75379664  -0.00337468  1
  Te  Te55  1  0.49932412  0.75077615  0.51126640  1
  Te  Te56  1  -0.00043463  -0.00347988  0.24615401  1
  Te  Te57  1  -0.00022511  -0.00834709  0.75763812  1
  Te  Te58  1  -0.00341273  0.50550818  0.24528215  1
  Te  Te59  1  -0.00166545  0.50326719  0.75359969  1
  Te  Te60  1  0.50148645  0.00073400  0.24569726  1
  Te  Te61  1  0.50034331  -0.00507265  0.75794421  1
  Te  Te62  1  0.50616259  0.49665898  0.24919193  1
  Te  Te63  1  0.50101365  0.50395142  0.75067533  1
