# generated using pymatgen
data_AgSbTe2
_symmetry_space_group_name_H-M   'P 1'
_cell_length_a   12.22354746
_cell_length_b   12.23319542
_cell_length_c   12.24604661
_cell_angle_alpha   89.99510030
_cell_angle_beta   89.98663721
_cell_angle_gamma   89.98785100
_symmetry_Int_Tables_number   1
_chemical_formula_structural   AgSbTe2
_chemical_formula_sum   'Ag16 Sb16 Te32'
_cell_volume   1831.18853851
_cell_formula_units_Z   16
loop_
 _symmetry_equiv_pos_site_id
 _symmetry_equiv_pos_as_xyz
  1  'x, y, z'
loop_
 _atom_site_type_symbol
 _atom_site_label
 _atom_site_symmetry_multiplicity
 _atom_site_fract_x
 _atom_site_fract_y
 _atom_site_fract_z
 _atom_site_occupancy
  Ag  Ag0  1  0.75683172  0.75649212  0.00091913  1
  Ag  Ag1  1  0.24552781  0.24572296  0.00260867  1
  Ag  Ag2  1  0.00101745  0.24181247  0.25705668  1
  Ag  Ag3  1  0.23936220  0.24555004  0.49671412  1
  Ag  Ag4  1  0.50322565  0.00195032  -0.00029719  1
  Ag  Ag5  1  -0.00706697  0.00213555  0.49310851  1
  Ag  Ag6  1  0.75984906  0.24158563  0.49886961  1
  Ag  Ag7  1  0.75954292  0.75951930  0.49896680  1
  Ag  Ag8  1  -0.00124306  0.50042348  0.00173664  1
  Ag  Ag9  1  -0.00228539  0.49792415  0.49766134  1
  Ag  Ag10  1  -0.00600868  0.75407525  0.74706347  1
  Ag  Ag11  1  0.23884270  0.00481801  0.25150868  1
  Ag  Ag12  1  -0.00486685  0.75825859  0.25447076  1
  Ag  Ag13  1  0.75434702  -0.00119414  0.74598705  1
  Ag  Ag14  1  0.50190806  0.24458673  0.74977209  1
  Ag  Ag15  1  0.75993502  -0.00135374  0.25538613  1
  Sb  Sb16  1  0.24392319  0.75213132  0.00340704  1
  Sb  Sb17  1  0.50207826  0.49654934  0.50118924  1
  Sb  Sb18  1  0.24265139  0.49434671  0.25078045  1
  Sb  Sb19  1  0.50200443  0.49840575  -0.00137821  1
  Sb  Sb20  1  0.75325565  0.24502417  0.00102055  1
  Sb  Sb21  1  0.50600617  0.00185935  0.50082810  1
  Sb  Sb22  1  0.24628603  0.00235617  0.74853838  1
  Sb  Sb23  1  0.49958451  0.24554499  0.25001552  1
  Sb  Sb24  1  0.50631438  0.75519704  0.75130897  1
  Sb  Sb25  1  0.75426951  0.50092575  0.74898267  1
  Sb  Sb26  1  -0.00126863  0.00013717  0.00541209  1
  Sb  Sb27  1  0.23930048  0.75298301  0.49659689  1
  Sb  Sb28  1  0.24503690  0.49757106  0.74939775  1
  Sb  Sb29  1  -0.00108654  0.24648628  0.74486864  1
  Sb  Sb30  1  0.75556913  0.50069965  0.25110740  1
  Sb  Sb31  1  0.50548842  0.75613574  0.24953469  1
  Te  Te32  1  0.24744947  0.24523430  0.25113123  1
  Te  Te33  1  0.25276024  0.24876465  0.75008836  1
  Te  Te34  1  0.24427812  0.75932674  0.25049544  1
  Te  Te35  1  0.24380073  0.74952431  0.74963072  1
  Te  Te36  1  0.75381395  0.24546472  0.25272382  1
  Te  Te37  1  0.74750393  0.24483910  0.74819476  1
  Te  Te38  1  0.75393564  0.75352851  0.25108690  1
  Te  Te39  1  0.75347469  0.75385636  0.74909554  1
  Te  Te40  1  0.25336106  0.00424294  0.00218256  1
  Te  Te41  1  0.24796440  0.00400555  0.49695948  1
  Te  Te42  1  0.24456025  0.49488914  -0.00014942  1
  Te  Te43  1  0.24376125  0.49419057  0.49968498  1
  Te  Te44  1  0.74835018  -0.00239286  -0.00009633  1
  Te  Te45  1  0.75044875  0.00089341  0.49842002  1
  Te  Te46  1  0.75530270  0.50729206  -0.00007800  1
  Te  Te47  1  0.75526609  0.49774116  0.49990199  1
  Te  Te48  1  0.00273529  0.25368646  0.00088355  1
  Te  Te49  1  -0.00131641  0.24812618  0.50109875  1
  Te  Te50  1  -0.00224407  0.74842191  0.00163202  1
  Te  Te51  1  -0.00156347  0.75131819  0.49684223  1
  Te  Te52  1  0.49769884  0.24792839  -0.00227754  1
  Te  Te53  1  0.50089603  0.25133357  0.50351288  1
  Te  Te54  1  0.50538651  0.75322043  -0.00123505  1
  Te  Te55  1  0.50897330  0.74750892  0.50152354  1
  Te  Te56  1  -0.00174287  0.00202142  0.25133480  1
  Te  Te57  1  -0.00510534  -0.00473401  0.74494083  1
  Te  Te58  1  0.00029769  0.49881084  0.25159927  1
  Te  Te59  1  -0.00093867  0.50643170  0.74942533  1
  Te  Te60  1  0.50122693  -0.00098846  0.24439089  1
  Te  Te61  1  0.50438701  0.00388805  0.75434243  1
  Te  Te62  1  0.49754661  0.50214988  0.24920402  1
  Te  Te63  1  0.49939923  0.49081570  0.75036736  1
