# generated using pymatgen
data_AgSbTe2
_symmetry_space_group_name_H-M   'P 1'
_cell_length_a   12.23054045
_cell_length_b   12.21108642
_cell_length_c   12.23020870
_cell_angle_alpha   89.99866578
_cell_angle_beta   90.00466152
_cell_angle_gamma   89.98901449
_symmetry_Int_Tables_number   1
_chemical_formula_structural   AgSbTe2
_chemical_formula_sum   'Ag16 Sb16 Te32'
_cell_volume   1826.55944772
_cell_formula_units_Z   16
loop_
 _symmetry_equiv_pos_site_id
 _symmetry_equiv_pos_as_xyz
  1  'x, y, z'
loop_
 _atom_site_type_symbol
 _atom_site_label
 _atom_site_symmetry_multiplicity
 _atom_site_fract_x
 _atom_site_fract_y
 _atom_site_fract_z
 _atom_site_occupancy
  Ag  Ag0  1  0.25123295  0.50263909  0.75566842  1
  Ag  Ag1  1  0.49837210  -0.00983200  0.49751304  1
  Ag  Ag2  1  0.25056444  0.25387271  -0.00142466  1
  Ag  Ag3  1  0.50212441  0.74635262  0.75248720  1
  Ag  Ag4  1  -0.00250942  0.50325131  -0.00231889  1
  Ag  Ag5  1  0.74282910  0.74794257  0.49641810  1
  Ag  Ag6  1  0.49893741  -0.00989290  0.00255386  1
  Ag  Ag7  1  0.74300778  0.74256630  0.00335810  1
  Ag  Ag8  1  -0.00277836  0.74738449  0.24722050  1
  Ag  Ag9  1  0.25775279  0.75047932  0.49758728  1
  Ag  Ag10  1  0.50291681  0.75076796  0.24806667  1
  Ag  Ag11  1  0.00187348  0.25619188  0.75448803  1
  Ag  Ag12  1  0.50394255  0.50931096  -0.00199210  1
  Ag  Ag13  1  0.25490966  -0.00599783  0.24873068  1
  Ag  Ag14  1  0.74834504  0.50893343  0.24334752  1
  Ag  Ag15  1  0.74823505  0.50582666  0.75701050  1
  Sb  Sb16  1  0.25726208  0.74832016  0.00087448  1
  Sb  Sb17  1  0.00158256  0.25284424  0.24655727  1
  Sb  Sb18  1  0.49976100  0.25000604  0.24756967  1
  Sb  Sb19  1  0.74499007  -0.00978385  0.24857734  1
  Sb  Sb20  1  0.50048541  0.50938859  0.50166201  1
  Sb  Sb21  1  0.74832366  0.25204406  0.50194262  1
  Sb  Sb22  1  0.00100280  -0.00331884  0.00225332  1
  Sb  Sb23  1  0.25144361  0.50518216  0.24568373  1
  Sb  Sb24  1  -0.00054041  0.50312373  0.50097307  1
  Sb  Sb25  1  0.74745392  -0.00602405  0.75132056  1
  Sb  Sb26  1  0.49947117  0.25520310  0.75282236  1
  Sb  Sb27  1  0.74981212  0.25741388  -0.00163350  1
  Sb  Sb28  1  0.00062166  -0.00480274  0.49827535  1
  Sb  Sb29  1  0.25313346  -0.00276173  0.75075526  1
  Sb  Sb30  1  0.25127600  0.25029533  0.50115222  1
  Sb  Sb31  1  -0.00082028  0.74534033  0.75383036  1
  Te  Te32  1  0.24892053  0.24449317  0.24631379  1
  Te  Te33  1  0.24822619  0.25534223  0.75304591  1
  Te  Te34  1  0.25244897  0.75165775  0.25236047  1
  Te  Te35  1  0.25113695  0.74561115  0.74598149  1
  Te  Te36  1  0.75218681  0.26135445  0.25153198  1
  Te  Te37  1  0.75397928  0.25922732  0.74908782  1
  Te  Te38  1  0.74727650  0.74766025  0.24936989  1
  Te  Te39  1  0.74908166  0.74577276  0.75060953  1
  Te  Te40  1  0.25314028  0.00297264  0.00214676  1
  Te  Te41  1  0.25337407  -0.00380686  0.49754442  1
  Te  Te42  1  0.25023619  0.49819776  -0.00227921  1
  Te  Te43  1  0.25061930  0.50365727  0.50563326  1
  Te  Te44  1  0.74433491  -0.00560458  0.00058021  1
  Te  Te45  1  0.74481336  -0.00624645  0.49988171  1
  Te  Te46  1  0.74816925  0.50164128  -0.00112018  1
  Te  Te47  1  0.74916648  0.50476209  0.50050704  1
  Te  Te48  1  0.00335582  0.25315240  -0.00295357  1
  Te  Te49  1  -0.00010145  0.24911710  0.50631504  1
  Te  Te50  1  -0.00498198  0.74601932  0.00324098  1
  Te  Te51  1  -0.00106426  0.75058564  0.49469091  1
  Te  Te52  1  0.49573471  0.24981275  -0.00073947  1
  Te  Te53  1  0.49995418  0.23608170  0.49990492  1
  Te  Te54  1  0.49999658  0.74867694  -0.00004173  1
  Te  Te55  1  0.50031190  0.75128027  0.49912229  1
  Te  Te56  1  0.00616783  -0.00531311  0.24912795  1
  Te  Te57  1  -0.00062213  0.00858049  0.75087784  1
  Te  Te58  1  -0.00131386  0.50484862  0.24551547  1
  Te  Te59  1  0.00059040  0.49938475  0.75395557  1
  Te  Te60  1  0.49747889  -0.00324291  0.24683764  1
  Te  Te61  1  0.50009520  -0.00613591  0.75300054  1
  Te  Te62  1  0.50194450  0.50375713  0.24643717  1
  Te  Te63  1  0.50032832  0.50443559  0.75218319  1
