# generated using pymatgen
data_AgSbTe2
_symmetry_space_group_name_H-M   'P 1'
_cell_length_a   12.29210383
_cell_length_b   12.29303915
_cell_length_c   12.29514758
_cell_angle_alpha   90.01548898
_cell_angle_beta   89.99031295
_cell_angle_gamma   89.99684040
_symmetry_Int_Tables_number   1
_chemical_formula_structural   AgSbTe2
_chemical_formula_sum   'Ag16 Sb16 Te32'
_cell_volume   1857.88662415
_cell_formula_units_Z   16
loop_
 _symmetry_equiv_pos_site_id
 _symmetry_equiv_pos_as_xyz
  1  'x, y, z'
loop_
 _atom_site_type_symbol
 _atom_site_label
 _atom_site_symmetry_multiplicity
 _atom_site_fract_x
 _atom_site_fract_y
 _atom_site_fract_z
 _atom_site_occupancy
  Ag  Ag0  1  0.00725651  0.23913953  0.76217500  1
  Ag  Ag1  1  0.26696600  -0.00009728  0.75877425  1
  Ag  Ag2  1  0.49347343  0.23053593  0.75616967  1
  Ag  Ag3  1  0.00320046  0.75350066  0.24337742  1
  Ag  Ag4  1  0.49026838  -0.00331051  0.52237083  1
  Ag  Ag5  1  0.48520321  0.00071582  -0.01993324  1
  Ag  Ag6  1  0.01375184  0.00623671  -0.01199880  1
  Ag  Ag7  1  0.49216134  0.77079927  0.75281091  1
  Ag  Ag8  1  0.24136574  0.23588158  -0.00729550  1
  Ag  Ag9  1  0.00199055  0.24669537  0.23631340  1
  Ag  Ag10  1  0.00338907  0.49466426  0.00374412  1
  Ag  Ag11  1  0.00859019  -0.00084419  0.51248469  1
  Ag  Ag12  1  0.24828205  0.76135364  0.50784581  1
  Ag  Ag13  1  0.75820317  0.50021151  0.24549001  1
  Ag  Ag14  1  0.24585090  0.76491895  -0.00519789  1
  Ag  Ag15  1  0.73025449  0.00086032  0.75237169  1
  Sb  Sb16  1  0.00169468  0.50124776  0.49968822  1
  Sb  Sb17  1  0.75427920  0.50129150  0.75147536  1
  Sb  Sb18  1  0.24609112  0.50054342  0.24826851  1
  Sb  Sb19  1  0.75594979  0.75291085  -0.00152310  1
  Sb  Sb20  1  0.49608467  0.49992556  -0.00173053  1
  Sb  Sb21  1  0.24609743  0.00073030  0.24313224  1
  Sb  Sb22  1  0.75065303  0.24714341  0.50101214  1
  Sb  Sb23  1  0.24811953  0.23730553  0.50835000  1
  Sb  Sb24  1  0.75843123  0.24851333  -0.00074281  1
  Sb  Sb25  1  0.75411005  -0.00020463  0.24710556  1
  Sb  Sb26  1  0.24691020  0.49887583  0.75028202  1
  Sb  Sb27  1  0.75325139  0.75409200  0.50140273  1
  Sb  Sb28  1  0.49628660  0.24567952  0.24302853  1
  Sb  Sb29  1  0.49666235  0.75213039  0.24771587  1
  Sb  Sb30  1  0.49807950  0.50331750  0.50232264  1
  Sb  Sb31  1  0.00775816  0.76435503  0.75427024  1
  Te  Te32  1  0.24418005  0.24976726  0.24080069  1
  Te  Te33  1  0.24787212  0.25013524  0.75239804  1
  Te  Te34  1  0.24528973  0.75106615  0.24366084  1
  Te  Te35  1  0.25132905  0.75022769  0.75416448  1
  Te  Te36  1  0.75820280  0.25093438  0.24943876  1
  Te  Te37  1  0.74889552  0.24611528  0.75052609  1
  Te  Te38  1  0.75846446  0.75010747  0.24994593  1
  Te  Te39  1  0.73741250  0.75251215  0.75050971  1
  Te  Te40  1  0.24823590  -0.00139331  -0.00149394  1
  Te  Te41  1  0.24718764  -0.00404292  0.50354094  1
  Te  Te42  1  0.24358774  0.50247047  -0.00043977  1
  Te  Te43  1  0.25062080  0.51957313  0.49884684  1
  Te  Te44  1  0.74796305  0.00003574  -0.00613028  1
  Te  Te45  1  0.75294031  0.00018770  0.50826095  1
  Te  Te46  1  0.75854916  0.50040616  0.00335047  1
  Te  Te47  1  0.75005276  0.50054356  0.49352807  1
  Te  Te48  1  0.00152031  0.24292319  -0.00064498  1
  Te  Te49  1  0.00276488  0.24484026  0.50076209  1
  Te  Te50  1  0.00383762  0.75561661  -0.00117992  1
  Te  Te51  1  0.00299138  0.75258418  0.49999070  1
  Te  Te52  1  0.49251450  0.24964226  -0.00092930  1
  Te  Te53  1  0.49660113  0.24496728  0.50350164  1
  Te  Te54  1  0.49138855  0.74946945  0.00164615  1
  Te  Te55  1  0.49519602  0.75316805  0.49692362  1
  Te  Te56  1  0.00061485  0.00149971  0.24931949  1
  Te  Te57  1  0.00488545  0.00002795  0.75113618  1
  Te  Te58  1  0.00023885  0.49802478  0.24899378  1
  Te  Te59  1  -0.00198013  0.48301033  0.75357916  1
  Te  Te60  1  0.50551172  0.00274634  0.25143471  1
  Te  Te61  1  0.49929080  0.00028033  0.75126361  1
  Te  Te62  1  0.51048264  0.49814408  0.25044141  1
  Te  Te63  1  0.50269161  0.49529017  0.74929387  1
