# generated using pymatgen
data_AgSbTe2
_symmetry_space_group_name_H-M   'P 1'
_cell_length_a   12.28678286
_cell_length_b   12.30511780
_cell_length_c   12.28513394
_cell_angle_alpha   90.00458075
_cell_angle_beta   90.00651278
_cell_angle_gamma   90.00145238
_symmetry_Int_Tables_number   1
_chemical_formula_structural   AgSbTe2
_chemical_formula_sum   'Ag16 Sb16 Te32'
_cell_volume   1857.39319462
_cell_formula_units_Z   16
loop_
 _symmetry_equiv_pos_site_id
 _symmetry_equiv_pos_as_xyz
  1  'x, y, z'
loop_
 _atom_site_type_symbol
 _atom_site_label
 _atom_site_symmetry_multiplicity
 _atom_site_fract_x
 _atom_site_fract_y
 _atom_site_fract_z
 _atom_site_occupancy
  Ag  Ag0  1  0.01751030  -0.00531912  0.48570876  1
  Ag  Ag1  1  0.01048894  0.24052721  0.24608686  1
  Ag  Ag2  1  0.00336571  0.75400079  0.75444527  1
  Ag  Ag3  1  0.24086453  -0.00044045  0.24921990  1
  Ag  Ag4  1  0.48035478  -0.00137560  0.49244660  1
  Ag  Ag5  1  0.75958497  0.24073920  0.00571245  1
  Ag  Ag6  1  0.24124524  0.23439459  0.48525085  1
  Ag  Ag7  1  0.48466183  -0.00058622  0.00676364  1
  Ag  Ag8  1  0.00887770  0.50584394  0.49143358  1
  Ag  Ag9  1  0.01405559  -0.00654671  0.01198260  1
  Ag  Ag10  1  0.24072277  0.23235763  0.01457326  1
  Ag  Ag11  1  0.01041678  0.76003749  0.24698510  1
  Ag  Ag12  1  0.24205623  0.50080223  0.25220458  1
  Ag  Ag13  1  0.23693517  0.76719879  0.01299538  1
  Ag  Ag14  1  0.23909604  0.76479418  0.48704207  1
  Ag  Ag15  1  0.76528857  0.75932038  0.00287299  1
  Sb  Sb16  1  0.76136005  0.50106346  0.24961155  1
  Sb  Sb17  1  0.24824139  -0.00152887  0.75023894  1
  Sb  Sb18  1  0.75852640  0.50287041  0.75133477  1
  Sb  Sb19  1  0.00344596  0.50607235  0.00791813  1
  Sb  Sb20  1  0.49895580  0.24705630  0.75065708  1
  Sb  Sb21  1  0.48674444  0.75448726  0.24962037  1
  Sb  Sb22  1  0.00057965  0.24541710  0.75418570  1
  Sb  Sb23  1  0.48648575  0.24541495  0.25000535  1
  Sb  Sb24  1  0.24478783  0.50181345  0.74764147  1
  Sb  Sb25  1  0.48635676  0.50172283  0.49536458  1
  Sb  Sb26  1  0.76317699  0.75341576  0.49403744  1
  Sb  Sb27  1  0.76024197  0.24506051  0.49095120  1
  Sb  Sb28  1  0.75314339  -0.00187277  0.75353479  1
  Sb  Sb29  1  0.76347669  -0.00079587  0.24606698  1
  Sb  Sb30  1  0.49492464  0.50068924  0.00305362  1
  Sb  Sb31  1  0.49587637  0.75256374  0.75124305  1
  Te  Te32  1  0.24330218  0.24220991  0.24927860  1
  Te  Te33  1  0.24829994  0.25571955  0.75224445  1
  Te  Te34  1  0.24459007  0.75773525  0.24954794  1
  Te  Te35  1  0.24313467  0.74715616  0.75205169  1
  Te  Te36  1  0.76541286  0.25062331  0.24270614  1
  Te  Te37  1  0.75009540  0.25213171  0.76667604  1
  Te  Te38  1  0.76403661  0.74938224  0.24291822  1
  Te  Te39  1  0.75934692  0.74890600  0.76183629  1
  Te  Te40  1  0.24602893  -0.00074167  -0.00531961  1
  Te  Te41  1  0.24613498  -0.00036939  0.50645197  1
  Te  Te42  1  0.25117263  0.49891749  0.00792929  1
  Te  Te43  1  0.24634667  0.50034589  0.49493823  1
  Te  Te44  1  0.75087748  -0.00087631  0.00420271  1
  Te  Te45  1  0.74627315  0.00151256  0.49793050  1
  Te  Te46  1  0.74703531  0.49923551  0.00202440  1
  Te  Te47  1  0.75613221  0.49890680  0.49891029  1
  Te  Te48  1  0.00600197  0.25071871  -0.00205741  1
  Te  Te49  1  0.00227694  0.24168799  0.50217448  1
  Te  Te50  1  0.00452332  0.74778751  0.00516030  1
  Te  Te51  1  0.00188934  0.75800765  0.49359266  1
  Te  Te52  1  0.49657610  0.24104111  0.00059287  1
  Te  Te53  1  0.49467195  0.24330296  0.49987169  1
  Te  Te54  1  0.49734653  0.75831247  -0.00014659  1
  Te  Te55  1  0.49404214  0.75619090  0.50060740  1
  Te  Te56  1  0.00727199  -0.00013002  0.24778659  1
  Te  Te57  1  -0.00193231  -0.00658985  0.75061173  1
  Te  Te58  1  0.00783553  0.49927812  0.25435593  1
  Te  Te59  1  0.00095638  0.51109779  0.73375221  1
  Te  Te60  1  0.48559899  -0.00057833  0.24961138  1
  Te  Te61  1  0.50412771  -0.00051807  0.74947814  1
  Te  Te62  1  0.48644481  0.50023679  0.25106681  1
  Te  Te63  1  0.50229932  0.50016109  0.74802581  1
