# generated using pymatgen
data_AgSbTe2
_symmetry_space_group_name_H-M   'P 1'
_cell_length_a   12.22561865
_cell_length_b   12.24115000
_cell_length_c   12.23423085
_cell_angle_alpha   89.99342752
_cell_angle_beta   90.00429960
_cell_angle_gamma   90.00670450
_symmetry_Int_Tables_number   1
_chemical_formula_structural   AgSbTe2
_chemical_formula_sum   'Ag16 Sb16 Te32'
_cell_volume   1830.92151679
_cell_formula_units_Z   16
loop_
 _symmetry_equiv_pos_site_id
 _symmetry_equiv_pos_as_xyz
  1  'x, y, z'
loop_
 _atom_site_type_symbol
 _atom_site_label
 _atom_site_symmetry_multiplicity
 _atom_site_fract_x
 _atom_site_fract_y
 _atom_site_fract_z
 _atom_site_occupancy
  Ag  Ag0  1  0.00337875  0.50124682  0.01453742  1
  Ag  Ag1  1  0.24559127  0.74935480  0.00361643  1
  Ag  Ag2  1  0.00167741  0.25047930  0.74489118  1
  Ag  Ag3  1  0.76433922  0.49624116  0.24969352  1
  Ag  Ag4  1  0.24431373  -0.00086416  0.75319097  1
  Ag  Ag5  1  0.00006769  0.49430160  0.48623801  1
  Ag  Ag6  1  0.00114366  0.26343035  0.25413490  1
  Ag  Ag7  1  0.00207513  0.00574993  0.49670500  1
  Ag  Ag8  1  0.24445345  0.00097467  0.24663217  1
  Ag  Ag9  1  0.49801294  0.25300738  0.24753706  1
  Ag  Ag10  1  0.00438907  0.73564784  0.24862543  1
  Ag  Ag11  1  0.00451571  0.74937894  0.75129779  1
  Ag  Ag12  1  0.23605072  0.49918490  0.24546576  1
  Ag  Ag13  1  0.49246842  0.00143984  0.00378188  1
  Ag  Ag14  1  0.49587735  0.49889042  0.00675377  1
  Ag  Ag15  1  0.75803656  0.25175155  0.49514384  1
  Sb  Sb16  1  0.00616125  -0.00092192  0.00216171  1
  Sb  Sb17  1  0.75255242  0.25132136  0.00355739  1
  Sb  Sb18  1  0.75647302  0.00204506  0.74946723  1
  Sb  Sb19  1  0.75646312  0.74783053  0.49745188  1
  Sb  Sb20  1  0.75590233  0.00272639  0.25090630  1
  Sb  Sb21  1  0.24510015  0.74976385  0.49643051  1
  Sb  Sb22  1  0.75538057  0.74818755  0.00198732  1
  Sb  Sb23  1  0.49829202  0.24896273  0.75176141  1
  Sb  Sb24  1  0.49439072  0.75133241  0.75531374  1
  Sb  Sb25  1  0.24473274  0.50037057  0.75493477  1
  Sb  Sb26  1  0.75421555  0.49822582  0.75022957  1
  Sb  Sb27  1  0.24854083  0.25157293  0.00348492  1
  Sb  Sb28  1  0.24159018  0.25031218  0.49658099  1
  Sb  Sb29  1  0.49896979  0.49567585  0.49214994  1
  Sb  Sb30  1  0.49581935  0.74855145  0.24719142  1
  Sb  Sb31  1  0.49711979  0.00460990  0.49624721  1
  Te  Te32  1  0.24902915  0.24912052  0.25034838  1
  Te  Te33  1  0.24496860  0.24464697  0.74935252  1
  Te  Te34  1  0.24626922  0.75100101  0.24724996  1
  Te  Te35  1  0.24430986  0.75326499  0.75449605  1
  Te  Te36  1  0.75262572  0.25241763  0.25190720  1
  Te  Te37  1  0.75602302  0.24923437  0.74332257  1
  Te  Te38  1  0.75740344  0.74404568  0.24926025  1
  Te  Te39  1  0.75992842  0.75057114  0.74979058  1
  Te  Te40  1  0.25180253  -0.00308263  0.00355174  1
  Te  Te41  1  0.24526666  -0.00055515  0.49785548  1
  Te  Te42  1  0.24770433  0.50258994  0.00304697  1
  Te  Te43  1  0.24653030  0.50047464  0.49344491  1
  Te  Te44  1  0.73602996  -0.00060954  -0.00007759  1
  Te  Te45  1  0.75583125  0.00418717  0.50021065  1
  Te  Te46  1  0.75065720  0.50071109  0.00459684  1
  Te  Te47  1  0.75299104  0.49722457  0.49597499  1
  Te  Te48  1  -0.00209813  0.25380193  0.00139999  1
  Te  Te49  1  -0.00101605  0.25088891  0.49787581  1
  Te  Te50  1  0.00382757  0.74869378  0.00138341  1
  Te  Te51  1  0.00005582  0.74969728  0.49948903  1
  Te  Te52  1  0.50253409  0.25237058  0.00370268  1
  Te  Te53  1  0.50953926  0.25064458  0.49494598  1
  Te  Te54  1  0.49418877  0.74797698  -0.00090741  1
  Te  Te55  1  0.50278714  0.74997168  0.50256171  1
  Te  Te56  1  0.00285915  0.00215502  0.25037300  1
  Te  Te57  1  0.00345435  0.00112430  0.75105761  1
  Te  Te58  1  0.00230404  0.49860613  0.24895326  1
  Te  Te59  1  0.00123210  0.49885899  0.74982999  1
  Te  Te60  1  0.49584855  0.00149637  0.24847781  1
  Te  Te61  1  0.49241325  0.00084379  0.75304137  1
  Te  Te62  1  0.49718822  0.49764234  0.24662182  1
  Te  Te63  1  0.49941628  0.49920294  0.75876102  1
