# generated using pymatgen
data_AgSbTe2
_symmetry_space_group_name_H-M   'P 1'
_cell_length_a   12.25785708
_cell_length_b   12.26158733
_cell_length_c   12.25324341
_cell_angle_alpha   90.00453443
_cell_angle_beta   89.99994646
_cell_angle_gamma   90.00010216
_symmetry_Int_Tables_number   1
_chemical_formula_structural   AgSbTe2
_chemical_formula_sum   'Ag16 Sb16 Te32'
_cell_volume   1841.67209913
_cell_formula_units_Z   16
loop_
 _symmetry_equiv_pos_site_id
 _symmetry_equiv_pos_as_xyz
  1  'x, y, z'
loop_
 _atom_site_type_symbol
 _atom_site_label
 _atom_site_symmetry_multiplicity
 _atom_site_fract_x
 _atom_site_fract_y
 _atom_site_fract_z
 _atom_site_occupancy
  Ag  Ag0  1  0.75389616  0.74014307  0.50487166  1
  Ag  Ag1  1  -0.00667083  -0.00109810  -0.00147415  1
  Ag  Ag2  1  0.75765209  0.26034691  -0.00377060  1
  Ag  Ag3  1  0.24610310  0.74013046  0.50224680  1
  Ag  Ag4  1  0.75212548  0.73901847  -0.00485212  1
  Ag  Ag5  1  0.24386269  0.50333708  0.74867562  1
  Ag  Ag6  1  -0.00282544  0.49732279  0.50334151  1
  Ag  Ag7  1  0.50178157  0.74490472  0.24612757  1
  Ag  Ag8  1  0.75564172  0.50146484  0.75558703  1
  Ag  Ag9  1  0.24813762  0.74153020  -0.00162702  1
  Ag  Ag10  1  0.24055304  0.26106509  0.50116263  1
  Ag  Ag11  1  0.75450423  -0.00183198  0.75451866  1
  Ag  Ag12  1  0.75867077  0.26026007  0.50367482  1
  Ag  Ag13  1  -0.00364065  0.25465019  0.25080389  1
  Ag  Ag14  1  -0.00899715  0.50087955  -0.00452832  1
  Ag  Ag15  1  0.50839077  0.50606290  -0.00165686  1
  Sb  Sb16  1  0.50705621  -0.00672318  0.00016087  1
  Sb  Sb17  1  -0.00172626  0.74512164  0.24790551  1
  Sb  Sb18  1  0.23861246  0.26315588  -0.00307913  1
  Sb  Sb19  1  -0.00343033  0.74628629  0.75282926  1
  Sb  Sb20  1  0.24211617  -0.00299127  0.75286153  1
  Sb  Sb21  1  0.24908934  0.50049025  0.25445487  1
  Sb  Sb22  1  -0.00318338  0.25393615  0.74773253  1
  Sb  Sb23  1  0.75348098  -0.00062613  0.24347887  1
  Sb  Sb24  1  0.50207056  0.74715942  0.75526051  1
  Sb  Sb25  1  0.75043697  0.50076629  0.24277385  1
  Sb  Sb26  1  0.50271508  -0.00227638  0.50010290  1
  Sb  Sb27  1  0.50230584  0.25271399  0.75270677  1
  Sb  Sb28  1  0.50468287  0.50286905  0.50121750  1
  Sb  Sb29  1  0.24674090  -0.00033741  0.24729947  1
  Sb  Sb30  1  -0.00400480  0.00219442  0.50289602  1
  Sb  Sb31  1  0.50192483  0.25667158  0.24741743  1
  Te  Te32  1  0.24701698  0.24876701  0.26020470  1
  Te  Te33  1  0.25261905  0.25559664  0.74158730  1
  Te  Te34  1  0.25268708  0.75058720  0.25158846  1
  Te  Te35  1  0.25263440  0.74528915  0.74711654  1
  Te  Te36  1  0.75265973  0.24817003  0.25319445  1
  Te  Te37  1  0.74966866  0.25613091  0.74878385  1
  Te  Te38  1  0.74817137  0.75160078  0.25184435  1
  Te  Te39  1  0.74930095  0.74401841  0.74952089  1
  Te  Te40  1  0.24275067  -0.01090422  -0.00593382  1
  Te  Te41  1  0.24731377  -0.00493893  0.50663491  1
  Te  Te42  1  0.24383714  0.50279023  -0.00737373  1
  Te  Te43  1  0.25077990  0.50360823  0.50471310  1
  Te  Te44  1  0.75389656  -0.00185834  -0.00476472  1
  Te  Te45  1  0.75419279  -0.00155909  0.51054076  1
  Te  Te46  1  0.75644891  0.50258091  -0.00208992  1
  Te  Te47  1  0.74843195  0.50100061  0.50603600  1
  Te  Te48  1  -0.00266546  0.25652960  0.00386629  1
  Te  Te49  1  -0.00403767  0.25187874  0.49742893  1
  Te  Te50  1  -0.00212148  0.74377252  0.00463216  1
  Te  Te51  1  -0.00072095  0.74639137  0.49336650  1
  Te  Te52  1  0.50975607  0.25674927  0.00561055  1
  Te  Te53  1  0.50348380  0.25085326  0.49317383  1
  Te  Te54  1  0.50154764  0.74652843  0.00306767  1
  Te  Te55  1  0.50039611  0.74721366  0.49109047  1
  Te  Te56  1  -0.00087261  0.01187853  0.23782753  1
  Te  Te57  1  -0.00921655  0.00090571  0.76014617  1
  Te  Te58  1  0.00076640  0.49337148  0.25105989  1
  Te  Te59  1  -0.00205141  0.50004197  0.75038400  1
  Te  Te60  1  0.49912189  -0.01299793  0.24872244  1
  Te  Te61  1  0.51611949  0.00208089  0.75126187  1
  Te  Te62  1  0.49826797  0.50732025  0.23621177  1
  Te  Te63  1  0.50174424  0.50000586  0.76142698  1
