# generated using pymatgen
data_AgSbTe2
_symmetry_space_group_name_H-M   'P 1'
_cell_length_a   12.31812718
_cell_length_b   12.33027965
_cell_length_c   12.30490678
_cell_angle_alpha   89.99803045
_cell_angle_beta   90.00751582
_cell_angle_gamma   89.99708954
_symmetry_Int_Tables_number   1
_chemical_formula_structural   AgSbTe2
_chemical_formula_sum   'Ag16 Sb16 Te32'
_cell_volume   1868.94247282
_cell_formula_units_Z   16
loop_
 _symmetry_equiv_pos_site_id
 _symmetry_equiv_pos_as_xyz
  1  'x, y, z'
loop_
 _atom_site_type_symbol
 _atom_site_label
 _atom_site_symmetry_multiplicity
 _atom_site_fract_x
 _atom_site_fract_y
 _atom_site_fract_z
 _atom_site_occupancy
  Ag  Ag0  1  0.74898735  0.75259512  0.01900597  1
  Ag  Ag1  1  0.50098938  0.00792768  0.49448697  1
  Ag  Ag2  1  0.74834120  0.01865460  0.26010136  1
  Ag  Ag3  1  0.25453772  0.49291460  0.73027040  1
  Ag  Ag4  1  0.74627175  0.24753277  0.02331588  1
  Ag  Ag5  1  0.51718516  0.24564825  0.26116608  1
  Ag  Ag6  1  0.25193926  0.01660104  0.25949272  1
  Ag  Ag7  1  0.49981135  0.24946226  0.73305580  1
  Ag  Ag8  1  0.25202496  0.75670827  0.49316285  1
  Ag  Ag9  1  0.74793427  0.76244139  0.48906077  1
  Ag  Ag10  1  0.25904576  0.24338779  0.48511760  1
  Ag  Ag11  1  0.73947295  0.23727254  0.48533306  1
  Ag  Ag12  1  -0.00182187  0.00599673  0.49392392  1
  Ag  Ag13  1  -0.02012070  0.24567099  0.25705315  1
  Ag  Ag14  1  0.74820188  0.48017990  0.25501726  1
  Ag  Ag15  1  0.25199399  0.48382425  0.25791390  1
  Sb  Sb16  1  0.00144366  0.49584145  0.49691907  1
  Sb  Sb17  1  -0.00136066  0.24860547  0.74385679  1
  Sb  Sb18  1  0.25128857  0.74963459  0.00678858  1
  Sb  Sb19  1  -0.00176080  0.49749678  0.00428327  1
  Sb  Sb20  1  -0.00349451  0.00474909  0.00849041  1
  Sb  Sb21  1  0.25281238  0.25031646  0.01089995  1
  Sb  Sb22  1  0.00036845  0.75010904  0.74454042  1
  Sb  Sb23  1  0.25341130  0.00446900  0.73561318  1
  Sb  Sb24  1  0.49834436  0.49334659  0.49727975  1
  Sb  Sb25  1  0.50241131  0.75319713  0.25465763  1
  Sb  Sb26  1  0.49870186  0.74991694  0.74215159  1
  Sb  Sb27  1  0.74686486  0.49652137  0.74373768  1
  Sb  Sb28  1  -0.00225950  0.75366677  0.25279791  1
  Sb  Sb29  1  0.50310128  0.00406604  0.00736264  1
  Sb  Sb30  1  0.50089260  0.49769107  0.00389227  1
  Sb  Sb31  1  0.74851009  0.00083894  0.74039631  1
  Te  Te32  1  0.25389260  0.25029442  0.24877385  1
  Te  Te33  1  0.25050291  0.25086019  0.75230108  1
  Te  Te34  1  0.25091705  0.74516901  0.25292324  1
  Te  Te35  1  0.25118027  0.74494124  0.74729040  1
  Te  Te36  1  0.75000827  0.25122294  0.25228798  1
  Te  Te37  1  0.74891407  0.25170501  0.74460532  1
  Te  Te38  1  0.74887902  0.74796642  0.25453363  1
  Te  Te39  1  0.74948179  0.74774953  0.74207786  1
  Te  Te40  1  0.24878498  -0.00472235  0.01418321  1
  Te  Te41  1  0.25274864  0.00233355  0.49617351  1
  Te  Te42  1  0.24975865  0.50330906  0.01349873  1
  Te  Te43  1  0.25039951  0.49988721  0.49484013  1
  Te  Te44  1  0.75036850  0.00005851  0.00815177  1
  Te  Te45  1  0.74816498  0.00173371  0.49844761  1
  Te  Te46  1  0.74981092  0.50043142  0.00586971  1
  Te  Te47  1  0.74921538  0.50246679  0.49633739  1
  Te  Te48  1  -0.00718100  0.24890420  0.00431123  1
  Te  Te49  1  0.00219513  0.24847836  0.49746718  1
  Te  Te50  1  -0.01032624  0.75162205  -0.00212817  1
  Te  Te51  1  -0.00037561  0.75833297  0.49918198  1
  Te  Te52  1  0.50242298  0.24981988  0.00241554  1
  Te  Te53  1  0.49788882  0.24952625  0.49684436  1
  Te  Te54  1  0.50835707  0.75109124  -0.00410513  1
  Te  Te55  1  0.50042899  0.76195883  0.50019607  1
  Te  Te56  1  -0.00073265  0.00235612  0.25365662  1
  Te  Te57  1  0.00077758  -0.00166664  0.73965966  1
  Te  Te58  1  0.00071792  0.49118839  0.25158527  1
  Te  Te59  1  0.01406936  0.50100903  0.75040050  1
  Te  Te60  1  0.50113379  0.00068829  0.25249240  1
  Te  Te61  1  0.50011081  0.00882775  0.74309425  1
  Te  Te62  1  0.49972008  0.49278097  0.25189624  1
  Te  Te63  1  0.49369575  0.49239074  0.74959145  1
