# generated using pymatgen
data_AgSbTe2
_symmetry_space_group_name_H-M   'P 1'
_cell_length_a   12.25048396
_cell_length_b   12.23815455
_cell_length_c   12.25570518
_cell_angle_alpha   90.00000000
_cell_angle_beta   89.99999999
_cell_angle_gamma   89.99873583
_symmetry_Int_Tables_number   1
_chemical_formula_structural   AgSbTe2
_chemical_formula_sum   'Ag16 Sb16 Te32'
_cell_volume   1837.41596078
_cell_formula_units_Z   16
loop_
 _symmetry_equiv_pos_site_id
 _symmetry_equiv_pos_as_xyz
  1  'x, y, z'
loop_
 _atom_site_type_symbol
 _atom_site_label
 _atom_site_symmetry_multiplicity
 _atom_site_fract_x
 _atom_site_fract_y
 _atom_site_fract_z
 _atom_site_occupancy
  Ag  Ag0  1  0.75174325  0.24736814  -0.00000004  1
  Ag  Ag1  1  0.00588919  0.75279098  0.73175349  1
  Ag  Ag2  1  0.24921175  0.24316941  -0.00000001  1
  Ag  Ag3  1  0.49301817  0.75747946  0.74047169  1
  Ag  Ag4  1  0.00447141  0.51944483  0.49999999  1
  Ag  Ag5  1  0.01960005  -0.01801624  0.49999992  1
  Ag  Ag6  1  0.00588915  0.75279093  0.26824659  1
  Ag  Ag7  1  0.23505652  0.76749033  0.49999993  1
  Ag  Ag8  1  0.25182019  -0.00498484  0.26741144  1
  Ag  Ag9  1  0.49301814  0.75747956  0.25952842  1
  Ag  Ag10  1  0.76579392  0.75375015  0.50000001  1
  Ag  Ag11  1  0.49273944  -0.00190805  -0.00000002  1
  Ag  Ag12  1  0.00266018  0.50244218  -0.00000000  1
  Ag  Ag13  1  0.24739609  0.23048717  0.49999995  1
  Ag  Ag14  1  0.48142013  -0.00964967  0.49999995  1
  Ag  Ag15  1  0.25182025  -0.00498482  0.73258827  1
  Sb  Sb16  1  0.24696467  0.50838102  0.74959124  1
  Sb  Sb17  1  0.74800732  -0.00313748  0.74947676  1
  Sb  Sb18  1  0.74800732  -0.00313750  0.25052323  1
  Sb  Sb19  1  0.49640943  0.50107020  0.00000001  1
  Sb  Sb20  1  0.00428094  0.24426710  0.74928606  1
  Sb  Sb21  1  0.75188959  0.24682039  0.50000001  1
  Sb  Sb22  1  0.00771669  -0.00133181  -0.00000000  1
  Sb  Sb23  1  0.24696467  0.50838106  0.25040876  1
  Sb  Sb24  1  0.49493618  0.23911986  0.25076434  1
  Sb  Sb25  1  0.75328669  0.50274606  0.25015457  1
  Sb  Sb26  1  0.49493621  0.23911994  0.74923568  1
  Sb  Sb27  1  0.49392288  0.51442146  0.49999999  1
  Sb  Sb28  1  0.24945217  0.75804924  -0.00000001  1
  Sb  Sb29  1  0.75328668  0.50274605  0.74984542  1
  Sb  Sb30  1  0.75150975  0.75201163  0.00000001  1
  Sb  Sb31  1  0.00428095  0.24426710  0.25071393  1
  Te  Te32  1  0.25010898  0.23959827  0.25158095  1
  Te  Te33  1  0.25010895  0.23959841  0.74841909  1
  Te  Te34  1  0.24912883  0.75536409  0.25040607  1
  Te  Te35  1  0.24912888  0.75536397  0.74959398  1
  Te  Te36  1  0.74889551  0.25004564  0.24147403  1
  Te  Te37  1  0.74889551  0.25004566  0.75852602  1
  Te  Te38  1  0.75183678  0.75167028  0.25700829  1
  Te  Te39  1  0.75183668  0.75167028  0.74299169  1
  Te  Te40  1  0.25362980  0.00467320  0.00000015  1
  Te  Te41  1  0.25063653  -0.00042780  0.50000027  1
  Te  Te42  1  0.24404641  0.48574454  0.00000002  1
  Te  Te43  1  0.24360735  0.49838029  0.49999999  1
  Te  Te44  1  0.74079128  0.00575196  0.00000001  1
  Te  Te45  1  0.75004882  -0.00147155  0.49999999  1
  Te  Te46  1  0.75763845  0.49254424  -0.00000001  1
  Te  Te47  1  0.76055783  0.50120200  0.50000002  1
  Te  Te48  1  0.00315354  0.25386882  0.00000001  1
  Te  Te49  1  0.00263886  0.24841832  0.50000000  1
  Te  Te50  1  -0.00268157  0.74516854  0.00000004  1
  Te  Te51  1  0.00014799  0.75131360  0.49999985  1
  Te  Te52  1  0.49514193  0.24599445  0.00000001  1
  Te  Te53  1  0.49726822  0.24258081  0.49999997  1
  Te  Te54  1  0.50202512  0.75430602  -0.00000002  1
  Te  Te55  1  0.49749155  0.75086701  0.49999990  1
  Te  Te56  1  0.00618184  -0.00677022  0.25236762  1
  Te  Te57  1  0.00618171  -0.00677022  0.74763241  1
  Te  Te58  1  0.00186767  0.51079241  0.25073000  1
  Te  Te59  1  0.00186766  0.51079233  0.74927004  1
  Te  Te60  1  0.49568052  -0.00685261  0.25124985  1
  Te  Te61  1  0.49568056  -0.00685255  0.74875015  1
  Te  Te62  1  0.49952892  0.51722300  0.24859667  1
  Te  Te63  1  0.49952891  0.51722296  0.75140335  1
