# generated using pymatgen
data_AgSbTe2
_symmetry_space_group_name_H-M   'P 1'
_cell_length_a   12.30963250
_cell_length_b   12.28928207
_cell_length_c   12.29843710
_cell_angle_alpha   90.00517736
_cell_angle_beta   89.99781013
_cell_angle_gamma   90.00165205
_symmetry_Int_Tables_number   1
_chemical_formula_structural   AgSbTe2
_chemical_formula_sum   'Ag16 Sb16 Te32'
_cell_volume   1860.46507557
_cell_formula_units_Z   16
loop_
 _symmetry_equiv_pos_site_id
 _symmetry_equiv_pos_as_xyz
  1  'x, y, z'
loop_
 _atom_site_type_symbol
 _atom_site_label
 _atom_site_symmetry_multiplicity
 _atom_site_fract_x
 _atom_site_fract_y
 _atom_site_fract_z
 _atom_site_occupancy
  Ag  Ag0  1  0.75135488  0.25370812  0.00805537  1
  Ag  Ag1  1  0.74815858  -0.00728663  0.25232969  1
  Ag  Ag2  1  0.49463577  0.50626029  0.00934540  1
  Ag  Ag3  1  0.48198456  0.74404420  0.25622191  1
  Ag  Ag4  1  0.25393350  0.25746179  0.49437307  1
  Ag  Ag5  1  0.73634674  0.74580567  0.48964443  1
  Ag  Ag6  1  0.74754651  0.25299527  0.49493882  1
  Ag  Ag7  1  0.49482087  0.50838326  0.49251525  1
  Ag  Ag8  1  0.49587711  0.74490962  0.74035804  1
  Ag  Ag9  1  0.26316395  0.74229319  0.48305170  1
  Ag  Ag10  1  -0.00188175  0.25545508  0.74915275  1
  Ag  Ag11  1  0.01861359  0.74682079  0.25133643  1
  Ag  Ag12  1  0.25113027  -0.01866561  0.25197229  1
  Ag  Ag13  1  0.25639579  0.74127481  0.01930752  1
  Ag  Ag14  1  0.25533832  0.51567542  0.25074903  1
  Ag  Ag15  1  0.00513061  0.50183752  0.00655385  1
  Sb  Sb16  1  0.74748380  0.74885478  0.00769728  1
  Sb  Sb17  1  0.00122912  0.74804624  0.74874439  1
  Sb  Sb18  1  0.74742469  0.50383701  0.25152585  1
  Sb  Sb19  1  0.50009570  -0.00642519  0.49756758  1
  Sb  Sb20  1  0.74927348  -0.00079499  0.74897788  1
  Sb  Sb21  1  0.25060630  0.50118780  0.74758719  1
  Sb  Sb22  1  0.74980007  0.50122317  0.74899604  1
  Sb  Sb23  1  -0.00045426  0.25301904  0.25042539  1
  Sb  Sb24  1  0.25026901  -0.00230713  0.74706522  1
  Sb  Sb25  1  0.00064268  -0.00143268  0.00472689  1
  Sb  Sb26  1  0.50026408  0.25548014  0.74657187  1
  Sb  Sb27  1  0.49974022  0.25293220  0.25189210  1
  Sb  Sb28  1  0.49899069  -0.00546370  0.00470040  1
  Sb  Sb29  1  0.00016075  -0.00056568  0.49712902  1
  Sb  Sb30  1  0.00197962  0.50133501  0.49569975  1
  Sb  Sb31  1  0.25217301  0.25402712  0.00595965  1
  Te  Te32  1  0.25110372  0.24920844  0.25557017  1
  Te  Te33  1  0.24904741  0.24829691  0.74002154  1
  Te  Te34  1  0.24738988  0.74838225  0.24828289  1
  Te  Te35  1  0.25007853  0.75193346  0.74566362  1
  Te  Te36  1  0.74832332  0.24697031  0.25474240  1
  Te  Te37  1  0.74986046  0.24930588  0.74175416  1
  Te  Te38  1  0.75000286  0.75150587  0.25379884  1
  Te  Te39  1  0.75004803  0.75153004  0.73713451  1
  Te  Te40  1  0.25077781  -0.00369446  0.00648267  1
  Te  Te41  1  0.25036390  0.00054547  0.49660976  1
  Te  Te42  1  0.25410212  0.50086591  0.00076454  1
  Te  Te43  1  0.25055497  0.50155006  0.49925397  1
  Te  Te44  1  0.74964676  0.00850356  0.00461345  1
  Te  Te45  1  0.74973504  0.00474620  0.49652734  1
  Te  Te46  1  0.74699311  0.49640851  0.00038019  1
  Te  Te47  1  0.74830793  0.49860480  0.50027673  1
  Te  Te48  1  -0.00101249  0.25377519  0.00127068  1
  Te  Te49  1  -0.00483126  0.25156157  0.50016111  1
  Te  Te50  1  -0.00320301  0.74628917  -0.00211364  1
  Te  Te51  1  0.00001536  0.74937364  0.50081293  1
  Te  Te52  1  0.50201628  0.25988796  -0.00042253  1
  Te  Te53  1  0.50157674  0.25896528  0.49986093  1
  Te  Te54  1  0.50256631  0.74722132  0.00578035  1
  Te  Te55  1  0.50019952  0.74784466  0.49621076  1
  Te  Te56  1  0.00112202  -0.01043109  0.25112204  1
  Te  Te57  1  -0.00016388  0.01168155  0.75010059  1
  Te  Te58  1  0.00487117  0.50549949  0.24587291  1
  Te  Te59  1  -0.00072778  0.49442906  0.76168789  1
  Te  Te60  1  0.49944198  -0.00688884  0.25140857  1
  Te  Te61  1  0.49974099  -0.01481896  0.75035586  1
  Te  Te62  1  0.49836142  0.50149965  0.25100293  1
  Te  Te63  1  0.50146254  0.50552122  0.74983977  1
