# generated using pymatgen
data_AgSbTe2
_symmetry_space_group_name_H-M   'P 1'
_cell_length_a   12.26775402
_cell_length_b   12.26772321
_cell_length_c   12.28413638
_cell_angle_alpha   89.99910452
_cell_angle_beta   89.99685157
_cell_angle_gamma   89.99998258
_symmetry_Int_Tables_number   1
_chemical_formula_structural   AgSbTe2
_chemical_formula_sum   'Ag16 Sb16 Te32'
_cell_volume   1848.73071517
_cell_formula_units_Z   16
loop_
 _symmetry_equiv_pos_site_id
 _symmetry_equiv_pos_as_xyz
  1  'x, y, z'
loop_
 _atom_site_type_symbol
 _atom_site_label
 _atom_site_symmetry_multiplicity
 _atom_site_fract_x
 _atom_site_fract_y
 _atom_site_fract_z
 _atom_site_occupancy
  Ag  Ag0  1  0.49130553  0.24337155  0.24064399  1
  Ag  Ag1  1  0.00881192  0.23904575  0.24230741  1
  Ag  Ag2  1  0.01828206  0.00154559  0.50485201  1
  Ag  Ag3  1  0.00959310  0.76432041  0.75291819  1
  Ag  Ag4  1  0.00854323  0.76210118  0.24716966  1
  Ag  Ag5  1  0.48028709  0.00479842  0.49929636  1
  Ag  Ag6  1  0.48264518  0.00934335  0.00139705  1
  Ag  Ag7  1  0.01625419  0.00655181  -0.00446227  1
  Ag  Ag8  1  0.24303937  0.76704462  -0.00228343  1
  Ag  Ag9  1  0.24113786  0.00134300  0.75079331  1
  Ag  Ag10  1  0.24828576  0.23332282  0.00125688  1
  Ag  Ag11  1  0.00840187  0.23564580  0.75752299  1
  Ag  Ag12  1  0.49505041  0.48957636  0.00199587  1
  Ag  Ag13  1  0.24646170  0.23091508  0.49980278  1
  Ag  Ag14  1  0.75143501  0.24590847  0.00116872  1
  Ag  Ag15  1  0.24397593  0.76928395  0.50221681  1
  Sb  Sb16  1  0.00370787  0.49705358  0.49974027  1
  Sb  Sb17  1  0.24524889  0.00455592  0.24901338  1
  Sb  Sb18  1  0.00554225  0.49201232  0.00003730  1
  Sb  Sb19  1  0.75034617  0.49687207  0.75486961  1
  Sb  Sb20  1  0.76303661  0.00233827  0.75295297  1
  Sb  Sb21  1  0.75256670  0.24599182  0.49943066  1
  Sb  Sb22  1  0.25157055  0.49658482  0.24615054  1
  Sb  Sb23  1  0.74922187  0.49865607  0.24569580  1
  Sb  Sb24  1  0.75889624  0.75469614  -0.00062472  1
  Sb  Sb25  1  0.48879084  0.24420354  0.76023803  1
  Sb  Sb26  1  0.75332531  0.00076377  0.24650737  1
  Sb  Sb27  1  0.48699081  0.75609133  0.75043518  1
  Sb  Sb28  1  0.24972029  0.49675604  0.75280862  1
  Sb  Sb29  1  0.49482117  0.49196753  0.49625723  1
  Sb  Sb30  1  0.75839551  0.75480197  0.50033437  1
  Sb  Sb31  1  0.48844674  0.75964442  0.24760828  1
  Te  Te32  1  0.24689940  0.25172324  0.24846989  1
  Te  Te33  1  0.24430454  0.24478530  0.75034347  1
  Te  Te34  1  0.24207682  0.74440823  0.24872010  1
  Te  Te35  1  0.24342749  0.75626103  0.75183437  1
  Te  Te36  1  0.75330170  0.24955431  0.24333437  1
  Te  Te37  1  0.76635473  0.24872920  0.75685744  1
  Te  Te38  1  0.76773506  0.74760059  0.24944912  1
  Te  Te39  1  0.76882805  0.74894563  0.75089944  1
  Te  Te40  1  0.24740957  0.00127642  0.00424227  1
  Te  Te41  1  0.24790323  0.00192488  0.49594127  1
  Te  Te42  1  0.25717346  0.50087711  -0.00318751  1
  Te  Te43  1  0.25207940  0.50089822  0.50448210  1
  Te  Te44  1  0.74785870  0.00706589  -0.00290951  1
  Te  Te45  1  0.74593481  0.00091498  0.50407103  1
  Te  Te46  1  0.73614428  0.49009292  -0.00089413  1
  Te  Te47  1  0.74473802  0.50074105  0.50175317  1
  Te  Te48  1  0.00720700  0.25078224  0.00362635  1
  Te  Te49  1  0.00279019  0.24698162  0.49622787  1
  Te  Te50  1  0.00231333  0.75067072  0.00083012  1
  Te  Te51  1  0.00561661  0.75422075  0.49906566  1
  Te  Te52  1  0.49314707  0.24169556  0.00035628  1
  Te  Te53  1  0.49800831  0.24657158  0.49517585  1
  Te  Te54  1  0.49465384  0.75802347  0.00385589  1
  Te  Te55  1  0.49118852  0.75652125  0.49732053  1
  Te  Te56  1  -0.00225380  0.00362023  0.24861340  1
  Te  Te57  1  0.00693357  0.00208567  0.75177298  1
  Te  Te58  1  -0.00043579  0.49744584  0.25001590  1
  Te  Te59  1  0.00128290  0.50092399  0.75015955  1
  Te  Te60  1  0.50558881  0.00613170  0.24827761  1
  Te  Te61  1  0.48763260  0.00094606  0.75003805  1
  Te  Te62  1  0.49992405  0.48889572  0.24392959  1
  Te  Te63  1  0.50009553  0.50157680  0.75927631  1
