# generated using pymatgen
data_AgSbTe2
_symmetry_space_group_name_H-M   'P 1'
_cell_length_a   12.23511467
_cell_length_b   12.22937445
_cell_length_c   12.22440552
_cell_angle_alpha   89.98437176
_cell_angle_beta   89.99965700
_cell_angle_gamma   89.99577809
_symmetry_Int_Tables_number   1
_chemical_formula_structural   AgSbTe2
_chemical_formula_sum   'Ag16 Sb16 Te32'
_cell_volume   1829.11081519
_cell_formula_units_Z   16
loop_
 _symmetry_equiv_pos_site_id
 _symmetry_equiv_pos_as_xyz
  1  'x, y, z'
loop_
 _atom_site_type_symbol
 _atom_site_label
 _atom_site_symmetry_multiplicity
 _atom_site_fract_x
 _atom_site_fract_y
 _atom_site_fract_z
 _atom_site_occupancy
  Ag  Ag0  1  0.25509444  0.00315469  0.74540524  1
  Ag  Ag1  1  0.49885642  0.25401683  0.26472366  1
  Ag  Ag2  1  0.49972886  0.01393135  0.50749822  1
  Ag  Ag3  1  0.50239106  0.75222930  0.74704874  1
  Ag  Ag4  1  -0.00003962  0.24969562  0.74283218  1
  Ag  Ag5  1  0.26433473  0.25283549  0.50350449  1
  Ag  Ag6  1  0.49966340  0.49890284  -0.00443499  1
  Ag  Ag7  1  0.49999483  0.24714130  0.73604148  1
  Ag  Ag8  1  -0.00034449  0.74623536  0.25449816  1
  Ag  Ag9  1  0.00174000  0.49740483  0.50247584  1
  Ag  Ag10  1  0.74862132  0.74947420  -0.00564753  1
  Ag  Ag11  1  0.74539835  0.00023919  0.74714452  1
  Ag  Ag12  1  0.49818691  0.48565405  0.50222455  1
  Ag  Ag13  1  0.25323001  0.49819489  0.25550215  1
  Ag  Ag14  1  0.73516594  0.25051086  0.50509604  1
  Ag  Ag15  1  -0.00268064  0.75047660  0.74753160  1
  Sb  Sb16  1  0.74753320  0.49978023  0.25170941  1
  Sb  Sb17  1  -0.00125616  -0.00108430  -0.00306769  1
  Sb  Sb18  1  0.25279285  0.49763586  0.74581919  1
  Sb  Sb19  1  0.50063289  0.74723760  0.25195198  1
  Sb  Sb20  1  0.74900349  0.75004963  0.50447031  1
  Sb  Sb21  1  0.74745340  0.49978780  0.74904005  1
  Sb  Sb22  1  0.25018266  0.74691670  0.50148772  1
  Sb  Sb23  1  0.25237112  0.25167181  -0.00388789  1
  Sb  Sb24  1  0.00088794  0.50163685  -0.00174308  1
  Sb  Sb25  1  0.50148286  0.00033516  -0.00819395  1
  Sb  Sb26  1  0.74633299  0.24998684  -0.00554751  1
  Sb  Sb27  1  0.25300928  0.00112450  0.25525591  1
  Sb  Sb28  1  0.00071362  0.00250965  0.50412357  1
  Sb  Sb29  1  0.00055540  0.25323926  0.25811055  1
  Sb  Sb30  1  0.74755344  0.00037003  0.25326664  1
  Sb  Sb31  1  0.25179506  0.74807961  -0.00265603  1
  Te  Te32  1  0.25230770  0.25224948  0.25376126  1
  Te  Te33  1  0.25070941  0.24827113  0.74704314  1
  Te  Te34  1  0.24491101  0.74787365  0.24957194  1
  Te  Te35  1  0.24935851  0.75422588  0.74954372  1
  Te  Te36  1  0.74716855  0.24834301  0.25459615  1
  Te  Te37  1  0.74936420  0.24781669  0.74741453  1
  Te  Te38  1  0.75481189  0.75146663  0.24477083  1
  Te  Te39  1  0.75019722  0.75210378  0.75080351  1
  Te  Te40  1  0.24999742  -0.00004575  -0.00859990  1
  Te  Te41  1  0.25361201  0.00481493  0.50478567  1
  Te  Te42  1  0.25598937  0.49938064  0.00883030  1
  Te  Te43  1  0.25096379  0.49747630  0.49743586  1
  Te  Te44  1  0.74948480  -0.00471944  -0.00660274  1
  Te  Te45  1  0.74650753  0.00356130  0.50450553  1
  Te  Te46  1  0.74396571  0.50444578  0.00057596  1
  Te  Te47  1  0.74993201  0.49550720  0.49982383  1
  Te  Te48  1  -0.00046715  0.25092543  -0.00927003  1
  Te  Te49  1  0.00013241  0.25345029  0.50379014  1
  Te  Te50  1  -0.00395547  0.74871248  -0.00658306  1
  Te  Te51  1  -0.00033264  0.74530674  0.50376211  1
  Te  Te52  1  0.50086270  0.25497753  -0.00108972  1
  Te  Te53  1  0.50021223  0.25223724  0.50291587  1
  Te  Te54  1  0.50286499  0.74666402  -0.00302427  1
  Te  Te55  1  0.50073132  0.74803709  0.50447940  1
  Te  Te56  1  0.00056702  -0.00760291  0.24968597  1
  Te  Te57  1  -0.00102763  -0.00156716  0.74861790  1
  Te  Te58  1  0.00328547  0.50260686  0.25268046  1
  Te  Te59  1  0.00222854  0.50138518  0.74674891  1
  Te  Te60  1  0.49916779  0.00362842  0.25654624  1
  Te  Te61  1  0.50070868  -0.00000737  0.74857752  1
  Te  Te62  1  0.49780946  0.49880237  0.25509297  1
  Te  Te63  1  0.49754557  0.50029797  0.74722644  1
