# generated using pymatgen
data_AgSbTe2
_symmetry_space_group_name_H-M   'P 1'
_cell_length_a   12.23987974
_cell_length_b   12.23926355
_cell_length_c   12.22539824
_cell_angle_alpha   90.00432728
_cell_angle_beta   90.00686632
_cell_angle_gamma   89.99678582
_symmetry_Int_Tables_number   1
_chemical_formula_structural   AgSbTe2
_chemical_formula_sum   'Ag16 Sb16 Te32'
_cell_volume   1831.45160672
_cell_formula_units_Z   16
loop_
 _symmetry_equiv_pos_site_id
 _symmetry_equiv_pos_as_xyz
  1  'x, y, z'
loop_
 _atom_site_type_symbol
 _atom_site_label
 _atom_site_symmetry_multiplicity
 _atom_site_fract_x
 _atom_site_fract_y
 _atom_site_fract_z
 _atom_site_occupancy
  Ag  Ag0  1  -0.00360979  0.74923130  0.74156836  1
  Ag  Ag1  1  0.25077621  0.74943435  -0.00520418  1
  Ag  Ag2  1  0.50080654  -0.01485402  0.50331776  1
  Ag  Ag3  1  0.50103618  0.74782468  0.26527204  1
  Ag  Ag4  1  0.75209481  -0.00815345  0.74295861  1
  Ag  Ag5  1  -0.00102083  -0.00715446  0.50572571  1
  Ag  Ag6  1  -0.00498762  0.50733386  0.50476218  1
  Ag  Ag7  1  0.00140015  0.25079729  0.74438062  1
  Ag  Ag8  1  0.74834607  0.50478339  0.26163576  1
  Ag  Ag9  1  0.50562309  0.51391056  0.50193233  1
  Ag  Ag10  1  0.73837184  0.74490811  0.50651296  1
  Ag  Ag11  1  0.24779388  0.25079268  -0.00426407  1
  Ag  Ag12  1  0.75222930  0.50809639  0.74035930  1
  Ag  Ag13  1  0.24758325  0.25085504  0.50424017  1
  Ag  Ag14  1  0.26293783  0.74923561  0.50411822  1
  Ag  Ag15  1  0.50287145  0.74944093  0.73672439  1
  Sb  Sb16  1  0.00124124  0.25252828  0.25609493  1
  Sb  Sb17  1  0.74754937  -0.00537974  0.26081270  1
  Sb  Sb18  1  0.25154146  0.50238511  0.25504083  1
  Sb  Sb19  1  0.49879345  -0.00375378  -0.00499949  1
  Sb  Sb20  1  0.25158530  -0.00217061  0.25441140  1
  Sb  Sb21  1  0.49995400  0.25288853  0.25525173  1
  Sb  Sb22  1  -0.00111898  0.74795396  0.26110244  1
  Sb  Sb23  1  0.75336842  0.25533473  0.50253574  1
  Sb  Sb24  1  0.00143379  -0.00178779  -0.00760128  1
  Sb  Sb25  1  0.24768273  0.50278267  0.74524046  1
  Sb  Sb26  1  0.00077735  0.50129966  -0.00562176  1
  Sb  Sb27  1  0.49930086  0.50245054  -0.00339185  1
  Sb  Sb28  1  0.24799734  -0.00271810  0.74543964  1
  Sb  Sb29  1  0.75014916  0.74915624  -0.00699578  1
  Sb  Sb30  1  0.49806022  0.25099543  0.74563380  1
  Sb  Sb31  1  0.75213699  0.25129127  -0.00501436  1
  Te  Te32  1  0.24947941  0.25032832  0.24972488  1
  Te  Te33  1  0.24616059  0.25020348  0.74761244  1
  Te  Te34  1  0.25414220  0.74951570  0.25155171  1
  Te  Te35  1  0.25054686  0.74972625  0.74681214  1
  Te  Te36  1  0.74984480  0.25811019  0.24700244  1
  Te  Te37  1  0.75487798  0.25113491  0.75110284  1
  Te  Te38  1  0.74746874  0.74657366  0.25159874  1
  Te  Te39  1  0.75100000  0.74864625  0.74935262  1
  Te  Te40  1  0.24995295  -0.00045463  0.00151436  1
  Te  Te41  1  0.25010173  -0.00171335  0.50043622  1
  Te  Te42  1  0.24981913  0.50049884  0.00200610  1
  Te  Te43  1  0.24984958  0.50162860  0.50001402  1
  Te  Te44  1  0.75008256  0.00119833  -0.00840492  1
  Te  Te45  1  0.74992188  -0.00146070  0.50330981  1
  Te  Te46  1  0.75000470  0.49963847  -0.00113576  1
  Te  Te47  1  0.74958917  0.49973526  0.50273692  1
  Te  Te48  1  0.00625389  0.24955567  -0.00638450  1
  Te  Te49  1  0.00352182  0.25054134  0.50365753  1
  Te  Te50  1  0.00653284  0.75066532  -0.00768730  1
  Te  Te51  1  -0.00005861  0.74889943  0.50171595  1
  Te  Te52  1  0.49082291  0.24921107  0.00060021  1
  Te  Te53  1  0.49102665  0.25009850  0.49998827  1
  Te  Te54  1  0.49410783  0.75066769  -0.00231623  1
  Te  Te55  1  0.49961525  0.74887162  0.50235895  1
  Te  Te56  1  -0.00206032  0.00075957  0.25919488  1
  Te  Te57  1  -0.00249367  -0.00177762  0.74485456  1
  Te  Te58  1  -0.00714556  0.50000704  0.25753878  1
  Te  Te59  1  -0.00230081  0.50188781  0.74608107  1
  Te  Te60  1  0.50174395  -0.00579185  0.25714876  1
  Te  Te61  1  0.50528334  -0.00254322  0.74500961  1
  Te  Te62  1  0.50405624  0.50360548  0.25453017  1
  Te  Te63  1  0.50554688  0.50229391  0.74649543  1
