# generated using pymatgen
data_AgSbTe2
_symmetry_space_group_name_H-M   'P 1'
_cell_length_a   12.23913313
_cell_length_b   12.23427714
_cell_length_c   12.21237368
_cell_angle_alpha   89.99571300
_cell_angle_beta   89.99679517
_cell_angle_gamma   89.99913170
_symmetry_Int_Tables_number   1
_chemical_formula_structural   AgSbTe2
_chemical_formula_sum   'Ag16 Sb16 Te32'
_cell_volume   1828.64353898
_cell_formula_units_Z   16
loop_
 _symmetry_equiv_pos_site_id
 _symmetry_equiv_pos_as_xyz
  1  'x, y, z'
loop_
 _atom_site_type_symbol
 _atom_site_label
 _atom_site_symmetry_multiplicity
 _atom_site_fract_x
 _atom_site_fract_y
 _atom_site_fract_z
 _atom_site_occupancy
  Ag  Ag0  1  0.24581563  0.24805144  0.50061965  1
  Ag  Ag1  1  0.49602375  0.50519894  0.49618028  1
  Ag  Ag2  1  0.74808712  0.75346022  0.00412134  1
  Ag  Ag3  1  0.75409446  0.24815166  0.50102236  1
  Ag  Ag4  1  0.75020986  0.24695499  -0.00008486  1
  Ag  Ag5  1  0.00385820  0.50127309  0.49766244  1
  Ag  Ag6  1  0.24989848  0.50388370  0.25885605  1
  Ag  Ag7  1  0.49665133  -0.00504988  0.49929199  1
  Ag  Ag8  1  0.50037939  0.75058636  0.25787888  1
  Ag  Ag9  1  -0.00015238  0.74910733  0.25879454  1
  Ag  Ag10  1  0.24963988  0.00051204  0.74129110  1
  Ag  Ag11  1  0.74960945  0.75186825  0.49496956  1
  Ag  Ag12  1  0.25045852  0.75076848  0.49584992  1
  Ag  Ag13  1  0.50219971  -0.00279718  0.00079091  1
  Ag  Ag14  1  0.00357560  -0.00040579  0.50073224  1
  Ag  Ag15  1  -0.00014346  0.24778858  0.74153469  1
  Sb  Sb16  1  0.75021107  0.50315983  0.25485871  1
  Sb  Sb17  1  0.00080139  0.25032616  0.25788967  1
  Sb  Sb18  1  0.49948335  0.24954937  0.25391447  1
  Sb  Sb19  1  0.00085293  0.75198024  0.74031564  1
  Sb  Sb20  1  0.75060379  0.00090053  0.74595351  1
  Sb  Sb21  1  0.50026922  0.24705234  0.74655127  1
  Sb  Sb22  1  0.74915523  -0.00249789  0.25330177  1
  Sb  Sb23  1  -0.00075113  0.50091891  0.00295457  1
  Sb  Sb24  1  0.24772551  0.49926772  0.74038214  1
  Sb  Sb25  1  0.49956109  0.75221556  0.74114403  1
  Sb  Sb26  1  0.25078613  -0.00299921  0.25948811  1
  Sb  Sb27  1  0.24969664  0.24695916  -0.00112196  1
  Sb  Sb28  1  0.50111323  0.50276018  0.00457538  1
  Sb  Sb29  1  0.25162101  0.75322313  0.00357468  1
  Sb  Sb30  1  -0.00195731  -0.00103570  -0.00053395  1
  Sb  Sb31  1  0.75194831  0.49917609  0.74508654  1
  Te  Te32  1  0.24923946  0.25658962  0.25556377  1
  Te  Te33  1  0.24557203  0.24757411  0.74611504  1
  Te  Te34  1  0.25028582  0.74793328  0.25385061  1
  Te  Te35  1  0.24892550  0.75432107  0.74560759  1
  Te  Te36  1  0.75095978  0.25086072  0.25054559  1
  Te  Te37  1  0.75508982  0.25036872  0.74658884  1
  Te  Te38  1  0.74947120  0.74979495  0.25330799  1
  Te  Te39  1  0.75065903  0.74939999  0.75154789  1
  Te  Te40  1  0.25519683  0.00111835  -0.00757565  1
  Te  Te41  1  0.25129466  0.00052625  0.50095739  1
  Te  Te42  1  0.25102834  0.49935205  0.00700917  1
  Te  Te43  1  0.24968683  0.50095992  0.49879402  1
  Te  Te44  1  0.74587566  -0.00056398  -0.00187517  1
  Te  Te45  1  0.74836800  0.00022380  0.50148411  1
  Te  Te46  1  0.74932271  0.49958282  -0.00089093  1
  Te  Te47  1  0.75017928  0.49976947  0.50017771  1
  Te  Te48  1  -0.00618739  0.24920266  -0.00426377  1
  Te  Te49  1  -0.00176234  0.24850013  0.49970016  1
  Te  Te50  1  -0.00561437  0.75012171  0.00641274  1
  Te  Te51  1  -0.00193378  0.75037009  0.49879834  1
  Te  Te52  1  0.50641847  0.24629673  0.00094908  1
  Te  Te53  1  0.50228620  0.24732591  0.49872034  1
  Te  Te54  1  0.50372176  0.75240895  0.00541042  1
  Te  Te55  1  0.50173956  0.75234901  0.49827950  1
  Te  Te56  1  0.00107374  -0.00637248  0.25579274  1
  Te  Te57  1  0.00549686  0.00297572  0.74545576  1
  Te  Te58  1  0.00545807  0.50495166  0.25471449  1
  Te  Te59  1  0.00120030  0.49393202  0.74408673  1
  Te  Te60  1  0.49934927  -0.00548613  0.25177270  1
  Te  Te61  1  0.49326281  0.00026048  0.74773186  1
  Te  Te62  1  0.49461528  0.50536614  0.25584501  1
  Te  Te63  1  0.49839462  0.49967761  0.74154024  1
