# generated using pymatgen
data_AgSbTe2
_symmetry_space_group_name_H-M   'P 1'
_cell_length_a   12.23324099
_cell_length_b   12.22496194
_cell_length_c   12.24752947
_cell_angle_alpha   90.00307944
_cell_angle_beta   90.00046815
_cell_angle_gamma   90.01797174
_symmetry_Int_Tables_number   1
_chemical_formula_structural   AgSbTe2
_chemical_formula_sum   'Ag16 Sb16 Te32'
_cell_volume   1831.62902913
_cell_formula_units_Z   16
loop_
 _symmetry_equiv_pos_site_id
 _symmetry_equiv_pos_as_xyz
  1  'x, y, z'
loop_
 _atom_site_type_symbol
 _atom_site_label
 _atom_site_symmetry_multiplicity
 _atom_site_fract_x
 _atom_site_fract_y
 _atom_site_fract_z
 _atom_site_occupancy
  Ag  Ag0  1  -0.00321772  0.00945495  0.49346869  1
  Ag  Ag1  1  0.24539852  0.48941057  0.24744667  1
  Ag  Ag2  1  0.75301921  0.75543461  0.00293899  1
  Ag  Ag3  1  0.24047042  0.25079619  0.00641578  1
  Ag  Ag4  1  0.00659270  0.24275663  0.25008905  1
  Ag  Ag5  1  0.75842520  0.24118329  0.49751092  1
  Ag  Ag6  1  0.24185457  0.24551928  0.49364206  1
  Ag  Ag7  1  0.00295856  0.24634259  0.74998275  1
  Ag  Ag8  1  0.75641195  0.00337152  0.25359936  1
  Ag  Ag9  1  0.50179253  0.00321191  0.49465112  1
  Ag  Ag10  1  0.00491382  0.49070880  0.00236761  1
  Ag  Ag11  1  0.24297133  0.00837329  0.25233921  1
  Ag  Ag12  1  -0.00107497  0.00734551  0.00645510  1
  Ag  Ag13  1  0.50004097  0.75563723  0.24983027  1
  Ag  Ag14  1  0.24482844  0.49251316  0.75251202  1
  Ag  Ag15  1  0.75567244  0.00369822  0.74713186  1
  Sb  Sb16  1  0.75959865  0.24561106  0.00162947  1
  Sb  Sb17  1  0.24522514  0.00601368  0.74908580  1
  Sb  Sb18  1  0.00278968  0.48993411  0.49775019  1
  Sb  Sb19  1  0.49879207  0.24758047  0.74818658  1
  Sb  Sb20  1  0.49409601  0.24641132  0.25215779  1
  Sb  Sb21  1  0.24969829  0.75439434  0.49734175  1
  Sb  Sb22  1  0.49592262  0.49989396  0.00256663  1
  Sb  Sb23  1  0.50115834  0.75378886  0.75010333  1
  Sb  Sb24  1  0.74939698  0.75959635  0.49822247  1
  Sb  Sb25  1  0.75469730  0.49635929  0.75211308  1
  Sb  Sb26  1  0.49702227  0.49797968  0.49709541  1
  Sb  Sb27  1  0.50130499  0.00010578  0.00369422  1
  Sb  Sb28  1  0.24764049  0.75027710  0.00286623  1
  Sb  Sb29  1  0.75358604  0.49753150  0.24842452  1
  Sb  Sb30  1  -0.00107918  0.75352923  0.75186566  1
  Sb  Sb31  1  -0.00034889  0.75732114  0.24801378  1
  Te  Te32  1  0.24883630  0.24747848  0.25097262  1
  Te  Te33  1  0.24635201  0.25172274  0.74927689  1
  Te  Te34  1  0.25344322  0.75267262  0.25037635  1
  Te  Te35  1  0.25093296  0.73873214  0.74931218  1
  Te  Te36  1  0.75333659  0.24659612  0.25247886  1
  Te  Te37  1  0.75409663  0.24532756  0.74818758  1
  Te  Te38  1  0.74741790  0.75191270  0.24723567  1
  Te  Te39  1  0.74932497  0.75450606  0.75412102  1
  Te  Te40  1  0.24703029  0.00195470  0.00113981  1
  Te  Te41  1  0.24831402  0.00352360  0.49921537  1
  Te  Te42  1  0.24635612  0.49909817  0.00402192  1
  Te  Te43  1  0.25023737  0.49450906  0.49647290  1
  Te  Te44  1  0.75157360  -0.00064369  0.00260876  1
  Te  Te45  1  0.75300370  0.00243987  0.49645884  1
  Te  Te46  1  0.75520971  0.50407462  0.00015040  1
  Te  Te47  1  0.74936030  0.49151192  0.50089019  1
  Te  Te48  1  0.00215065  0.24783569  0.00166046  1
  Te  Te49  1  0.00154497  0.24774094  0.49827093  1
  Te  Te50  1  -0.00430541  0.75302555  -0.00021527  1
  Te  Te51  1  -0.00086882  0.76051204  0.50097297  1
  Te  Te52  1  0.48780287  0.25049396  -0.00065415  1
  Te  Te53  1  0.49970050  0.24506462  0.49977196  1
  Te  Te54  1  0.50669943  0.75010996  0.00499688  1
  Te  Te55  1  0.50057285  0.75628584  0.49436792  1
  Te  Te56  1  0.00078818  0.00178707  0.24838378  1
  Te  Te57  1  -0.00248639  0.00340928  0.75173804  1
  Te  Te58  1  0.00426612  0.49587559  0.24723205  1
  Te  Te59  1  0.00360441  0.49550592  0.75285484  1
  Te  Te60  1  0.50022478  -0.00206983  0.25288945  1
  Te  Te61  1  0.50695361  -0.00073447  0.74332413  1
  Te  Te62  1  0.49522295  0.50684008  0.25029970  1
  Te  Te63  1  0.49274482  0.50081546  0.74968861  1
