# generated using pymatgen
data_AgSbTe2
_symmetry_space_group_name_H-M   'P 1'
_cell_length_a   12.25567857
_cell_length_b   12.25016176
_cell_length_c   12.23016668
_cell_angle_alpha   89.99996034
_cell_angle_beta   90.01143860
_cell_angle_gamma   89.99399259
_symmetry_Int_Tables_number   1
_chemical_formula_structural   AgSbTe2
_chemical_formula_sum   'Ag16 Sb16 Te32'
_cell_volume   1836.16434870
_cell_formula_units_Z   16
loop_
 _symmetry_equiv_pos_site_id
 _symmetry_equiv_pos_as_xyz
  1  'x, y, z'
loop_
 _atom_site_type_symbol
 _atom_site_label
 _atom_site_symmetry_multiplicity
 _atom_site_fract_x
 _atom_site_fract_y
 _atom_site_fract_z
 _atom_site_occupancy
  Ag  Ag0  1  0.24859927  0.49789564  0.75961886  1
  Ag  Ag1  1  0.48530757  -0.00102611  -0.00226238  1
  Ag  Ag2  1  0.00065521  0.24849392  0.75795350  1
  Ag  Ag3  1  0.49334874  0.50038516  -0.00376319  1
  Ag  Ag4  1  0.25420887  -0.00107934  0.23442565  1
  Ag  Ag5  1  0.49808906  0.75494463  0.24455059  1
  Ag  Ag6  1  0.25392033  0.76486969  -0.00177631  1
  Ag  Ag7  1  0.74815280  0.00233329  0.75725696  1
  Ag  Ag8  1  0.75144340  0.49778327  0.75693854  1
  Ag  Ag9  1  0.75321655  0.24657627  -0.00651306  1
  Ag  Ag10  1  0.24731455  0.23702422  -0.00461219  1
  Ag  Ag11  1  0.00629284  0.49369617  -0.00654149  1
  Ag  Ag12  1  0.01461611  0.00481814  -0.00511843  1
  Ag  Ag13  1  0.74546680  0.75320310  0.50346343  1
  Ag  Ag14  1  0.25124430  0.00202124  0.76336527  1
  Ag  Ag15  1  0.49989368  -0.00404950  0.50353651  1
  Sb  Sb16  1  0.00206827  0.24798918  0.23959322  1
  Sb  Sb17  1  -0.00058859  0.50027186  0.50819783  1
  Sb  Sb18  1  0.74677146  0.75175984  -0.00140776  1
  Sb  Sb19  1  0.49849188  0.24642318  0.24326799  1
  Sb  Sb20  1  0.74786844  -0.00080661  0.24329076  1
  Sb  Sb21  1  0.25049384  0.24692944  0.50525588  1
  Sb  Sb22  1  0.49845349  0.24785339  0.75443966  1
  Sb  Sb23  1  0.74911794  0.24838034  0.50856249  1
  Sb  Sb24  1  0.25199755  0.75320217  0.50178322  1
  Sb  Sb25  1  -0.00004117  0.75129289  0.75391139  1
  Sb  Sb26  1  0.50102010  0.50319318  0.50314101  1
  Sb  Sb27  1  0.25206639  0.50011624  0.23760232  1
  Sb  Sb28  1  0.49988685  0.75308715  0.75359733  1
  Sb  Sb29  1  0.74805775  0.50158406  0.24199162  1
  Sb  Sb30  1  0.00180534  0.75172670  0.24438302  1
  Sb  Sb31  1  0.00002354  -0.00002492  0.50490474  1
  Te  Te32  1  0.24910300  0.24587498  0.24570809  1
  Te  Te33  1  0.24750769  0.24874967  0.75332389  1
  Te  Te34  1  0.25297455  0.75275427  0.24829750  1
  Te  Te35  1  0.24954353  0.75094691  0.75300306  1
  Te  Te36  1  0.75068686  0.25110277  0.24174278  1
  Te  Te37  1  0.75304197  0.24874920  0.75522639  1
  Te  Te38  1  0.74544458  0.74933267  0.25592345  1
  Te  Te39  1  0.75023568  0.75099731  0.74671642  1
  Te  Te40  1  0.25123785  -0.00094923  -0.00311538  1
  Te  Te41  1  0.25367613  -0.00038425  0.50424842  1
  Te  Te42  1  0.25176233  0.49882510  -0.00238449  1
  Te  Te43  1  0.25093786  0.49992054  0.51001359  1
  Te  Te44  1  0.74894306  -0.00000586  -0.00376811  1
  Te  Te45  1  0.74788167  -0.00117203  0.50423844  1
  Te  Te46  1  0.74879096  0.50130903  -0.00414921  1
  Te  Te47  1  0.74885853  0.50136811  0.50803304  1
  Te  Te48  1  0.00042242  0.24918298  -0.00303507  1
  Te  Te49  1  -0.00045903  0.25118091  0.50886102  1
  Te  Te50  1  0.00544833  0.75131807  0.00151751  1
  Te  Te51  1  -0.00873924  0.74889312  0.49674512  1
  Te  Te52  1  0.49952773  0.25005728  0.00120892  1
  Te  Te53  1  0.49997654  0.24125487  0.49587661  1
  Te  Te54  1  0.49716191  0.75152569  0.00331009  1
  Te  Te55  1  0.50300196  0.75455894  0.49356908  1
  Te  Te56  1  0.00552145  0.00087546  0.24562405  1
  Te  Te57  1  -0.00015387  0.00130098  0.75275150  1
  Te  Te58  1  -0.00011012  0.49943859  0.24318249  1
  Te  Te59  1  -0.00001443  0.49875875  0.75442582  1
  Te  Te60  1  0.49781282  -0.00251435  0.24517926  1
  Te  Te61  1  0.50043807  -0.00016339  0.75363592  1
  Te  Te62  1  0.50017624  0.50596871  0.24627345  1
  Te  Te63  1  0.50009981  0.50007633  0.75477936  1
