# generated using pymatgen
data_AgSbTe2
_symmetry_space_group_name_H-M   'P 1'
_cell_length_a   12.21436222
_cell_length_b   12.20819802
_cell_length_c   12.20243849
_cell_angle_alpha   89.98893126
_cell_angle_beta   90.00718310
_cell_angle_gamma   90.00709260
_symmetry_Int_Tables_number   1
_chemical_formula_structural   AgSbTe2
_chemical_formula_sum   'Ag16 Sb16 Te32'
_cell_volume   1819.57085665
_cell_formula_units_Z   16
loop_
 _symmetry_equiv_pos_site_id
 _symmetry_equiv_pos_as_xyz
  1  'x, y, z'
loop_
 _atom_site_type_symbol
 _atom_site_label
 _atom_site_symmetry_multiplicity
 _atom_site_fract_x
 _atom_site_fract_y
 _atom_site_fract_z
 _atom_site_occupancy
  Ag  Ag0  1  0.50263075  -0.00388286  0.49657913  1
  Ag  Ag1  1  0.00078661  0.24541995  0.24914717  1
  Ag  Ag2  1  0.75331068  -0.00161905  0.25303373  1
  Ag  Ag3  1  0.24982803  0.75050834  0.49820257  1
  Ag  Ag4  1  0.49898865  0.24777325  0.24916984  1
  Ag  Ag5  1  0.25110040  0.50202352  0.74937915  1
  Ag  Ag6  1  0.75180949  0.50174549  0.25235590  1
  Ag  Ag7  1  0.49986334  0.75090803  0.74630406  1
  Ag  Ag8  1  -0.00223904  0.75331482  0.25387403  1
  Ag  Ag9  1  0.49843551  0.49957569  0.00203831  1
  Ag  Ag10  1  0.75005307  0.75324842  0.49604313  1
  Ag  Ag11  1  0.24648142  0.00148575  0.25052453  1
  Ag  Ag12  1  0.25003562  0.24961094  0.00498733  1
  Ag  Ag13  1  0.74888564  -0.00366962  0.74697330  1
  Ag  Ag14  1  0.00004381  0.50402951  0.49520237  1
  Ag  Ag15  1  0.00026624  0.00055891  0.00760528  1
  Sb  Sb16  1  0.25066955  -0.00218676  0.74932090  1
  Sb  Sb17  1  0.75024594  0.24925179  0.00464095  1
  Sb  Sb18  1  -0.00191745  -0.00349982  0.49116593  1
  Sb  Sb19  1  0.50007707  0.50307902  0.49815985  1
  Sb  Sb20  1  0.49956175  0.00096097  0.00368874  1
  Sb  Sb21  1  -0.00008077  0.75134260  0.74608327  1
  Sb  Sb22  1  0.75009162  0.24639006  0.49582175  1
  Sb  Sb23  1  0.50156093  0.75163908  0.25336759  1
  Sb  Sb24  1  0.25015221  0.75036188  0.00241764  1
  Sb  Sb25  1  0.00186687  0.24814118  0.74998175  1
  Sb  Sb26  1  0.24964091  0.24847897  0.49498186  1
  Sb  Sb27  1  0.49815411  0.24927821  0.75096045  1
  Sb  Sb28  1  0.74993492  0.75118937  0.00467482  1
  Sb  Sb29  1  0.00109579  0.49909701  0.00477759  1
  Sb  Sb30  1  0.24895779  0.49894989  0.25086296  1
  Sb  Sb31  1  0.74934009  0.50398370  0.74736100  1
  Te  Te32  1  0.24979437  0.24715562  0.24693060  1
  Te  Te33  1  0.24995548  0.25496718  0.75656605  1
  Te  Te34  1  0.24775386  0.75389157  0.25450852  1
  Te  Te35  1  0.25292416  0.74712513  0.74485504  1
  Te  Te36  1  0.75054023  0.24843156  0.24988987  1
  Te  Te37  1  0.74972171  0.24220852  0.75007812  1
  Te  Te38  1  0.75157683  0.75164585  0.25413130  1
  Te  Te39  1  0.74685494  0.75366364  0.74390943  1
  Te  Te40  1  0.24746760  0.00308973  0.00309347  1
  Te  Te41  1  0.25251729  -0.00395517  0.49717467  1
  Te  Te42  1  0.25285001  0.49721064  -0.00292616  1
  Te  Te43  1  0.24834742  0.50468128  0.50277491  1
  Te  Te44  1  0.75347152  -0.00048423  0.00300184  1
  Te  Te45  1  0.74854235  -0.00394575  0.49631414  1
  Te  Te46  1  0.74546858  0.50025747  0.00482333  1
  Te  Te47  1  0.75212482  0.50550087  0.49607661  1
  Te  Te48  1  0.00504191  0.24723283  0.00607350  1
  Te  Te49  1  0.00100493  0.25717895  0.49298970  1
  Te  Te50  1  0.00059429  0.75448950  0.00753370  1
  Te  Te51  1  0.00005496  0.74732943  0.49552316  1
  Te  Te52  1  0.49488925  0.25316059  0.00479851  1
  Te  Te53  1  0.49896254  0.24360434  0.49335065  1
  Te  Te54  1  0.49929932  0.74455442  -0.00681937  1
  Te  Te55  1  0.50006918  0.75340154  0.50239165  1
  Te  Te56  1  -0.00122455  0.00074480  0.24978377  1
  Te  Te57  1  -0.00461357  0.00053653  0.75713113  1
  Te  Te58  1  -0.00288174  0.50054203  0.25161454  1
  Te  Te59  1  0.00333545  0.49981546  0.74616252  1
  Te  Te60  1  0.50153433  0.00193252  0.25132229  1
  Te  Te61  1  0.50309171  -0.00258945  0.74737386  1
  Te  Te62  1  0.50348295  0.49721386  0.24735852  1
  Te  Te63  1  0.49781631  0.50192047  0.75252329  1
