# generated using pymatgen
data_AgSbTe2
_symmetry_space_group_name_H-M   'P 1'
_cell_length_a   12.26900014
_cell_length_b   12.28506194
_cell_length_c   12.27624088
_cell_angle_alpha   89.98868646
_cell_angle_beta   90.00634922
_cell_angle_gamma   89.99514820
_symmetry_Int_Tables_number   1
_chemical_formula_structural   AgSbTe2
_chemical_formula_sum   'Ag16 Sb16 Te32'
_cell_volume   1850.34159008
_cell_formula_units_Z   16
loop_
 _symmetry_equiv_pos_site_id
 _symmetry_equiv_pos_as_xyz
  1  'x, y, z'
loop_
 _atom_site_type_symbol
 _atom_site_label
 _atom_site_symmetry_multiplicity
 _atom_site_fract_x
 _atom_site_fract_y
 _atom_site_fract_z
 _atom_site_occupancy
  Ag  Ag0  1  -0.01678254  0.00762552  0.00027329  1
  Ag  Ag1  1  0.74648434  0.75559982  0.50323000  1
  Ag  Ag2  1  0.74822877  0.49877972  0.75991032  1
  Ag  Ag3  1  0.51034367  0.24055623  0.23617056  1
  Ag  Ag4  1  -0.00867472  0.74810867  0.75450261  1
  Ag  Ag5  1  0.50877200  0.24950903  0.76368413  1
  Ag  Ag6  1  0.50922203  0.76064848  0.24656348  1
  Ag  Ag7  1  0.74105277  0.00469511  0.23781653  1
  Ag  Ag8  1  0.74483952  0.00177650  0.76194340  1
  Ag  Ag9  1  -0.01086981  0.49447934  -0.00531311  1
  Ag  Ag10  1  -0.01248924  0.24567550  0.23861503  1
  Ag  Ag11  1  0.51088366  0.48875571  -0.00553412  1
  Ag  Ag12  1  0.50954728  0.00005365  0.49532753  1
  Ag  Ag13  1  0.51641452  0.01218544  0.00397848  1
  Ag  Ag14  1  0.74268497  0.24245551  0.00033777  1
  Ag  Ag15  1  0.25264107  0.49922007  0.75524592  1
  Sb  Sb16  1  -0.01144367  0.75413511  0.24632311  1
  Sb  Sb17  1  0.74847790  0.49563687  0.23679710  1
  Sb  Sb18  1  0.25914636  0.24985974  -0.00109798  1
  Sb  Sb19  1  0.74891704  0.24716820  0.49977344  1
  Sb  Sb20  1  0.50664189  0.75095204  0.75284921  1
  Sb  Sb21  1  0.74920877  0.75744932  -0.00266551  1
  Sb  Sb22  1  -0.00585440  0.49877613  0.50659686  1
  Sb  Sb23  1  0.25094452  0.25008792  0.50184544  1
  Sb  Sb24  1  0.50448390  0.50039509  0.50364063  1
  Sb  Sb25  1  -0.01050242  0.25024144  0.76284871  1
  Sb  Sb26  1  0.25536539  0.74994677  0.50351126  1
  Sb  Sb27  1  -0.01096564  -0.00011122  0.50044546  1
  Sb  Sb28  1  0.25153859  0.50001847  0.24365126  1
  Sb  Sb29  1  0.25350750  0.00118356  0.75136665  1
  Sb  Sb30  1  0.25149665  0.74963547  -0.00274815  1
  Sb  Sb31  1  0.25881659  0.00013836  0.24925732  1
  Te  Te32  1  0.25344721  0.25041401  0.25074795  1
  Te  Te33  1  0.26255835  0.25486801  0.74897751  1
  Te  Te34  1  0.26285404  0.74844591  0.25250822  1
  Te  Te35  1  0.23741699  0.74456406  0.74928143  1
  Te  Te36  1  0.74568168  0.24820458  0.24962523  1
  Te  Te37  1  0.74566463  0.24665811  0.75061472  1
  Te  Te38  1  0.74614709  0.75496951  0.25524153  1
  Te  Te39  1  0.75259467  0.75349212  0.74964688  1
  Te  Te40  1  0.24629102  -0.00008088  -0.00119671  1
  Te  Te41  1  0.26640199  0.00040055  0.50126920  1
  Te  Te42  1  0.25005682  0.49988715  -0.00670346  1
  Te  Te43  1  0.24971109  0.50026496  0.51457653  1
  Te  Te44  1  0.74824549  0.00075432  -0.00189648  1
  Te  Te45  1  0.74446005  -0.00177289  0.50321347  1
  Te  Te46  1  0.74829064  0.49572340  -0.00359315  1
  Te  Te47  1  0.74946091  0.50813700  0.51516613  1
  Te  Te48  1  -0.00657150  0.24818343  0.00300866  1
  Te  Te49  1  -0.00013184  0.24890250  0.48082366  1
  Te  Te50  1  -0.00130733  0.74829841  -0.00328077  1
  Te  Te51  1  -0.00608112  0.75089306  0.50379325  1
  Te  Te52  1  0.50429247  0.24918224  0.00015184  1
  Te  Te53  1  0.50263046  0.24559772  0.49661664  1
  Te  Te54  1  0.50193348  0.74909758  0.00402691  1
  Te  Te55  1  0.50425894  0.75236172  0.49703274  1
  Te  Te56  1  -0.00436628  -0.00063912  0.24605543  1
  Te  Te57  1  -0.00171879  0.00324106  0.75286859  1
  Te  Te58  1  0.00010878  0.49892318  0.23916746  1
  Te  Te59  1  -0.00855019  0.49599996  0.75510216  1
  Te  Te60  1  0.50296605  0.00418559  0.24230901  1
  Te  Te61  1  0.50210377  -0.00247517  0.75788897  1
  Te  Te62  1  0.50088849  0.49464798  0.24334320  1
  Te  Te63  1  0.50818469  0.50303236  0.75446662  1
