# generated using pymatgen
data_AgSbTe2
_symmetry_space_group_name_H-M   'P 1'
_cell_length_a   12.23587694
_cell_length_b   12.23510436
_cell_length_c   12.22469918
_cell_angle_alpha   89.99847829
_cell_angle_beta   89.99985307
_cell_angle_gamma   90.00303308
_symmetry_Int_Tables_number   1
_chemical_formula_structural   AgSbTe2
_chemical_formula_sum   'Ag16 Sb16 Te32'
_cell_volume   1830.12586488
_cell_formula_units_Z   16
loop_
 _symmetry_equiv_pos_site_id
 _symmetry_equiv_pos_as_xyz
  1  'x, y, z'
loop_
 _atom_site_type_symbol
 _atom_site_label
 _atom_site_symmetry_multiplicity
 _atom_site_fract_x
 _atom_site_fract_y
 _atom_site_fract_z
 _atom_site_occupancy
  Ag  Ag0  1  -0.00330760  0.24733341  0.75069121  1
  Ag  Ag1  1  0.50314386  0.23521953  0.74842301  1
  Ag  Ag2  1  0.25627147  0.75124004  -0.01045180  1
  Ag  Ag3  1  0.50059986  0.50259833  0.50912328  1
  Ag  Ag4  1  -0.00103631  0.50468172  -0.00604367  1
  Ag  Ag5  1  0.50075906  0.50873440  -0.00842126  1
  Ag  Ag6  1  0.49624149  0.76380064  0.75464224  1
  Ag  Ag7  1  0.74547587  0.24589928  0.50659532  1
  Ag  Ag8  1  0.74584879  -0.00133617  0.24897472  1
  Ag  Ag9  1  0.25616722  0.75254254  0.51114687  1
  Ag  Ag10  1  0.50286650  -0.00796067  -0.01594657  1
  Ag  Ag11  1  0.26460633  -0.00680443  0.75041226  1
  Ag  Ag12  1  0.00363240  0.75225298  0.75376323  1
  Ag  Ag13  1  0.74354586  0.75323049  -0.00642085  1
  Ag  Ag14  1  0.50241355  -0.00190889  0.51612464  1
  Ag  Ag15  1  0.73495124  -0.00076021  0.75057641  1
  Sb  Sb16  1  0.25567668  -0.00303906  0.24915555  1
  Sb  Sb17  1  -0.00334786  -0.00577410  -0.00713958  1
  Sb  Sb18  1  0.25185715  0.24739277  -0.00713599  1
  Sb  Sb19  1  -0.00079293  0.50210820  0.50946239  1
  Sb  Sb20  1  0.50398336  0.24704866  0.25255063  1
  Sb  Sb21  1  0.74799688  0.50218917  0.24813490  1
  Sb  Sb22  1  0.74811439  0.24487615  -0.00905543  1
  Sb  Sb23  1  0.74073274  0.75529106  0.50947007  1
  Sb  Sb24  1  -0.00358744  -0.00118169  0.50636763  1
  Sb  Sb25  1  0.50208113  0.75220277  0.24311807  1
  Sb  Sb26  1  0.25156478  0.50233333  0.24845559  1
  Sb  Sb27  1  0.25548065  0.51166108  0.75105819  1
  Sb  Sb28  1  0.25639600  0.24657397  0.50844050  1
  Sb  Sb29  1  0.74499856  0.50154739  0.75146134  1
  Sb  Sb30  1  -0.00235418  0.75127640  0.24475041  1
  Sb  Sb31  1  -0.00588012  0.24842427  0.24783989  1
  Te  Te32  1  0.24731128  0.24852270  0.25115950  1
  Te  Te33  1  0.24968025  0.23737184  0.74932199  1
  Te  Te34  1  0.24786217  0.75175364  0.24978225  1
  Te  Te35  1  0.25136665  0.75288888  0.75159424  1
  Te  Te36  1  0.75122749  0.24087087  0.26042642  1
  Te  Te37  1  0.74869965  0.24490473  0.74730348  1
  Te  Te38  1  0.75192174  0.75766756  0.24031317  1
  Te  Te39  1  0.74918784  0.75398721  0.75322406  1
  Te  Te40  1  0.25564759  -0.00519949  -0.00183304  1
  Te  Te41  1  0.25668492  -0.00447362  0.50173609  1
  Te  Te42  1  0.25423085  0.50743692  0.00043934  1
  Te  Te43  1  0.25834255  0.50721769  0.49872118  1
  Te  Te44  1  0.74676119  -0.00271081  -0.00445351  1
  Te  Te45  1  0.74609288  0.00108998  0.50450530  1
  Te  Te46  1  0.74598669  0.50643764  0.00165553  1
  Te  Te47  1  0.74265515  0.49435123  0.49777348  1
  Te  Te48  1  0.00013800  0.25905855  -0.00806915  1
  Te  Te49  1  -0.00600605  0.25248445  0.50858321  1
  Te  Te50  1  0.00082795  0.74705993  -0.00477603  1
  Te  Te51  1  0.00824247  0.74723396  0.50851239  1
  Te  Te52  1  0.50000783  0.25151076  -0.00690945  1
  Te  Te53  1  0.50257953  0.24958489  0.50482775  1
  Te  Te54  1  0.49977945  0.74970649  -0.00075655  1
  Te  Te55  1  0.49887960  0.75010942  0.50375937  1
  Te  Te56  1  -0.01043749  0.00134802  0.24990621  1
  Te  Te57  1  0.00016281  -0.00060086  0.75090067  1
  Te  Te58  1  -0.00015271  0.49898011  0.23725857  1
  Te  Te59  1  -0.00055912  0.50052532  0.75538765  1
  Te  Te60  1  0.50638612  0.00133260  0.24982143  1
  Te  Te61  1  0.50028413  -0.00093955  0.75035611  1
  Te  Te62  1  0.50093471  0.49838601  0.24808273  1
  Te  Te63  1  0.50017450  0.50040957  0.75132242  1
