# generated using pymatgen
data_AgSbTe2
_symmetry_space_group_name_H-M   'P 1'
_cell_length_a   12.30588284
_cell_length_b   12.31521343
_cell_length_c   12.29793561
_cell_angle_alpha   90.01047877
_cell_angle_beta   90.00144582
_cell_angle_gamma   90.00115313
_symmetry_Int_Tables_number   1
_chemical_formula_structural   AgSbTe2
_chemical_formula_sum   'Ag16 Sb16 Te32'
_cell_volume   1863.74686614
_cell_formula_units_Z   16
loop_
 _symmetry_equiv_pos_site_id
 _symmetry_equiv_pos_as_xyz
  1  'x, y, z'
loop_
 _atom_site_type_symbol
 _atom_site_label
 _atom_site_symmetry_multiplicity
 _atom_site_fract_x
 _atom_site_fract_y
 _atom_site_fract_z
 _atom_site_occupancy
  Ag  Ag0  1  0.74627096  0.75142017  0.00372135  1
  Ag  Ag1  1  0.50678577  0.75014188  0.75360829  1
  Ag  Ag2  1  0.50750499  0.75425891  0.24742371  1
  Ag  Ag3  1  0.51011104  0.50049412  0.49818139  1
  Ag  Ag4  1  -0.00936955  0.51425037  0.00074902  1
  Ag  Ag5  1  0.74211631  0.24971704  0.00101925  1
  Ag  Ag6  1  0.73788921  0.74542569  0.49824442  1
  Ag  Ag7  1  -0.01107472  0.74932270  0.23906815  1
  Ag  Ag8  1  0.50629330  0.00023373  0.49312378  1
  Ag  Ag9  1  0.25654623  0.75241069  0.00229956  1
  Ag  Ag10  1  -0.01226949  -0.01362197  0.00316440  1
  Ag  Ag11  1  0.74120382  0.25374565  0.49676379  1
  Ag  Ag12  1  0.50507584  0.24806444  0.26057249  1
  Ag  Ag13  1  0.74661339  0.50448933  0.75112236  1
  Ag  Ag14  1  0.27286681  0.25102119  0.49640456  1
  Ag  Ag15  1  0.50660470  -0.01388308  0.00477191  1
  Sb  Sb16  1  0.25341144  -0.00225785  0.75118896  1
  Sb  Sb17  1  -0.00553673  0.25003265  0.24651449  1
  Sb  Sb18  1  -0.00567197  0.50190065  0.49981826  1
  Sb  Sb19  1  0.74908221  0.50154976  0.24921428  1
  Sb  Sb20  1  0.25228966  0.50124460  0.24917993  1
  Sb  Sb21  1  -0.00399779  0.25063466  0.75276476  1
  Sb  Sb22  1  0.25786295  0.24918249  0.00174483  1
  Sb  Sb23  1  0.26119931  0.74957889  0.49649320  1
  Sb  Sb24  1  0.74755719  -0.00241150  0.24712096  1
  Sb  Sb25  1  0.74821907  -0.00213735  0.75118011  1
  Sb  Sb26  1  0.25309944  -0.00050076  0.24945360  1
  Sb  Sb27  1  -0.00613695  0.74832020  0.75649178  1
  Sb  Sb28  1  0.50380906  0.50559160  0.00114500  1
  Sb  Sb29  1  -0.00518285  -0.00450261  0.49671230  1
  Sb  Sb30  1  0.50281477  0.25006202  0.74704231  1
  Sb  Sb31  1  0.25432831  0.50396591  0.75119491  1
  Te  Te32  1  0.25986600  0.24963057  0.25545095  1
  Te  Te33  1  0.24813791  0.25202708  0.74067129  1
  Te  Te34  1  0.25582723  0.75026681  0.24399613  1
  Te  Te35  1  0.25877899  0.74915968  0.75650925  1
  Te  Te36  1  0.74443491  0.25042222  0.24864919  1
  Te  Te37  1  0.74980432  0.25782934  0.75444614  1
  Te  Te38  1  0.74576195  0.75130376  0.24860855  1
  Te  Te39  1  0.74718927  0.74739256  0.74891625  1
  Te  Te40  1  0.25987486  -0.00188823  0.00035900  1
  Te  Te41  1  0.25369469  0.00313092  0.49981595  1
  Te  Te42  1  0.24025175  0.50119219  -0.00129460  1
  Te  Te43  1  0.25193108  0.49766729  0.50082409  1
  Te  Te44  1  0.74381768  0.00090448  -0.00073330  1
  Te  Te45  1  0.74741777  0.00062713  0.50223233  1
  Te  Te46  1  0.74953720  0.49911211  -0.00119948  1
  Te  Te47  1  0.74834261  0.50285497  0.50129048  1
  Te  Te48  1  -0.00420335  0.24598484  0.00204554  1
  Te  Te49  1  -0.01332708  0.24785465  0.49778367  1
  Te  Te50  1  -0.01012822  0.75145472  0.00076494  1
  Te  Te51  1  -0.00534471  0.75378367  0.49405055  1
  Te  Te52  1  0.50367245  0.25142085  -0.00125988  1
  Te  Te53  1  0.50408561  0.24524627  0.50182488  1
  Te  Te54  1  0.50715497  0.74673539  0.00710511  1
  Te  Te55  1  0.50147869  0.75397637  0.49098502  1
  Te  Te56  1  0.00120467  -0.00564483  0.24309548  1
  Te  Te57  1  0.00132321  -0.00005558  0.76249307  1
  Te  Te58  1  0.00174647  0.50550696  0.24618079  1
  Te  Te59  1  -0.00703183  0.49995487  0.75282652  1
  Te  Te60  1  0.50094465  -0.00234724  0.24955390  1
  Te  Te61  1  0.50044181  -0.00727630  0.75438895  1
  Te  Te62  1  0.49940172  0.49987948  0.25518492  1
  Te  Te63  1  0.50359700  0.50414879  0.74693621  1
