# generated using pymatgen
data_AgSbTe2
_symmetry_space_group_name_H-M   'P 1'
_cell_length_a   12.21973850
_cell_length_b   12.22019229
_cell_length_c   12.21603994
_cell_angle_alpha   90.00460146
_cell_angle_beta   90.00369332
_cell_angle_gamma   89.99688466
_symmetry_Int_Tables_number   1
_chemical_formula_structural   AgSbTe2
_chemical_formula_sum   'Ag16 Sb16 Te32'
_cell_volume   1824.19135494
_cell_formula_units_Z   16
loop_
 _symmetry_equiv_pos_site_id
 _symmetry_equiv_pos_as_xyz
  1  'x, y, z'
loop_
 _atom_site_type_symbol
 _atom_site_label
 _atom_site_symmetry_multiplicity
 _atom_site_fract_x
 _atom_site_fract_y
 _atom_site_fract_z
 _atom_site_occupancy
  Ag  Ag0  1  0.75444977  -0.00761361  0.24792012  1
  Ag  Ag1  1  0.75292470  0.50793468  0.24448029  1
  Ag  Ag2  1  0.24729325  0.74930773  0.49655809  1
  Ag  Ag3  1  -0.00528583  0.50427907  0.00473733  1
  Ag  Ag4  1  0.50567484  0.50425194  0.00077998  1
  Ag  Ag5  1  0.50499739  -0.00457323  0.00128679  1
  Ag  Ag6  1  0.75189172  0.25015546  0.49757320  1
  Ag  Ag7  1  -0.00629393  0.74991372  0.24860711  1
  Ag  Ag8  1  0.75337075  0.75031043  0.49421298  1
  Ag  Ag9  1  0.24911516  0.25248605  0.00243450  1
  Ag  Ag10  1  0.74912082  0.50508502  0.75533128  1
  Ag  Ag11  1  0.50475548  0.74815974  0.75391109  1
  Ag  Ag12  1  -0.00525735  -0.00476988  0.00489918  1
  Ag  Ag13  1  0.75068646  0.74619949  0.00479290  1
  Ag  Ag14  1  -0.00518537  -0.00547867  0.49435722  1
  Ag  Ag15  1  0.24761607  0.50404609  0.24565965  1
  Sb  Sb16  1  -0.00450382  0.74847808  0.75161570  1
  Sb  Sb17  1  0.75133516  0.25306945  0.00224282  1
  Sb  Sb18  1  0.24939909  0.74747692  0.00412414  1
  Sb  Sb19  1  0.50314190  0.25242578  0.75327100  1
  Sb  Sb20  1  -0.00332744  0.50653798  0.49365718  1
  Sb  Sb21  1  0.24680068  0.25076973  0.49665144  1
  Sb  Sb22  1  0.50305107  0.50330935  0.49895066  1
  Sb  Sb23  1  0.24515362  -0.00561987  0.24813769  1
  Sb  Sb24  1  0.74922412  -0.00471485  0.75277052  1
  Sb  Sb25  1  -0.00148027  0.25069940  0.24926237  1
  Sb  Sb26  1  -0.00293752  0.25123520  0.75048070  1
  Sb  Sb27  1  0.50615455  -0.00479409  0.49745725  1
  Sb  Sb28  1  0.50828841  0.74930806  0.24478769  1
  Sb  Sb29  1  0.25056518  -0.00347533  0.75108164  1
  Sb  Sb30  1  0.50146090  0.25057178  0.24775240  1
  Sb  Sb31  1  0.25071014  0.50368349  0.75421431  1
  Te  Te32  1  0.25023203  0.25869127  0.24711257  1
  Te  Te33  1  0.25086200  0.25092808  0.75477815  1
  Te  Te34  1  0.24377670  0.74556119  0.25474006  1
  Te  Te35  1  0.25704742  0.74868038  0.74054101  1
  Te  Te36  1  0.75001480  0.25110317  0.25542038  1
  Te  Te37  1  0.74941149  0.25928328  0.74149835  1
  Te  Te38  1  0.75129077  0.74898724  0.24845517  1
  Te  Te39  1  0.74733252  0.74587281  0.75160021  1
  Te  Te40  1  0.24838419  0.00318601  0.00189331  1
  Te  Te41  1  0.24459491  -0.00190715  0.49909616  1
  Te  Te42  1  0.24936395  0.49966259  0.00291534  1
  Te  Te43  1  0.24965123  0.50160148  0.49474842  1
  Te  Te44  1  0.75209214  0.00170141  0.00115389  1
  Te  Te45  1  0.75208177  -0.00430724  0.49822890  1
  Te  Te46  1  0.75031837  0.49769283  0.00327569  1
  Te  Te47  1  0.75057206  0.50361140  0.49689670  1
  Te  Te48  1  0.00354820  0.24857079  0.00004704  1
  Te  Te49  1  -0.00305216  0.24083979  0.50041496  1
  Te  Te50  1  -0.00119319  0.75079361  0.00114910  1
  Te  Te51  1  -0.00359184  0.75287109  0.49892452  1
  Te  Te52  1  0.49560145  0.25006753  -0.00055642  1
  Te  Te53  1  0.50491046  0.24838573  0.50095426  1
  Te  Te54  1  0.50095114  0.74927293  -0.00163598  1
  Te  Te55  1  0.50175144  0.75136780  0.50580234  1
  Te  Te56  1  -0.00329894  -0.00397284  0.24740560  1
  Te  Te57  1  -0.00014657  -0.00001193  0.75384682  1
  Te  Te58  1  -0.00307231  0.50360007  0.24632448  1
  Te  Te59  1  -0.00491817  0.50063677  0.75937595  1
  Te  Te60  1  0.50647375  0.00004821  0.24321445  1
  Te  Te61  1  0.50053629  -0.00575827  0.75842061  1
  Te  Te62  1  0.50172235  0.50049340  0.24416285  1
  Te  Te63  1  0.50384203  0.50379142  0.75579588  1
