# generated using pymatgen
data_AgSbTe2
_symmetry_space_group_name_H-M   'P 1'
_cell_length_a   12.29255819
_cell_length_b   12.32973525
_cell_length_c   12.32187882
_cell_angle_alpha   89.99772106
_cell_angle_beta   89.99893848
_cell_angle_gamma   90.01279741
_symmetry_Int_Tables_number   1
_chemical_formula_structural   AgSbTe2
_chemical_formula_sum   'Ag16 Sb16 Te32'
_cell_volume   1867.55304539
_cell_formula_units_Z   16
loop_
 _symmetry_equiv_pos_site_id
 _symmetry_equiv_pos_as_xyz
  1  'x, y, z'
loop_
 _atom_site_type_symbol
 _atom_site_label
 _atom_site_symmetry_multiplicity
 _atom_site_fract_x
 _atom_site_fract_y
 _atom_site_fract_z
 _atom_site_occupancy
  Ag  Ag0  1  0.02041589  0.49487409  0.00333770  1
  Ag  Ag1  1  0.49172626  0.75336551  0.76074991  1
  Ag  Ag2  1  0.49188171  0.25025506  0.24245963  1
  Ag  Ag3  1  0.49101528  0.75074953  0.24058687  1
  Ag  Ag4  1  0.49178029  -0.00264177  0.49663562  1
  Ag  Ag5  1  0.25638278  0.49934364  0.23227098  1
  Ag  Ag6  1  0.25916663  0.73085225  -0.00392545  1
  Ag  Ag7  1  0.02070810  0.00329721  0.00036952  1
  Ag  Ag8  1  0.48538374  0.50654262  0.00554077  1
  Ag  Ag9  1  0.01479417  0.25251157  0.24193220  1
  Ag  Ag10  1  0.48606539  -0.00579818  0.00047523  1
  Ag  Ag11  1  0.25564074  -0.01029550  0.76173847  1
  Ag  Ag12  1  0.74251752  0.24678243  0.49357058  1
  Ag  Ag13  1  0.25794602  0.75177320  0.50388136  1
  Ag  Ag14  1  0.25452753  0.26873481  0.00529569  1
  Ag  Ag15  1  0.25393649  0.50966939  0.76799864  1
  Sb  Sb16  1  0.01236131  0.00215446  0.49858179  1
  Sb  Sb17  1  0.49567822  0.50055788  0.49780889  1
  Sb  Sb18  1  0.74398790  -0.00008198  0.75227927  1
  Sb  Sb19  1  0.74099331  0.75031657  0.00033336  1
  Sb  Sb20  1  0.74730514  0.24958994  0.00226719  1
  Sb  Sb21  1  0.49641830  0.24965550  0.75581290  1
  Sb  Sb22  1  0.00424138  0.25032596  0.75726843  1
  Sb  Sb23  1  0.25260194  0.00013227  0.23872981  1
  Sb  Sb24  1  0.74000901  0.75140239  0.49955612  1
  Sb  Sb25  1  0.01205857  0.74924981  0.75260802  1
  Sb  Sb26  1  0.25141870  0.24800042  0.49526520  1
  Sb  Sb27  1  0.74346849  0.50009778  0.75346219  1
  Sb  Sb28  1  0.00797907  0.49764448  0.49727557  1
  Sb  Sb29  1  0.01303281  0.74823934  0.24484003  1
  Sb  Sb30  1  0.74526072  0.49917043  0.24838678  1
  Sb  Sb31  1  0.74701700  0.00060621  0.24937172  1
  Te  Te32  1  0.25273462  0.25101524  0.24433944  1
  Te  Te33  1  0.24874406  0.25255679  0.75702908  1
  Te  Te34  1  0.25326703  0.74817974  0.24629162  1
  Te  Te35  1  0.25294396  0.74971102  0.75516043  1
  Te  Te36  1  0.74165034  0.24972396  0.25315567  1
  Te  Te37  1  0.75228062  0.25045674  0.73723855  1
  Te  Te38  1  0.73237130  0.75052387  0.25039378  1
  Te  Te39  1  0.73251942  0.74943840  0.74949972  1
  Te  Te40  1  0.25235780  0.00076559  -0.00059878  1
  Te  Te41  1  0.25515852  -0.00341213  0.51074986  1
  Te  Te42  1  0.25206753  0.49736019  0.00072843  1
  Te  Te43  1  0.24889682  0.50530250  0.50379597  1
  Te  Te44  1  0.74983303  -0.00111179  -0.00135215  1
  Te  Te45  1  0.74029185  0.00146278  0.50072267  1
  Te  Te46  1  0.75287325  0.50095714  -0.00161543  1
  Te  Te47  1  0.75384906  0.49592599  0.50176336  1
  Te  Te48  1  -0.00381701  0.24921381  0.00303177  1
  Te  Te49  1  0.00157496  0.24809612  0.48830415  1
  Te  Te50  1  0.00249778  0.75334575  0.00117799  1
  Te  Te51  1  0.00420454  0.75091985  0.50000450  1
  Te  Te52  1  0.50159333  0.24772860  0.00207938  1
  Te  Te53  1  0.49751696  0.24873855  0.49434462  1
  Te  Te54  1  0.49791673  0.75264234  0.00190351  1
  Te  Te55  1  0.49581088  0.75042225  0.49611740  1
  Te  Te56  1  -0.00144458  0.00290805  0.24485043  1
  Te  Te57  1  0.00476387  -0.00105476  0.75596601  1
  Te  Te58  1  0.00264657  0.49950006  0.24739704  1
  Te  Te59  1  0.00535569  0.50158145  0.75597811  1
  Te  Te60  1  0.49805941  0.00283193  0.24662324  1
  Te  Te61  1  0.49845511  0.00304100  0.75619764  1
  Te  Te62  1  0.49834179  0.49590217  0.24847657  1
  Te  Te63  1  0.49696435  0.49824948  0.75348042  1
