# generated using pymatgen
data_AgSbTe2
_symmetry_space_group_name_H-M   'P 1'
_cell_length_a   12.32375191
_cell_length_b   12.28758767
_cell_length_c   12.31973335
_cell_angle_alpha   90.01183140
_cell_angle_beta   90.00344280
_cell_angle_gamma   89.99192849
_symmetry_Int_Tables_number   1
_chemical_formula_structural   AgSbTe2
_chemical_formula_sum   'Ag16 Sb16 Te32'
_cell_volume   1865.56708392
_cell_formula_units_Z   16
loop_
 _symmetry_equiv_pos_site_id
 _symmetry_equiv_pos_as_xyz
  1  'x, y, z'
loop_
 _atom_site_type_symbol
 _atom_site_label
 _atom_site_symmetry_multiplicity
 _atom_site_fract_x
 _atom_site_fract_y
 _atom_site_fract_z
 _atom_site_occupancy
  Ag  Ag0  1  0.24299473  0.51006067  0.75475935  1
  Ag  Ag1  1  0.50473819  0.74895269  0.74858398  1
  Ag  Ag2  1  0.75940283  0.51160460  0.75299615  1
  Ag  Ag3  1  0.24719459  0.24510388  0.49824343  1
  Ag  Ag4  1  0.24091946  0.51329811  0.24672338  1
  Ag  Ag5  1  0.23267679  0.74644557  0.00115351  1
  Ag  Ag6  1  0.23761645  -0.01078875  0.25342368  1
  Ag  Ag7  1  0.49632787  -0.00653658  0.49755388  1
  Ag  Ag8  1  0.00456064  0.75963913  0.23137456  1
  Ag  Ag9  1  0.76924259  0.75068273  -0.00894015  1
  Ag  Ag10  1  0.76632603  -0.00990633  0.25316595  1
  Ag  Ag11  1  0.00139173  -0.01619903  0.01139413  1
  Ag  Ag12  1  0.00098260  -0.01068065  0.48778596  1
  Ag  Ag13  1  0.00553534  0.51724406  -0.00404032  1
  Ag  Ag14  1  -0.00371186  0.74684263  0.76816252  1
  Ag  Ag15  1  0.75923830  0.75598387  0.50671179  1
  Sb  Sb16  1  0.49946854  -0.00763430  0.00159730  1
  Sb  Sb17  1  0.75437001  0.24781548  -0.00049930  1
  Sb  Sb18  1  0.49753615  0.24982828  0.74530895  1
  Sb  Sb19  1  0.24401159  0.74995834  0.50004895  1
  Sb  Sb20  1  0.49703235  0.50672921  -0.00134648  1
  Sb  Sb21  1  0.00153552  0.51108579  0.49958992  1
  Sb  Sb22  1  0.24681617  -0.00751770  0.75046402  1
  Sb  Sb23  1  0.76133934  0.50968511  0.24782541  1
  Sb  Sb24  1  0.49930582  0.75148793  0.25252064  1
  Sb  Sb25  1  0.00103129  0.25306338  0.74821596  1
  Sb  Sb26  1  0.49711708  0.24740437  0.25363176  1
  Sb  Sb27  1  0.75290199  0.24465351  0.50220777  1
  Sb  Sb28  1  0.49787684  0.50704390  0.50248507  1
  Sb  Sb29  1  0.75288147  -0.00755440  0.74936529  1
  Sb  Sb30  1  0.24762003  0.25099519  -0.00074924  1
  Sb  Sb31  1  0.00056593  0.24298226  0.25078181  1
  Te  Te32  1  0.24914526  0.24847720  0.25291539  1
  Te  Te33  1  0.25055721  0.26437325  0.74816946  1
  Te  Te34  1  0.24993297  0.75164482  0.25110424  1
  Te  Te35  1  0.24348735  0.74842254  0.74779052  1
  Te  Te36  1  0.74870315  0.23833400  0.25030585  1
  Te  Te37  1  0.74889087  0.27218571  0.75032622  1
  Te  Te38  1  0.74722502  0.75336154  0.24958635  1
  Te  Te39  1  0.75593588  0.74860249  0.75232844  1
  Te  Te40  1  0.24901089  -0.00071040  0.00105281  1
  Te  Te41  1  0.24579389  -0.00193539  0.50178909  1
  Te  Te42  1  0.24793652  0.50091000  0.00116623  1
  Te  Te43  1  0.24921360  0.49880397  0.49638786  1
  Te  Te44  1  0.75072401  -0.00158225  0.00000935  1
  Te  Te45  1  0.75656313  -0.00295004  0.50183567  1
  Te  Te46  1  0.75247124  0.50118281  0.00301118  1
  Te  Te47  1  0.74930888  0.50118470  0.49736783  1
  Te  Te48  1  -0.00197567  0.24880579  -0.00031530  1
  Te  Te49  1  0.00388397  0.23350384  0.50046628  1
  Te  Te50  1  0.00234152  0.74905552  0.00092855  1
  Te  Te51  1  -0.00489475  0.75362646  0.49952935  1
  Te  Te52  1  0.50242399  0.24918614  -0.00072128  1
  Te  Te53  1  0.49625668  0.23770481  0.50005271  1
  Te  Te54  1  0.50041090  0.74992907  -0.00998176  1
  Te  Te55  1  0.50790156  0.75337454  0.50377235  1
  Te  Te56  1  0.00253068  -0.00326628  0.24820320  1
  Te  Te57  1  -0.00014367  -0.00326707  0.75539372  1
  Te  Te58  1  0.00397607  0.50611758  0.25078780  1
  Te  Te59  1  0.00268314  0.50324931  0.74752547  1
  Te  Te60  1  0.49345884  0.00075613  0.25319501  1
  Te  Te61  1  0.50027021  -0.00439826  0.74560493  1
  Te  Te62  1  0.48411990  0.49776003  0.25100692  1
  Te  Te63  1  0.49501036  0.50578448  0.74890590  1
