# generated using pymatgen
data_AgSbTe2
_symmetry_space_group_name_H-M   'P 1'
_cell_length_a   12.23209662
_cell_length_b   12.23897164
_cell_length_c   12.22401079
_cell_angle_alpha   89.99881633
_cell_angle_beta   90.00985421
_cell_angle_gamma   89.99956221
_symmetry_Int_Tables_number   1
_chemical_formula_structural   AgSbTe2
_chemical_formula_sum   'Ag16 Sb16 Te32'
_cell_volume   1830.03564736
_cell_formula_units_Z   16
loop_
 _symmetry_equiv_pos_site_id
 _symmetry_equiv_pos_as_xyz
  1  'x, y, z'
loop_
 _atom_site_type_symbol
 _atom_site_label
 _atom_site_symmetry_multiplicity
 _atom_site_fract_x
 _atom_site_fract_y
 _atom_site_fract_z
 _atom_site_occupancy
  Ag  Ag0  1  0.50107782  0.00111372  0.00839862  1
  Ag  Ag1  1  -0.00264924  -0.01672017  0.48200664  1
  Ag  Ag2  1  0.24627563  0.50434703  0.74685477  1
  Ag  Ag3  1  0.23102656  0.75029338  0.49766125  1
  Ag  Ag4  1  0.75421424  0.49673100  0.25478642  1
  Ag  Ag5  1  0.76647672  0.00326896  0.25327976  1
  Ag  Ag6  1  0.23281088  -0.00155916  0.25126712  1
  Ag  Ag7  1  -0.00102322  -0.00195812  0.01941457  1
  Ag  Ag8  1  0.00172066  0.74994213  0.73152042  1
  Ag  Ag9  1  -0.00235775  0.51681017  0.49516603  1
  Ag  Ag10  1  -0.00282396  0.76646150  0.26740148  1
  Ag  Ag11  1  0.76858082  0.75080895  0.49323636  1
  Ag  Ag12  1  0.50704262  0.24675812  0.24907062  1
  Ag  Ag13  1  -0.00716457  0.23340641  0.25514526  1
  Ag  Ag14  1  0.50072905  0.49867044  0.00485760  1
  Ag  Ag15  1  0.75594443  0.24925882  0.48985767  1
  Sb  Sb16  1  0.24651203  0.50405388  0.25337079  1
  Sb  Sb17  1  0.50281045  0.49828305  0.49359541  1
  Sb  Sb18  1  0.50339075  0.00218386  0.48849273  1
  Sb  Sb19  1  0.50388306  0.75350631  0.25036861  1
  Sb  Sb20  1  0.75026340  0.24833011  0.01498141  1
  Sb  Sb21  1  0.24173926  0.24867373  0.49550007  1
  Sb  Sb22  1  -0.00091710  0.25118624  0.74423969  1
  Sb  Sb23  1  0.50146549  0.25110454  0.75161984  1
  Sb  Sb24  1  0.75395172  0.75178705  0.00958301  1
  Sb  Sb25  1  0.75358163  0.50399058  0.74481772  1
  Sb  Sb26  1  0.75282614  -0.00267579  0.74495840  1
  Sb  Sb27  1  -0.00106422  0.50067247  0.00648046  1
  Sb  Sb28  1  0.49731783  0.74857882  0.74897256  1
  Sb  Sb29  1  0.24580722  -0.00609393  0.74658895  1
  Sb  Sb30  1  0.24626297  0.75099918  0.00491889  1
  Sb  Sb31  1  0.24942993  0.24879200  0.00427983  1
  Te  Te32  1  0.24973688  0.24236903  0.25307903  1
  Te  Te33  1  0.24992260  0.26223551  0.74662595  1
  Te  Te34  1  0.24396683  0.75469863  0.25665488  1
  Te  Te35  1  0.24363164  0.74500014  0.74076234  1
  Te  Te36  1  0.75184649  0.24889184  0.25501238  1
  Te  Te37  1  0.75024989  0.25090770  0.73152972  1
  Te  Te38  1  0.75356104  0.75075150  0.25675796  1
  Te  Te39  1  0.75952236  0.74865066  0.73581038  1
  Te  Te40  1  0.24929465  -0.00115300  0.00621362  1
  Te  Te41  1  0.24524812  -0.00475242  0.49594820  1
  Te  Te42  1  0.25621845  0.50142995  -0.00491192  1
  Te  Te43  1  0.24577072  0.50532918  0.50161894  1
  Te  Te44  1  0.75062833  -0.00106687  0.00761887  1
  Te  Te45  1  0.75309196  -0.00197619  0.49512269  1
  Te  Te46  1  0.74385362  0.50113634  0.00708297  1
  Te  Te47  1  0.75308041  0.50203406  0.49482215  1
  Te  Te48  1  -0.00073390  0.24193721  0.00733461  1
  Te  Te49  1  -0.00452281  0.24962838  0.49548356  1
  Te  Te50  1  -0.00028398  0.75680824  0.00106434  1
  Te  Te51  1  -0.00041349  0.74946747  0.49847574  1
  Te  Te52  1  0.50052882  0.24801462  0.00738097  1
  Te  Te53  1  0.50986217  0.25002597  0.49091544  1
  Te  Te54  1  0.50009753  0.75173140  -0.00088606  1
  Te  Te55  1  0.50028048  0.74967802  0.50120045  1
  Te  Te56  1  -0.00087068  0.00024726  0.25105457  1
  Te  Te57  1  0.00222022  -0.00591202  0.75013694  1
  Te  Te58  1  -0.00253882  0.50010208  0.25110047  1
  Te  Te59  1  0.00367271  0.50402708  0.74759681  1
  Te  Te60  1  0.50135075  0.00361292  0.24446404  1
  Te  Te61  1  0.49805146  0.00116008  0.76722272  1
  Te  Te62  1  0.50281867  0.49483021  0.24458533  1
  Te  Te63  1  0.49371563  0.49914978  0.76042894  1
