# generated using pymatgen
data_AgSbTe2
_symmetry_space_group_name_H-M   'P 1'
_cell_length_a   12.22188005
_cell_length_b   12.23300526
_cell_length_c   12.21907451
_cell_angle_alpha   90.01112673
_cell_angle_beta   90.00107441
_cell_angle_gamma   90.00108694
_symmetry_Int_Tables_number   1
_chemical_formula_structural   AgSbTe2
_chemical_formula_sum   'Ag16 Sb16 Te32'
_cell_volume   1826.87774181
_cell_formula_units_Z   16
loop_
 _symmetry_equiv_pos_site_id
 _symmetry_equiv_pos_as_xyz
  1  'x, y, z'
loop_
 _atom_site_type_symbol
 _atom_site_label
 _atom_site_symmetry_multiplicity
 _atom_site_fract_x
 _atom_site_fract_y
 _atom_site_fract_z
 _atom_site_occupancy
  Ag  Ag0  1  0.50412158  0.24731903  0.74267502  1
  Ag  Ag1  1  0.24521904  0.49797729  0.25710475  1
  Ag  Ag2  1  0.75466882  0.75478344  -0.00492993  1
  Ag  Ag3  1  -0.00738795  0.75199841  0.74444348  1
  Ag  Ag4  1  -0.00458937  -0.00150388  0.00231523  1
  Ag  Ag5  1  0.75274749  0.50319645  0.74410158  1
  Ag  Ag6  1  0.00131233  0.24573342  0.25619193  1
  Ag  Ag7  1  0.24714160  0.24711021  0.49614809  1
  Ag  Ag8  1  0.50513360  0.00287400  0.50067463  1
  Ag  Ag9  1  -0.00083335  0.50059062  0.49960800  1
  Ag  Ag10  1  0.75135218  0.24263411  0.50217525  1
  Ag  Ag11  1  0.75221611  -0.00388763  0.74199593  1
  Ag  Ag12  1  0.24555957  0.75249530  0.49917030  1
  Ag  Ag13  1  0.75483465  0.75664702  0.50547311  1
  Ag  Ag14  1  0.24510966  0.00249648  0.25736860  1
  Ag  Ag15  1  0.75410789  0.00024249  0.25738934  1
  Sb  Sb16  1  -0.00076874  0.75339017  0.25493042  1
  Sb  Sb17  1  0.49934607  0.24664385  0.25529506  1
  Sb  Sb18  1  0.24710992  0.24758282  0.00361674  1
  Sb  Sb19  1  -0.00308574  0.24850046  0.74319953  1
  Sb  Sb20  1  0.50282994  0.00012480  -0.00113815  1
  Sb  Sb21  1  0.50216979  0.49993808  -0.00213686  1
  Sb  Sb22  1  0.24751295  -0.00023915  0.74141375  1
  Sb  Sb23  1  0.50787667  0.75230580  0.74568067  1
  Sb  Sb24  1  0.24737709  0.50008790  0.74377147  1
  Sb  Sb25  1  0.50094964  0.49719964  0.50196039  1
  Sb  Sb26  1  0.75385685  0.49956643  0.25546880  1
  Sb  Sb27  1  0.24555600  0.75318164  0.00030046  1
  Sb  Sb28  1  -0.00223958  0.50140712  0.00026503  1
  Sb  Sb29  1  0.75280668  0.24646644  -0.00173111  1
  Sb  Sb30  1  -0.00571691  -0.00093351  0.49776179  1
  Sb  Sb31  1  0.50048747  0.75168060  0.25389901  1
  Te  Te32  1  0.24912931  0.24621664  0.25407778  1
  Te  Te33  1  0.25280103  0.25080834  0.74367029  1
  Te  Te34  1  0.24991468  0.75271438  0.25475243  1
  Te  Te35  1  0.24369824  0.74888151  0.74453259  1
  Te  Te36  1  0.75163883  0.24739856  0.25377619  1
  Te  Te37  1  0.75062194  0.24830876  0.74696170  1
  Te  Te38  1  0.75032451  0.75316638  0.25384018  1
  Te  Te39  1  0.75182779  0.75261829  0.74440157  1
  Te  Te40  1  0.24619792  -0.00137007  0.00886813  1
  Te  Te41  1  0.25211453  0.00058340  0.49743948  1
  Te  Te42  1  0.25031417  0.50101052  0.00871584  1
  Te  Te43  1  0.24832941  0.50012166  0.49764553  1
  Te  Te44  1  0.75245507  -0.00277118  0.00135135  1
  Te  Te45  1  0.75075036  0.00038976  0.49985778  1
  Te  Te46  1  0.75017139  0.50654408  -0.00477613  1
  Te  Te47  1  0.75185773  0.50061686  0.50169732  1
  Te  Te48  1  0.00065973  0.24521817  0.00797155  1
  Te  Te49  1  0.00003951  0.25402939  0.49696782  1
  Te  Te50  1  -0.00473705  0.75319160  -0.00496020  1
  Te  Te51  1  -0.00121986  0.74652700  0.50240424  1
  Te  Te52  1  0.49957694  0.24966980  -0.01081079  1
  Te  Te53  1  0.50214327  0.24642952  0.50326215  1
  Te  Te54  1  0.50842223  0.75029844  -0.00142993  1
  Te  Te55  1  0.49969359  0.75664597  0.50095791  1
  Te  Te56  1  -0.00146079  0.00228167  0.24767951  1
  Te  Te57  1  -0.00353321  -0.00234764  0.75573708  1
  Te  Te58  1  0.00294930  0.49556723  0.25369006  1
  Te  Te59  1  -0.00436105  0.50221480  0.74682136  1
  Te  Te60  1  0.50159735  0.00042720  0.25473443  1
  Te  Te61  1  0.50394244  0.00296646  0.74634491  1
  Te  Te62  1  0.49127763  0.49941693  0.24905104  1
  Te  Te63  1  0.50608114  0.49461576  0.75030454  1
