# generated using pymatgen
data_AgSbTe2
_symmetry_space_group_name_H-M   'P 1'
_cell_length_a   12.23868181
_cell_length_b   12.24341874
_cell_length_c   12.22184665
_cell_angle_alpha   89.99813481
_cell_angle_beta   89.99904480
_cell_angle_gamma   89.99904339
_symmetry_Int_Tables_number   1
_chemical_formula_structural   AgSbTe2
_chemical_formula_sum   'Ag16 Sb16 Te32'
_cell_volume   1831.36190880
_cell_formula_units_Z   16
loop_
 _symmetry_equiv_pos_site_id
 _symmetry_equiv_pos_as_xyz
  1  'x, y, z'
loop_
 _atom_site_type_symbol
 _atom_site_label
 _atom_site_symmetry_multiplicity
 _atom_site_fract_x
 _atom_site_fract_y
 _atom_site_fract_z
 _atom_site_occupancy
  Ag  Ag0  1  0.00152653  0.50078258  -0.00371009  1
  Ag  Ag1  1  0.50687526  0.24971872  0.75807282  1
  Ag  Ag2  1  0.00345739  0.75269209  0.23679551  1
  Ag  Ag3  1  -0.00002571  0.75305993  0.76030579  1
  Ag  Ag4  1  0.25033711  0.24472441  -0.00299110  1
  Ag  Ag5  1  0.50212151  0.49709577  0.50763594  1
  Ag  Ag6  1  0.24841213  -0.00120618  0.24063180  1
  Ag  Ag7  1  -0.00698499  0.24698827  0.75886147  1
  Ag  Ag8  1  0.74973486  0.24693958  -0.00923151  1
  Ag  Ag9  1  0.50063235  0.74991204  0.75758962  1
  Ag  Ag10  1  0.00453170  -0.00113349  -0.00407560  1
  Ag  Ag11  1  0.49594502  0.00438801  -0.00550015  1
  Ag  Ag12  1  0.49843621  0.49604168  -0.00611196  1
  Ag  Ag13  1  0.74780404  0.24933755  0.51063521  1
  Ag  Ag14  1  0.75042755  0.00637560  0.75547700  1
  Ag  Ag15  1  0.24496781  0.75528091  -0.00141269  1
  Sb  Sb16  1  0.25168931  0.75092695  0.50222084  1
  Sb  Sb17  1  0.50157655  0.00185060  0.50772998  1
  Sb  Sb18  1  0.25188042  0.24895030  0.50368533  1
  Sb  Sb19  1  0.24924831  0.00047250  0.75752803  1
  Sb  Sb20  1  0.49936284  0.24965702  0.24060566  1
  Sb  Sb21  1  0.49721346  0.75113305  0.24050898  1
  Sb  Sb22  1  0.74809009  0.49277281  0.75223316  1
  Sb  Sb23  1  0.00076741  0.24810556  0.23918267  1
  Sb  Sb24  1  0.74823398  0.74995621  0.50580689  1
  Sb  Sb25  1  0.25182279  0.49943726  0.75356339  1
  Sb  Sb26  1  0.75057376  0.49941305  0.24668309  1
  Sb  Sb27  1  0.75404314  0.75200003  -0.00392929  1
  Sb  Sb28  1  -0.00200119  0.49799586  0.50302675  1
  Sb  Sb29  1  -0.00145345  0.00092045  0.50469480  1
  Sb  Sb30  1  0.24897712  0.50042988  0.24397006  1
  Sb  Sb31  1  0.75020547  0.00127714  0.24353181  1
  Te  Te32  1  0.24931349  0.24436300  0.24411098  1
  Te  Te33  1  0.24984572  0.24963586  0.75547772  1
  Te  Te34  1  0.24610081  0.75392688  0.24562135  1
  Te  Te35  1  0.24888058  0.75062652  0.75421776  1
  Te  Te36  1  0.75046064  0.24933153  0.25175902  1
  Te  Te37  1  0.74926354  0.24731950  0.75300690  1
  Te  Te38  1  0.75876897  0.75099334  0.25317055  1
  Te  Te39  1  0.75024293  0.75903855  0.74931890  1
  Te  Te40  1  0.24917287  -0.00080462  0.00028831  1
  Te  Te41  1  0.25014422  0.00065996  0.48507612  1
  Te  Te42  1  0.25008952  0.50020984  0.00076943  1
  Te  Te43  1  0.25877221  0.49914730  0.49666548  1
  Te  Te44  1  0.74982382  0.00317777  -0.00354597  1
  Te  Te45  1  0.74931078  0.00622125  0.50560097  1
  Te  Te46  1  0.74932313  0.49283343  0.00080502  1
  Te  Te47  1  0.74445267  0.49366812  0.49790663  1
  Te  Te48  1  0.00073513  0.24982066  -0.00208938  1
  Te  Te49  1  -0.00241527  0.25259906  0.50872860  1
  Te  Te50  1  -0.00101724  0.75024769  -0.00355398  1
  Te  Te51  1  0.00067658  0.74805407  0.50625398  1
  Te  Te52  1  0.49915255  0.25023869  -0.00192012  1
  Te  Te53  1  0.50112556  0.25280510  0.50690430  1
  Te  Te54  1  0.49967649  0.74850570  -0.00353322  1
  Te  Te55  1  0.49951253  0.74572346  0.50813437  1
  Te  Te56  1  0.00129070  -0.00257040  0.24579006  1
  Te  Te57  1  -0.00119283  -0.00002065  0.75297253  1
  Te  Te58  1  0.00031352  0.50552477  0.24528879  1
  Te  Te59  1  -0.00050253  0.50173470  0.75507285  1
  Te  Te60  1  0.49843766  -0.00160460  0.24277350  1
  Te  Te61  1  0.50120193  0.00021171  0.75395196  1
  Te  Te62  1  0.50013854  0.50119769  0.24567596  1
  Te  Te63  1  0.50047196  0.50088795  0.75528639  1
