# generated using pymatgen
data_Cs27Sn13Pb14I81
_symmetry_space_group_name_H-M   'P 1'
_cell_length_a   19.00202051
_cell_length_b   19.01373508
_cell_length_c   19.00296575
_cell_angle_alpha   89.99959778
_cell_angle_beta   90.00320572
_cell_angle_gamma   90.00097951
_symmetry_Int_Tables_number   1
_chemical_formula_structural   Cs27Sn13Pb14I81
_chemical_formula_sum   'Cs27 Sn13 Pb14 I81'
_cell_volume   6865.75980881
_cell_formula_units_Z   1
loop_
 _symmetry_equiv_pos_site_id
 _symmetry_equiv_pos_as_xyz
  1  'x, y, z'
loop_
 _atom_site_type_symbol
 _atom_site_label
 _atom_site_symmetry_multiplicity
 _atom_site_fract_x
 _atom_site_fract_y
 _atom_site_fract_z
 _atom_site_occupancy
  Cs  Cs0  1  0.00016541  0.00288373  -0.00105969  1
  Cs  Cs1  1  -0.00754118  0.00100463  0.33058332  1
  Cs  Cs2  1  -0.00199684  -0.00022704  0.66968576  1
  Cs  Cs3  1  -0.00077480  0.32983579  -0.00068317  1
  Cs  Cs4  1  0.00363942  0.32789000  0.33111186  1
  Cs  Cs5  1  0.00318801  0.33579067  0.66872192  1
  Cs  Cs6  1  -0.00197564  0.66674101  -0.00178301  1
  Cs  Cs7  1  0.00060209  0.66966366  0.33655558  1
  Cs  Cs8  1  0.00159264  0.66501531  0.66600043  1
  Cs  Cs9  1  0.33351238  -0.00315429  0.00154586  1
  Cs  Cs10  1  0.33408446  -0.00171628  0.33020712  1
  Cs  Cs11  1  0.33545473  -0.00103250  0.66886925  1
  Cs  Cs12  1  0.33415500  0.33291541  0.00301517  1
  Cs  Cs13  1  0.33133977  0.33399796  0.33328292  1
  Cs  Cs14  1  0.33135903  0.32999777  0.66422612  1
  Cs  Cs15  1  0.33492308  0.67108688  0.00087349  1
  Cs  Cs16  1  0.33332284  0.66703272  0.33459873  1
  Cs  Cs17  1  0.33070828  0.67145725  0.66278292  1
  Cs  Cs18  1  0.66494157  -0.00125256  -0.00145655  1
  Cs  Cs19  1  0.67228279  -0.00069232  0.33623334  1
  Cs  Cs20  1  0.66670936  0.00597044  0.66509306  1
  Cs  Cs21  1  0.66520961  0.35007501  -0.00192006  1
  Cs  Cs22  1  0.66739865  0.33138983  0.33372558  1
  Cs  Cs23  1  0.66452369  0.32963110  0.66766200  1
  Cs  Cs24  1  0.66782113  0.65239929  0.00030334  1
  Cs  Cs25  1  0.66610631  0.66889076  0.33164810  1
  Cs  Cs26  1  0.66814413  0.66406822  0.66685356  1
  Sn  Sn27  1  0.16691237  0.83525533  0.49911552  1
  Sn  Sn28  1  0.49979092  0.83417410  0.16743618  1
  Sn  Sn29  1  0.83294450  0.83392675  0.83343765  1
  Sn  Sn30  1  0.50052517  0.16571819  0.16646222  1
  Sn  Sn31  1  0.16724449  0.49942325  0.83464018  1
  Sn  Sn32  1  0.16678086  0.83259599  0.16753063  1
  Sn  Sn33  1  0.16657345  0.50136443  0.16549250  1
  Sn  Sn34  1  0.83232362  0.49986502  0.49967531  1
  Sn  Sn35  1  0.83359284  0.16608745  0.83374928  1
  Sn  Sn36  1  0.16651181  0.16712994  0.83270233  1
  Sn  Sn37  1  0.16667469  0.16456294  0.50057083  1
  Sn  Sn38  1  0.49956110  0.83289833  0.49937559  1
  Sn  Sn39  1  0.50112022  0.50071840  0.49996591  1
  Pb  Pb40  1  0.83611949  0.16902161  0.50204262  1
  Pb  Pb41  1  0.49965993  0.16670663  0.83611438  1
  Pb  Pb42  1  0.16772811  0.16578646  0.16632502  1
  Pb  Pb43  1  0.16554202  0.83373566  0.83348991  1
  Pb  Pb44  1  0.50293600  0.83316939  0.83334094  1
  Pb  Pb45  1  0.83672091  0.50010424  0.16981762  1
  Pb  Pb46  1  0.82970112  0.16678987  0.16342674  1
  Pb  Pb47  1  0.83561119  0.49944532  0.83138889  1
  Pb  Pb48  1  0.83285959  0.83324982  0.16416626  1
  Pb  Pb49  1  0.16702053  0.50030601  0.49976212  1
  Pb  Pb50  1  0.49776045  0.50080624  0.16906642  1
  Pb  Pb51  1  0.49786691  0.16587857  0.49813228  1
  Pb  Pb52  1  0.83311619  0.83209132  0.50188848  1
  Pb  Pb53  1  0.49627844  0.50022409  0.83005159  1
  I  I54  1  0.17011379  -0.00299733  0.16732738  1
  I  I55  1  0.17311966  -0.00113171  0.50101152  1
  I  I56  1  0.16370499  0.00254705  0.83198206  1
  I  I57  1  0.16875426  0.33495219  0.16732720  1
  I  I58  1  0.16635320  0.33160747  0.50113308  1
  I  I59  1  0.16010890  0.33259449  0.83180399  1
  I  I60  1  0.17301696  0.66776984  0.16744028  1
  I  I61  1  0.16760475  0.66913946  0.49981986  1
  I  I62  1  0.16405255  0.66487098  0.83288637  1
  I  I63  1  0.49136713  -0.00180143  0.17156850  1
  I  I64  1  0.49642081  -0.00325652  0.49812988  1
  I  I65  1  0.49566615  -0.00007746  0.82926222  1
  I  I66  1  0.49733843  0.33191645  0.16704971  1
  I  I67  1  0.50134407  0.33538806  0.49868886  1
  I  I68  1  0.50529479  0.33345137  0.83465891  1
  I  I69  1  0.49676709  0.66979673  0.16914621  1
  I  I70  1  0.49633926  0.66785941  0.49441425  1
  I  I71  1  0.50157036  0.66667182  0.83853547  1
  I  I72  1  0.83918365  0.00001306  0.16911129  1
  I  I73  1  0.83145609  0.00021936  0.50021103  1
  I  I74  1  0.84155035  0.00081381  0.83239676  1
  I  I75  1  0.83323209  0.33344182  0.16472944  1
  I  I76  1  0.82837827  0.33659609  0.50264136  1
  I  I77  1  0.83722922  0.33073821  0.83171140  1
  I  I78  1  0.82904245  0.66664557  0.16123219  1
  I  I79  1  0.83625506  0.66448981  0.50460950  1
  I  I80  1  0.83509539  0.66818840  0.83190766  1
  I  I81  1  0.16343510  0.16850773  -0.00270579  1
  I  I82  1  0.16984022  0.16875396  0.33548975  1
  I  I83  1  0.16406254  0.16886975  0.66694755  1
  I  I84  1  0.16606050  0.49960237  0.00001249  1
  I  I85  1  0.16731923  0.50040351  0.33135724  1
  I  I86  1  0.16574638  0.49865468  0.66843268  1
  I  I87  1  0.17064571  0.83194385  0.00270532  1
  I  I88  1  0.17080713  0.83123263  0.33367352  1
  I  I89  1  0.17005434  0.83256586  0.66392847  1
  I  I90  1  0.49579382  0.15827526  0.00364723  1
  I  I91  1  0.49496070  0.16614798  0.33063179  1
  I  I92  1  0.50110854  0.16693235  0.66673745  1
  I  I93  1  0.50184209  0.50014996  0.00015209  1
  I  I94  1  0.49987964  0.50147980  0.33659787  1
  I  I95  1  0.50182736  0.50627528  0.66227545  1
  I  I96  1  0.49374865  0.83893392  0.00332804  1
  I  I97  1  0.49424271  0.83242172  0.33366919  1
  I  I98  1  0.49427870  0.82847027  0.66329484  1
  I  I99  1  0.84433303  0.16246305  -0.00416480  1
  I  I100  1  0.83550233  0.16848116  0.33332527  1
  I  I101  1  0.83459861  0.16247916  0.66973588  1
  I  I102  1  0.83176311  0.49998317  -0.00009117  1
  I  I103  1  0.83125114  0.50212760  0.33736421  1
  I  I104  1  0.83273680  0.50106301  0.66393879  1
  I  I105  1  0.83630462  0.83767933  -0.00340786  1
  I  I106  1  0.83450034  0.83110503  0.33332911  1
  I  I107  1  0.83560211  0.83635866  0.66935232  1
  I  I108  1  -0.00001362  0.16753852  0.16907303  1
  I  I109  1  0.00425001  0.16325932  0.49964332  1
  I  I110  1  0.00138581  0.16680375  0.82926718  1
  I  I111  1  0.00479880  0.50555268  0.16522198  1
  I  I112  1  -0.00119490  0.50028827  0.50163039  1
  I  I113  1  0.00332804  0.49906061  0.83296519  1
  I  I114  1  0.00325098  0.82858535  0.17132820  1
  I  I115  1  0.00320969  0.83395461  0.49675639  1
  I  I116  1  -0.00199973  0.83390267  0.83221266  1
  I  I117  1  0.33528160  0.16549525  0.16515661  1
  I  I118  1  0.32991281  0.16926409  0.50697545  1
  I  I119  1  0.32989808  0.17186379  0.82932485  1
  I  I120  1  0.33001793  0.50071217  0.16559638  1
  I  I121  1  0.33526349  0.50150447  0.49977814  1
  I  I122  1  0.32850137  0.49338999  0.83537487  1
  I  I123  1  0.33269248  0.83308005  0.17006519  1
  I  I124  1  0.33274818  0.82928713  0.49741439  1
  I  I125  1  0.33342694  0.83300594  0.83286975  1
  I  I126  1  0.66208225  0.15796736  0.16898021  1
  I  I127  1  0.66665858  0.16549254  0.50095447  1
  I  I128  1  0.66947537  0.16060693  0.83367543  1
  I  I129  1  0.66654404  0.50004596  0.16438978  1
  I  I130  1  0.66571161  0.50696534  0.50060460  1
  I  I131  1  0.66662008  0.49940906  0.83488969  1
  I  I132  1  0.66310955  0.83928231  0.17220510  1
  I  I133  1  0.66355415  0.82982737  0.49583551  1
  I  I134  1  0.67050848  0.84134858  0.83167360  1
