# generated using pymatgen
data_Ca2Al2SiO7
_symmetry_space_group_name_H-M   'P 1'
_cell_length_a   15.45361307
_cell_length_b   15.45380988
_cell_length_c   15.28001115
_cell_angle_alpha   90.00347213
_cell_angle_beta   89.98840348
_cell_angle_gamma   90.00147787
_symmetry_Int_Tables_number   1
_chemical_formula_structural   Ca2Al2SiO7
_chemical_formula_sum   'Ca48 Al48 Si24 O168'
_cell_volume   3649.12937242
_cell_formula_units_Z   24
loop_
 _symmetry_equiv_pos_site_id
 _symmetry_equiv_pos_as_xyz
  1  'x, y, z'
loop_
 _atom_type_symbol
 _atom_type_oxidation_number
  Ca2+  2.0
  Al0+  0.0
  Si0+  0.0
  O2-  -2.0
loop_
 _atom_site_type_symbol
 _atom_site_label
 _atom_site_symmetry_multiplicity
 _atom_site_fract_x
 _atom_site_fract_y
 _atom_site_fract_z
 _atom_site_occupancy
  Ca2+  Ca0  1  0.17644997  0.09033928  0.16739348  1
  Ca2+  Ca1  1  0.17727025  0.07902589  0.51072856  1
  Ca2+  Ca2  1  0.17407920  0.08774952  0.83718841  1
  Ca2+  Ca3  1  0.16309820  0.57564833  0.16526186  1
  Ca2+  Ca4  1  0.17033927  0.58227119  0.51044008  1
  Ca2+  Ca5  1  0.16741025  0.58217799  0.83280053  1
  Ca2+  Ca6  1  0.66827872  0.07558860  0.17232828  1
  Ca2+  Ca7  1  0.66775598  0.08199472  0.50499648  1
  Ca2+  Ca8  1  0.67183174  0.08852643  0.83099850  1
  Ca2+  Ca9  1  0.67753496  0.57426532  0.17254663  1
  Ca2+  Ca10  1  0.67619796  0.57808818  0.50389593  1
  Ca2+  Ca11  1  0.67599538  0.57715220  0.84147985  1
  Ca2+  Ca12  1  0.07298191  0.33268193  0.15723057  1
  Ca2+  Ca13  1  0.07832150  0.32589573  0.49562323  1
  Ca2+  Ca14  1  0.08526203  0.32608204  0.83454124  1
  Ca2+  Ca15  1  0.07427738  0.82908110  0.15874090  1
  Ca2+  Ca16  1  0.08882726  0.82879648  0.50347414  1
  Ca2+  Ca17  1  0.08068747  0.83034799  0.82540042  1
  Ca2+  Ca18  1  0.58105723  0.34132669  0.16546634  1
  Ca2+  Ca19  1  0.57974041  0.32908724  0.49420674  1
  Ca2+  Ca20  1  0.58570544  0.32919616  0.82841312  1
  Ca2+  Ca21  1  0.57673831  0.83838114  0.16330039  1
  Ca2+  Ca22  1  0.57217392  0.83865133  0.49469907  1
  Ca2+  Ca23  1  0.56994583  0.83394384  0.82872811  1
  Ca2+  Ca24  1  0.32536343  0.41010367  0.17131037  1
  Ca2+  Ca25  1  0.33633221  0.42189872  0.50457083  1
  Ca2+  Ca26  1  0.32790202  0.42287788  0.83861611  1
  Ca2+  Ca27  1  0.34150912  0.92721514  0.17059076  1
  Ca2+  Ca28  1  0.33372411  0.92334301  0.50835076  1
  Ca2+  Ca29  1  0.33146697  0.92211303  0.83395578  1
  Ca2+  Ca30  1  0.82985172  0.41872840  0.17274070  1
  Ca2+  Ca31  1  0.83388573  0.42011278  0.50075999  1
  Ca2+  Ca32  1  0.83405821  0.42597999  0.84296134  1
  Ca2+  Ca33  1  0.82866737  0.91436554  0.17263544  1
  Ca2+  Ca34  1  0.82298391  0.92074159  0.50675894  1
  Ca2+  Ca35  1  0.83984748  0.92282866  0.83620265  1
  Ca2+  Ca36  1  0.41343677  0.16741388  0.16559320  1
  Ca2+  Ca37  1  0.41894202  0.16432910  0.49543719  1
  Ca2+  Ca38  1  0.41984802  0.16256141  0.82667308  1
  Ca2+  Ca39  1  0.41902602  0.68115051  0.15999800  1
  Ca2+  Ca40  1  0.40971223  0.67940451  0.49618715  1
  Ca2+  Ca41  1  0.40947086  0.67711621  0.82485305  1
  Ca2+  Ca42  1  0.92139135  0.17927915  0.15636650  1
  Ca2+  Ca43  1  0.92119163  0.16615468  0.49766235  1
  Ca2+  Ca44  1  0.92690860  0.17048069  0.82493818  1
  Ca2+  Ca45  1  0.90908099  0.66816121  0.16096199  1
  Ca2+  Ca46  1  0.92054998  0.65614141  0.49941205  1
  Ca2+  Ca47  1  0.91649106  0.66716878  0.82927892  1
  Al0+  Al48  1  0.00225178  -0.00091418  -0.00522898  1
  Al0+  Al49  1  0.00287482  -0.00303959  0.33182158  1
  Al0+  Al50  1  -0.00131557  -0.00015881  0.66708869  1
  Al0+  Al51  1  0.00154237  0.50085707  0.00368767  1
  Al0+  Al52  1  0.00158824  0.49773218  0.33242552  1
  Al0+  Al53  1  -0.00149194  0.50051544  0.66699668  1
  Al0+  Al54  1  0.49937705  0.00098341  -0.00126194  1
  Al0+  Al55  1  0.50029442  0.00081057  0.33668129  1
  Al0+  Al56  1  0.49994150  0.00096218  0.66170852  1
  Al0+  Al57  1  0.50113794  0.50173426  0.00262536  1
  Al0+  Al58  1  0.50055217  0.50008976  0.33180707  1
  Al0+  Al59  1  0.49999301  0.50155946  0.67187226  1
  Al0+  Al60  1  0.25195153  0.25094312  0.00453312  1
  Al0+  Al61  1  0.25216820  0.24896071  0.33619335  1
  Al0+  Al62  1  0.24894787  0.25023426  0.66498430  1
  Al0+  Al63  1  0.24895908  0.75252932  -0.00247881  1
  Al0+  Al64  1  0.24916504  0.75042724  0.32391212  1
  Al0+  Al65  1  0.24773703  0.74992996  0.66561776  1
  Al0+  Al66  1  0.74978928  0.25030789  0.00055533  1
  Al0+  Al67  1  0.75078320  0.24979288  0.33242529  1
  Al0+  Al68  1  0.74800881  0.24864248  0.66477466  1
  Al0+  Al69  1  0.74849299  0.75056282  -0.00235732  1
  Al0+  Al70  1  0.75022758  0.74917510  0.34386683  1
  Al0+  Al71  1  0.74766025  0.74922025  0.67108143  1
  Al0+  Al72  1  0.31887019  0.06992590  0.34864289  1
  Al0+  Al73  1  0.32188160  0.07208544  0.68201995  1
  Al0+  Al74  1  0.32068857  0.57110582  0.67829903  1
  Al0+  Al75  1  0.67687781  0.42684676  0.35089436  1
  Al0+  Al76  1  0.07197856  0.17750633  0.65130675  1
  Al0+  Al77  1  0.82269422  0.56960952  0.35103827  1
  Al0+  Al78  1  0.57026026  0.18050476  0.65231739  1
  Al0+  Al79  1  0.92668878  0.82035016  0.98665322  1
  Al0+  Al80  1  0.67836685  0.42623113  0.01605832  1
  Al0+  Al81  1  0.82119156  0.57211914  0.01554190  1
  Al0+  Al82  1  0.92760822  0.32252305  0.98347873  1
  Al0+  Al83  1  0.82002497  0.07091670  0.67963835  1
  Al0+  Al84  1  0.42939434  0.82230421  0.98433897  1
  Al0+  Al85  1  0.18205981  0.43014273  0.01381490  1
  Al0+  Al86  1  0.17873999  0.92853099  0.68183655  1
  Al0+  Al87  1  0.06771531  0.67945016  0.65335022  1
  Al0+  Al88  1  0.42930484  0.81889916  0.65164485  1
  Al0+  Al89  1  0.07326865  0.18026693  0.98498910  1
  Al0+  Al90  1  0.42980383  0.32194958  0.31972646  1
  Al0+  Al91  1  0.67964844  0.92966171  0.34707524  1
  Al0+  Al92  1  0.43006833  0.82198222  0.31783080  1
  Al0+  Al93  1  0.82130846  0.57015540  0.68269864  1
  Al0+  Al94  1  0.32112339  0.06903725  0.01476311  1
  Al0+  Al95  1  0.93013729  0.31939516  0.31932848  1
  Si0+  Si96  1  0.57195745  0.17811240  0.31541005  1
  Si0+  Si97  1  0.92796870  0.32111705  0.64999398  1
  Si0+  Si98  1  0.07107203  0.67780353  0.31694590  1
  Si0+  Si99  1  0.67671689  0.92833331  0.68499359  1
  Si0+  Si100  1  0.17638410  0.92455692  0.34906611  1
  Si0+  Si101  1  0.67758575  0.42760092  0.68359976  1
  Si0+  Si102  1  0.57052221  0.67787460  0.98247169  1
  Si0+  Si103  1  0.17662310  0.92679784  0.01825074  1
  Si0+  Si104  1  0.92485651  0.82251372  0.64871275  1
  Si0+  Si105  1  0.57381268  0.67869243  0.31746482  1
  Si0+  Si106  1  0.82387251  0.07049130  0.01397216  1
  Si0+  Si107  1  0.92767863  0.81995774  0.32151186  1
  Si0+  Si108  1  0.31979169  0.57298917  0.34467799  1
  Si0+  Si109  1  0.67932305  0.93149013  0.01239502  1
  Si0+  Si110  1  0.18034878  0.42924458  0.34928345  1
  Si0+  Si111  1  0.57297495  0.67640479  0.64958681  1
  Si0+  Si112  1  0.57059536  0.17854355  0.98644903  1
  Si0+  Si113  1  0.32258596  0.57558643  0.01769818  1
  Si0+  Si114  1  0.42939893  0.32249972  0.98626736  1
  Si0+  Si115  1  0.07307200  0.17597191  0.31708954  1
  Si0+  Si116  1  0.17700406  0.42751054  0.68193325  1
  Si0+  Si117  1  0.82488397  0.07156523  0.34706954  1
  Si0+  Si118  1  0.07197898  0.67794001  0.98298788  1
  Si0+  Si119  1  0.42736432  0.32465825  0.65241336  1
  O2-  O120  1  0.24562699  -0.00484093  0.06243944  1
  O2-  O121  1  0.24421694  -0.00593126  0.39214811  1
  O2-  O122  1  0.24762115  0.00306565  0.73280417  1
  O2-  O123  1  0.25649818  0.50499243  0.06273288  1
  O2-  O124  1  0.25180063  0.50046539  0.38979556  1
  O2-  O125  1  0.24858685  0.49411451  0.72490392  1
  O2-  O126  1  0.75395139  -0.00184021  0.05644989  1
  O2-  O127  1  0.75589568  0.00366207  0.39181876  1
  O2-  O128  1  0.74841123  -0.00599163  0.72897176  1
  O2-  O129  1  0.75295130  0.49626104  0.06491197  1
  O2-  O130  1  0.75062199  0.49715231  0.40040931  1
  O2-  O131  1  0.74637821  0.49561457  0.72794184  1
  O2-  O132  1  0.00155359  0.24120838  0.27293729  1
  O2-  O133  1  -0.00361823  0.25198811  0.60530901  1
  O2-  O134  1  -0.00166821  0.24893862  0.93413534  1
  O2-  O135  1  -0.00281889  0.74773216  0.27810275  1
  O2-  O136  1  -0.00817953  0.75208431  0.60402460  1
  O2-  O137  1  0.00109694  0.74525232  0.94092782  1
  O2-  O138  1  0.50632727  0.24969058  0.27096951  1
  O2-  O139  1  0.49355451  0.25405939  0.60769195  1
  O2-  O140  1  0.50409613  0.25486714  0.94551716  1
  O2-  O141  1  0.50594372  0.74786900  0.27148131  1
  O2-  O142  1  0.50395251  0.74396708  0.60412268  1
  O2-  O143  1  0.49833278  0.74252081  0.93757247  1
  O2-  O144  1  0.07137448  0.18220480  0.09917943  1
  O2-  O145  1  0.07187063  0.17685473  0.42276802  1
  O2-  O146  1  0.07276026  0.18087603  0.76404131  1
  O2-  O147  1  0.07418724  0.68019412  0.08918295  1
  O2-  O148  1  0.07503368  0.67752633  0.42181362  1
  O2-  O149  1  0.06689389  0.67911966  0.76614597  1
  O2-  O150  1  0.56910501  0.17357486  0.09131458  1
  O2-  O151  1  0.56984265  0.17743325  0.42093040  1
  O2-  O152  1  0.57157572  0.18275599  0.76606228  1
  O2-  O153  1  0.57063463  0.68045474  0.08821061  1
  O2-  O154  1  0.57104233  0.67944139  0.42301707  1
  O2-  O155  1  0.57203211  0.67787593  0.75524759  1
  O2-  O156  1  0.17995615  0.42993637  0.24417466  1
  O2-  O157  1  0.17664859  0.42914586  0.57577026  1
  O2-  O158  1  0.18536479  0.43022583  0.90072674  1
  O2-  O159  1  0.17293165  0.92359599  0.24359228  1
  O2-  O160  1  0.18242378  0.92817359  0.56760204  1
  O2-  O161  1  0.17734549  0.92474298  0.91323106  1
  O2-  O162  1  0.67753476  0.43006716  0.23769862  1
  O2-  O163  1  0.67613244  0.42833929  0.57821561  1
  O2-  O164  1  0.67637994  0.42795898  0.90229307  1
  O2-  O165  1  0.68144436  0.93058544  0.23306818  1
  O2-  O166  1  0.67764375  0.92941660  0.57912291  1
  O2-  O167  1  0.67758896  0.93489706  0.90767142  1
  O2-  O168  1  0.42810061  0.32050899  0.09140887  1
  O2-  O169  1  0.42819385  0.32131537  0.43275638  1
  O2-  O170  1  0.42937684  0.32659711  0.75830490  1
  O2-  O171  1  0.43425296  0.82346283  0.09775232  1
  O2-  O172  1  0.42782956  0.81986569  0.43065947  1
  O2-  O173  1  0.43106196  0.81863974  0.76489655  1
  O2-  O174  1  0.92842918  0.32005595  0.09737674  1
  O2-  O175  1  0.93417252  0.31963583  0.43265786  1
  O2-  O176  1  0.92842079  0.32092390  0.75531388  1
  O2-  O177  1  0.92683310  0.82037231  0.10076858  1
  O2-  O178  1  0.92936002  0.82281561  0.42604799  1
  O2-  O179  1  0.92582079  0.82145147  0.75437227  1
  O2-  O180  1  0.31845826  0.07019263  0.23513288  1
  O2-  O181  1  0.32195767  0.07044714  0.56832681  1
  O2-  O182  1  0.32397525  0.06880832  0.90231632  1
  O2-  O183  1  0.31564178  0.57358660  0.23965159  1
  O2-  O184  1  0.31903460  0.56999934  0.56444131  1
  O2-  O185  1  0.32116816  0.57489661  0.91199411  1
  O2-  O186  1  0.82477007  0.06864143  0.24100722  1
  O2-  O187  1  0.81792096  0.06944312  0.56614524  1
  O2-  O188  1  0.82162637  0.07070992  0.90903367  1
  O2-  O189  1  0.82197543  0.57185486  0.23782869  1
  O2-  O190  1  0.82178383  0.56675792  0.56980742  1
  O2-  O191  1  0.81813062  0.57252779  0.90191918  1
  O2-  O192  1  0.05309487  0.08032219  0.27171139  1
  O2-  O193  1  0.03978734  0.08116512  0.59732324  1
  O2-  O194  1  0.04986029  0.08043958  0.93376393  1
  O2-  O195  1  0.04500305  0.58560544  0.26960390  1
  O2-  O196  1  0.03888820  0.58221533  0.59770601  1
  O2-  O197  1  0.04994725  0.58364326  0.93819653  1
  O2-  O198  1  0.54235949  0.08572103  0.26880941  1
  O2-  O199  1  0.54228702  0.08431661  0.59634429  1
  O2-  O200  1  0.53819921  0.08998395  0.93577327  1
  O2-  O201  1  0.54784032  0.58584854  0.27025204  1
  O2-  O202  1  0.54860435  0.58167861  0.60536715  1
  O2-  O203  1  0.54894263  0.58285498  0.93701143  1
  O2-  O204  1  0.16585070  0.20632095  0.27285166  1
  O2-  O205  1  0.16795349  0.20963060  0.59570636  1
  O2-  O206  1  0.17134360  0.21379464  0.93394647  1
  O2-  O207  1  0.15985433  0.70717035  0.26411404  1
  O2-  O208  1  0.16325625  0.71091763  0.59694344  1
  O2-  O209  1  0.16491575  0.70495128  0.93612360  1
  O2-  O210  1  0.66758490  0.19740880  0.27070068  1
  O2-  O211  1  0.66585300  0.21086305  0.59534259  1
  O2-  O212  1  0.66358515  0.20198326  0.93911815  1
  O2-  O213  1  0.66849166  0.70553882  0.27425056  1
  O2-  O214  1  0.66681307  0.70242645  0.60380350  1
  O2-  O215  1  0.66185067  0.70798443  0.93466183  1
  O2-  O216  1  0.08666467  0.46158602  0.07026682  1
  O2-  O217  1  0.08984285  0.45837941  0.39751378  1
  O2-  O218  1  0.08531682  0.45666069  0.72870125  1
  O2-  O219  1  0.08231827  0.95191029  0.06431606  1
  O2-  O220  1  0.08246780  0.94723665  0.39675096  1
  O2-  O221  1  0.07778344  0.95067485  0.73119709  1
  O2-  O222  1  0.57965206  0.45695224  0.06901001  1
  O2-  O223  1  0.57763667  0.45617679  0.40260075  1
  O2-  O224  1  0.58464649  0.45297979  0.73178564  1
  O2-  O225  1  0.59013283  0.96458050  0.06223001  1
  O2-  O226  1  0.58508199  0.96283063  0.40255898  1
  O2-  O227  1  0.58470801  0.95910551  0.73011399  1
  O2-  O228  1  0.21495092  0.33607723  0.07153143  1
  O2-  O229  1  0.20822164  0.33787744  0.39708305  1
  O2-  O230  1  0.20127605  0.33418774  0.72804578  1
  O2-  O231  1  0.20128917  0.83268680  0.06486377  1
  O2-  O232  1  0.20373211  0.83016040  0.39267554  1
  O2-  O233  1  0.20844131  0.83096437  0.73503333  1
  O2-  O234  1  0.70156901  0.32615816  0.06889995  1
  O2-  O235  1  0.70375745  0.32657477  0.40112062  1
  O2-  O236  1  0.70242922  0.33341622  0.72798288  1
  O2-  O237  1  0.70269157  0.83850337  0.05918597  1
  O2-  O238  1  0.70838277  0.83508399  0.40519010  1
  O2-  O239  1  0.69710163  0.83353748  0.73070235  1
  O2-  O240  1  0.45519757  0.41974179  0.26418897  1
  O2-  O241  1  0.45541332  0.41807105  0.60603586  1
  O2-  O242  1  0.45241560  0.41668199  0.94044565  1
  O2-  O243  1  0.46402968  0.91861194  0.26570508  1
  O2-  O244  1  0.46201059  0.91466775  0.59750018  1
  O2-  O245  1  0.46647681  0.91655978  0.93042905  1
  O2-  O246  1  0.96556535  0.41449009  0.26485147  1
  O2-  O247  1  0.95554643  0.41405389  0.60377728  1
  O2-  O248  1  0.95890850  0.42150927  0.93420977  1
  O2-  O249  1  0.95564155  0.91092602  0.27067402  1
  O2-  O250  1  0.95039321  0.91544367  0.60177302  1
  O2-  O251  1  0.95791694  0.91604001  0.93145709  1
  O2-  O252  1  0.33323125  0.28784047  0.26609436  1
  O2-  O253  1  0.33271305  0.30411726  0.60669235  1
  O2-  O254  1  0.33956490  0.29178965  0.93797482  1
  O2-  O255  1  0.33430790  0.79086128  0.26123950  1
  O2-  O256  1  0.33340217  0.78620903  0.59795597  1
  O2-  O257  1  0.33082446  0.79555073  0.93295686  1
  O2-  O258  1  0.83227226  0.29216163  0.26582106  1
  O2-  O259  1  0.83443955  0.29505895  0.60418466  1
  O2-  O260  1  0.82795745  0.29535376  0.93242439  1
  O2-  O261  1  0.83470855  0.79330733  0.27556349  1
  O2-  O262  1  0.82902002  0.79860518  0.60600065  1
  O2-  O263  1  0.82972817  0.79392094  0.93104755  1
  O2-  O264  1  0.41749383  0.03616489  0.06942513  1
  O2-  O265  1  0.41581644  0.04012083  0.40109773  1
  O2-  O266  1  0.42101618  0.04205467  0.73239043  1
  O2-  O267  1  0.41740494  0.55374778  0.06211245  1
  O2-  O268  1  0.41264271  0.54898680  0.39070642  1
  O2-  O269  1  0.41702388  0.54477769  0.73569588  1
  O2-  O270  1  0.91599672  0.04328075  0.06069655  1
  O2-  O271  1  0.91892044  0.04518098  0.39230389  1
  O2-  O272  1  0.91624692  0.04211011  0.73452796  1
  O2-  O273  1  0.92178029  0.55120685  0.06650276  1
  O2-  O274  1  0.92234654  0.53903960  0.40132371  1
  O2-  O275  1  0.91790586  0.53971316  0.73649554  1
  O2-  O276  1  0.29178629  0.16581875  0.06956897  1
  O2-  O277  1  0.28947993  0.16636827  0.40388620  1
  O2-  O278  1  0.29683487  0.17291212  0.73225819  1
  O2-  O279  1  0.29391941  0.66884011  0.06355770  1
  O2-  O280  1  0.28829755  0.66449205  0.39090820  1
  O2-  O281  1  0.28516216  0.66481031  0.73337002  1
  O2-  O282  1  0.79377550  0.16115497  0.06215868  1
  O2-  O283  1  0.80051583  0.16486473  0.39305676  1
  O2-  O284  1  0.78594502  0.16638914  0.73416927  1
  O2-  O285  1  0.78796820  0.67062712  0.06750067  1
  O2-  O286  1  0.79634183  0.66741102  0.40639570  1
  O2-  O287  1  0.79194066  0.66787503  0.73542095  1
