# generated using pymatgen
data_Ca2Al2SiO7
_symmetry_space_group_name_H-M   'P 1'
_cell_length_a   15.45900714
_cell_length_b   15.45939321
_cell_length_c   15.28410235
_cell_angle_alpha   90.00962503
_cell_angle_beta   90.00286633
_cell_angle_gamma   89.98516595
_symmetry_Int_Tables_number   1
_chemical_formula_structural   Ca2Al2SiO7
_chemical_formula_sum   'Ca48 Al48 Si24 O168'
_cell_volume   3652.69960266
_cell_formula_units_Z   24
loop_
 _symmetry_equiv_pos_site_id
 _symmetry_equiv_pos_as_xyz
  1  'x, y, z'
loop_
 _atom_type_symbol
 _atom_type_oxidation_number
  Ca2+  2.0
  Al0+  0.0
  Si0+  0.0
  O2-  -2.0
loop_
 _atom_site_type_symbol
 _atom_site_label
 _atom_site_symmetry_multiplicity
 _atom_site_fract_x
 _atom_site_fract_y
 _atom_site_fract_z
 _atom_site_occupancy
  Ca2+  Ca0  1  0.16673384  0.08573444  0.16726771  1
  Ca2+  Ca1  1  0.16712835  0.08531265  0.50504991  1
  Ca2+  Ca2  1  0.17601555  0.09286446  0.83637986  1
  Ca2+  Ca3  1  0.17268533  0.58224591  0.17173341  1
  Ca2+  Ca4  1  0.17048593  0.57192639  0.51029132  1
  Ca2+  Ca5  1  0.16732208  0.57328107  0.83560610  1
  Ca2+  Ca6  1  0.66350535  0.06797357  0.17156497  1
  Ca2+  Ca7  1  0.67267626  0.08017167  0.50595995  1
  Ca2+  Ca8  1  0.67185882  0.07890010  0.83920731  1
  Ca2+  Ca9  1  0.66271703  0.58154795  0.17271700  1
  Ca2+  Ca10  1  0.66487057  0.57646684  0.50549531  1
  Ca2+  Ca11  1  0.66081860  0.58403295  0.83056247  1
  Ca2+  Ca12  1  0.07224562  0.32329158  0.16098819  1
  Ca2+  Ca13  1  0.08051123  0.32256980  0.49474509  1
  Ca2+  Ca14  1  0.08094967  0.32363946  0.82881157  1
  Ca2+  Ca15  1  0.07901272  0.83763613  0.16290901  1
  Ca2+  Ca16  1  0.08346489  0.83505625  0.49480238  1
  Ca2+  Ca17  1  0.07494160  0.83724431  0.83186415  1
  Ca2+  Ca18  1  0.57463767  0.33698407  0.16455638  1
  Ca2+  Ca19  1  0.57668171  0.34234711  0.49558188  1
  Ca2+  Ca20  1  0.57149543  0.33743960  0.82682623  1
  Ca2+  Ca21  1  0.58823128  0.82592059  0.15695261  1
  Ca2+  Ca22  1  0.58473179  0.82434147  0.49670587  1
  Ca2+  Ca23  1  0.57946572  0.82947148  0.82940728  1
  Ca2+  Ca24  1  0.33880510  0.41383434  0.16966035  1
  Ca2+  Ca25  1  0.33113567  0.41074609  0.50822312  1
  Ca2+  Ca26  1  0.32913414  0.40513676  0.83508946  1
  Ca2+  Ca27  1  0.33269697  0.92355229  0.17096431  1
  Ca2+  Ca28  1  0.32834883  0.92239859  0.50801684  1
  Ca2+  Ca29  1  0.34240659  0.92648824  0.83964289  1
  Ca2+  Ca30  1  0.83024560  0.41341337  0.17406929  1
  Ca2+  Ca31  1  0.82217829  0.41724360  0.50861247  1
  Ca2+  Ca32  1  0.82980721  0.42071423  0.83606318  1
  Ca2+  Ca33  1  0.82414017  0.91106465  0.16871399  1
  Ca2+  Ca34  1  0.82693085  0.92285930  0.50451892  1
  Ca2+  Ca35  1  0.82988560  0.92041755  0.83944020  1
  Ca2+  Ca36  1  0.41263750  0.17542352  0.16134393  1
  Ca2+  Ca37  1  0.41169312  0.17668378  0.50088149  1
  Ca2+  Ca38  1  0.41089818  0.17076020  0.82811665  1
  Ca2+  Ca39  1  0.43018778  0.67529741  0.15882412  1
  Ca2+  Ca40  1  0.42964123  0.66747241  0.49789844  1
  Ca2+  Ca41  1  0.42698721  0.67977547  0.82673928  1
  Ca2+  Ca42  1  0.92480213  0.17350655  0.16090237  1
  Ca2+  Ca43  1  0.92477760  0.16705238  0.49339303  1
  Ca2+  Ca44  1  0.92719897  0.16337583  0.82667341  1
  Ca2+  Ca45  1  0.91859010  0.67308254  0.16025466  1
  Ca2+  Ca46  1  0.91326125  0.66295812  0.50112390  1
  Ca2+  Ca47  1  0.90956506  0.67210567  0.83064393  1
  Al0+  Al48  1  0.00172901  -0.00006181  -0.00733766  1
  Al0+  Al49  1  0.00165264  -0.00127697  0.33246720  1
  Al0+  Al50  1  -0.00030376  -0.00067848  0.66509114  1
  Al0+  Al51  1  -0.00043611  0.49841987  0.00014017  1
  Al0+  Al52  1  0.00166445  0.50091667  0.32990808  1
  Al0+  Al53  1  -0.00085690  0.50006124  0.67553829  1
  Al0+  Al54  1  0.50050543  0.00096991  0.00898477  1
  Al0+  Al55  1  0.49838040  0.00057451  0.34174576  1
  Al0+  Al56  1  0.49837548  0.00119223  0.66521047  1
  Al0+  Al57  1  0.49918439  0.50002857  -0.00718768  1
  Al0+  Al58  1  0.50120770  0.50260749  0.32874993  1
  Al0+  Al59  1  0.49840545  0.50262691  0.66334027  1
  Al0+  Al60  1  0.24858500  0.24950315  0.00067074  1
  Al0+  Al61  1  0.24984616  0.25073889  0.32521526  1
  Al0+  Al62  1  0.24823629  0.24840091  0.66552383  1
  Al0+  Al63  1  0.25111304  0.74876760  -0.00190878  1
  Al0+  Al64  1  0.25149616  0.75098046  0.33825788  1
  Al0+  Al65  1  0.24739959  0.75001308  0.66423765  1
  Al0+  Al66  1  0.74997943  0.25170861  -0.00048273  1
  Al0+  Al67  1  0.74805291  0.24952334  0.33406516  1
  Al0+  Al68  1  0.74927846  0.25015341  0.67727874  1
  Al0+  Al69  1  0.75270963  0.74805828  -0.00389677  1
  Al0+  Al70  1  0.75083541  0.74919607  0.33514513  1
  Al0+  Al71  1  0.74979293  0.74955823  0.66459768  1
  Al0+  Al72  1  0.31920654  0.06905854  0.67944664  1
  Al0+  Al73  1  0.93104444  0.81933578  0.98683209  1
  Al0+  Al74  1  0.18038309  0.42785811  0.68013679  1
  Al0+  Al75  1  0.68188379  0.92902648  0.01252978  1
  Al0+  Al76  1  0.57243878  0.67903643  0.98329989  1
  Al0+  Al77  1  0.06890645  0.17967845  0.65081641  1
  Al0+  Al78  1  0.57130570  0.68241933  0.31829590  1
  Al0+  Al79  1  0.32045845  0.07135734  0.01572698  1
  Al0+  Al80  1  0.82038240  0.57143380  0.68319099  1
  Al0+  Al81  1  0.67835535  0.92662818  0.34866728  1
  Al0+  Al82  1  0.92622536  0.32246840  0.32095621  1
  Al0+  Al83  1  0.57118442  0.68123781  0.64819846  1
  Al0+  Al84  1  0.17933852  0.92932127  0.34674748  1
  Al0+  Al85  1  0.67514146  0.42929613  0.68373355  1
  Al0+  Al86  1  0.43142343  0.32032402  0.31981546  1
  Al0+  Al87  1  0.43003607  0.31895526  0.65343910  1
  Al0+  Al88  1  0.07061074  0.17721329  0.31649460  1
  Al0+  Al89  1  0.42855008  0.82429325  0.98749554  1
  Al0+  Al90  1  0.92574357  0.32295165  0.98228399  1
  Al0+  Al91  1  0.06931727  0.17967535  0.98221173  1
  Al0+  Al92  1  0.42646712  0.82499929  0.64953248  1
  Al0+  Al93  1  0.67882655  0.42930160  0.34494340  1
  Al0+  Al94  1  0.82244619  0.07094457  0.68002163  1
  Al0+  Al95  1  0.43046595  0.31876367  0.98578306  1
  Si0+  Si96  1  0.32042676  0.07521801  0.35175441  1
  Si0+  Si97  1  0.82162785  0.56970209  0.01703537  1
  Si0+  Si98  1  0.17931918  0.42948427  0.01790055  1
  Si0+  Si99  1  0.42675184  0.82330754  0.31768454  1
  Si0+  Si100  1  0.67656542  0.42969525  0.01586405  1
  Si0+  Si101  1  0.82465212  0.07266757  0.01705796  1
  Si0+  Si102  1  0.17941409  0.42976094  0.34654307  1
  Si0+  Si103  1  0.92641496  0.32357901  0.65176182  1
  Si0+  Si104  1  0.32155625  0.57110486  0.01507898  1
  Si0+  Si105  1  0.82488908  0.57154443  0.34828777  1
  Si0+  Si106  1  0.57530322  0.17771304  0.65142346  1
  Si0+  Si107  1  0.32086193  0.57392300  0.68392687  1
  Si0+  Si108  1  0.67854393  0.92911491  0.68257031  1
  Si0+  Si109  1  0.57287929  0.17638589  0.98580703  1
  Si0+  Si110  1  0.17687806  0.92559147  0.68442419  1
  Si0+  Si111  1  0.32129919  0.57082829  0.34809250  1
  Si0+  Si112  1  0.82162177  0.07065593  0.34776625  1
  Si0+  Si113  1  0.17735666  0.92578650  0.01519670  1
  Si0+  Si114  1  0.07011401  0.67657489  0.65202518  1
  Si0+  Si115  1  0.93064708  0.81923165  0.32010879  1
  Si0+  Si116  1  0.92991071  0.82037159  0.64954959  1
  Si0+  Si117  1  0.57288782  0.17437456  0.31785989  1
  Si0+  Si118  1  0.07435483  0.67846029  0.31987750  1
  Si0+  Si119  1  0.07414421  0.67583540  0.98383799  1
  O2-  O120  1  0.24769052  -0.00737823  0.05962690  1
  O2-  O121  1  0.25207421  0.00496120  0.39401713  1
  O2-  O122  1  0.24894389  -0.00957142  0.72757874  1
  O2-  O123  1  0.25022346  0.50115785  0.06014956  1
  O2-  O124  1  0.25138655  0.49869654  0.39044297  1
  O2-  O125  1  0.25577707  0.50176040  0.72845086  1
  O2-  O126  1  0.75553553  0.00458164  0.06188272  1
  O2-  O127  1  0.75048733  0.00477599  0.39331813  1
  O2-  O128  1  0.74504638  -0.00053332  0.72717700  1
  O2-  O129  1  0.75035159  0.49859635  0.05829504  1
  O2-  O130  1  0.75930463  0.49901788  0.38990592  1
  O2-  O131  1  0.74843711  0.50023647  0.73403613  1
  O2-  O132  1  -0.00334476  0.24927761  0.27011689  1
  O2-  O133  1  -0.00835942  0.25266557  0.60566709  1
  O2-  O134  1  -0.00575075  0.24832475  0.93231790  1
  O2-  O135  1  0.00292497  0.74893439  0.27799725  1
  O2-  O136  1  0.00036238  0.74812870  0.60803607  1
  O2-  O137  1  0.00733346  0.74612216  0.93974533  1
  O2-  O138  1  0.50517078  0.24435678  0.27372899  1
  O2-  O139  1  0.50921577  0.24903064  0.60658537  1
  O2-  O140  1  0.50494025  0.24443732  0.93974604  1
  O2-  O141  1  0.50106117  0.76166290  0.27239971  1
  O2-  O142  1  0.49864332  0.75355457  0.59901206  1
  O2-  O143  1  0.50206856  0.75446302  0.93717023  1
  O2-  O144  1  0.06831991  0.18098665  0.09594987  1
  O2-  O145  1  0.07055519  0.17883375  0.43031073  1
  O2-  O146  1  0.06974640  0.18054102  0.76330458  1
  O2-  O147  1  0.07314001  0.67515952  0.09011403  1
  O2-  O148  1  0.07399556  0.67624517  0.42481055  1
  O2-  O149  1  0.07111329  0.67809583  0.75692028  1
  O2-  O150  1  0.57256262  0.17825156  0.09171608  1
  O2-  O151  1  0.57335557  0.17367912  0.42334668  1
  O2-  O152  1  0.57347035  0.17505779  0.75695662  1
  O2-  O153  1  0.57135819  0.67887215  0.09749438  1
  O2-  O154  1  0.56990707  0.68057371  0.43073275  1
  O2-  O155  1  0.57091768  0.68421291  0.76148539  1
  O2-  O156  1  0.17909834  0.43406188  0.24134969  1
  O2-  O157  1  0.18063194  0.43007316  0.56625188  1
  O2-  O158  1  0.18004271  0.43080546  0.91284302  1
  O2-  O159  1  0.18053940  0.92571978  0.23383341  1
  O2-  O160  1  0.17518164  0.92641653  0.57846029  1
  O2-  O161  1  0.17601032  0.92438451  0.91000065  1
  O2-  O162  1  0.67705723  0.43364955  0.23152115  1
  O2-  O163  1  0.67647467  0.43018909  0.56962666  1
  O2-  O164  1  0.67493345  0.43131673  0.91135724  1
  O2-  O165  1  0.68228413  0.92495542  0.23544338  1
  O2-  O166  1  0.68242754  0.92945017  0.57656222  1
  O2-  O167  1  0.68377520  0.93093027  0.89952097  1
  O2-  O168  1  0.43253485  0.32065804  0.09921269  1
  O2-  O169  1  0.42918309  0.32027343  0.43272835  1
  O2-  O170  1  0.42847774  0.31517722  0.76635059  1
  O2-  O171  1  0.42722302  0.82083987  0.10152468  1
  O2-  O172  1  0.42414837  0.81836006  0.42281646  1
  O2-  O173  1  0.42857161  0.82436621  0.76312489  1
  O2-  O174  1  0.92819940  0.32384409  0.09624414  1
  O2-  O175  1  0.92886619  0.32356078  0.43455633  1
  O2-  O176  1  0.93021421  0.32334911  0.75706310  1
  O2-  O177  1  0.93148462  0.81678799  0.10055877  1
  O2-  O178  1  0.93131690  0.81830451  0.42527317  1
  O2-  O179  1  0.93103958  0.82080701  0.75457353  1
  O2-  O180  1  0.32127274  0.07470492  0.24613497  1
  O2-  O181  1  0.31496700  0.07124393  0.56627027  1
  O2-  O182  1  0.31893659  0.07282054  0.90283338  1
  O2-  O183  1  0.31833711  0.57203281  0.24264343  1
  O2-  O184  1  0.31688512  0.57381156  0.57771695  1
  O2-  O185  1  0.31854819  0.57123395  0.91046679  1
  O2-  O186  1  0.82202716  0.06754708  0.24223817  1
  O2-  O187  1  0.82275257  0.06731173  0.56642679  1
  O2-  O188  1  0.82337008  0.06981699  0.91143577  1
  O2-  O189  1  0.82588976  0.57495651  0.24257231  1
  O2-  O190  1  0.82273408  0.56919772  0.56915626  1
  O2-  O191  1  0.82356025  0.57034189  0.91258432  1
  O2-  O192  1  0.04360815  0.07799202  0.26423086  1
  O2-  O193  1  0.03944756  0.08167987  0.59806913  1
  O2-  O194  1  0.04744773  0.08037172  0.92879842  1
  O2-  O195  1  0.04818644  0.58801865  0.26858271  1
  O2-  O196  1  0.04074167  0.58479380  0.60481375  1
  O2-  O197  1  0.04623306  0.58317423  0.93835708  1
  O2-  O198  1  0.54493911  0.08043645  0.27263808  1
  O2-  O199  1  0.54825798  0.08535080  0.60348687  1
  O2-  O200  1  0.54818202  0.08244377  0.94160059  1
  O2-  O201  1  0.53558658  0.58857040  0.26230672  1
  O2-  O202  1  0.54025726  0.58344356  0.59503469  1
  O2-  O203  1  0.53951786  0.58322548  0.92936010  1
  O2-  O204  1  0.16728749  0.20785956  0.26214980  1
  O2-  O205  1  0.16351688  0.21411115  0.59599382  1
  O2-  O206  1  0.16629612  0.21449370  0.93147957  1
  O2-  O207  1  0.16593620  0.70724191  0.27218778  1
  O2-  O208  1  0.16129396  0.70225729  0.60200604  1
  O2-  O209  1  0.16799892  0.69719970  0.93744386  1
  O2-  O210  1  0.66667727  0.19650087  0.27109143  1
  O2-  O211  1  0.67080600  0.20019496  0.60737871  1
  O2-  O212  1  0.66695907  0.19995223  0.94021351  1
  O2-  O213  1  0.67031492  0.70880177  0.26627275  1
  O2-  O214  1  0.67027207  0.70902359  0.59535406  1
  O2-  O215  1  0.67154189  0.70359972  0.93202349  1
  O2-  O216  1  0.08742624  0.45836892  0.06536014  1
  O2-  O217  1  0.08841015  0.45977658  0.39443798  1
  O2-  O218  1  0.08626410  0.46092511  0.73714734  1
  O2-  O219  1  0.08378539  0.95430310  0.06114556  1
  O2-  O220  1  0.08149823  0.95612184  0.40145606  1
  O2-  O221  1  0.08375753  0.95387018  0.72940845  1
  O2-  O222  1  0.58477814  0.46077761  0.06240145  1
  O2-  O223  1  0.58366475  0.46635146  0.39845009  1
  O2-  O224  1  0.57650100  0.46106050  0.73486272  1
  O2-  O225  1  0.58673283  0.95784548  0.07093399  1
  O2-  O226  1  0.58104586  0.95331243  0.40308421  1
  O2-  O227  1  0.58398586  0.95273147  0.72609122  1
  O2-  O228  1  0.20878983  0.33888681  0.06574900  1
  O2-  O229  1  0.20666916  0.33675287  0.39090652  1
  O2-  O230  1  0.21252327  0.33286122  0.73499638  1
  O2-  O231  1  0.19808501  0.83006331  0.06071513  1
  O2-  O232  1  0.20853412  0.83264496  0.40345190  1
  O2-  O233  1  0.19511943  0.82960331  0.72861802  1
  O2-  O234  1  0.70078431  0.33633380  0.06294444  1
  O2-  O235  1  0.70086080  0.33031097  0.39890321  1
  O2-  O236  1  0.69865956  0.33062472  0.73821700  1
  O2-  O237  1  0.71704140  0.83218443  0.06519110  1
  O2-  O238  1  0.71532641  0.83254995  0.40380959  1
  O2-  O239  1  0.70799343  0.83661082  0.72729110  1
  O2-  O240  1  0.46230298  0.41653300  0.26457689  1
  O2-  O241  1  0.45287526  0.41828972  0.60118370  1
  O2-  O242  1  0.45850308  0.41481862  0.93048372  1
  O2-  O243  1  0.44512343  0.92092496  0.27810883  1
  O2-  O244  1  0.45285305  0.92380854  0.59619051  1
  O2-  O245  1  0.45643851  0.92404762  0.93846305  1
  O2-  O246  1  0.95660964  0.42056286  0.26635032  1
  O2-  O247  1  0.95448171  0.41756559  0.60808853  1
  O2-  O248  1  0.95801099  0.42085997  0.93109588  1
  O2-  O249  1  0.95789655  0.90995046  0.27128091  1
  O2-  O250  1  0.95978990  0.91041586  0.60009984  1
  O2-  O251  1  0.95965941  0.91464362  0.92996506  1
  O2-  O252  1  0.33512354  0.29256358  0.26331045  1
  O2-  O253  1  0.33479372  0.28433002  0.59870866  1
  O2-  O254  1  0.33284820  0.28886690  0.93520019  1
  O2-  O255  1  0.33501533  0.79144306  0.27081755  1
  O2-  O256  1  0.32613949  0.79669878  0.59921949  1
  O2-  O257  1  0.33033424  0.79534889  0.93422021  1
  O2-  O258  1  0.82698084  0.29630305  0.26794626  1
  O2-  O259  1  0.83006735  0.30047291  0.61086723  1
  O2-  O260  1  0.82479195  0.30158150  0.93252963  1
  O2-  O261  1  0.84015128  0.78910944  0.27182038  1
  O2-  O262  1  0.83855353  0.79304111  0.60147569  1
  O2-  O263  1  0.83763816  0.78588167  0.92971576  1
  O2-  O264  1  0.41672539  0.04532118  0.07348101  1
  O2-  O265  1  0.41388617  0.05278190  0.39950732  1
  O2-  O266  1  0.41808064  0.04470960  0.73300964  1
  O2-  O267  1  0.41321799  0.54059172  0.06169052  1
  O2-  O268  1  0.41288531  0.54229940  0.39406624  1
  O2-  O269  1  0.41562698  0.55308171  0.72709865  1
  O2-  O270  1  0.91877751  0.04485302  0.06053323  1
  O2-  O271  1  0.91391095  0.04057286  0.39422764  1
  O2-  O272  1  0.91691520  0.03389113  0.73443437  1
  O2-  O273  1  0.91437839  0.54364303  0.06535435  1
  O2-  O274  1  0.92059566  0.55121162  0.39345465  1
  O2-  O275  1  0.91852212  0.54693415  0.73913930  1
  O2-  O276  1  0.28508240  0.16677492  0.07080727  1
  O2-  O277  1  0.29176917  0.16920099  0.39556062  1
  O2-  O278  1  0.28394323  0.16383490  0.73374831  1
  O2-  O279  1  0.29405791  0.66259440  0.06481351  1
  O2-  O280  1  0.29231947  0.66096238  0.39770649  1
  O2-  O281  1  0.28962256  0.66589826  0.73031924  1
  O2-  O282  1  0.80036323  0.16756735  0.06143151  1
  O2-  O283  1  0.79892719  0.16463419  0.39414844  1
  O2-  O284  1  0.79756923  0.16682511  0.73730313  1
  O2-  O285  1  0.79476805  0.66185238  0.06461823  1
  O2-  O286  1  0.79689057  0.66340356  0.39641695  1
  O2-  O287  1  0.79313955  0.67158578  0.73395682  1
