# generated using pymatgen
data_Ca2Al2SiO7
_symmetry_space_group_name_H-M   'P 1'
_cell_length_a   15.45977432
_cell_length_b   15.45897678
_cell_length_c   15.28461141
_cell_angle_alpha   90.00248265
_cell_angle_beta   89.99460252
_cell_angle_gamma   89.99107791
_symmetry_Int_Tables_number   1
_chemical_formula_structural   Ca2Al2SiO7
_chemical_formula_sum   'Ca48 Al48 Si24 O168'
_cell_volume   3652.90425235
_cell_formula_units_Z   24
loop_
 _symmetry_equiv_pos_site_id
 _symmetry_equiv_pos_as_xyz
  1  'x, y, z'
loop_
 _atom_type_symbol
 _atom_type_oxidation_number
  Ca2+  2.0
  Al0+  0.0
  Si0+  0.0
  O2-  -2.0
loop_
 _atom_site_type_symbol
 _atom_site_label
 _atom_site_symmetry_multiplicity
 _atom_site_fract_x
 _atom_site_fract_y
 _atom_site_fract_z
 _atom_site_occupancy
  Ca2+  Ca0  1  0.16630969  0.07682154  0.17299207  1
  Ca2+  Ca1  1  0.17202270  0.07776535  0.50760052  1
  Ca2+  Ca2  1  0.17130400  0.09184267  0.83531424  1
  Ca2+  Ca3  1  0.17162109  0.57017731  0.16863574  1
  Ca2+  Ca4  1  0.17238325  0.57689207  0.50702828  1
  Ca2+  Ca5  1  0.17334368  0.57950309  0.83880183  1
  Ca2+  Ca6  1  0.66946443  0.08975864  0.17211158  1
  Ca2+  Ca7  1  0.66468881  0.08382175  0.50553885  1
  Ca2+  Ca8  1  0.65831777  0.08101041  0.83491178  1
  Ca2+  Ca9  1  0.67502838  0.58072551  0.16530270  1
  Ca2+  Ca10  1  0.67212746  0.58641023  0.50316057  1
  Ca2+  Ca11  1  0.67246897  0.57509428  0.84440455  1
  Ca2+  Ca12  1  0.08855712  0.33082165  0.16067688  1
  Ca2+  Ca13  1  0.08968348  0.32681744  0.49754210  1
  Ca2+  Ca14  1  0.09332851  0.32535910  0.83403058  1
  Ca2+  Ca15  1  0.07820279  0.83262952  0.15865988  1
  Ca2+  Ca16  1  0.08546012  0.82769263  0.49869838  1
  Ca2+  Ca17  1  0.06957593  0.82510870  0.82533502  1
  Ca2+  Ca18  1  0.57914226  0.32673764  0.15835129  1
  Ca2+  Ca19  1  0.57042034  0.32470865  0.49236813  1
  Ca2+  Ca20  1  0.57989188  0.32818539  0.82765586  1
  Ca2+  Ca21  1  0.57011720  0.83360482  0.16234445  1
  Ca2+  Ca22  1  0.57795281  0.83700176  0.49688163  1
  Ca2+  Ca23  1  0.58003506  0.83296022  0.83112231  1
  Ca2+  Ca24  1  0.32737521  0.40699681  0.16692200  1
  Ca2+  Ca25  1  0.33459356  0.41411415  0.50553577  1
  Ca2+  Ca26  1  0.33700866  0.42487811  0.84162532  1
  Ca2+  Ca27  1  0.32998148  0.91398130  0.17387106  1
  Ca2+  Ca28  1  0.33180799  0.92053274  0.50486506  1
  Ca2+  Ca29  1  0.33712528  0.92641662  0.83777627  1
  Ca2+  Ca30  1  0.82924216  0.42494290  0.17007449  1
  Ca2+  Ca31  1  0.83267421  0.42222330  0.50085851  1
  Ca2+  Ca32  1  0.82664315  0.42166766  0.84503444  1
  Ca2+  Ca33  1  0.83361770  0.92330034  0.17252656  1
  Ca2+  Ca34  1  0.82660972  0.92229440  0.50738707  1
  Ca2+  Ca35  1  0.82985670  0.90998285  0.83502897  1
  Ca2+  Ca36  1  0.42706486  0.17632300  0.16069748  1
  Ca2+  Ca37  1  0.42202189  0.17019143  0.49686761  1
  Ca2+  Ca38  1  0.42193124  0.18078781  0.82656298  1
  Ca2+  Ca39  1  0.40633229  0.67801158  0.16165432  1
  Ca2+  Ca40  1  0.41442113  0.67039323  0.49580647  1
  Ca2+  Ca41  1  0.40650960  0.66929730  0.83108224  1
  Ca2+  Ca42  1  0.92219009  0.16513627  0.16054122  1
  Ca2+  Ca43  1  0.92000953  0.16332651  0.49794511  1
  Ca2+  Ca44  1  0.93033298  0.16796253  0.82986943  1
  Ca2+  Ca45  1  0.91294671  0.66880109  0.15954302  1
  Ca2+  Ca46  1  0.91957411  0.67015117  0.49764961  1
  Ca2+  Ca47  1  0.91706039  0.67231987  0.82665401  1
  Al0+  Al48  1  -0.00040030  -0.00088977  -0.00948918  1
  Al0+  Al49  1  -0.00088231  -0.00179561  0.34283769  1
  Al0+  Al50  1  -0.00225507  0.00010644  0.65972498  1
  Al0+  Al51  1  0.00200515  0.50000036  0.00708930  1
  Al0+  Al52  1  0.00170531  0.49958542  0.34189117  1
  Al0+  Al53  1  0.00081120  0.50061256  0.66468944  1
  Al0+  Al54  1  0.49980430  -0.00059763  -0.00458287  1
  Al0+  Al55  1  0.50002831  -0.00068504  0.32468728  1
  Al0+  Al56  1  0.49989634  0.00004777  0.67269228  1
  Al0+  Al57  1  0.50127665  0.50334996  0.00838182  1
  Al0+  Al58  1  0.50056693  0.50067443  0.32775747  1
  Al0+  Al59  1  0.49979891  0.50136690  0.66648324  1
  Al0+  Al60  1  0.25355383  0.24880882  -0.00230363  1
  Al0+  Al61  1  0.25016607  0.24765699  0.33420820  1
  Al0+  Al62  1  0.24921110  0.24902517  0.66249930  1
  Al0+  Al63  1  0.24732576  0.75135516  -0.00263173  1
  Al0+  Al64  1  0.24742059  0.74758184  0.33297834  1
  Al0+  Al65  1  0.24739022  0.74935574  0.66671217  1
  Al0+  Al66  1  0.75188954  0.24815102  -0.00049032  1
  Al0+  Al67  1  0.75271112  0.25140987  0.33575046  1
  Al0+  Al68  1  0.75111604  0.24912375  0.66445070  1
  Al0+  Al69  1  0.74730039  0.75285732  0.00158618  1
  Al0+  Al70  1  0.75053851  0.75091232  0.33692934  1
  Al0+  Al71  1  0.74877928  0.75204079  0.66672081  1
  Al0+  Al72  1  0.57113147  0.17724592  0.65075896  1
  Al0+  Al73  1  0.57410155  0.17952520  0.98307421  1
  Al0+  Al74  1  0.32132228  0.57112213  0.67944532  1
  Al0+  Al75  1  0.42792219  0.81843028  0.32159345  1
  Al0+  Al76  1  0.92729801  0.82026590  0.98778136  1
  Al0+  Al77  1  0.92602441  0.81982970  0.64777634  1
  Al0+  Al78  1  0.07156712  0.67810889  0.64991443  1
  Al0+  Al79  1  0.82035938  0.57193084  0.34941116  1
  Al0+  Al80  1  0.43044550  0.32403857  0.98436598  1
  Al0+  Al81  1  0.82165286  0.57328339  0.01353614  1
  Al0+  Al82  1  0.42623605  0.81956829  0.98422996  1
  Al0+  Al83  1  0.18224713  0.42636838  0.01454071  1
  Al0+  Al84  1  0.67932279  0.93016685  0.68181278  1
  Al0+  Al85  1  0.82073079  0.07257519  0.34713042  1
  Al0+  Al86  1  0.42672086  0.32170547  0.31610474  1
  Al0+  Al87  1  0.07086733  0.18016692  0.65080849  1
  Al0+  Al88  1  0.31953135  0.07041570  0.68091455  1
  Al0+  Al89  1  0.57348478  0.17942935  0.31772591  1
  Al0+  Al90  1  0.32173703  0.57477415  0.01633410  1
  Al0+  Al91  1  0.42992013  0.32364864  0.65143913  1
  Al0+  Al92  1  0.18157923  0.42684728  0.34936763  1
  Al0+  Al93  1  0.17837902  0.92646813  0.34689653  1
  Al0+  Al94  1  0.67891879  0.42575044  0.01548582  1
  Al0+  Al95  1  0.07173098  0.17898894  0.98868239  1
  Si0+  Si96  1  0.57217046  0.68043203  0.98418790  1
  Si0+  Si97  1  0.92927822  0.32344187  0.98645629  1
  Si0+  Si98  1  0.57538239  0.67835747  0.31591314  1
  Si0+  Si99  1  0.32231436  0.57210455  0.34931661  1
  Si0+  Si100  1  0.32217744  0.06959674  0.01586550  1
  Si0+  Si101  1  0.67687154  0.92967440  0.34823041  1
  Si0+  Si102  1  0.67720037  0.93036063  0.01700209  1
  Si0+  Si103  1  0.06889189  0.17689969  0.31973680  1
  Si0+  Si104  1  0.06929724  0.67724464  0.31661990  1
  Si0+  Si105  1  0.67752383  0.42866814  0.35149509  1
  Si0+  Si106  1  0.92938002  0.82055235  0.31857566  1
  Si0+  Si107  1  0.57070794  0.67920824  0.65316528  1
  Si0+  Si108  1  0.82319272  0.07321913  0.68599081  1
  Si0+  Si109  1  0.42851561  0.82118687  0.65365269  1
  Si0+  Si110  1  0.32227217  0.06879134  0.34820776  1
  Si0+  Si111  1  0.17749479  0.42737628  0.68332932  1
  Si0+  Si112  1  0.93129579  0.32287000  0.31905467  1
  Si0+  Si113  1  0.17744389  0.93159385  0.01180050  1
  Si0+  Si114  1  0.67983746  0.42944687  0.67908132  1
  Si0+  Si115  1  0.82095667  0.57091072  0.68103316  1
  Si0+  Si116  1  0.07045180  0.67651852  0.98478425  1
  Si0+  Si117  1  0.82341371  0.06835215  0.01245922  1
  Si0+  Si118  1  0.92669057  0.32305498  0.64965866  1
  Si0+  Si119  1  0.17578859  0.92780843  0.68486511  1
  O2-  O120  1  0.24994105  -0.00096191  0.05742619  1
  O2-  O121  1  0.25544653  -0.00149872  0.39314920  1
  O2-  O122  1  0.24291322  -0.00259529  0.72983549  1
  O2-  O123  1  0.25520502  0.49717080  0.06581337  1
  O2-  O124  1  0.26089539  0.49753375  0.39435118  1
  O2-  O125  1  0.24742852  0.49544785  0.72555984  1
  O2-  O126  1  0.74871577  0.00210544  0.05674750  1
  O2-  O127  1  0.74177958  0.00167490  0.39234779  1
  O2-  O128  1  0.75355949  0.00532555  0.72982063  1
  O2-  O129  1  0.75278951  0.49811662  0.06346987  1
  O2-  O130  1  0.74329436  0.50007714  0.39714873  1
  O2-  O131  1  0.75311184  0.49757302  0.72290031  1
  O2-  O132  1  0.00024602  0.24963736  0.27655357  1
  O2-  O133  1  -0.00412831  0.25504447  0.60483835  1
  O2-  O134  1  0.00116909  0.25820980  0.94241316  1
  O2-  O135  1  -0.00141914  0.74902787  0.27431815  1
  O2-  O136  1  0.00013193  0.74998482  0.59786811  1
  O2-  O137  1  -0.00391106  0.74001180  0.94198045  1
  O2-  O138  1  0.50304052  0.25289008  0.26831570  1
  O2-  O139  1  0.49985080  0.24956887  0.60147029  1
  O2-  O140  1  0.50590946  0.25551773  0.93456843  1
  O2-  O141  1  0.50205794  0.74336315  0.27373861  1
  O2-  O142  1  0.49792050  0.74871713  0.61127206  1
  O2-  O143  1  0.49780496  0.74180025  0.93788590  1
  O2-  O144  1  0.06753014  0.17401204  0.10210313  1
  O2-  O145  1  0.06733711  0.17796107  0.42464845  1
  O2-  O146  1  0.07028361  0.18212146  0.76414146  1
  O2-  O147  1  0.07179190  0.68018539  0.09068204  1
  O2-  O148  1  0.06928966  0.67864548  0.42150916  1
  O2-  O149  1  0.06834623  0.67753144  0.76364246  1
  O2-  O150  1  0.57314597  0.17753182  0.09666486  1
  O2-  O151  1  0.57080782  0.17811428  0.43114551  1
  O2-  O152  1  0.57071446  0.18020398  0.76391177  1
  O2-  O153  1  0.57724021  0.68803210  0.08944073  1
  O2-  O154  1  0.57695678  0.68017736  0.42206825  1
  O2-  O155  1  0.57313763  0.67919688  0.75789359  1
  O2-  O156  1  0.17765165  0.42806204  0.23670577  1
  O2-  O157  1  0.17695543  0.42874530  0.57749998  1
  O2-  O158  1  0.18040726  0.42784094  0.90109956  1
  O2-  O159  1  0.17548336  0.92938956  0.23312862  1
  O2-  O160  1  0.18018306  0.92746699  0.57894937  1
  O2-  O161  1  0.17732233  0.93377991  0.90706486  1
  O2-  O162  1  0.68192320  0.42809117  0.24633900  1
  O2-  O163  1  0.68123848  0.43327587  0.57400613  1
  O2-  O164  1  0.68250468  0.42756400  0.90091466  1
  O2-  O165  1  0.67985846  0.92697479  0.24259688  1
  O2-  O166  1  0.67887693  0.92934154  0.56847041  1
  O2-  O167  1  0.67759591  0.92832408  0.91198937  1
  O2-  O168  1  0.42832220  0.31622682  0.09757001  1
  O2-  O169  1  0.42717625  0.31991629  0.42968973  1
  O2-  O170  1  0.43358590  0.32712250  0.76458948  1
  O2-  O171  1  0.42726129  0.82158209  0.09756958  1
  O2-  O172  1  0.42976172  0.81845146  0.43518309  1
  O2-  O173  1  0.42953276  0.82022581  0.75861814  1
  O2-  O174  1  0.92788963  0.32041827  0.09223772  1
  O2-  O175  1  0.93204235  0.32289367  0.42425256  1
  O2-  O176  1  0.92459733  0.32338896  0.75520080  1
  O2-  O177  1  0.93123481  0.82429326  0.10139599  1
  O2-  O178  1  0.92931759  0.81871598  0.42312285  1
  O2-  O179  1  0.92502816  0.81551765  0.76169999  1
  O2-  O180  1  0.31914001  0.06770697  0.24235183  1
  O2-  O181  1  0.31961355  0.06586695  0.56744814  1
  O2-  O182  1  0.32085362  0.06894315  0.91072101  1
  O2-  O183  1  0.31589375  0.57779633  0.24452803  1
  O2-  O184  1  0.32175909  0.57193424  0.56614013  1
  O2-  O185  1  0.31594814  0.57662442  0.90264398  1
  O2-  O186  1  0.82557642  0.06837155  0.23352783  1
  O2-  O187  1  0.82222633  0.07242789  0.58022849  1
  O2-  O188  1  0.82655130  0.06548793  0.90785240  1
  O2-  O189  1  0.82009074  0.57174918  0.23664707  1
  O2-  O190  1  0.81876727  0.57083671  0.57575380  1
  O2-  O191  1  0.81934549  0.57266095  0.89938717  1
  O2-  O192  1  0.03816180  0.08471422  0.27442806  1
  O2-  O193  1  0.04101447  0.08373138  0.59633598  1
  O2-  O194  1  0.03671772  0.08670348  0.92937545  1
  O2-  O195  1  0.03919477  0.58516502  0.27172243  1
  O2-  O196  1  0.04353096  0.57957022  0.59658948  1
  O2-  O197  1  0.05089637  0.58084725  0.94089428  1
  O2-  O198  1  0.54694883  0.08102207  0.26327849  1
  O2-  O199  1  0.54142770  0.07762790  0.60098931  1
  O2-  O200  1  0.54188472  0.08166323  0.93183853  1
  O2-  O201  1  0.55668364  0.58347542  0.27069858  1
  O2-  O202  1  0.54484350  0.58857823  0.60280684  1
  O2-  O203  1  0.55619896  0.58339304  0.94303498  1
  O2-  O204  1  0.16180050  0.20112078  0.27348998  1
  O2-  O205  1  0.16609060  0.20952300  0.59395373  1
  O2-  O206  1  0.16837533  0.20677931  0.93416260  1
  O2-  O207  1  0.16047386  0.70491808  0.26867826  1
  O2-  O208  1  0.16935733  0.70832902  0.59540915  1
  O2-  O209  1  0.16004900  0.70916666  0.93558548  1
  O2-  O210  1  0.67428902  0.20674659  0.26811451  1
  O2-  O211  1  0.67159346  0.20280587  0.60035830  1
  O2-  O212  1  0.67519529  0.20085483  0.93169883  1
  O2-  O213  1  0.66728297  0.70966280  0.26926113  1
  O2-  O214  1  0.66080556  0.70957400  0.60358023  1
  O2-  O215  1  0.66222855  0.71318998  0.93427385  1
  O2-  O216  1  0.08353419  0.45296764  0.06947176  1
  O2-  O217  1  0.08709063  0.46066725  0.40561124  1
  O2-  O218  1  0.08337731  0.45324528  0.72902393  1
  O2-  O219  1  0.08601522  0.96196008  0.05946404  1
  O2-  O220  1  0.08478691  0.95860069  0.40494992  1
  O2-  O221  1  0.07981470  0.95210812  0.72592714  1
  O2-  O222  1  0.58302210  0.45552500  0.07161280  1
  O2-  O223  1  0.58213161  0.45257515  0.39478312  1
  O2-  O224  1  0.59004771  0.46083320  0.72729568  1
  O2-  O225  1  0.58510014  0.95816481  0.06397288  1
  O2-  O226  1  0.58137132  0.95158122  0.39214939  1
  O2-  O227  1  0.58338178  0.95778075  0.73851158  1
  O2-  O228  1  0.20953424  0.32695077  0.06789633  1
  O2-  O229  1  0.20755112  0.32814563  0.40230030  1
  O2-  O230  1  0.20080151  0.33260571  0.72644508  1
  O2-  O231  1  0.20175037  0.83892273  0.05897299  1
  O2-  O232  1  0.20727552  0.82931807  0.40065479  1
  O2-  O233  1  0.20091579  0.83407254  0.73017292  1
  O2-  O234  1  0.70966126  0.32751865  0.06824584  1
  O2-  O235  1  0.70785102  0.33724412  0.39925265  1
  O2-  O236  1  0.70634576  0.33678041  0.72521918  1
  O2-  O237  1  0.70528158  0.83996010  0.06641338  1
  O2-  O238  1  0.70513748  0.83773260  0.39655936  1
  O2-  O239  1  0.71078971  0.83325044  0.73669042  1
  O2-  O240  1  0.44859342  0.42290391  0.26594793  1
  O2-  O241  1  0.46063964  0.42138687  0.59709691  1
  O2-  O242  1  0.45247113  0.42728999  0.93962704  1
  O2-  O243  1  0.45724934  0.91345619  0.26362390  1
  O2-  O244  1  0.45952797  0.91159619  0.60648705  1
  O2-  O245  1  0.46151128  0.91435922  0.93017521  1
  O2-  O246  1  0.96159306  0.41432420  0.27277793  1
  O2-  O247  1  0.95109868  0.41692162  0.60350742  1
  O2-  O248  1  0.95069827  0.41880160  0.94213938  1
  O2-  O249  1  0.95926899  0.91301537  0.27351676  1
  O2-  O250  1  0.95003277  0.91955845  0.59697002  1
  O2-  O251  1  0.96260564  0.91220277  0.92840823  1
  O2-  O252  1  0.32901126  0.28754640  0.26442660  1
  O2-  O253  1  0.33088382  0.29609697  0.60055742  1
  O2-  O254  1  0.33393357  0.29108708  0.93025498  1
  O2-  O255  1  0.33079885  0.78807885  0.26699849  1
  O2-  O256  1  0.33600953  0.79562177  0.60703269  1
  O2-  O257  1  0.32856543  0.79398580  0.92974261  1
  O2-  O258  1  0.83894555  0.29758893  0.27218538  1
  O2-  O259  1  0.83443556  0.29696732  0.60066427  1
  O2-  O260  1  0.83833273  0.29407643  0.93743763  1
  O2-  O261  1  0.83623972  0.79486749  0.27231213  1
  O2-  O262  1  0.82808242  0.78898565  0.59497998  1
  O2-  O263  1  0.82881232  0.79504583  0.93524199  1
  O2-  O264  1  0.41325656  0.03862144  0.06252665  1
  O2-  O265  1  0.41680323  0.04291720  0.39185902  1
  O2-  O266  1  0.41370688  0.03729730  0.73743628  1
  O2-  O267  1  0.42331328  0.56097746  0.06734314  1
  O2-  O268  1  0.42050297  0.55632394  0.38993037  1
  O2-  O269  1  0.41933018  0.54488401  0.73372291  1
  O2-  O270  1  0.91366321  0.03537358  0.06099531  1
  O2-  O271  1  0.91347300  0.03709146  0.40561463  1
  O2-  O272  1  0.91752457  0.04620081  0.72997300  1
  O2-  O273  1  0.92044036  0.54960957  0.06764449  1
  O2-  O274  1  0.91500344  0.53818267  0.40523663  1
  O2-  O275  1  0.91397256  0.54589027  0.72687839  1
  O2-  O276  1  0.29432910  0.16062032  0.06334542  1
  O2-  O277  1  0.29415965  0.16066510  0.39546010  1
  O2-  O278  1  0.28773606  0.16764458  0.73341513  1
  O2-  O279  1  0.28529369  0.67222926  0.06871466  1
  O2-  O280  1  0.29003082  0.66267590  0.39835590  1
  O2-  O281  1  0.28912137  0.66783770  0.73315432  1
  O2-  O282  1  0.80164569  0.16155705  0.05983382  1
  O2-  O283  1  0.79795058  0.17080176  0.40202329  1
  O2-  O284  1  0.80121339  0.16848147  0.73057272  1
  O2-  O285  1  0.78856017  0.67063315  0.06741908  1
  O2-  O286  1  0.79041763  0.66890718  0.40425829  1
  O2-  O287  1  0.78982913  0.66180522  0.72721710  1
