# generated using pymatgen
data_Ca2Al2SiO7
_symmetry_space_group_name_H-M   'P 1'
_cell_length_a   15.46326386
_cell_length_b   15.46286328
_cell_length_c   15.28679985
_cell_angle_alpha   90.00314923
_cell_angle_beta   90.00574106
_cell_angle_gamma   90.00365640
_symmetry_Int_Tables_number   1
_chemical_formula_structural   Ca2Al2SiO7
_chemical_formula_sum   'Ca48 Al48 Si24 O168'
_cell_volume   3655.17065324
_cell_formula_units_Z   24
loop_
 _symmetry_equiv_pos_site_id
 _symmetry_equiv_pos_as_xyz
  1  'x, y, z'
loop_
 _atom_type_symbol
 _atom_type_oxidation_number
  Ca2+  2.0
  Al0+  0.0
  Si0+  0.0
  O2-  -2.0
loop_
 _atom_site_type_symbol
 _atom_site_label
 _atom_site_symmetry_multiplicity
 _atom_site_fract_x
 _atom_site_fract_y
 _atom_site_fract_z
 _atom_site_occupancy
  Ca2+  Ca0  1  0.16328819  0.08222243  0.17034050  1
  Ca2+  Ca1  1  0.16734957  0.07847211  0.50008788  1
  Ca2+  Ca2  1  0.16736870  0.08636085  0.83862016  1
  Ca2+  Ca3  1  0.17233338  0.56906546  0.17567666  1
  Ca2+  Ca4  1  0.17538052  0.58083229  0.50563775  1
  Ca2+  Ca5  1  0.16894771  0.58214880  0.83554530  1
  Ca2+  Ca6  1  0.67487821  0.08275996  0.17084683  1
  Ca2+  Ca7  1  0.67514405  0.07949186  0.50889705  1
  Ca2+  Ca8  1  0.67173400  0.07727777  0.83806713  1
  Ca2+  Ca9  1  0.66645287  0.57816046  0.17202302  1
  Ca2+  Ca10  1  0.66082495  0.57432480  0.50365530  1
  Ca2+  Ca11  1  0.66380800  0.58710302  0.83626724  1
  Ca2+  Ca12  1  0.07633678  0.33317319  0.15862319  1
  Ca2+  Ca13  1  0.07197493  0.33640156  0.49300418  1
  Ca2+  Ca14  1  0.07501022  0.33145624  0.83285713  1
  Ca2+  Ca15  1  0.08404145  0.83507354  0.16531671  1
  Ca2+  Ca16  1  0.08238441  0.83119520  0.49774028  1
  Ca2+  Ca17  1  0.07355991  0.82846203  0.81996266  1
  Ca2+  Ca18  1  0.57965478  0.33210007  0.16507611  1
  Ca2+  Ca19  1  0.58406638  0.32741692  0.49273225  1
  Ca2+  Ca20  1  0.59049696  0.31665226  0.82973598  1
  Ca2+  Ca21  1  0.59051314  0.83036259  0.15994507  1
  Ca2+  Ca22  1  0.58590577  0.83331698  0.50029365  1
  Ca2+  Ca23  1  0.58590942  0.82768640  0.82356636  1
  Ca2+  Ca24  1  0.32368053  0.41660361  0.17843863  1
  Ca2+  Ca25  1  0.33646760  0.42586911  0.50294882  1
  Ca2+  Ca26  1  0.32684061  0.42308045  0.83887655  1
  Ca2+  Ca27  1  0.32663166  0.92045916  0.17280879  1
  Ca2+  Ca28  1  0.32880577  0.90885458  0.50427897  1
  Ca2+  Ca29  1  0.33560287  0.91223052  0.83095422  1
  Ca2+  Ca30  1  0.83100180  0.41153376  0.17226501  1
  Ca2+  Ca31  1  0.83100360  0.40849262  0.50172736  1
  Ca2+  Ca32  1  0.83907584  0.41518730  0.83495857  1
  Ca2+  Ca33  1  0.82342843  0.93027005  0.17328450  1
  Ca2+  Ca34  1  0.82551630  0.92670936  0.50873962  1
  Ca2+  Ca35  1  0.82636409  0.92384365  0.83815850  1
  Ca2+  Ca36  1  0.42167238  0.17337048  0.16167621  1
  Ca2+  Ca37  1  0.42599299  0.17082747  0.49548260  1
  Ca2+  Ca38  1  0.43122429  0.16325522  0.82849407  1
  Ca2+  Ca39  1  0.42160082  0.66488498  0.16473442  1
  Ca2+  Ca40  1  0.41548733  0.66509193  0.50125542  1
  Ca2+  Ca41  1  0.42637798  0.67130489  0.82397222  1
  Ca2+  Ca42  1  0.91457587  0.17359699  0.16086362  1
  Ca2+  Ca43  1  0.90870285  0.17189668  0.49608292  1
  Ca2+  Ca44  1  0.90870176  0.17381883  0.83137713  1
  Ca2+  Ca45  1  0.91736434  0.66966164  0.16245139  1
  Ca2+  Ca46  1  0.91917230  0.67342043  0.50204992  1
  Ca2+  Ca47  1  0.92210242  0.67507017  0.82145028  1
  Al0+  Al48  1  -0.00013386  0.00129588  0.00065704  1
  Al0+  Al49  1  0.00024461  -0.00028161  0.34052532  1
  Al0+  Al50  1  -0.00020431  0.00238261  0.66767885  1
  Al0+  Al51  1  0.00044943  0.50086300  0.00099835  1
  Al0+  Al52  1  0.00102289  0.50134504  0.33175943  1
  Al0+  Al53  1  -0.00075926  0.49828865  0.65933007  1
  Al0+  Al54  1  0.49704644  -0.00052472  0.00112938  1
  Al0+  Al55  1  0.50008467  -0.00196234  0.33298346  1
  Al0+  Al56  1  0.49968642  -0.00087485  0.66097389  1
  Al0+  Al57  1  0.49999816  0.50274581  -0.00421995  1
  Al0+  Al58  1  0.50118373  0.49946365  0.33543534  1
  Al0+  Al59  1  0.49796563  0.49990180  0.67221133  1
  Al0+  Al60  1  0.24778084  0.25106957  0.00049070  1
  Al0+  Al61  1  0.24940599  0.24961298  0.33480848  1
  Al0+  Al62  1  0.24832932  0.24957695  0.66851526  1
  Al0+  Al63  1  0.25157394  0.74951140  0.00136001  1
  Al0+  Al64  1  0.25140956  0.74956475  0.33686886  1
  Al0+  Al65  1  0.25155147  0.74751673  0.66664544  1
  Al0+  Al66  1  0.74876284  0.25159626  -0.00335579  1
  Al0+  Al67  1  0.75106196  0.25087303  0.33486812  1
  Al0+  Al68  1  0.74957071  0.24913282  0.66274492  1
  Al0+  Al69  1  0.75033310  0.74951637  -0.00034776  1
  Al0+  Al70  1  0.75113536  0.75081511  0.33428555  1
  Al0+  Al71  1  0.75011479  0.74743014  0.66040953  1
  Al0+  Al72  1  0.17685129  0.42640614  0.35038853  1
  Al0+  Al73  1  0.42939059  0.32161618  0.32117414  1
  Al0+  Al74  1  0.67722723  0.92669121  0.34980024  1
  Al0+  Al75  1  0.07168060  0.67887426  0.65113217  1
  Al0+  Al76  1  0.93037803  0.31848005  0.65124345  1
  Al0+  Al77  1  0.57027843  0.17933114  0.65199007  1
  Al0+  Al78  1  0.92853172  0.32211309  0.98437504  1
  Al0+  Al79  1  0.82150135  0.07304298  0.68488166  1
  Al0+  Al80  1  0.68134850  0.43088656  0.34522368  1
  Al0+  Al81  1  0.32049752  0.57061120  0.68486854  1
  Al0+  Al82  1  0.92960032  0.32121067  0.31786618  1
  Al0+  Al83  1  0.17893767  0.43008079  0.01381315  1
  Al0+  Al84  1  0.56902753  0.17901009  0.98785298  1
  Al0+  Al85  1  0.57199059  0.67591857  0.64921241  1
  Al0+  Al86  1  0.82079846  0.07332614  0.01626328  1
  Al0+  Al87  1  0.67811072  0.92751547  0.68220883  1
  Al0+  Al88  1  0.81977724  0.07163273  0.34944451  1
  Al0+  Al89  1  0.43033342  0.82027191  0.65035389  1
  Al0+  Al90  1  0.57158384  0.68026228  0.98723264  1
  Al0+  Al91  1  0.92820918  0.82391348  0.65078115  1
  Al0+  Al92  1  0.07176406  0.17753213  0.98507726  1
  Al0+  Al93  1  0.18058718  0.92971477  0.34695421  1
  Al0+  Al94  1  0.32190250  0.56918369  0.34897253  1
  Al0+  Al95  1  0.67740288  0.92761341  0.01457909  1
  Si0+  Si96  1  0.57160813  0.67968475  0.31794563  1
  Si0+  Si97  1  0.93000124  0.82165596  0.31687343  1
  Si0+  Si98  1  0.67828654  0.42875979  0.68266637  1
  Si0+  Si99  1  0.42735263  0.82085863  0.31629591  1
  Si0+  Si100  1  0.82172122  0.56889005  0.68010920  1
  Si0+  Si101  1  0.42666554  0.32322440  0.98347174  1
  Si0+  Si102  1  0.82141043  0.57149961  0.01330696  1
  Si0+  Si103  1  0.93016824  0.82095061  0.98720249  1
  Si0+  Si104  1  0.42584137  0.32086944  0.65288306  1
  Si0+  Si105  1  0.67777929  0.43006696  0.01288609  1
  Si0+  Si106  1  0.17566675  0.42780116  0.68471848  1
  Si0+  Si107  1  0.32271789  0.57208946  0.01784622  1
  Si0+  Si108  1  0.07182960  0.17608431  0.31797027  1
  Si0+  Si109  1  0.32078377  0.07213988  0.68133451  1
  Si0+  Si110  1  0.57164752  0.17759298  0.31605729  1
  Si0+  Si111  1  0.17865782  0.92751027  0.01263059  1
  Si0+  Si112  1  0.07564345  0.17754941  0.64809673  1
  Si0+  Si113  1  0.32357078  0.07296355  0.34971636  1
  Si0+  Si114  1  0.32027851  0.07166745  0.01423610  1
  Si0+  Si115  1  0.82404583  0.57421214  0.34985012  1
  Si0+  Si116  1  0.07172218  0.68007123  0.98729090  1
  Si0+  Si117  1  0.42585154  0.82192193  0.98454881  1
  Si0+  Si118  1  0.17992785  0.92894996  0.68200258  1
  Si0+  Si119  1  0.07296200  0.68099514  0.31617592  1
  O2-  O120  1  0.24732684  0.00110482  0.05459900  1
  O2-  O121  1  0.25573945  0.00347675  0.39404751  1
  O2-  O122  1  0.24995858  0.00081438  0.72452134  1
  O2-  O123  1  0.25630151  0.50170525  0.06152081  1
  O2-  O124  1  0.25100157  0.49632312  0.39950547  1
  O2-  O125  1  0.24461641  0.49597508  0.72985056  1
  O2-  O126  1  0.74662071  0.00221746  0.06462373  1
  O2-  O127  1  0.74604819  0.00127286  0.39858735  1
  O2-  O128  1  0.75134069  -0.00208849  0.73276237  1
  O2-  O129  1  0.75016855  0.50031666  0.05457435  1
  O2-  O130  1  0.75752875  0.50335616  0.39322449  1
  O2-  O131  1  0.74855803  0.50103170  0.72441110  1
  O2-  O132  1  0.00616026  0.24727151  0.27332568  1
  O2-  O133  1  0.00471508  0.24351350  0.60480237  1
  O2-  O134  1  -0.00219592  0.24709281  0.93489875  1
  O2-  O135  1  0.00040322  0.75026932  0.27245564  1
  O2-  O136  1  0.00273302  0.75370900  0.60075644  1
  O2-  O137  1  0.00363245  0.75272397  0.94436786  1
  O2-  O138  1  0.50110133  0.24499337  0.27217346  1
  O2-  O139  1  0.49524039  0.25449778  0.60710008  1
  O2-  O140  1  0.49522533  0.25469103  0.93933095  1
  O2-  O141  1  0.50254434  0.75327440  0.27541634  1
  O2-  O142  1  0.50281872  0.74999326  0.59858979  1
  O2-  O143  1  0.49879936  0.75722611  0.94257097  1
  O2-  O144  1  0.07384954  0.17773042  0.09856073  1
  O2-  O145  1  0.07131001  0.17451541  0.42345455  1
  O2-  O146  1  0.08105387  0.17995158  0.75339311  1
  O2-  O147  1  0.07090409  0.68175774  0.09260657  1
  O2-  O148  1  0.07300118  0.68275308  0.42067914  1
  O2-  O149  1  0.06867242  0.68053720  0.76595553  1
  O2-  O150  1  0.56633266  0.18184816  0.10097731  1
  O2-  O151  1  0.56989695  0.17887811  0.42160235  1
  O2-  O152  1  0.56908842  0.18016888  0.76555698  1
  O2-  O153  1  0.56997157  0.67746092  0.10077863  1
  O2-  O154  1  0.57151478  0.67816493  0.42228559  1
  O2-  O155  1  0.56990610  0.67600244  0.76316152  1
  O2-  O156  1  0.17754774  0.42952853  0.23631145  1
  O2-  O157  1  0.17714976  0.42736406  0.57956410  1
  O2-  O158  1  0.17903519  0.43420001  0.90062537  1
  O2-  O159  1  0.18181158  0.92981167  0.23299970  1
  O2-  O160  1  0.18131145  0.92970265  0.57697310  1
  O2-  O161  1  0.18078830  0.92356369  0.90785524  1
  O2-  O162  1  0.68016587  0.43345893  0.23145922  1
  O2-  O163  1  0.67825979  0.42891541  0.57750888  1
  O2-  O164  1  0.67706587  0.43116796  0.90776390  1
  O2-  O165  1  0.67997053  0.92540004  0.23594704  1
  O2-  O166  1  0.67872110  0.93111775  0.56893251  1
  O2-  O167  1  0.67991141  0.92458269  0.90157375  1
  O2-  O168  1  0.42787386  0.32284100  0.08925775  1
  O2-  O169  1  0.43331284  0.32030840  0.43423523  1
  O2-  O170  1  0.42505902  0.31716081  0.75873137  1
  O2-  O171  1  0.41981040  0.81974686  0.09013630  1
  O2-  O172  1  0.42395432  0.81980375  0.42054088  1
  O2-  O173  1  0.42886721  0.81881448  0.76448308  1
  O2-  O174  1  0.92990360  0.32425664  0.09778004  1
  O2-  O175  1  0.92946798  0.31986432  0.43068231  1
  O2-  O176  1  0.93185988  0.32143259  0.76416353  1
  O2-  O177  1  0.93182684  0.81808832  0.09268213  1
  O2-  O178  1  0.93163219  0.81952535  0.42130084  1
  O2-  O179  1  0.93077793  0.82035818  0.76549318  1
  O2-  O180  1  0.32335660  0.07140265  0.24361031  1
  O2-  O181  1  0.31806826  0.07460256  0.57649356  1
  O2-  O182  1  0.32169535  0.07045589  0.90911080  1
  O2-  O183  1  0.32024898  0.56986798  0.23469693  1
  O2-  O184  1  0.32098430  0.56807905  0.57214721  1
  O2-  O185  1  0.32035241  0.57363641  0.91257421  1
  O2-  O186  1  0.81969440  0.07120046  0.23556052  1
  O2-  O187  1  0.81889975  0.07423413  0.57159904  1
  O2-  O188  1  0.82044120  0.07102086  0.90325202  1
  O2-  O189  1  0.82139366  0.57702956  0.24349087  1
  O2-  O190  1  0.82308727  0.56622199  0.57523058  1
  O2-  O191  1  0.82297682  0.57333389  0.90833257  1
  O2-  O192  1  0.04507789  0.08196162  0.27233945  1
  O2-  O193  1  0.05393115  0.08232792  0.60465679  1
  O2-  O194  1  0.05039829  0.07651712  0.93337183  1
  O2-  O195  1  0.04538816  0.58934781  0.26799822  1
  O2-  O196  1  0.04101875  0.58251807  0.59699299  1
  O2-  O197  1  0.04162275  0.59004019  0.93926310  1
  O2-  O198  1  0.54689132  0.08319027  0.27066434  1
  O2-  O199  1  0.53756787  0.08517314  0.59639305  1
  O2-  O200  1  0.53502742  0.08303313  0.93423414  1
  O2-  O201  1  0.54129084  0.58879875  0.26974441  1
  O2-  O202  1  0.53925973  0.57664678  0.59982992  1
  O2-  O203  1  0.54086943  0.58475802  0.93039204  1
  O2-  O204  1  0.16748224  0.19640059  0.27333727  1
  O2-  O205  1  0.16861364  0.20403556  0.60024088  1
  O2-  O206  1  0.17012311  0.20717982  0.93114129  1
  O2-  O207  1  0.16392532  0.71194583  0.26829361  1
  O2-  O208  1  0.17003097  0.70600560  0.59975119  1
  O2-  O209  1  0.16485678  0.70537674  0.94112236  1
  O2-  O210  1  0.66394542  0.20754560  0.27096185  1
  O2-  O211  1  0.66408849  0.21358520  0.59650087  1
  O2-  O212  1  0.66372512  0.21144512  0.93206770  1
  O2-  O213  1  0.66482772  0.70507318  0.27056334  1
  O2-  O214  1  0.67156639  0.69606386  0.59636883  1
  O2-  O215  1  0.66959699  0.70621147  0.93322623  1
  O2-  O216  1  0.08387107  0.46500504  0.06867063  1
  O2-  O217  1  0.07930188  0.45978384  0.40141923  1
  O2-  O218  1  0.08188181  0.45574406  0.72899333  1
  O2-  O219  1  0.08687841  0.95184821  0.06154712  1
  O2-  O220  1  0.08561905  0.95867483  0.40368039  1
  O2-  O221  1  0.08807965  0.95549232  0.72980152  1
  O2-  O222  1  0.58593172  0.45974672  0.06015685  1
  O2-  O223  1  0.58677646  0.46276249  0.40137944  1
  O2-  O224  1  0.58671107  0.45348106  0.73179004  1
  O2-  O225  1  0.57595392  0.95026253  0.06475533  1
  O2-  O226  1  0.57545887  0.94788113  0.39793789  1
  O2-  O227  1  0.57776255  0.95622919  0.73171635  1
  O2-  O228  1  0.20651964  0.33250836  0.06743489  1
  O2-  O229  1  0.19980080  0.32622594  0.40102363  1
  O2-  O230  1  0.20185606  0.33393056  0.73089603  1
  O2-  O231  1  0.20893377  0.83703015  0.06299751  1
  O2-  O232  1  0.21214187  0.83427359  0.40127477  1
  O2-  O233  1  0.20872799  0.83768620  0.72988256  1
  O2-  O234  1  0.70355903  0.33867308  0.06099335  1
  O2-  O235  1  0.70956373  0.33479828  0.40025404  1
  O2-  O236  1  0.70961210  0.33782541  0.72911640  1
  O2-  O237  1  0.71009853  0.82959136  0.06777023  1
  O2-  O238  1  0.70807153  0.82875957  0.40131985  1
  O2-  O239  1  0.70510970  0.82562390  0.72944614  1
  O2-  O240  1  0.46272923  0.41698049  0.26539616  1
  O2-  O241  1  0.45104318  0.41527491  0.61035043  1
  O2-  O242  1  0.45142253  0.41703283  0.93772543  1
  O2-  O243  1  0.44955412  0.91458786  0.26877176  1
  O2-  O244  1  0.45133582  0.91946108  0.59621420  1
  O2-  O245  1  0.44431167  0.91724314  0.93999040  1
  O2-  O246  1  0.95628580  0.42048588  0.26558687  1
  O2-  O247  1  0.95942473  0.41421928  0.59510523  1
  O2-  O248  1  0.95997298  0.42101727  0.93224074  1
  O2-  O249  1  0.96107814  0.91317399  0.27080643  1
  O2-  O250  1  0.95679194  0.92277199  0.60002352  1
  O2-  O251  1  0.95633328  0.91261037  0.94020515  1
  O2-  O252  1  0.33168408  0.29167454  0.26755114  1
  O2-  O253  1  0.33264530  0.29475893  0.60643642  1
  O2-  O254  1  0.33318174  0.29772353  0.93832398  1
  O2-  O255  1  0.33687390  0.78954462  0.26693254  1
  O2-  O256  1  0.33191964  0.78964167  0.59877803  1
  O2-  O257  1  0.33403721  0.79215137  0.93546089  1
  O2-  O258  1  0.83212524  0.29060653  0.26455449  1
  O2-  O259  1  0.83343585  0.28951452  0.59776066  1
  O2-  O260  1  0.82893840  0.29887416  0.93157763  1
  O2-  O261  1  0.83859792  0.79237003  0.26858220  1
  O2-  O262  1  0.83320480  0.79037621  0.59587684  1
  O2-  O263  1  0.84045337  0.78914145  0.93934391  1
  O2-  O264  1  0.40944038  0.04241822  0.06590979  1
  O2-  O265  1  0.41721081  0.04789863  0.39478269  1
  O2-  O266  1  0.41213949  0.04285564  0.72822938  1
  O2-  O267  1  0.41778313  0.54849095  0.06178031  1
  O2-  O268  1  0.41990386  0.54160006  0.40188425  1
  O2-  O269  1  0.41599456  0.53855984  0.74144026  1
  O2-  O270  1  0.91987260  0.04344359  0.06824252  1
  O2-  O271  1  0.91737068  0.04241886  0.40252987  1
  O2-  O272  1  0.92291584  0.05004932  0.73512503  1
  O2-  O273  1  0.91264230  0.54541783  0.06310101  1
  O2-  O274  1  0.91872898  0.55259694  0.39356640  1
  O2-  O275  1  0.91300705  0.53861111  0.72821018  1
  O2-  O276  1  0.29382142  0.16343322  0.06234933  1
  O2-  O277  1  0.29803473  0.16522477  0.39754750  1
  O2-  O278  1  0.29285913  0.16293705  0.73165624  1
  O2-  O279  1  0.29582146  0.66546764  0.06468871  1
  O2-  O280  1  0.29225473  0.66712670  0.40096049  1
  O2-  O281  1  0.28903947  0.66713178  0.73921837  1
  O2-  O282  1  0.79168973  0.17314932  0.06647591  1
  O2-  O283  1  0.79176861  0.16986332  0.40141906  1
  O2-  O284  1  0.78754917  0.17115171  0.73574266  1
  O2-  O285  1  0.79356895  0.66203918  0.06362978  1
  O2-  O286  1  0.79722049  0.66658040  0.39650928  1
  O2-  O287  1  0.79723833  0.66169016  0.72715542  1
