# generated using pymatgen
data_Ca2Al2SiO7
_symmetry_space_group_name_H-M   'P 1'
_cell_length_a   15.45405082
_cell_length_b   15.45340927
_cell_length_c   15.27969335
_cell_angle_alpha   90.01395949
_cell_angle_beta   89.99380108
_cell_angle_gamma   89.99318165
_symmetry_Int_Tables_number   1
_chemical_formula_structural   Ca2Al2SiO7
_chemical_formula_sum   'Ca48 Al48 Si24 O168'
_cell_volume   3649.06217054
_cell_formula_units_Z   24
loop_
 _symmetry_equiv_pos_site_id
 _symmetry_equiv_pos_as_xyz
  1  'x, y, z'
loop_
 _atom_type_symbol
 _atom_type_oxidation_number
  Ca2+  2.0
  Al0+  0.0
  Si0+  0.0
  O2-  -2.0
loop_
 _atom_site_type_symbol
 _atom_site_label
 _atom_site_symmetry_multiplicity
 _atom_site_fract_x
 _atom_site_fract_y
 _atom_site_fract_z
 _atom_site_occupancy
  Ca2+  Ca0  1  0.16984298  0.08228382  0.16705765  1
  Ca2+  Ca1  1  0.17505004  0.08482585  0.50107035  1
  Ca2+  Ca2  1  0.16504950  0.07703648  0.84391845  1
  Ca2+  Ca3  1  0.16260928  0.57803903  0.16399382  1
  Ca2+  Ca4  1  0.17552190  0.58188464  0.50664264  1
  Ca2+  Ca5  1  0.17104965  0.58178324  0.83975781  1
  Ca2+  Ca6  1  0.66005464  0.06980838  0.16795368  1
  Ca2+  Ca7  1  0.66695810  0.08031622  0.50640270  1
  Ca2+  Ca8  1  0.67073778  0.08263222  0.83504358  1
  Ca2+  Ca9  1  0.66864883  0.58136989  0.16777400  1
  Ca2+  Ca10  1  0.67620437  0.57399206  0.50793192  1
  Ca2+  Ca11  1  0.66943488  0.57591953  0.83871347  1
  Ca2+  Ca12  1  0.07381728  0.33113280  0.15480496  1
  Ca2+  Ca13  1  0.06980103  0.33720962  0.49647590  1
  Ca2+  Ca14  1  0.07449906  0.33415860  0.83553669  1
  Ca2+  Ca15  1  0.08480765  0.82655325  0.15633210  1
  Ca2+  Ca16  1  0.07420027  0.83249126  0.50133469  1
  Ca2+  Ca17  1  0.08337338  0.82918331  0.82975400  1
  Ca2+  Ca18  1  0.57172808  0.33871546  0.15875699  1
  Ca2+  Ca19  1  0.58676580  0.32756908  0.49956074  1
  Ca2+  Ca20  1  0.58609205  0.33412968  0.82890917  1
  Ca2+  Ca21  1  0.57843163  0.83377064  0.15806309  1
  Ca2+  Ca22  1  0.57404693  0.83682480  0.49393585  1
  Ca2+  Ca23  1  0.57765482  0.83212853  0.83264194  1
  Ca2+  Ca24  1  0.32787013  0.40716441  0.16883589  1
  Ca2+  Ca25  1  0.33455488  0.42131728  0.50645208  1
  Ca2+  Ca26  1  0.33252734  0.42350113  0.84305866  1
  Ca2+  Ca27  1  0.33391721  0.91841079  0.17069758  1
  Ca2+  Ca28  1  0.33970718  0.91875803  0.50220960  1
  Ca2+  Ca29  1  0.33284687  0.91438078  0.84074714  1
  Ca2+  Ca30  1  0.83330792  0.41846082  0.16964228  1
  Ca2+  Ca31  1  0.83467641  0.42301838  0.50973907  1
  Ca2+  Ca32  1  0.82485917  0.41122220  0.83626687  1
  Ca2+  Ca33  1  0.81806562  0.91223172  0.17056199  1
  Ca2+  Ca34  1  0.82580980  0.92054572  0.50957190  1
  Ca2+  Ca35  1  0.83470006  0.92288406  0.83868397  1
  Ca2+  Ca36  1  0.41224300  0.17365689  0.16494476  1
  Ca2+  Ca37  1  0.42309252  0.16961066  0.49326589  1
  Ca2+  Ca38  1  0.42390680  0.17397487  0.83078391  1
  Ca2+  Ca39  1  0.42491037  0.67890361  0.15567709  1
  Ca2+  Ca40  1  0.41508407  0.67492784  0.49795900  1
  Ca2+  Ca41  1  0.41912086  0.67404057  0.83025675  1
  Ca2+  Ca42  1  0.92043830  0.17835280  0.15827913  1
  Ca2+  Ca43  1  0.90842369  0.17831265  0.49930705  1
  Ca2+  Ca44  1  0.91460917  0.17479749  0.82821686  1
  Ca2+  Ca45  1  0.92010527  0.66426757  0.16144409  1
  Ca2+  Ca46  1  0.90793053  0.66621579  0.49906177  1
  Ca2+  Ca47  1  0.92060156  0.66895022  0.82883697  1
  Al0+  Al48  1  0.00180304  0.00140407  0.00553282  1
  Al0+  Al49  1  -0.00037466  -0.00120972  0.33316540  1
  Al0+  Al50  1  0.00053963  -0.00123366  0.66465800  1
  Al0+  Al51  1  0.00172546  0.50113779  -0.00519508  1
  Al0+  Al52  1  -0.00011784  0.49982593  0.33432488  1
  Al0+  Al53  1  0.00206493  0.50007183  0.66583375  1
  Al0+  Al54  1  0.50061184  0.00202393  0.00016583  1
  Al0+  Al55  1  0.49795379  0.00002092  0.33740634  1
  Al0+  Al56  1  0.49932785  0.00129158  0.66003580  1
  Al0+  Al57  1  0.50175014  0.50262685  -0.00224103  1
  Al0+  Al58  1  0.49996122  0.49995196  0.33108710  1
  Al0+  Al59  1  0.49870030  0.50188173  0.67401291  1
  Al0+  Al60  1  0.24961628  0.25115113  -0.00498009  1
  Al0+  Al61  1  0.24954525  0.24828183  0.33751941  1
  Al0+  Al62  1  0.25009000  0.24853251  0.66755562  1
  Al0+  Al63  1  0.24958920  0.75118412  -0.00191540  1
  Al0+  Al64  1  0.24850346  0.74977585  0.33025674  1
  Al0+  Al65  1  0.25051880  0.74970061  0.66494991  1
  Al0+  Al66  1  0.74886094  0.25192005  0.00453845  1
  Al0+  Al67  1  0.74911173  0.24820575  0.32543691  1
  Al0+  Al68  1  0.75013789  0.24773699  0.66481912  1
  Al0+  Al69  1  0.75000724  0.75056518  0.00011579  1
  Al0+  Al70  1  0.74925109  0.74890062  0.34238819  1
  Al0+  Al71  1  0.74882981  0.74855408  0.66664797  1
  Al0+  Al72  1  0.82344008  0.57309962  0.68427012  1
  Al0+  Al73  1  0.42924160  0.32163772  0.32146362  1
  Al0+  Al74  1  0.42963990  0.81941330  0.65129636  1
  Al0+  Al75  1  0.92909582  0.32151844  0.31868512  1
  Al0+  Al76  1  0.32005455  0.57182520  0.68100354  1
  Al0+  Al77  1  0.57026672  0.18085435  0.65317600  1
  Al0+  Al78  1  0.68066618  0.42798358  0.68112108  1
  Al0+  Al79  1  0.93089583  0.31945298  0.65267155  1
  Al0+  Al80  1  0.82151286  0.56766570  0.34706386  1
  Al0+  Al81  1  0.18038056  0.42996713  0.01321651  1
  Al0+  Al82  1  0.07130356  0.17775242  0.98525647  1
  Al0+  Al83  1  0.82119079  0.06894665  0.67923872  1
  Al0+  Al84  1  0.31820965  0.07008219  0.34793393  1
  Al0+  Al85  1  0.42872832  0.32156172  0.98633549  1
  Al0+  Al86  1  0.68007979  0.92968473  0.01143552  1
  Al0+  Al87  1  0.07092186  0.67977879  0.98628533  1
  Al0+  Al88  1  0.67876412  0.92975569  0.34925710  1
  Al0+  Al89  1  0.57407163  0.67939156  0.98393832  1
  Al0+  Al90  1  0.42915873  0.82096834  0.31851704  1
  Al0+  Al91  1  0.42983686  0.82329177  0.98499618  1
  Al0+  Al92  1  0.92731137  0.32136764  0.98350863  1
  Al0+  Al93  1  0.17914687  0.92807008  0.01345049  1
  Al0+  Al94  1  0.92766066  0.82090918  0.65395093  1
  Al0+  Al95  1  0.67802308  0.42903539  0.01618909  1
  Si0+  Si96  1  0.57205688  0.17829305  0.98440157  1
  Si0+  Si97  1  0.32236179  0.57296812  0.01851391  1
  Si0+  Si98  1  0.07255432  0.17724993  0.31769337  1
  Si0+  Si99  1  0.67585824  0.42617238  0.34852491  1
  Si0+  Si100  1  0.82306420  0.07338101  0.01848979  1
  Si0+  Si101  1  0.57116958  0.17713906  0.31487459  1
  Si0+  Si102  1  0.92709694  0.82087536  0.31936215  1
  Si0+  Si103  1  0.17605064  0.92447259  0.35201253  1
  Si0+  Si104  1  0.82299957  0.07213817  0.34904756  1
  Si0+  Si105  1  0.07195400  0.67875259  0.64845572  1
  Si0+  Si106  1  0.18027395  0.93053134  0.68021249  1
  Si0+  Si107  1  0.67543015  0.92821511  0.68298865  1
  Si0+  Si108  1  0.17854795  0.42615613  0.68358797  1
  Si0+  Si109  1  0.17958349  0.42899922  0.34844292  1
  Si0+  Si110  1  0.32229612  0.07270459  0.01529500  1
  Si0+  Si111  1  0.07412765  0.17530474  0.64818465  1
  Si0+  Si112  1  0.92750891  0.82281807  0.98654565  1
  Si0+  Si113  1  0.32115865  0.57215470  0.34574881  1
  Si0+  Si114  1  0.57322748  0.67839775  0.31812592  1
  Si0+  Si115  1  0.07032712  0.67953696  0.31874222  1
  Si0+  Si116  1  0.57183600  0.67553909  0.64848447  1
  Si0+  Si117  1  0.32285187  0.07122233  0.68236039  1
  Si0+  Si118  1  0.42658448  0.32372273  0.65160911  1
  Si0+  Si119  1  0.82268997  0.57174029  0.01570713  1
  O2-  O120  1  0.25467240  0.00245140  0.05917952  1
  O2-  O121  1  0.24489671  -0.00656802  0.39559587  1
  O2-  O122  1  0.25024619  0.00191779  0.72351189  1
  O2-  O123  1  0.25651119  0.50164927  0.06397560  1
  O2-  O124  1  0.25337551  0.49810647  0.38939447  1
  O2-  O125  1  0.24942571  0.49302089  0.72641814  1
  O2-  O126  1  0.75509626  0.00293437  0.06134626  1
  O2-  O127  1  0.75456186  0.00404816  0.39451688  1
  O2-  O128  1  0.74922552  -0.00835441  0.72661636  1
  O2-  O129  1  0.75442277  0.50317350  0.06124130  1
  O2-  O130  1  0.74845798  0.49058720  0.39247629  1
  O2-  O131  1  0.75221220  0.49998440  0.73263947  1
  O2-  O132  1  0.00161116  0.24363205  0.27414801  1
  O2-  O133  1  0.00699399  0.24585217  0.60447893  1
  O2-  O134  1  -0.00300812  0.24632163  0.93462105  1
  O2-  O135  1  -0.00083705  0.75100035  0.27705883  1
  O2-  O136  1  -0.00247349  0.74177850  0.60462183  1
  O2-  O137  1  -0.00207770  0.75675710  0.94146382  1
  O2-  O138  1  0.50574734  0.24994208  0.27261329  1
  O2-  O139  1  0.49639472  0.25699111  0.60661361  1
  O2-  O140  1  0.50651563  0.25003517  0.94041581  1
  O2-  O141  1  0.50478061  0.74710297  0.27329908  1
  O2-  O142  1  0.50571496  0.74668443  0.60336309  1
  O2-  O143  1  0.50126280  0.75127836  0.93494048  1
  O2-  O144  1  0.07041830  0.17968086  0.09944705  1
  O2-  O145  1  0.07373339  0.17891507  0.42348726  1
  O2-  O146  1  0.07511510  0.17348372  0.75318828  1
  O2-  O147  1  0.06828078  0.67953107  0.10027280  1
  O2-  O148  1  0.07251783  0.68001758  0.42373844  1
  O2-  O149  1  0.07532856  0.68241981  0.75364227  1
  O2-  O150  1  0.56906386  0.17545488  0.09012046  1
  O2-  O151  1  0.57139150  0.17780492  0.42067792  1
  O2-  O152  1  0.56738700  0.17858267  0.76613561  1
  O2-  O153  1  0.57350789  0.68137209  0.09842493  1
  O2-  O154  1  0.57088311  0.67738655  0.42374785  1
  O2-  O155  1  0.57002673  0.67641946  0.75365788  1
  O2-  O156  1  0.17831608  0.42960837  0.24352126  1
  O2-  O157  1  0.17935227  0.42730575  0.57700391  1
  O2-  O158  1  0.18160457  0.43258687  0.90035119  1
  O2-  O159  1  0.17517152  0.92311213  0.24677811  1
  O2-  O160  1  0.18069466  0.93124308  0.57477988  1
  O2-  O161  1  0.17937436  0.92872132  0.89992382  1
  O2-  O162  1  0.67340610  0.43027984  0.24319473  1
  O2-  O163  1  0.68118286  0.42808246  0.56666739  1
  O2-  O164  1  0.67928284  0.42741870  0.90358875  1
  O2-  O165  1  0.67961001  0.92909218  0.23591009  1
  O2-  O166  1  0.67511319  0.93191748  0.57698837  1
  O2-  O167  1  0.68118455  0.93205863  0.89853025  1
  O2-  O168  1  0.42733515  0.31738435  0.09990882  1
  O2-  O169  1  0.42969843  0.32157650  0.43467314  1
  O2-  O170  1  0.42444773  0.32047159  0.75692464  1
  O2-  O171  1  0.43117424  0.82311026  0.09892702  1
  O2-  O172  1  0.42873060  0.81791559  0.43186982  1
  O2-  O173  1  0.42857425  0.82034794  0.76374862  1
  O2-  O174  1  0.92985708  0.32162297  0.09767047  1
  O2-  O175  1  0.93079617  0.32229606  0.43202542  1
  O2-  O176  1  0.93099086  0.31754392  0.76494293  1
  O2-  O177  1  0.92656822  0.81937927  0.09282210  1
  O2-  O178  1  0.92878155  0.82113895  0.42435190  1
  O2-  O179  1  0.93425913  0.82477665  0.76668506  1
  O2-  O180  1  0.31552145  0.07137925  0.23500153  1
  O2-  O181  1  0.32162764  0.07153419  0.57712070  1
  O2-  O182  1  0.32304804  0.07165839  0.90936964  1
  O2-  O183  1  0.31862411  0.57367856  0.24128375  1
  O2-  O184  1  0.31762580  0.57126522  0.56659570  1
  O2-  O185  1  0.31909454  0.57269719  0.91283942  1
  O2-  O186  1  0.82380803  0.06934530  0.24358029  1
  O2-  O187  1  0.81863924  0.06859865  0.56576751  1
  O2-  O188  1  0.82284326  0.07249647  0.91271335  1
  O2-  O189  1  0.82345992  0.56862095  0.23401409  1
  O2-  O190  1  0.82109513  0.56983600  0.57004731  1
  O2-  O191  1  0.82201257  0.57277597  0.91066627  1
  O2-  O192  1  0.05086160  0.08152825  0.27330887  1
  O2-  O193  1  0.04866233  0.08258010  0.60037247  1
  O2-  O194  1  0.04652728  0.07702938  0.93476179  1
  O2-  O195  1  0.04183656  0.58785992  0.27161026  1
  O2-  O196  1  0.05424116  0.58311404  0.60313045  1
  O2-  O197  1  0.04090386  0.58564018  0.92876014  1
  O2-  O198  1  0.53871612  0.08529767  0.26980989  1
  O2-  O199  1  0.53681070  0.08670875  0.59521323  1
  O2-  O200  1  0.54399114  0.08700226  0.93532391  1
  O2-  O201  1  0.54792435  0.58502291  0.27139766  1
  O2-  O202  1  0.54190311  0.58274964  0.60235383  1
  O2-  O203  1  0.54586067  0.58200914  0.93046457  1
  O2-  O204  1  0.16528265  0.20513464  0.27205256  1
  O2-  O205  1  0.16893697  0.20063310  0.60243235  1
  O2-  O206  1  0.16827016  0.20605655  0.93024238  1
  O2-  O207  1  0.16099776  0.70656632  0.26878876  1
  O2-  O208  1  0.16226759  0.71183538  0.59902764  1
  O2-  O209  1  0.16671236  0.70999535  0.93155250  1
  O2-  O210  1  0.66557914  0.19494246  0.26742558  1
  O2-  O211  1  0.66576653  0.20947377  0.59583520  1
  O2-  O212  1  0.66688612  0.20143008  0.94106811  1
  O2-  O213  1  0.66764621  0.70443462  0.27420162  1
  O2-  O214  1  0.66664860  0.69738497  0.60326392  1
  O2-  O215  1  0.67189395  0.70838620  0.93076310  1
  O2-  O216  1  0.08415918  0.46440898  0.06715933  1
  O2-  O217  1  0.09012055  0.46181890  0.39772696  1
  O2-  O218  1  0.08628366  0.45431373  0.72936152  1
  O2-  O219  1  0.08327247  0.95689083  0.07166562  1
  O2-  O220  1  0.08182464  0.95053358  0.39789378  1
  O2-  O221  1  0.08863640  0.95692452  0.72775135  1
  O2-  O222  1  0.58149325  0.46252594  0.06996288  1
  O2-  O223  1  0.58344385  0.45436775  0.39665836  1
  O2-  O224  1  0.58126501  0.45395337  0.73312159  1
  O2-  O225  1  0.58420853  0.96283785  0.06720739  1
  O2-  O226  1  0.58296948  0.96204525  0.40331401  1
  O2-  O227  1  0.58336194  0.96071111  0.72782097  1
  O2-  O228  1  0.20977623  0.33227294  0.06668814  1
  O2-  O229  1  0.20466947  0.33754995  0.39746864  1
  O2-  O230  1  0.20057257  0.33110456  0.72800122  1
  O2-  O231  1  0.20873742  0.83150662  0.06881289  1
  O2-  O232  1  0.20156865  0.83069557  0.39828967  1
  O2-  O233  1  0.20870513  0.83853252  0.72606443  1
  O2-  O234  1  0.70494262  0.33210084  0.07242995  1
  O2-  O235  1  0.69749248  0.32911954  0.38889138  1
  O2-  O236  1  0.70922146  0.32937388  0.73279864  1
  O2-  O237  1  0.71079960  0.83377356  0.06807247  1
  O2-  O238  1  0.70869458  0.83414559  0.40534095  1
  O2-  O239  1  0.69415828  0.83199186  0.72439396  1
  O2-  O240  1  0.45505905  0.41901754  0.26591816  1
  O2-  O241  1  0.44871833  0.41941324  0.60876189  1
  O2-  O242  1  0.45616462  0.41939501  0.93485148  1
  O2-  O243  1  0.45801962  0.91913948  0.26787041  1
  O2-  O244  1  0.45905435  0.91624328  0.59643785  1
  O2-  O245  1  0.45745421  0.92227465  0.93283577  1
  O2-  O246  1  0.96439876  0.41707758  0.26565073  1
  O2-  O247  1  0.96320440  0.41650625  0.59838151  1
  O2-  O248  1  0.95911351  0.41806313  0.93088224  1
  O2-  O249  1  0.95229289  0.91322980  0.27168053  1
  O2-  O250  1  0.96381025  0.91474251  0.59604516  1
  O2-  O251  1  0.95119530  0.91804810  0.94447276  1
  O2-  O252  1  0.33192638  0.28777969  0.27006664  1
  O2-  O253  1  0.33316871  0.29618342  0.60466429  1
  O2-  O254  1  0.33455636  0.28998526  0.92936035  1
  O2-  O255  1  0.33133868  0.79105782  0.26622388  1
  O2-  O256  1  0.33334097  0.78704200  0.59631291  1
  O2-  O257  1  0.33142139  0.79474720  0.93332543  1
  O2-  O258  1  0.83187246  0.29424994  0.26393999  1
  O2-  O259  1  0.83568916  0.28619897  0.59755904  1
  O2-  O260  1  0.82742540  0.29295706  0.93437776  1
  O2-  O261  1  0.83501331  0.79054392  0.27400568  1
  O2-  O262  1  0.82919943  0.79535128  0.60000276  1
  O2-  O263  1  0.83565814  0.79708710  0.93840425  1
  O2-  O264  1  0.41569195  0.04921436  0.06286577  1
  O2-  O265  1  0.41425382  0.04084502  0.40366113  1
  O2-  O266  1  0.41403899  0.04128557  0.72879958  1
  O2-  O267  1  0.41750593  0.55148587  0.06208145  1
  O2-  O268  1  0.41385288  0.54728235  0.39326499  1
  O2-  O269  1  0.41597579  0.54647802  0.73752708  1
  O2-  O270  1  0.91646435  0.04999204  0.06584847  1
  O2-  O271  1  0.91726371  0.04820640  0.39511423  1
  O2-  O272  1  0.91893483  0.03982301  0.73225841  1
  O2-  O273  1  0.91678857  0.54588165  0.06092957  1
  O2-  O274  1  0.91878597  0.53956647  0.40246385  1
  O2-  O275  1  0.92521364  0.54948183  0.73147013  1
  O2-  O276  1  0.29355942  0.16552460  0.06105930  1
  O2-  O277  1  0.28622525  0.16513835  0.40645268  1
  O2-  O278  1  0.29783954  0.16400919  0.72937200  1
  O2-  O279  1  0.29256882  0.66550876  0.06430662  1
  O2-  O280  1  0.28827141  0.66212547  0.39503125  1
  O2-  O281  1  0.28461877  0.66704198  0.73460996  1
  O2-  O282  1  0.79548335  0.16568407  0.06586182  1
  O2-  O283  1  0.79605795  0.16700101  0.39257172  1
  O2-  O284  1  0.78750040  0.16345491  0.73393599  1
  O2-  O285  1  0.79769949  0.66556661  0.06290099  1
  O2-  O286  1  0.79084734  0.66326055  0.40348156  1
  O2-  O287  1  0.79676105  0.67275408  0.73550683  1
