# generated using pymatgen
data_Ca2Al2SiO7
_symmetry_space_group_name_H-M   'P 1'
_cell_length_a   15.46625563
_cell_length_b   15.46781697
_cell_length_c   15.29104486
_cell_angle_alpha   89.99700306
_cell_angle_beta   89.99716890
_cell_angle_gamma   90.00613335
_symmetry_Int_Tables_number   1
_chemical_formula_structural   Ca2Al2SiO7
_chemical_formula_sum   'Ca48 Al48 Si24 O168'
_cell_volume   3658.06457191
_cell_formula_units_Z   24
loop_
 _symmetry_equiv_pos_site_id
 _symmetry_equiv_pos_as_xyz
  1  'x, y, z'
loop_
 _atom_type_symbol
 _atom_type_oxidation_number
  Ca2+  2.0
  Al0+  0.0
  Si0+  0.0
  O2-  -2.0
loop_
 _atom_site_type_symbol
 _atom_site_label
 _atom_site_symmetry_multiplicity
 _atom_site_fract_x
 _atom_site_fract_y
 _atom_site_fract_z
 _atom_site_occupancy
  Ca2+  Ca0  1  0.17192812  0.08841885  0.16809179  1
  Ca2+  Ca1  1  0.16567374  0.08383063  0.50186052  1
  Ca2+  Ca2  1  0.17427121  0.07473184  0.84158931  1
  Ca2+  Ca3  1  0.17721877  0.57489067  0.16639454  1
  Ca2+  Ca4  1  0.17674680  0.58240448  0.50360786  1
  Ca2+  Ca5  1  0.17563243  0.58768670  0.84134865  1
  Ca2+  Ca6  1  0.65439700  0.07280085  0.16565066  1
  Ca2+  Ca7  1  0.65984150  0.07044322  0.50521915  1
  Ca2+  Ca8  1  0.65445952  0.07119244  0.84078199  1
  Ca2+  Ca9  1  0.67777860  0.59238722  0.16869678  1
  Ca2+  Ca10  1  0.67692490  0.58192973  0.51106902  1
  Ca2+  Ca11  1  0.67529574  0.59438184  0.83666701  1
  Ca2+  Ca12  1  0.08418986  0.33968471  0.16086591  1
  Ca2+  Ca13  1  0.08705304  0.32952225  0.49078389  1
  Ca2+  Ca14  1  0.07717689  0.34556475  0.83696224  1
  Ca2+  Ca15  1  0.07690550  0.82308362  0.15832318  1
  Ca2+  Ca16  1  0.08154465  0.82370968  0.49879881  1
  Ca2+  Ca17  1  0.08520792  0.81677166  0.82969946  1
  Ca2+  Ca18  1  0.57032298  0.32866080  0.15659340  1
  Ca2+  Ca19  1  0.57816822  0.34169728  0.49590056  1
  Ca2+  Ca20  1  0.58140795  0.33335784  0.83088819  1
  Ca2+  Ca21  1  0.58144373  0.83045077  0.15664087  1
  Ca2+  Ca22  1  0.58554158  0.83052092  0.50275728  1
  Ca2+  Ca23  1  0.57934626  0.82457292  0.83350061  1
  Ca2+  Ca24  1  0.33383063  0.42296552  0.17121506  1
  Ca2+  Ca25  1  0.33332698  0.42573935  0.49951734  1
  Ca2+  Ca26  1  0.32941339  0.43009065  0.84286317  1
  Ca2+  Ca27  1  0.34228778  0.92270768  0.16308471  1
  Ca2+  Ca28  1  0.33552979  0.91762445  0.50643747  1
  Ca2+  Ca29  1  0.34618803  0.91925945  0.84138063  1
  Ca2+  Ca30  1  0.83598892  0.42455890  0.16538313  1
  Ca2+  Ca31  1  0.82828794  0.42604288  0.50704887  1
  Ca2+  Ca32  1  0.82686149  0.42340057  0.83798600  1
  Ca2+  Ca33  1  0.81744274  0.91398677  0.17106187  1
  Ca2+  Ca34  1  0.82097844  0.91743472  0.50522061  1
  Ca2+  Ca35  1  0.81933442  0.91338151  0.83861416  1
  Ca2+  Ca36  1  0.41487788  0.17870758  0.15707945  1
  Ca2+  Ca37  1  0.41870530  0.17825540  0.49217922  1
  Ca2+  Ca38  1  0.41532744  0.17156273  0.84049032  1
  Ca2+  Ca39  1  0.42113005  0.66888081  0.15418692  1
  Ca2+  Ca40  1  0.41937992  0.66364150  0.50042178  1
  Ca2+  Ca41  1  0.42077301  0.67085604  0.82374126  1
  Ca2+  Ca42  1  0.92516770  0.17458669  0.15919197  1
  Ca2+  Ca43  1  0.92409383  0.16926692  0.49231279  1
  Ca2+  Ca44  1  0.91309091  0.17568015  0.83335798  1
  Ca2+  Ca45  1  0.92082537  0.65725212  0.15777115  1
  Ca2+  Ca46  1  0.91872204  0.65634419  0.49993904  1
  Ca2+  Ca47  1  0.92730534  0.65154248  0.83214817  1
  Al0+  Al48  1  -0.00209896  0.00007839  -0.00063281  1
  Al0+  Al49  1  -0.00029236  -0.00065497  0.32821311  1
  Al0+  Al50  1  0.00102692  0.00036927  0.66697787  1
  Al0+  Al51  1  -0.00036650  0.49913121  -0.00067817  1
  Al0+  Al52  1  0.00160970  0.49851032  0.34048799  1
  Al0+  Al53  1  -0.00045888  0.49772627  0.66141896  1
  Al0+  Al54  1  0.49862226  0.00005369  0.00326440  1
  Al0+  Al55  1  0.49880644  -0.00103537  0.33996536  1
  Al0+  Al56  1  0.49915671  0.00200074  0.66627425  1
  Al0+  Al57  1  0.50311561  0.49942163  -0.00495177  1
  Al0+  Al58  1  0.50130643  0.50244613  0.33014714  1
  Al0+  Al59  1  0.49917792  0.49979330  0.66843331  1
  Al0+  Al60  1  0.24886816  0.24742381  0.00093790  1
  Al0+  Al61  1  0.25093207  0.24974149  0.32929728  1
  Al0+  Al62  1  0.25019200  0.24898244  0.66683414  1
  Al0+  Al63  1  0.24808200  0.75134569  -0.00169489  1
  Al0+  Al64  1  0.24965476  0.75190134  0.33469757  1
  Al0+  Al65  1  0.24769606  0.75110608  0.65974303  1
  Al0+  Al66  1  0.75189885  0.24845631  -0.00656334  1
  Al0+  Al67  1  0.75123776  0.24780559  0.33164224  1
  Al0+  Al68  1  0.75081763  0.24966770  0.66562177  1
  Al0+  Al69  1  0.74930211  0.75210581  0.00612940  1
  Al0+  Al70  1  0.74994754  0.75130964  0.34353650  1
  Al0+  Al71  1  0.75104959  0.75216588  0.67204818  1
  Al0+  Al72  1  0.93063457  0.32064917  0.98568834  1
  Al0+  Al73  1  0.67816081  0.93116109  0.68405771  1
  Al0+  Al74  1  0.42884396  0.81901809  0.98811589  1
  Al0+  Al75  1  0.42966484  0.82221404  0.64977478  1
  Al0+  Al76  1  0.57401855  0.67769848  0.98721852  1
  Al0+  Al77  1  0.06874584  0.67934966  0.98861887  1
  Al0+  Al78  1  0.43190796  0.32237338  0.31973280  1
  Al0+  Al79  1  0.82099733  0.56956310  0.34773546  1
  Al0+  Al80  1  0.56964616  0.17934201  0.98583993  1
  Al0+  Al81  1  0.17946396  0.43040395  0.01272427  1
  Al0+  Al82  1  0.06936090  0.67752825  0.65016130  1
  Al0+  Al83  1  0.31852173  0.57213235  0.67971757  1
  Al0+  Al84  1  0.68010775  0.93193457  0.01479637  1
  Al0+  Al85  1  0.32361478  0.57453785  0.34847765  1
  Al0+  Al86  1  0.32525731  0.57347702  0.01258747  1
  Al0+  Al87  1  0.67766634  0.42727924  0.68157372  1
  Al0+  Al88  1  0.67809726  0.93127618  0.35025034  1
  Al0+  Al89  1  0.18179193  0.42801493  0.34864713  1
  Al0+  Al90  1  0.42610176  0.32311515  0.98299099  1
  Al0+  Al91  1  0.57262178  0.67822743  0.65041808  1
  Al0+  Al92  1  0.07083773  0.17843210  0.31832432  1
  Al0+  Al93  1  0.81793320  0.56863960  0.01335092  1
  Al0+  Al94  1  0.82183121  0.57062175  0.68404736  1
  Al0+  Al95  1  0.31876146  0.06828791  0.01442108  1
  Si0+  Si96  1  0.17605374  0.92910096  0.34854728  1
  Si0+  Si97  1  0.67796276  0.42598063  0.34567049  1
  Si0+  Si98  1  0.17798905  0.92979487  0.68036359  1
  Si0+  Si99  1  0.42740343  0.32057472  0.65112191  1
  Si0+  Si100  1  0.07066010  0.67814970  0.31804417  1
  Si0+  Si101  1  0.07220949  0.17496638  0.98055899  1
  Si0+  Si102  1  0.82446892  0.07187100  0.68336433  1
  Si0+  Si103  1  0.07162966  0.17836487  0.65203883  1
  Si0+  Si104  1  0.82428192  0.07449896  0.01797359  1
  Si0+  Si105  1  0.57200737  0.17502788  0.31881984  1
  Si0+  Si106  1  0.92632557  0.82330812  0.98455976  1
  Si0+  Si107  1  0.31985198  0.07176763  0.68136187  1
  Si0+  Si108  1  0.92934575  0.82515761  0.64989417  1
  Si0+  Si109  1  0.17915576  0.42511493  0.68211641  1
  Si0+  Si110  1  0.57250822  0.68217538  0.32004127  1
  Si0+  Si111  1  0.67824889  0.42265755  0.01651919  1
  Si0+  Si112  1  0.42795964  0.82263191  0.31857058  1
  Si0+  Si113  1  0.31905674  0.06986223  0.34958409  1
  Si0+  Si114  1  0.17348030  0.92677950  0.01747216  1
  Si0+  Si115  1  0.92890806  0.31943568  0.64865134  1
  Si0+  Si116  1  0.57101473  0.17979101  0.65079975  1
  Si0+  Si117  1  0.92773233  0.32294834  0.31649455  1
  Si0+  Si118  1  0.82435950  0.07162778  0.34922271  1
  Si0+  Si119  1  0.92776107  0.81925577  0.31935363  1
  O2-  O120  1  0.24265782  -0.00508007  0.06193885  1
  O2-  O121  1  0.24739184  -0.00045751  0.39207868  1
  O2-  O122  1  0.25328960  -0.00397319  0.72200976  1
  O2-  O123  1  0.25758160  0.49633964  0.06200050  1
  O2-  O124  1  0.25180155  0.50169582  0.39837735  1
  O2-  O125  1  0.24353823  0.49731846  0.72515294  1
  O2-  O126  1  0.75449107  0.00733309  0.06228284  1
  O2-  O127  1  0.75158549  0.00872104  0.39529321  1
  O2-  O128  1  0.75489970  0.00548935  0.72838338  1
  O2-  O129  1  0.74100300  0.49685617  0.06135334  1
  O2-  O130  1  0.74815207  0.49198457  0.39138610  1
  O2-  O131  1  0.74473968  0.50327536  0.73247060  1
  O2-  O132  1  -0.00305437  0.25416696  0.27331926  1
  O2-  O133  1  0.00140806  0.24874486  0.60810015  1
  O2-  O134  1  0.00544693  0.24569429  0.93719484  1
  O2-  O135  1  -0.00427979  0.74579151  0.27633564  1
  O2-  O136  1  -0.00816343  0.75104906  0.60446929  1
  O2-  O137  1  -0.00441745  0.75564187  0.94072471  1
  O2-  O138  1  0.50968866  0.24912473  0.27585240  1
  O2-  O139  1  0.50369006  0.25425562  0.60853807  1
  O2-  O140  1  0.50248857  0.25455091  0.93338077  1
  O2-  O141  1  0.49713492  0.74938212  0.27871680  1
  O2-  O142  1  0.50001245  0.74942848  0.59822827  1
  O2-  O143  1  0.49258804  0.73997269  0.93840102  1
  O2-  O144  1  0.06940609  0.17175154  0.08610955  1
  O2-  O145  1  0.06863648  0.17718632  0.43233462  1
  O2-  O146  1  0.07196057  0.17624981  0.75630639  1
  O2-  O147  1  0.06621883  0.68040770  0.10227570  1
  O2-  O148  1  0.07072412  0.68185944  0.42323193  1
  O2-  O149  1  0.06993008  0.67918759  0.76301008  1
  O2-  O150  1  0.56651270  0.17963945  0.10002767  1
  O2-  O151  1  0.56851293  0.17297711  0.42482906  1
  O2-  O152  1  0.56913454  0.17767932  0.75510469  1
  O2-  O153  1  0.57809596  0.68460177  0.10156895  1
  O2-  O154  1  0.57419421  0.68331998  0.42495414  1
  O2-  O155  1  0.57194254  0.68077185  0.76328453  1
  O2-  O156  1  0.18110164  0.42986249  0.23571958  1
  O2-  O157  1  0.18293240  0.41999823  0.57657752  1
  O2-  O158  1  0.17750807  0.43493000  0.89880178  1
  O2-  O159  1  0.17501275  0.92809311  0.24408299  1
  O2-  O160  1  0.17500082  0.93435964  0.57483087  1
  O2-  O161  1  0.17001048  0.92950656  0.91182658  1
  O2-  O162  1  0.67857884  0.42594073  0.24057200  1
  O2-  O163  1  0.68270764  0.42440684  0.56713691  1
  O2-  O164  1  0.68386950  0.41780121  0.91149125  1
  O2-  O165  1  0.67765445  0.93132656  0.23757845  1
  O2-  O166  1  0.67926574  0.93455187  0.57040125  1
  O2-  O167  1  0.68134363  0.93286931  0.90205529  1
  O2-  O168  1  0.42592400  0.31957892  0.09694207  1
  O2-  O169  1  0.43280048  0.31970361  0.43369497  1
  O2-  O170  1  0.42217238  0.31573170  0.75509991  1
  O2-  O171  1  0.43253180  0.82158377  0.10249337  1
  O2-  O172  1  0.42821069  0.82628282  0.42339879  1
  O2-  O173  1  0.43043225  0.82456106  0.76256769  1
  O2-  O174  1  0.93245802  0.31981074  0.09898718  1
  O2-  O175  1  0.92658442  0.31964939  0.42232355  1
  O2-  O176  1  0.92911663  0.31894985  0.75338728  1
  O2-  O177  1  0.92770466  0.82361361  0.09076816  1
  O2-  O178  1  0.93031702  0.82153781  0.42441843  1
  O2-  O179  1  0.93558955  0.83313955  0.75453040  1
  O2-  O180  1  0.32054905  0.06797672  0.24504763  1
  O2-  O181  1  0.31670954  0.07496150  0.57578212  1
  O2-  O182  1  0.31769295  0.06621700  0.90083575  1
  O2-  O183  1  0.32308412  0.57678602  0.23545076  1
  O2-  O184  1  0.31776922  0.56917226  0.56640802  1
  O2-  O185  1  0.31968108  0.57613527  0.89901921  1
  O2-  O186  1  0.82714343  0.06896455  0.24435914  1
  O2-  O187  1  0.82652481  0.07022644  0.57732849  1
  O2-  O188  1  0.82775045  0.07197216  0.91245809  1
  O2-  O189  1  0.82114485  0.57110425  0.23472534  1
  O2-  O190  1  0.82260258  0.56588611  0.56995177  1
  O2-  O191  1  0.82008611  0.56748602  0.90100786  1
  O2-  O192  1  0.04020375  0.08222440  0.26312582  1
  O2-  O193  1  0.04371710  0.08689150  0.60266019  1
  O2-  O194  1  0.04366016  0.08209683  0.93332544  1
  O2-  O195  1  0.04479061  0.58445054  0.27486416  1
  O2-  O196  1  0.04078515  0.58049875  0.59489675  1
  O2-  O197  1  0.03556593  0.58516901  0.93311720  1
  O2-  O198  1  0.53894771  0.08325384  0.27358741  1
  O2-  O199  1  0.53734391  0.09093679  0.60072988  1
  O2-  O200  1  0.53317658  0.08349979  0.93322956  1
  O2-  O201  1  0.55128130  0.58944619  0.27231454  1
  O2-  O202  1  0.54560669  0.57796579  0.59861808  1
  O2-  O203  1  0.56368812  0.57541957  0.93773906  1
  O2-  O204  1  0.16777345  0.20608201  0.26490264  1
  O2-  O205  1  0.16345998  0.20612303  0.60327992  1
  O2-  O206  1  0.16656244  0.19604507  0.93570335  1
  O2-  O207  1  0.16107863  0.71144551  0.27165285  1
  O2-  O208  1  0.16226205  0.71415566  0.59248584  1
  O2-  O209  1  0.16358271  0.71173883  0.93238861  1
  O2-  O210  1  0.66902898  0.19072936  0.27598337  1
  O2-  O211  1  0.66499571  0.20124502  0.60372463  1
  O2-  O212  1  0.67055453  0.19725800  0.93397881  1
  O2-  O213  1  0.66386356  0.71549275  0.27470910  1
  O2-  O214  1  0.67282988  0.70915635  0.60030184  1
  O2-  O215  1  0.66881290  0.71811613  0.93428008  1
  O2-  O216  1  0.08338198  0.46337166  0.06773525  1
  O2-  O217  1  0.08308902  0.45272018  0.40342977  1
  O2-  O218  1  0.08279204  0.44719933  0.72202276  1
  O2-  O219  1  0.07991859  0.95331342  0.06435050  1
  O2-  O220  1  0.08460939  0.95830681  0.39655335  1
  O2-  O221  1  0.08921225  0.96293667  0.73017706  1
  O2-  O222  1  0.58179875  0.44116926  0.05815357  1
  O2-  O223  1  0.58569032  0.45419793  0.39249979  1
  O2-  O224  1  0.57620839  0.44511504  0.73034813  1
  O2-  O225  1  0.58483318  0.96431585  0.07026068  1
  O2-  O226  1  0.58218615  0.96187917  0.40659421  1
  O2-  O227  1  0.58217024  0.96743789  0.73475182  1
  O2-  O228  1  0.19651285  0.32757033  0.06052443  1
  O2-  O229  1  0.21075626  0.32854141  0.40065013  1
  O2-  O230  1  0.20600472  0.33245038  0.72984413  1
  O2-  O231  1  0.19708389  0.83354179  0.06407350  1
  O2-  O232  1  0.20407426  0.83835582  0.39780690  1
  O2-  O233  1  0.20021682  0.83622707  0.72457063  1
  O2-  O234  1  0.71006591  0.33100308  0.06379460  1
  O2-  O235  1  0.69888039  0.33015334  0.39131020  1
  O2-  O236  1  0.71029218  0.32906842  0.73321678  1
  O2-  O237  1  0.71359160  0.83815325  0.07291093  1
  O2-  O238  1  0.71328887  0.83791628  0.40713879  1
  O2-  O239  1  0.70876730  0.83542996  0.73784984  1
  O2-  O240  1  0.46011016  0.41906856  0.26492310  1
  O2-  O241  1  0.45116573  0.41298032  0.60362488  1
  O2-  O242  1  0.45088392  0.42181590  0.93010409  1
  O2-  O243  1  0.45872530  0.91464186  0.27272179  1
  O2-  O244  1  0.45797292  0.92233694  0.59718378  1
  O2-  O245  1  0.46411738  0.91537507  0.93589298  1
  O2-  O246  1  0.95504918  0.41688896  0.27264912  1
  O2-  O247  1  0.95647469  0.40958386  0.59850632  1
  O2-  O248  1  0.96325599  0.41508986  0.92932983  1
  O2-  O249  1  0.95736314  0.90938690  0.26980847  1
  O2-  O250  1  0.96125682  0.91623609  0.59962498  1
  O2-  O251  1  0.94923264  0.91739088  0.93809744  1
  O2-  O252  1  0.33748380  0.28652984  0.26628835  1
  O2-  O253  1  0.33811596  0.28497914  0.60169587  1
  O2-  O254  1  0.32949772  0.28668744  0.93070668  1
  O2-  O255  1  0.33406413  0.80074481  0.27266104  1
  O2-  O256  1  0.32947975  0.79876724  0.59700446  1
  O2-  O257  1  0.32639131  0.80593918  0.93804989  1
  O2-  O258  1  0.83401619  0.29769114  0.26977817  1
  O2-  O259  1  0.83834371  0.28929017  0.59935490  1
  O2-  O260  1  0.83643398  0.28854635  0.92791464  1
  O2-  O261  1  0.83418079  0.79355386  0.27491414  1
  O2-  O262  1  0.83334025  0.80505288  0.60759017  1
  O2-  O263  1  0.83326356  0.79702429  0.94016167  1
  O2-  O264  1  0.41301557  0.03615766  0.07161440  1
  O2-  O265  1  0.40933168  0.04130283  0.40010144  1
  O2-  O266  1  0.41242636  0.04802348  0.72738180  1
  O2-  O267  1  0.42663771  0.55046764  0.06233058  1
  O2-  O268  1  0.42301147  0.54553237  0.39976959  1
  O2-  O269  1  0.41532997  0.54262738  0.73178670  1
  O2-  O270  1  0.91753155  0.04788756  0.06508289  1
  O2-  O271  1  0.91636719  0.04079136  0.39690243  1
  O2-  O272  1  0.91815885  0.04690112  0.72978884  1
  O2-  O273  1  0.91326683  0.53359512  0.06738026  1
  O2-  O274  1  0.91702804  0.54009582  0.40316295  1
  O2-  O275  1  0.92017940  0.53474466  0.73270023  1
  O2-  O276  1  0.28755080  0.16394623  0.06987162  1
  O2-  O277  1  0.29079207  0.16127908  0.39708209  1
  O2-  O278  1  0.28672194  0.16078056  0.73053136  1
  O2-  O279  1  0.29179812  0.67105342  0.06551410  1
  O2-  O280  1  0.29300094  0.67289663  0.40154691  1
  O2-  O281  1  0.28621180  0.67019135  0.72904441  1
  O2-  O282  1  0.80139235  0.16897792  0.06264594  1
  O2-  O283  1  0.80488101  0.16748223  0.39426265  1
  O2-  O284  1  0.80058894  0.16641443  0.72668859  1
  O2-  O285  1  0.79167154  0.66623228  0.06868004  1
  O2-  O286  1  0.79033321  0.66486150  0.40403628  1
  O2-  O287  1  0.80345283  0.67228738  0.73336411  1
