# generated using pymatgen
data_Ca2Al2SiO7
_symmetry_space_group_name_H-M   'P 1'
_cell_length_a   15.46109748
_cell_length_b   15.45962123
_cell_length_c   15.28551546
_cell_angle_alpha   90.00119117
_cell_angle_beta   89.99264050
_cell_angle_gamma   89.97294317
_symmetry_Int_Tables_number   1
_chemical_formula_structural   Ca2Al2SiO7
_chemical_formula_sum   'Ca48 Al48 Si24 O168'
_cell_volume   3653.58490141
_cell_formula_units_Z   24
loop_
 _symmetry_equiv_pos_site_id
 _symmetry_equiv_pos_as_xyz
  1  'x, y, z'
loop_
 _atom_type_symbol
 _atom_type_oxidation_number
  Ca2+  2.0
  Al0+  0.0
  Si0+  0.0
  O2-  -2.0
loop_
 _atom_site_type_symbol
 _atom_site_label
 _atom_site_symmetry_multiplicity
 _atom_site_fract_x
 _atom_site_fract_y
 _atom_site_fract_z
 _atom_site_occupancy
  Ca2+  Ca0  1  0.16716619  0.08437208  0.17004064  1
  Ca2+  Ca1  1  0.15989399  0.07952655  0.49861918  1
  Ca2+  Ca2  1  0.17371854  0.08422034  0.84246288  1
  Ca2+  Ca3  1  0.16971874  0.58272567  0.17110378  1
  Ca2+  Ca4  1  0.17507417  0.58297397  0.50881661  1
  Ca2+  Ca5  1  0.17528341  0.58342375  0.83381671  1
  Ca2+  Ca6  1  0.66411727  0.07108874  0.16793502  1
  Ca2+  Ca7  1  0.67375630  0.08373112  0.51284144  1
  Ca2+  Ca8  1  0.66971989  0.08030379  0.83654656  1
  Ca2+  Ca9  1  0.67164060  0.58604700  0.16621196  1
  Ca2+  Ca10  1  0.66615100  0.58105695  0.50349521  1
  Ca2+  Ca11  1  0.66308954  0.57688939  0.84013721  1
  Ca2+  Ca12  1  0.07896719  0.32525097  0.16246436  1
  Ca2+  Ca13  1  0.06868543  0.33004340  0.49258079  1
  Ca2+  Ca14  1  0.07578512  0.32680336  0.82984429  1
  Ca2+  Ca15  1  0.07203269  0.84160567  0.16554330  1
  Ca2+  Ca16  1  0.07376414  0.83613874  0.49536212  1
  Ca2+  Ca17  1  0.07055044  0.83452311  0.82987021  1
  Ca2+  Ca18  1  0.57841330  0.33370655  0.15925921  1
  Ca2+  Ca19  1  0.58564589  0.33367632  0.50649830  1
  Ca2+  Ca20  1  0.58039207  0.33555845  0.82531391  1
  Ca2+  Ca21  1  0.58551074  0.82289729  0.15576944  1
  Ca2+  Ca22  1  0.58126551  0.81976449  0.49781487  1
  Ca2+  Ca23  1  0.58042546  0.82510607  0.83133971  1
  Ca2+  Ca24  1  0.33478868  0.41488483  0.16735798  1
  Ca2+  Ca25  1  0.33365516  0.42109304  0.51018341  1
  Ca2+  Ca26  1  0.34406054  0.41955727  0.83554632  1
  Ca2+  Ca27  1  0.33129330  0.92174290  0.17017765  1
  Ca2+  Ca28  1  0.32540196  0.91067243  0.50649687  1
  Ca2+  Ca29  1  0.34121133  0.92098315  0.84190619  1
  Ca2+  Ca30  1  0.83238356  0.42897258  0.17256797  1
  Ca2+  Ca31  1  0.83312906  0.42018769  0.50919735  1
  Ca2+  Ca32  1  0.81998117  0.41863223  0.84018254  1
  Ca2+  Ca33  1  0.82974448  0.90703996  0.16727320  1
  Ca2+  Ca34  1  0.83825824  0.92170048  0.50636918  1
  Ca2+  Ca35  1  0.83048148  0.91696696  0.83798165  1
  Ca2+  Ca36  1  0.41357191  0.17163449  0.15596157  1
  Ca2+  Ca37  1  0.42364556  0.16927693  0.50342350  1
  Ca2+  Ca38  1  0.42253475  0.17504303  0.82998193  1
  Ca2+  Ca39  1  0.42999135  0.67295748  0.15706301  1
  Ca2+  Ca40  1  0.42727899  0.66127153  0.50195787  1
  Ca2+  Ca41  1  0.42722738  0.67232594  0.82438138  1
  Ca2+  Ca42  1  0.92962217  0.16701820  0.16485153  1
  Ca2+  Ca43  1  0.91216805  0.17916765  0.49608272  1
  Ca2+  Ca44  1  0.91996544  0.16651841  0.82531171  1
  Ca2+  Ca45  1  0.90766906  0.67281379  0.16213236  1
  Ca2+  Ca46  1  0.90787514  0.67834600  0.49371442  1
  Ca2+  Ca47  1  0.90574999  0.67675084  0.83400024  1
  Al0+  Al48  1  0.00172537  0.00028650  -0.00873270  1
  Al0+  Al49  1  0.00002073  0.00066449  0.33021643  1
  Al0+  Al50  1  0.00031429  -0.00111840  0.66821759  1
  Al0+  Al51  1  0.00139036  0.50000582  0.00310670  1
  Al0+  Al52  1  -0.00049120  0.50234925  0.33548124  1
  Al0+  Al53  1  0.00158327  0.50026839  0.66628164  1
  Al0+  Al54  1  0.50057356  0.00144972  0.00785084  1
  Al0+  Al55  1  0.49892764  0.00028638  0.33690426  1
  Al0+  Al56  1  0.49852143  -0.00105451  0.65899063  1
  Al0+  Al57  1  0.49992257  0.49996250  -0.00029495  1
  Al0+  Al58  1  0.50155169  0.49964784  0.32897050  1
  Al0+  Al59  1  0.49965386  0.50023751  0.66683303  1
  Al0+  Al60  1  0.25038285  0.24939510  -0.00419315  1
  Al0+  Al61  1  0.25056863  0.25011509  0.33406081  1
  Al0+  Al62  1  0.24954992  0.24783050  0.66311934  1
  Al0+  Al63  1  0.24760314  0.75082731  -0.00011709  1
  Al0+  Al64  1  0.24986869  0.75159684  0.33894968  1
  Al0+  Al65  1  0.24856687  0.74911059  0.67032835  1
  Al0+  Al66  1  0.75111149  0.24992134  0.00788092  1
  Al0+  Al67  1  0.74722738  0.25041787  0.32676072  1
  Al0+  Al68  1  0.75202080  0.24969428  0.66893550  1
  Al0+  Al69  1  0.75019373  0.75068096  -0.00197477  1
  Al0+  Al70  1  0.74831823  0.74819188  0.33095513  1
  Al0+  Al71  1  0.74933034  0.75118112  0.65804502  1
  Al0+  Al72  1  0.68159802  0.43070905  0.67921100  1
  Al0+  Al73  1  0.56873010  0.67944455  0.31650196  1
  Al0+  Al74  1  0.42844370  0.32124434  0.65126626  1
  Al0+  Al75  1  0.82008220  0.57067592  0.34922838  1
  Al0+  Al76  1  0.07043170  0.18072133  0.31862683  1
  Al0+  Al77  1  0.32022175  0.56922306  0.68134936  1
  Al0+  Al78  1  0.93026884  0.81986446  0.31921976  1
  Al0+  Al79  1  0.68111933  0.93114484  0.01210743  1
  Al0+  Al80  1  0.67597216  0.42741905  0.01716729  1
  Al0+  Al81  1  0.57093483  0.67799290  0.65046106  1
  Al0+  Al82  1  0.17888487  0.93100050  0.34765179  1
  Al0+  Al83  1  0.92980293  0.82020796  0.65202573  1
  Al0+  Al84  1  0.92959228  0.32103894  0.65606014  1
  Al0+  Al85  1  0.06996143  0.18039864  0.98447387  1
  Al0+  Al86  1  0.42717102  0.82357283  0.98806549  1
  Al0+  Al87  1  0.82115863  0.07013600  0.67955618  1
  Al0+  Al88  1  0.57098584  0.67986958  0.98359055  1
  Al0+  Al89  1  0.92581875  0.32508498  0.31651641  1
  Al0+  Al90  1  0.93042364  0.81903481  0.98569539  1
  Al0+  Al91  1  0.32004460  0.07062195  0.01270785  1
  Al0+  Al92  1  0.82112228  0.57058575  0.01420736  1
  Al0+  Al93  1  0.42596081  0.82173585  0.65104849  1
  Al0+  Al94  1  0.43053573  0.31982796  0.98718718  1
  Al0+  Al95  1  0.57260653  0.17866853  0.65397613  1
  Si0+  Si96  1  0.07402534  0.67392487  0.98277038  1
  Si0+  Si97  1  0.67645216  0.92716057  0.68102702  1
  Si0+  Si98  1  0.07255500  0.67813206  0.65042137  1
  Si0+  Si99  1  0.82407384  0.57495210  0.68235888  1
  Si0+  Si100  1  0.32057056  0.57252816  0.01576475  1
  Si0+  Si101  1  0.42588760  0.82316686  0.31693947  1
  Si0+  Si102  1  0.17949164  0.42826013  0.34837185  1
  Si0+  Si103  1  0.67808180  0.92783320  0.34959812  1
  Si0+  Si104  1  0.67683569  0.42669308  0.35114914  1
  Si0+  Si105  1  0.81859044  0.07074144  0.34615242  1
  Si0+  Si106  1  0.57470117  0.17704823  0.98660726  1
  Si0+  Si107  1  0.92771844  0.32368483  0.98416939  1
  Si0+  Si108  1  0.07547979  0.67841656  0.31826800  1
  Si0+  Si109  1  0.07226597  0.17678738  0.64947683  1
  Si0+  Si110  1  0.17882650  0.92929979  0.68385605  1
  Si0+  Si111  1  0.17686306  0.42531639  0.68380611  1
  Si0+  Si112  1  0.32200841  0.56960043  0.34704246  1
  Si0+  Si113  1  0.82656451  0.07226085  0.01797358  1
  Si0+  Si114  1  0.43034944  0.31920586  0.31903735  1
  Si0+  Si115  1  0.57101866  0.17555182  0.31696700  1
  Si0+  Si116  1  0.18041583  0.42868051  0.01480495  1
  Si0+  Si117  1  0.17588835  0.92776336  0.01617147  1
  Si0+  Si118  1  0.32191889  0.07082167  0.68183185  1
  Si0+  Si119  1  0.32271707  0.07451451  0.35384069  1
  O2-  O120  1  0.24802308  -0.00680358  0.05962049  1
  O2-  O121  1  0.25511945  0.00387741  0.39652358  1
  O2-  O122  1  0.25243415  -0.00171463  0.72467288  1
  O2-  O123  1  0.24937238  0.50146101  0.05859650  1
  O2-  O124  1  0.24875942  0.50111999  0.39017071  1
  O2-  O125  1  0.24804963  0.49128881  0.72829471  1
  O2-  O126  1  0.75629453  0.00502435  0.06190542  1
  O2-  O127  1  0.74702674  0.00127127  0.39078934  1
  O2-  O128  1  0.74498343  -0.00368271  0.72492518  1
  O2-  O129  1  0.75027382  0.49792357  0.06566193  1
  O2-  O130  1  0.74991947  0.49089079  0.39467475  1
  O2-  O131  1  0.75581438  0.50619750  0.72568276  1
  O2-  O132  1  -0.00016196  0.25388512  0.26816851  1
  O2-  O133  1  0.00501456  0.24746212  0.60754348  1
  O2-  O134  1  -0.00880560  0.25086341  0.93866398  1
  O2-  O135  1  0.00522345  0.74458457  0.27347394  1
  O2-  O136  1  0.00060195  0.74214378  0.60504552  1
  O2-  O137  1  0.00389820  0.74194263  0.94034625  1
  O2-  O138  1  0.49831331  0.24574421  0.27647578  1
  O2-  O139  1  0.50144297  0.25046152  0.60114033  1
  O2-  O140  1  0.51108909  0.25040028  0.94310214  1
  O2-  O141  1  0.49529264  0.75667628  0.27200858  1
  O2-  O142  1  0.49827889  0.75045936  0.60094528  1
  O2-  O143  1  0.49602290  0.75037602  0.93635362  1
  O2-  O144  1  0.07100083  0.18234979  0.09753208  1
  O2-  O145  1  0.06860763  0.18231521  0.43225409  1
  O2-  O146  1  0.07316401  0.17712291  0.75513304  1
  O2-  O147  1  0.07780530  0.67292154  0.08827413  1
  O2-  O148  1  0.07850323  0.67956647  0.42368226  1
  O2-  O149  1  0.07500927  0.68012952  0.75588618  1
  O2-  O150  1  0.57024621  0.17559645  0.09276457  1
  O2-  O151  1  0.57270129  0.17425926  0.42168018  1
  O2-  O152  1  0.57066741  0.17731307  0.76733949  1
  O2-  O153  1  0.56961287  0.68146287  0.09760701  1
  O2-  O154  1  0.56618703  0.67740959  0.42932271  1
  O2-  O155  1  0.57116519  0.67900876  0.76350433  1
  O2-  O156  1  0.18252026  0.42751155  0.24300735  1
  O2-  O157  1  0.17604344  0.42812289  0.57789687  1
  O2-  O158  1  0.17985204  0.42966937  0.90989355  1
  O2-  O159  1  0.18070639  0.93203445  0.23472507  1
  O2-  O160  1  0.17703868  0.93139173  0.57852249  1
  O2-  O161  1  0.17416562  0.92974274  0.91051905  1
  O2-  O162  1  0.67327088  0.42813272  0.24599682  1
  O2-  O163  1  0.68384321  0.43080141  0.56566806  1
  O2-  O164  1  0.67675598  0.42668304  0.90353376  1
  O2-  O165  1  0.67771702  0.92907475  0.24440451  1
  O2-  O166  1  0.67874185  0.92823046  0.57488532  1
  O2-  O167  1  0.68154026  0.93289570  0.89907995  1
  O2-  O168  1  0.42750087  0.31724352  0.10120658  1
  O2-  O169  1  0.43021361  0.32017942  0.42366455  1
  O2-  O170  1  0.42829953  0.31843468  0.76449305  1
  O2-  O171  1  0.42708217  0.82055907  0.10209278  1
  O2-  O172  1  0.42587362  0.82183157  0.42232734  1
  O2-  O173  1  0.42707873  0.82229873  0.76431037  1
  O2-  O174  1  0.93285718  0.32471981  0.08960561  1
  O2-  O175  1  0.92646761  0.32274217  0.43050959  1
  O2-  O176  1  0.93180081  0.31900261  0.76903250  1
  O2-  O177  1  0.93231848  0.81961924  0.09891934  1
  O2-  O178  1  0.93204338  0.82120480  0.43231534  1
  O2-  O179  1  0.93085808  0.82063235  0.76495719  1
  O2-  O180  1  0.32383995  0.07630959  0.24833087  1
  O2-  O181  1  0.31966275  0.07214911  0.57665590  1
  O2-  O182  1  0.31890943  0.07186296  0.89952527  1
  O2-  O183  1  0.32063219  0.56772830  0.24174884  1
  O2-  O184  1  0.31700478  0.56779909  0.56740270  1
  O2-  O185  1  0.31896255  0.57218101  0.91096341  1
  O2-  O186  1  0.81667795  0.06912543  0.24114181  1
  O2-  O187  1  0.82179851  0.06942307  0.56564579  1
  O2-  O188  1  0.82614706  0.07193626  0.91232959  1
  O2-  O189  1  0.81788663  0.57256322  0.23651254  1
  O2-  O190  1  0.82461516  0.57363877  0.57655903  1
  O2-  O191  1  0.82150660  0.56891930  0.90050209  1
  O2-  O192  1  0.04024877  0.08389304  0.26417231  1
  O2-  O193  1  0.04452495  0.08373166  0.60443623  1
  O2-  O194  1  0.04432657  0.08408431  0.92804716  1
  O2-  O195  1  0.05370840  0.58349369  0.27360664  1
  O2-  O196  1  0.05404574  0.58241473  0.60564229  1
  O2-  O197  1  0.05130467  0.57973862  0.93642261  1
  O2-  O198  1  0.54329901  0.08292965  0.27030775  1
  O2-  O199  1  0.54352972  0.08221517  0.59652303  1
  O2-  O200  1  0.54424550  0.08554081  0.94067720  1
  O2-  O201  1  0.53637732  0.58339196  0.26217226  1
  O2-  O202  1  0.53900232  0.58127375  0.59652956  1
  O2-  O203  1  0.54214914  0.58098888  0.93373215  1
  O2-  O204  1  0.17053544  0.20809459  0.26751236  1
  O2-  O205  1  0.16590510  0.19879025  0.60218627  1
  O2-  O206  1  0.16413078  0.21553697  0.92918166  1
  O2-  O207  1  0.16903613  0.70481793  0.27136762  1
  O2-  O208  1  0.16413835  0.70766946  0.60268384  1
  O2-  O209  1  0.16654334  0.70132919  0.93509541  1
  O2-  O210  1  0.66098425  0.20244943  0.26628067  1
  O2-  O211  1  0.67036738  0.20779872  0.60010703  1
  O2-  O212  1  0.67177247  0.19535389  0.94493611  1
  O2-  O213  1  0.66444105  0.71204617  0.26342155  1
  O2-  O214  1  0.66774342  0.70674502  0.59408829  1
  O2-  O215  1  0.66791781  0.71011160  0.93100839  1
  O2-  O216  1  0.08916156  0.45443040  0.06475162  1
  O2-  O217  1  0.08743623  0.45429396  0.39587299  1
  O2-  O218  1  0.08495250  0.45422470  0.73236462  1
  O2-  O219  1  0.08385584  0.95959394  0.06214121  1
  O2-  O220  1  0.08245063  0.96458446  0.40197218  1
  O2-  O221  1  0.08866204  0.96016849  0.73267322  1
  O2-  O222  1  0.57749907  0.45690673  0.07067576  1
  O2-  O223  1  0.58412122  0.45760928  0.39722132  1
  O2-  O224  1  0.58382081  0.45874664  0.73146195  1
  O2-  O225  1  0.58686410  0.96198820  0.07216719  1
  O2-  O226  1  0.58503742  0.95325392  0.39630963  1
  O2-  O227  1  0.58175272  0.95217609  0.72446310  1
  O2-  O228  1  0.21254582  0.33858477  0.06267459  1
  O2-  O229  1  0.20946379  0.33779120  0.39732934  1
  O2-  O230  1  0.19918491  0.32960028  0.72689329  1
  O2-  O231  1  0.19443457  0.83225208  0.06191360  1
  O2-  O232  1  0.20693521  0.83396702  0.40428175  1
  O2-  O233  1  0.20139199  0.83636780  0.73068388  1
  O2-  O234  1  0.69983554  0.32752774  0.07107658  1
  O2-  O235  1  0.69661121  0.32975354  0.39343757  1
  O2-  O236  1  0.71229658  0.33469418  0.73397119  1
  O2-  O237  1  0.71353843  0.83552090  0.06715774  1
  O2-  O238  1  0.70795003  0.83689827  0.39607731  1
  O2-  O239  1  0.70454996  0.83364912  0.72545294  1
  O2-  O240  1  0.45921944  0.40968557  0.26956619  1
  O2-  O241  1  0.45582912  0.41919561  0.59825444  1
  O2-  O242  1  0.45531814  0.41797239  0.93518277  1
  O2-  O243  1  0.44884479  0.91931068  0.27455456  1
  O2-  O244  1  0.44985736  0.91963045  0.59499654  1
  O2-  O245  1  0.45772760  0.92269408  0.93861168  1
  O2-  O246  1  0.95664976  0.42394685  0.26618444  1
  O2-  O247  1  0.95985820  0.41794107  0.60115119  1
  O2-  O248  1  0.95870253  0.41540772  0.93779578  1
  O2-  O249  1  0.96143585  0.91567151  0.26454956  1
  O2-  O250  1  0.96585759  0.91579194  0.59874582  1
  O2-  O251  1  0.96243737  0.91398805  0.92937459  1
  O2-  O252  1  0.33749015  0.29416394  0.27203583  1
  O2-  O253  1  0.32979413  0.29229485  0.59755036  1
  O2-  O254  1  0.33631250  0.28652690  0.93153416  1
  O2-  O255  1  0.33170305  0.79727833  0.27263994  1
  O2-  O256  1  0.32652177  0.79162749  0.60053292  1
  O2-  O257  1  0.32611083  0.80092611  0.93791330  1
  O2-  O258  1  0.82771748  0.29678481  0.26367459  1
  O2-  O259  1  0.83544155  0.28827782  0.59984633  1
  O2-  O260  1  0.83118042  0.30171022  0.94347698  1
  O2-  O261  1  0.83339132  0.78893740  0.26680380  1
  O2-  O262  1  0.83333431  0.79542818  0.59542698  1
  O2-  O263  1  0.83458112  0.78987032  0.93057674  1
  O2-  O264  1  0.41557712  0.04463108  0.07167305  1
  O2-  O265  1  0.41715702  0.05041511  0.39964412  1
  O2-  O266  1  0.41492128  0.04451664  0.72712474  1
  O2-  O267  1  0.41104096  0.54309874  0.06415731  1
  O2-  O268  1  0.41253074  0.53660864  0.39364338  1
  O2-  O269  1  0.41627335  0.53993609  0.73562326  1
  O2-  O270  1  0.92030828  0.04313183  0.06157195  1
  O2-  O271  1  0.91037555  0.04246595  0.39256377  1
  O2-  O272  1  0.91716069  0.03785345  0.73445169  1
  O2-  O273  1  0.92138638  0.54546771  0.06775418  1
  O2-  O274  1  0.91985414  0.54815359  0.40235309  1
  O2-  O275  1  0.91921833  0.55232897  0.72689950  1
  O2-  O276  1  0.28480621  0.16641057  0.06717971  1
  O2-  O277  1  0.29539704  0.16757359  0.40072587  1
  O2-  O278  1  0.29239067  0.16269685  0.72892434  1
  O2-  O279  1  0.29167568  0.66384781  0.06451097  1
  O2-  O280  1  0.29733065  0.66185194  0.39487515  1
  O2-  O281  1  0.28566529  0.66426633  0.73672493  1
  O2-  O282  1  0.80575084  0.16632225  0.06528766  1
  O2-  O283  1  0.79044817  0.16402530  0.39147314  1
  O2-  O284  1  0.79257123  0.16554881  0.73594912  1
  O2-  O285  1  0.79153786  0.66909328  0.06618407  1
  O2-  O286  1  0.78418715  0.66654692  0.40251911  1
  O2-  O287  1  0.79724065  0.66991113  0.72471862  1
