# generated using pymatgen
data_Ca2Al2SiO7
_symmetry_space_group_name_H-M   'P 1'
_cell_length_a   15.46066642
_cell_length_b   15.46178721
_cell_length_c   15.28605192
_cell_angle_alpha   90.00486368
_cell_angle_beta   89.99979873
_cell_angle_gamma   90.01998172
_symmetry_Int_Tables_number   1
_chemical_formula_structural   Ca2Al2SiO7
_chemical_formula_sum   'Ca48 Al48 Si24 O168'
_cell_volume   3654.12335702
_cell_formula_units_Z   24
loop_
 _symmetry_equiv_pos_site_id
 _symmetry_equiv_pos_as_xyz
  1  'x, y, z'
loop_
 _atom_type_symbol
 _atom_type_oxidation_number
  Ca2+  2.0
  Al0+  0.0
  Si0+  0.0
  O2-  -2.0
loop_
 _atom_site_type_symbol
 _atom_site_label
 _atom_site_symmetry_multiplicity
 _atom_site_fract_x
 _atom_site_fract_y
 _atom_site_fract_z
 _atom_site_occupancy
  Ca2+  Ca0  1  0.17732971  0.07407767  0.17687579  1
  Ca2+  Ca1  1  0.17201350  0.06956032  0.50228979  1
  Ca2+  Ca2  1  0.16933124  0.07450826  0.83418806  1
  Ca2+  Ca3  1  0.16160273  0.58226545  0.16284748  1
  Ca2+  Ca4  1  0.17258161  0.57960754  0.51309705  1
  Ca2+  Ca5  1  0.16585849  0.58062126  0.83425657  1
  Ca2+  Ca6  1  0.67016297  0.07859667  0.16982151  1
  Ca2+  Ca7  1  0.67040770  0.08384798  0.49701539  1
  Ca2+  Ca8  1  0.67405260  0.08160130  0.84224049  1
  Ca2+  Ca9  1  0.66504213  0.57440946  0.16895313  1
  Ca2+  Ca10  1  0.66933922  0.57826582  0.50575983  1
  Ca2+  Ca11  1  0.67715010  0.58049307  0.84203537  1
  Ca2+  Ca12  1  0.08153926  0.33096722  0.15832408  1
  Ca2+  Ca13  1  0.08186452  0.33419957  0.49826344  1
  Ca2+  Ca14  1  0.08706868  0.33585700  0.82835858  1
  Ca2+  Ca15  1  0.07739837  0.83079534  0.15694371  1
  Ca2+  Ca16  1  0.08954694  0.83154568  0.49915540  1
  Ca2+  Ca17  1  0.07802942  0.82230807  0.82859249  1
  Ca2+  Ca18  1  0.59421699  0.32358230  0.16217544  1
  Ca2+  Ca19  1  0.57925264  0.33074704  0.49230390  1
  Ca2+  Ca20  1  0.58695177  0.32887927  0.83053117  1
  Ca2+  Ca21  1  0.57358713  0.85128575  0.16252069  1
  Ca2+  Ca22  1  0.57354068  0.83716755  0.49331938  1
  Ca2+  Ca23  1  0.57375242  0.83971085  0.83169271  1
  Ca2+  Ca24  1  0.32749647  0.41728695  0.16769033  1
  Ca2+  Ca25  1  0.33060159  0.42296471  0.51362455  1
  Ca2+  Ca26  1  0.32704226  0.41770978  0.83418981  1
  Ca2+  Ca27  1  0.33193467  0.91607073  0.17622837  1
  Ca2+  Ca28  1  0.33046429  0.91412935  0.50204987  1
  Ca2+  Ca29  1  0.32955986  0.90334577  0.83342338  1
  Ca2+  Ca30  1  0.82249736  0.42132304  0.16398413  1
  Ca2+  Ca31  1  0.82478013  0.41969181  0.50362238  1
  Ca2+  Ca32  1  0.83126391  0.42901668  0.83952548  1
  Ca2+  Ca33  1  0.82697738  0.92361327  0.17165959  1
  Ca2+  Ca34  1  0.82808066  0.92691034  0.50492784  1
  Ca2+  Ca35  1  0.82969501  0.92540703  0.84461109  1
  Ca2+  Ca36  1  0.43173986  0.15800460  0.16368217  1
  Ca2+  Ca37  1  0.41919476  0.17151117  0.49231091  1
  Ca2+  Ca38  1  0.42521015  0.17390759  0.82891005  1
  Ca2+  Ca39  1  0.42005198  0.68033563  0.16202421  1
  Ca2+  Ca40  1  0.40952108  0.67630006  0.49906162  1
  Ca2+  Ca41  1  0.41510897  0.67374918  0.82747589  1
  Ca2+  Ca42  1  0.91208294  0.16280112  0.16196778  1
  Ca2+  Ca43  1  0.91318516  0.16155700  0.49700348  1
  Ca2+  Ca44  1  0.91261382  0.16501357  0.82938199  1
  Ca2+  Ca45  1  0.92073710  0.67485525  0.15320885  1
  Ca2+  Ca46  1  0.92356052  0.66025717  0.49994805  1
  Ca2+  Ca47  1  0.92175717  0.66162664  0.82947230  1
  Al0+  Al48  1  0.00222256  -0.00019951  -0.00118556  1
  Al0+  Al49  1  0.00127028  -0.00067480  0.33901038  1
  Al0+  Al50  1  0.00100059  -0.00038994  0.67389381  1
  Al0+  Al51  1  0.00084675  0.49838093  0.00485243  1
  Al0+  Al52  1  -0.00004154  0.49915677  0.33013210  1
  Al0+  Al53  1  -0.00161298  0.49836747  0.66657070  1
  Al0+  Al54  1  0.50004209  0.00405902  -0.01038058  1
  Al0+  Al55  1  0.50026816  0.00296203  0.33403425  1
  Al0+  Al56  1  0.50024006  0.00118938  0.66052161  1
  Al0+  Al57  1  0.49687141  0.50102157  0.00459602  1
  Al0+  Al58  1  0.49861893  0.50095124  0.33605761  1
  Al0+  Al59  1  0.49927481  0.49925922  0.66728460  1
  Al0+  Al60  1  0.25016758  0.25040560  0.00417529  1
  Al0+  Al61  1  0.24818283  0.24993909  0.33525294  1
  Al0+  Al62  1  0.25029282  0.24768548  0.66424408  1
  Al0+  Al63  1  0.24918287  0.74818952  -0.00585583  1
  Al0+  Al64  1  0.24979245  0.74725285  0.33001079  1
  Al0+  Al65  1  0.24895023  0.74874564  0.66617753  1
  Al0+  Al66  1  0.75197099  0.25054667  -0.00029784  1
  Al0+  Al67  1  0.75002837  0.25348104  0.33681557  1
  Al0+  Al68  1  0.75167401  0.24850023  0.66810923  1
  Al0+  Al69  1  0.74707935  0.75311188  0.00455229  1
  Al0+  Al70  1  0.75159637  0.74910841  0.33689219  1
  Al0+  Al71  1  0.74975247  0.75133863  0.66957000  1
  Al0+  Al72  1  0.67772897  0.92740579  0.34951118  1
  Al0+  Al73  1  0.06835615  0.67732455  0.98315827  1
  Al0+  Al74  1  0.57088197  0.18279759  0.31901841  1
  Al0+  Al75  1  0.82166490  0.57386695  0.01564017  1
  Al0+  Al76  1  0.67878706  0.43114974  0.34800580  1
  Al0+  Al77  1  0.67685815  0.42967768  0.01341298  1
  Al0+  Al78  1  0.42892698  0.32090976  0.65335270  1
  Al0+  Al79  1  0.43063685  0.82155791  0.98586108  1
  Al0+  Al80  1  0.92578944  0.82337738  0.98553159  1
  Al0+  Al81  1  0.81998007  0.06991218  0.68230343  1
  Al0+  Al82  1  0.18007347  0.92571534  0.34711960  1
  Al0+  Al83  1  0.32265627  0.07204318  0.34809589  1
  Al0+  Al84  1  0.43093799  0.81981978  0.31979307  1
  Al0+  Al85  1  0.82338759  0.07038724  0.01513944  1
  Al0+  Al86  1  0.82115837  0.07159951  0.34867499  1
  Al0+  Al87  1  0.18137486  0.92822158  0.68269128  1
  Al0+  Al88  1  0.67504496  0.93071466  0.01334172  1
  Al0+  Al89  1  0.81998228  0.57142035  0.67897800  1
  Al0+  Al90  1  0.17882168  0.42674328  0.68016120  1
  Al0+  Al91  1  0.32214220  0.57149182  0.68265919  1
  Al0+  Al92  1  0.42967626  0.81939935  0.65082605  1
  Al0+  Al93  1  0.57230657  0.18273003  0.98484587  1
  Al0+  Al94  1  0.06741586  0.67854387  0.65147158  1
  Al0+  Al95  1  0.18026544  0.42861593  0.01486592  1
  Si0+  Si96  1  0.92738272  0.82396934  0.64929312  1
  Si0+  Si97  1  0.07435205  0.17883889  0.98504827  1
  Si0+  Si98  1  0.18167709  0.92751995  0.01357136  1
  Si0+  Si99  1  0.57492658  0.67732296  0.65107034  1
  Si0+  Si100  1  0.42532824  0.32462595  0.31578204  1
  Si0+  Si101  1  0.92946878  0.31931822  0.65100250  1
  Si0+  Si102  1  0.17709854  0.42889177  0.34817499  1
  Si0+  Si103  1  0.67555601  0.92852090  0.68345321  1
  Si0+  Si104  1  0.07133968  0.17607011  0.65085274  1
  Si0+  Si105  1  0.57406891  0.18022070  0.64719463  1
  Si0+  Si106  1  0.31997314  0.07202726  0.01270735  1
  Si0+  Si107  1  0.42521532  0.32332023  0.98508332  1
  Si0+  Si108  1  0.07080298  0.17794896  0.31850771  1
  Si0+  Si109  1  0.57142462  0.67443879  0.98472811  1
  Si0+  Si110  1  0.57395468  0.67656091  0.31779988  1
  Si0+  Si111  1  0.82423085  0.57162699  0.34997980  1
  Si0+  Si112  1  0.93039803  0.32162044  0.31676592  1
  Si0+  Si113  1  0.07012873  0.67770852  0.31729470  1
  Si0+  Si114  1  0.67781452  0.42758721  0.68245196  1
  Si0+  Si115  1  0.92900920  0.82207880  0.32055897  1
  Si0+  Si116  1  0.32081960  0.57466647  0.01949307  1
  Si0+  Si117  1  0.31932642  0.56939489  0.34744307  1
  Si0+  Si118  1  0.93112157  0.31906112  0.98465718  1
  Si0+  Si119  1  0.32378647  0.07172003  0.68390269  1
  O2-  O120  1  0.25341613  -0.00276817  0.05584557  1
  O2-  O121  1  0.25334998  -0.00322362  0.39691250  1
  O2-  O122  1  0.25940644  -0.00009102  0.72979910  1
  O2-  O123  1  0.25323353  0.50400613  0.06313108  1
  O2-  O124  1  0.25139638  0.49537296  0.38968072  1
  O2-  O125  1  0.25102432  0.49755165  0.73089476  1
  O2-  O126  1  0.75263165  -0.00311385  0.06354252  1
  O2-  O127  1  0.75050489  -0.00108639  0.39940300  1
  O2-  O128  1  0.74579833  -0.00472480  0.72743630  1
  O2-  O129  1  0.74477290  0.50568646  0.06388322  1
  O2-  O130  1  0.75110637  0.50815956  0.39452978  1
  O2-  O131  1  0.74186897  0.50049860  0.72536199  1
  O2-  O132  1  -0.00068183  0.24799124  0.27502020  1
  O2-  O133  1  0.00056748  0.24802992  0.60873863  1
  O2-  O134  1  0.00135711  0.24730386  0.94215321  1
  O2-  O135  1  -0.00037590  0.75012410  0.27799789  1
  O2-  O136  1  -0.00708308  0.75296711  0.60288039  1
  O2-  O137  1  -0.00747415  0.74634574  0.93472399  1
  O2-  O138  1  0.49337379  0.25586187  0.27156482  1
  O2-  O139  1  0.50448009  0.24862049  0.60429696  1
  O2-  O140  1  0.50007498  0.26176126  0.94082874  1
  O2-  O141  1  0.51117010  0.75050128  0.27301706  1
  O2-  O142  1  0.50569183  0.74487823  0.60548711  1
  O2-  O143  1  0.50633073  0.74673525  0.94076315  1
  O2-  O144  1  0.07628796  0.18050873  0.09034851  1
  O2-  O145  1  0.07133316  0.18067406  0.42365231  1
  O2-  O146  1  0.07164178  0.17640033  0.75616642  1
  O2-  O147  1  0.07035438  0.68132840  0.09770685  1
  O2-  O148  1  0.06978944  0.67329577  0.42223640  1
  O2-  O149  1  0.06556572  0.67700175  0.76379791  1
  O2-  O150  1  0.57110884  0.18140673  0.09786928  1
  O2-  O151  1  0.57075845  0.18689512  0.43223168  1
  O2-  O152  1  0.57516874  0.18170962  0.75283137  1
  O2-  O153  1  0.56615744  0.66870108  0.09013084  1
  O2-  O154  1  0.57057155  0.67316851  0.42331666  1
  O2-  O155  1  0.57633476  0.67824174  0.75644544  1
  O2-  O156  1  0.17554810  0.42971662  0.24311228  1
  O2-  O157  1  0.17865692  0.42846148  0.56581774  1
  O2-  O158  1  0.18301303  0.42449397  0.90265111  1
  O2-  O159  1  0.17958620  0.92741791  0.23295441  1
  O2-  O160  1  0.18095121  0.93045783  0.56968329  1
  O2-  O161  1  0.18224853  0.92903690  0.90849794  1
  O2-  O162  1  0.68155015  0.43112929  0.23533392  1
  O2-  O163  1  0.68030700  0.42656979  0.57655638  1
  O2-  O164  1  0.68012107  0.42982526  0.89956964  1
  O2-  O165  1  0.67924848  0.92976801  0.23640727  1
  O2-  O166  1  0.67587447  0.92905023  0.57787855  1
  O2-  O167  1  0.67286395  0.93602269  0.89960379  1
  O2-  O168  1  0.42033735  0.31894511  0.09043654  1
  O2-  O169  1  0.42570665  0.32521276  0.42144507  1
  O2-  O170  1  0.42951890  0.31805088  0.76654078  1
  O2-  O171  1  0.42870625  0.82203433  0.09921860  1
  O2-  O172  1  0.42781577  0.81493381  0.43256816  1
  O2-  O173  1  0.43194879  0.81881480  0.76393294  1
  O2-  O174  1  0.93271994  0.31828628  0.09012559  1
  O2-  O175  1  0.93388949  0.32585677  0.42198695  1
  O2-  O176  1  0.92859924  0.31870923  0.75601141  1
  O2-  O177  1  0.93308019  0.82570029  0.09986216  1
  O2-  O178  1  0.92956726  0.82099102  0.42564705  1
  O2-  O179  1  0.92955577  0.82397041  0.75447440  1
  O2-  O180  1  0.31991006  0.07182159  0.23382105  1
  O2-  O181  1  0.32083981  0.07271509  0.57852094  1
  O2-  O182  1  0.31552170  0.07583131  0.90778975  1
  O2-  O183  1  0.31801552  0.56961432  0.24241955  1
  O2-  O184  1  0.31902259  0.57036381  0.56820106  1
  O2-  O185  1  0.32159904  0.57528394  0.91444401  1
  O2-  O186  1  0.82327109  0.07032142  0.23569556  1
  O2-  O187  1  0.81913618  0.07096871  0.56938854  1
  O2-  O188  1  0.82164259  0.07164015  0.90146588  1
  O2-  O189  1  0.82718632  0.56921978  0.24504949  1
  O2-  O190  1  0.81977441  0.56660969  0.56543723  1
  O2-  O191  1  0.82293793  0.56775182  0.90188246  1
  O2-  O192  1  0.04507102  0.08516187  0.27205274  1
  O2-  O193  1  0.04071881  0.08496822  0.60374112  1
  O2-  O194  1  0.05005169  0.08661729  0.93713888  1
  O2-  O195  1  0.04097469  0.58636433  0.26828548  1
  O2-  O196  1  0.03563850  0.58151049  0.59643312  1
  O2-  O197  1  0.04424500  0.57600881  0.93454164  1
  O2-  O198  1  0.54129234  0.08576774  0.26531499  1
  O2-  O199  1  0.54889734  0.08674397  0.60124453  1
  O2-  O200  1  0.53647985  0.09105732  0.92491410  1
  O2-  O201  1  0.54088106  0.58527311  0.26995665  1
  O2-  O202  1  0.55121127  0.58244850  0.60609939  1
  O2-  O203  1  0.54237597  0.58217676  0.93620856  1
  O2-  O204  1  0.16213254  0.20728620  0.26977647  1
  O2-  O205  1  0.16254056  0.20258649  0.60175942  1
  O2-  O206  1  0.16471009  0.21019916  0.93669464  1
  O2-  O207  1  0.16160295  0.70330619  0.26856514  1
  O2-  O208  1  0.16425912  0.70938541  0.59798721  1
  O2-  O209  1  0.16580761  0.70767227  0.93022631  1
  O2-  O210  1  0.66757123  0.21732531  0.26685590  1
  O2-  O211  1  0.66763047  0.20766634  0.60156447  1
  O2-  O212  1  0.66913686  0.21297779  0.93022752  1
  O2-  O213  1  0.67121124  0.69298456  0.27585180  1
  O2-  O214  1  0.66847757  0.70254320  0.60310921  1
  O2-  O215  1  0.66707207  0.69565131  0.94202551  1
  O2-  O216  1  0.08441558  0.45692111  0.07156936  1
  O2-  O217  1  0.08606427  0.45998984  0.39523727  1
  O2-  O218  1  0.07993473  0.45390395  0.73126514  1
  O2-  O219  1  0.09079969  0.95747244  0.06084030  1
  O2-  O220  1  0.08391843  0.95629448  0.40265571  1
  O2-  O221  1  0.08706434  0.96284393  0.73813866  1
  O2-  O222  1  0.57656296  0.45076290  0.06664385  1
  O2-  O223  1  0.58089360  0.45897803  0.40159394  1
  O2-  O224  1  0.58282168  0.44663541  0.72681894  1
  O2-  O225  1  0.57798320  0.96871931  0.06430781  1
  O2-  O226  1  0.58029384  0.95816143  0.40198241  1
  O2-  O227  1  0.58201665  0.95720133  0.72770837  1
  O2-  O228  1  0.21184807  0.33287706  0.07213404  1
  O2-  O229  1  0.19834515  0.33540129  0.39446041  1
  O2-  O230  1  0.20507536  0.32684684  0.73105716  1
  O2-  O231  1  0.20812647  0.83516369  0.05979524  1
  O2-  O232  1  0.20705027  0.82620995  0.39827386  1
  O2-  O233  1  0.21026854  0.83158729  0.73586999  1
  O2-  O234  1  0.71417005  0.33438489  0.06664847  1
  O2-  O235  1  0.71418369  0.33819108  0.40504831  1
  O2-  O236  1  0.70942845  0.33598389  0.72839855  1
  O2-  O237  1  0.68944258  0.82948960  0.06515884  1
  O2-  O238  1  0.70360311  0.82753442  0.40204296  1
  O2-  O239  1  0.69710950  0.83399789  0.72877749  1
  O2-  O240  1  0.44997724  0.41911623  0.27082011  1
  O2-  O241  1  0.45651456  0.41867355  0.59876778  1
  O2-  O242  1  0.44221437  0.42035462  0.94314469  1
  O2-  O243  1  0.45569967  0.91910364  0.26850564  1
  O2-  O244  1  0.45766648  0.91754668  0.59727685  1
  O2-  O245  1  0.45778600  0.91744841  0.92848730  1
  O2-  O246  1  0.96235865  0.41122083  0.26648107  1
  O2-  O247  1  0.95725731  0.40954665  0.60061361  1
  O2-  O248  1  0.96132966  0.41034380  0.93835208  1
  O2-  O249  1  0.95838021  0.91369790  0.27374275  1
  O2-  O250  1  0.95820501  0.91698209  0.60448400  1
  O2-  O251  1  0.96111482  0.91967875  0.93103565  1
  O2-  O252  1  0.32962644  0.30084728  0.27212562  1
  O2-  O253  1  0.33255859  0.28936234  0.59778682  1
  O2-  O254  1  0.33469182  0.28938497  0.93693951  1
  O2-  O255  1  0.33553565  0.78368127  0.26473050  1
  O2-  O256  1  0.33317227  0.78718117  0.59762836  1
  O2-  O257  1  0.33509537  0.78753368  0.93182555  1
  O2-  O258  1  0.83784976  0.29632666  0.27122851  1
  O2-  O259  1  0.83799046  0.29023730  0.60246540  1
  O2-  O260  1  0.84027836  0.29308757  0.93517082  1
  O2-  O261  1  0.83682036  0.79516958  0.27311452  1
  O2-  O262  1  0.83153885  0.80231232  0.60559933  1
  O2-  O263  1  0.82318567  0.80505332  0.93741825  1
  O2-  O264  1  0.41354224  0.04649873  0.05556898  1
  O2-  O265  1  0.42089058  0.04925491  0.40152338  1
  O2-  O266  1  0.41995029  0.05119425  0.72639165  1
  O2-  O267  1  0.41358863  0.55046567  0.06788693  1
  O2-  O268  1  0.41136305  0.54615397  0.39613557  1
  O2-  O269  1  0.42139225  0.54535104  0.73502979  1
  O2-  O270  1  0.92429914  0.04614119  0.06609844  1
  O2-  O271  1  0.91981675  0.04454097  0.40239567  1
  O2-  O272  1  0.91716034  0.04296324  0.73605365  1
  O2-  O273  1  0.91742945  0.53898480  0.07019617  1
  O2-  O274  1  0.91605225  0.53825245  0.39664731  1
  O2-  O275  1  0.91348766  0.53386297  0.73310851  1
  O2-  O276  1  0.28914298  0.16059471  0.06428447  1
  O2-  O277  1  0.29037818  0.16993718  0.40137039  1
  O2-  O278  1  0.29310654  0.16327041  0.73080860  1
  O2-  O279  1  0.29024715  0.66676563  0.06644236  1
  O2-  O280  1  0.28705929  0.65916850  0.39521050  1
  O2-  O281  1  0.29118963  0.66831278  0.73514956  1
  O2-  O282  1  0.79562601  0.16953005  0.06584903  1
  O2-  O283  1  0.79399440  0.17076470  0.40073449  1
  O2-  O284  1  0.79069257  0.16751038  0.73565781  1
  O2-  O285  1  0.79969950  0.67384289  0.06721347  1
  O2-  O286  1  0.80619027  0.66642101  0.39604586  1
  O2-  O287  1  0.79564953  0.66961311  0.73253739  1
