# generated using pymatgen
data_Ca2Al2SiO7
_symmetry_space_group_name_H-M   'P 1'
_cell_length_a   15.46111138
_cell_length_b   15.46009557
_cell_length_c   15.28524061
_cell_angle_alpha   89.99391720
_cell_angle_beta   89.99137453
_cell_angle_gamma   89.99673501
_symmetry_Int_Tables_number   1
_chemical_formula_structural   Ca2Al2SiO7
_chemical_formula_sum   'Ca48 Al48 Si24 O168'
_cell_volume   3653.63496242
_cell_formula_units_Z   24
loop_
 _symmetry_equiv_pos_site_id
 _symmetry_equiv_pos_as_xyz
  1  'x, y, z'
loop_
 _atom_type_symbol
 _atom_type_oxidation_number
  Ca2+  2.0
  Al0+  0.0
  Si0+  0.0
  O2-  -2.0
loop_
 _atom_site_type_symbol
 _atom_site_label
 _atom_site_symmetry_multiplicity
 _atom_site_fract_x
 _atom_site_fract_y
 _atom_site_fract_z
 _atom_site_occupancy
  Ca2+  Ca0  1  0.17567880  0.08735623  0.16756985  1
  Ca2+  Ca1  1  0.17043762  0.08315510  0.50384486  1
  Ca2+  Ca2  1  0.17078385  0.08907325  0.84222603  1
  Ca2+  Ca3  1  0.16358301  0.58127260  0.16780535  1
  Ca2+  Ca4  1  0.17328634  0.58233348  0.51170961  1
  Ca2+  Ca5  1  0.15990685  0.57721514  0.83682925  1
  Ca2+  Ca6  1  0.67981609  0.07546415  0.16608096  1
  Ca2+  Ca7  1  0.67303718  0.07834441  0.50699097  1
  Ca2+  Ca8  1  0.66790901  0.07370295  0.84002463  1
  Ca2+  Ca9  1  0.66341744  0.58557180  0.16572037  1
  Ca2+  Ca10  1  0.67550810  0.58237980  0.50761232  1
  Ca2+  Ca11  1  0.67144372  0.58789982  0.83732126  1
  Ca2+  Ca12  1  0.07384100  0.32986361  0.15632822  1
  Ca2+  Ca13  1  0.08355755  0.33113523  0.50082155  1
  Ca2+  Ca14  1  0.08760919  0.32652544  0.83263214  1
  Ca2+  Ca15  1  0.07457710  0.82947675  0.15947735  1
  Ca2+  Ca16  1  0.07950432  0.82520802  0.49620429  1
  Ca2+  Ca17  1  0.07955705  0.82416959  0.83078936  1
  Ca2+  Ca18  1  0.57916703  0.33011584  0.16132350  1
  Ca2+  Ca19  1  0.58743005  0.32439822  0.49795544  1
  Ca2+  Ca20  1  0.58063246  0.32372538  0.82729312  1
  Ca2+  Ca21  1  0.57388676  0.83305311  0.15802075  1
  Ca2+  Ca22  1  0.57521257  0.83638671  0.49975079  1
  Ca2+  Ca23  1  0.57581959  0.84145695  0.83148260  1
  Ca2+  Ca24  1  0.32217373  0.42399556  0.17148053  1
  Ca2+  Ca25  1  0.32769873  0.43238571  0.51015436  1
  Ca2+  Ca26  1  0.31889736  0.42004843  0.83788753  1
  Ca2+  Ca27  1  0.33881397  0.92227748  0.16945809  1
  Ca2+  Ca28  1  0.33897405  0.91660282  0.50122956  1
  Ca2+  Ca29  1  0.33590556  0.91881738  0.83936039  1
  Ca2+  Ca30  1  0.83738428  0.41286056  0.16893088  1
  Ca2+  Ca31  1  0.83766382  0.42099669  0.50392936  1
  Ca2+  Ca32  1  0.84093566  0.42250182  0.83631965  1
  Ca2+  Ca33  1  0.83990740  0.92264074  0.17028336  1
  Ca2+  Ca34  1  0.82964726  0.91758275  0.50508980  1
  Ca2+  Ca35  1  0.82220632  0.91848498  0.84527017  1
  Ca2+  Ca36  1  0.41367122  0.16102910  0.16067171  1
  Ca2+  Ca37  1  0.42339521  0.16292966  0.49766320  1
  Ca2+  Ca38  1  0.42054721  0.16321739  0.82681659  1
  Ca2+  Ca39  1  0.41758808  0.67597419  0.15932952  1
  Ca2+  Ca40  1  0.40675993  0.67617876  0.49599157  1
  Ca2+  Ca41  1  0.41812848  0.67777456  0.82836400  1
  Ca2+  Ca42  1  0.91659449  0.17187471  0.15712613  1
  Ca2+  Ca43  1  0.92217711  0.16975033  0.49212822  1
  Ca2+  Ca44  1  0.92438467  0.16685709  0.83246717  1
  Ca2+  Ca45  1  0.91947820  0.68052528  0.15707206  1
  Ca2+  Ca46  1  0.91999331  0.66778933  0.49829759  1
  Ca2+  Ca47  1  0.92448893  0.66656645  0.83156370  1
  Al0+  Al48  1  0.00124590  0.00117689  -0.00363574  1
  Al0+  Al49  1  0.00201223  -0.00031404  0.33534896  1
  Al0+  Al50  1  0.00086447  0.00135362  0.66165816  1
  Al0+  Al51  1  -0.00156960  0.49932186  0.00043072  1
  Al0+  Al52  1  -0.00063597  0.49688042  0.33062486  1
  Al0+  Al53  1  0.00005152  0.50007575  0.66969903  1
  Al0+  Al54  1  0.50156011  0.00051261  0.00566944  1
  Al0+  Al55  1  0.50140572  -0.00120074  0.33284322  1
  Al0+  Al56  1  0.50117203  0.00074141  0.66087633  1
  Al0+  Al57  1  0.49958096  0.50042182  -0.00362599  1
  Al0+  Al58  1  0.49999008  0.49762628  0.33919868  1
  Al0+  Al59  1  0.50057762  0.50185113  0.67079601  1
  Al0+  Al60  1  0.24871249  0.25295410  0.00740271  1
  Al0+  Al61  1  0.25210137  0.24964485  0.33952121  1
  Al0+  Al62  1  0.25022353  0.25186791  0.66352702  1
  Al0+  Al63  1  0.25089006  0.75064695  -0.00677868  1
  Al0+  Al64  1  0.25054530  0.75047506  0.33097573  1
  Al0+  Al65  1  0.24944137  0.75255480  0.66187466  1
  Al0+  Al66  1  0.74893918  0.25070097  -0.00130011  1
  Al0+  Al67  1  0.75056347  0.24781183  0.33353886  1
  Al0+  Al68  1  0.75043109  0.24990568  0.66195642  1
  Al0+  Al69  1  0.74746862  0.74842594  -0.00012160  1
  Al0+  Al70  1  0.74960923  0.74866068  0.33087670  1
  Al0+  Al71  1  0.74725575  0.75073208  0.67496218  1
  Al0+  Al72  1  0.17987775  0.42936135  0.68314259  1
  Al0+  Al73  1  0.32193807  0.57648567  0.68442895  1
  Al0+  Al74  1  0.43069793  0.82374199  0.98410660  1
  Al0+  Al75  1  0.06859555  0.67892662  0.65235286  1
  Al0+  Al76  1  0.07285126  0.17823499  0.65069004  1
  Al0+  Al77  1  0.92937822  0.31881064  0.31954381  1
  Al0+  Al78  1  0.67921959  0.92658144  0.01764710  1
  Al0+  Al79  1  0.07310060  0.18009487  0.98695116  1
  Al0+  Al80  1  0.17748412  0.43121902  0.01651253  1
  Al0+  Al81  1  0.07045457  0.67882773  0.98559175  1
  Al0+  Al82  1  0.82009594  0.57003779  0.68070502  1
  Al0+  Al83  1  0.67885835  0.93190821  0.68010385  1
  Al0+  Al84  1  0.92630047  0.32030909  0.98305806  1
  Al0+  Al85  1  0.57079378  0.17984017  0.65242907  1
  Al0+  Al86  1  0.31993328  0.07052459  0.01128019  1
  Al0+  Al87  1  0.32253480  0.07041828  0.34977865  1
  Al0+  Al88  1  0.57016780  0.67643412  0.98385590  1
  Al0+  Al89  1  0.42974031  0.82025252  0.65099021  1
  Al0+  Al90  1  0.82283119  0.07122165  0.01310762  1
  Al0+  Al91  1  0.92817582  0.82074436  0.32172011  1
  Al0+  Al92  1  0.32004899  0.57128340  0.34582410  1
  Al0+  Al93  1  0.92735539  0.82415050  0.98452970  1
  Al0+  Al94  1  0.42989449  0.82013847  0.31809286  1
  Al0+  Al95  1  0.82268660  0.07060916  0.34830579  1
  Si0+  Si96  1  0.42741630  0.32176459  0.98685867  1
  Si0+  Si97  1  0.82083020  0.57058411  0.34609855  1
  Si0+  Si98  1  0.57070187  0.17898755  0.31613633  1
  Si0+  Si99  1  0.57339474  0.67706262  0.64919993  1
  Si0+  Si100  1  0.32273643  0.57260474  0.01593725  1
  Si0+  Si101  1  0.17652429  0.42850873  0.35149326  1
  Si0+  Si102  1  0.82003080  0.56947899  0.01701239  1
  Si0+  Si103  1  0.67884816  0.42717732  0.34824287  1
  Si0+  Si104  1  0.57223631  0.67459460  0.31896104  1
  Si0+  Si105  1  0.92871809  0.32138281  0.64920610  1
  Si0+  Si106  1  0.07510276  0.17798536  0.31680130  1
  Si0+  Si107  1  0.17855507  0.92766765  0.35086154  1
  Si0+  Si108  1  0.07152351  0.67740613  0.31775547  1
  Si0+  Si109  1  0.31999027  0.06983924  0.67890236  1
  Si0+  Si110  1  0.67651778  0.42827234  0.01463329  1
  Si0+  Si111  1  0.82422116  0.07324859  0.68243137  1
  Si0+  Si112  1  0.42833643  0.32372556  0.64960297  1
  Si0+  Si113  1  0.67993814  0.92680655  0.35075067  1
  Si0+  Si114  1  0.56934670  0.18066536  0.98698169  1
  Si0+  Si115  1  0.17689511  0.92992561  0.68037017  1
  Si0+  Si116  1  0.43004164  0.32130119  0.31925692  1
  Si0+  Si117  1  0.17780858  0.92529405  0.01488820  1
  Si0+  Si118  1  0.67791249  0.42538603  0.68346669  1
  Si0+  Si119  1  0.92526685  0.82149847  0.65120057  1
  O2-  O120  1  0.24617113  -0.00490020  0.05877105  1
  O2-  O121  1  0.24764913  -0.00383186  0.39604119  1
  O2-  O122  1  0.24630850  0.00306832  0.72207816  1
  O2-  O123  1  0.25029459  0.50875324  0.06196620  1
  O2-  O124  1  0.24338967  0.49931976  0.39420444  1
  O2-  O125  1  0.25031597  0.50334158  0.73309286  1
  O2-  O126  1  0.75800162  -0.00685913  0.06529876  1
  O2-  O127  1  0.75113467  -0.00710491  0.39523878  1
  O2-  O128  1  0.75667156  0.00381834  0.72583366  1
  O2-  O129  1  0.74718405  0.49886434  0.05826853  1
  O2-  O130  1  0.75001052  0.49894587  0.38866046  1
  O2-  O131  1  0.74487863  0.49502106  0.72755146  1
  O2-  O132  1  0.00447184  0.24477307  0.27348685  1
  O2-  O133  1  -0.00414919  0.25124986  0.60496910  1
  O2-  O134  1  -0.00170686  0.24797633  0.93487389  1
  O2-  O135  1  0.00175150  0.74519233  0.27492529  1
  O2-  O136  1  -0.00688420  0.75284383  0.60518079  1
  O2-  O137  1  -0.00016611  0.75227016  0.93536770  1
  O2-  O138  1  0.49689345  0.24765799  0.27403924  1
  O2-  O139  1  0.49946230  0.25767509  0.60440917  1
  O2-  O140  1  0.49590609  0.24875205  0.94406654  1
  O2-  O141  1  0.50304210  0.74231059  0.27499182  1
  O2-  O142  1  0.50090828  0.74097252  0.60446014  1
  O2-  O143  1  0.50211838  0.75150928  0.93376012  1
  O2-  O144  1  0.07591696  0.18383803  0.10068332  1
  O2-  O145  1  0.07490894  0.18041631  0.42270291  1
  O2-  O146  1  0.07465812  0.17783367  0.76303913  1
  O2-  O147  1  0.06769526  0.67921206  0.09996731  1
  O2-  O148  1  0.07027139  0.67691259  0.42350275  1
  O2-  O149  1  0.06702094  0.68034819  0.76471707  1
  O2-  O150  1  0.56940283  0.18430571  0.09239298  1
  O2-  O151  1  0.57113712  0.18151186  0.42137813  1
  O2-  O152  1  0.56722086  0.18004686  0.76575131  1
  O2-  O153  1  0.56463311  0.67145037  0.09805203  1
  O2-  O154  1  0.57570086  0.67408908  0.42436227  1
  O2-  O155  1  0.57503799  0.67849985  0.75409625  1
  O2-  O156  1  0.17711675  0.42841661  0.24593635  1
  O2-  O157  1  0.18158382  0.42967822  0.56886874  1
  O2-  O158  1  0.18080652  0.42841985  0.90403451  1
  O2-  O159  1  0.17792033  0.92784481  0.24549793  1
  O2-  O160  1  0.17684737  0.93045563  0.57511162  1
  O2-  O161  1  0.17952736  0.92527262  0.90908877  1
  O2-  O162  1  0.67565438  0.42661463  0.24323172  1
  O2-  O163  1  0.67929306  0.42487338  0.57733215  1
  O2-  O164  1  0.67493729  0.42686731  0.90992935  1
  O2-  O165  1  0.67947285  0.92836589  0.24571719  1
  O2-  O166  1  0.68019533  0.93299493  0.56640809  1
  O2-  O167  1  0.67548710  0.93396079  0.90411219  1
  O2-  O168  1  0.43102737  0.32282213  0.09241663  1
  O2-  O169  1  0.43477988  0.32201514  0.42402898  1
  O2-  O170  1  0.42807169  0.31963912  0.75540658  1
  O2-  O171  1  0.43134581  0.82292960  0.09802568  1
  O2-  O172  1  0.43236716  0.82049820  0.43120262  1
  O2-  O173  1  0.43193856  0.82533512  0.76327603  1
  O2-  O174  1  0.92627979  0.31901733  0.09706924  1
  O2-  O175  1  0.92973135  0.32068055  0.43264582  1
  O2-  O176  1  0.92601332  0.31993792  0.75419279  1
  O2-  O177  1  0.93020541  0.82137421  0.09883481  1
  O2-  O178  1  0.92737324  0.81637526  0.43506724  1
  O2-  O179  1  0.92760843  0.82186358  0.75620049  1
  O2-  O180  1  0.32147467  0.07137823  0.23688190  1
  O2-  O181  1  0.32032625  0.06775746  0.57371071  1
  O2-  O182  1  0.32119089  0.07217422  0.89781654  1
  O2-  O183  1  0.32014562  0.56807510  0.23276773  1
  O2-  O184  1  0.31898114  0.57400356  0.56999969  1
  O2-  O185  1  0.32478594  0.56820517  0.91094989  1
  O2-  O186  1  0.82009352  0.07291744  0.23576501  1
  O2-  O187  1  0.82294919  0.07259806  0.57635898  1
  O2-  O188  1  0.81662728  0.07459921  0.89957796  1
  O2-  O189  1  0.81935780  0.57062835  0.24133667  1
  O2-  O190  1  0.81891724  0.56845233  0.56643592  1
  O2-  O191  1  0.82027013  0.56751999  0.91202550  1
  O2-  O192  1  0.05363474  0.08265822  0.27404434  1
  O2-  O193  1  0.04420301  0.08163728  0.59405281  1
  O2-  O194  1  0.05274735  0.08052621  0.93386096  1
  O2-  O195  1  0.04680126  0.58313207  0.27288455  1
  O2-  O196  1  0.03783395  0.58200843  0.59843111  1
  O2-  O197  1  0.03764616  0.58179817  0.93379655  1
  O2-  O198  1  0.54463475  0.08679306  0.27013423  1
  O2-  O199  1  0.53635780  0.08708386  0.59403222  1
  O2-  O200  1  0.54242752  0.08886781  0.94109740  1
  O2-  O201  1  0.54813339  0.57938690  0.27476751  1
  O2-  O202  1  0.55529508  0.58007603  0.60557409  1
  O2-  O203  1  0.54277432  0.57831632  0.92865562  1
  O2-  O204  1  0.16972481  0.20515411  0.27330830  1
  O2-  O205  1  0.16877319  0.21090241  0.59525628  1
  O2-  O206  1  0.17079152  0.21444459  0.93460226  1
  O2-  O207  1  0.16395848  0.70405480  0.27077616  1
  O2-  O208  1  0.16361215  0.71269610  0.59693018  1
  O2-  O209  1  0.16933936  0.70234652  0.93237831  1
  O2-  O210  1  0.66074854  0.21138225  0.26882776  1
  O2-  O211  1  0.66733441  0.20929811  0.59585934  1
  O2-  O212  1  0.65828331  0.21213359  0.93724023  1
  O2-  O213  1  0.66521863  0.69949595  0.27092625  1
  O2-  O214  1  0.66604695  0.70746703  0.60252664  1
  O2-  O215  1  0.67086063  0.69784719  0.93436463  1
  O2-  O216  1  0.08035045  0.46063074  0.07075688  1
  O2-  O217  1  0.08166036  0.45153003  0.39653474  1
  O2-  O218  1  0.08077150  0.45434623  0.73442130  1
  O2-  O219  1  0.08396232  0.94983885  0.06071668  1
  O2-  O220  1  0.08606090  0.95290641  0.39992126  1
  O2-  O221  1  0.08411163  0.95533781  0.72684553  1
  O2-  O222  1  0.58467287  0.45622585  0.06374444  1
  O2-  O223  1  0.58846771  0.45308741  0.39975653  1
  O2-  O224  1  0.58332716  0.44675488  0.72903016  1
  O2-  O225  1  0.58494251  0.96409378  0.07364126  1
  O2-  O226  1  0.58772143  0.95713087  0.39689131  1
  O2-  O227  1  0.58347818  0.96910892  0.73246872  1
  O2-  O228  1  0.21296806  0.33822109  0.07476707  1
  O2-  O229  1  0.20452324  0.33577645  0.39786979  1
  O2-  O230  1  0.21262803  0.33095683  0.73480096  1
  O2-  O231  1  0.20365360  0.83183904  0.06189882  1
  O2-  O232  1  0.20462511  0.83391900  0.39669402  1
  O2-  O233  1  0.20693623  0.83943569  0.72736202  1
  O2-  O234  1  0.70356799  0.33713328  0.06416641  1
  O2-  O235  1  0.70824990  0.33637135  0.39665813  1
  O2-  O236  1  0.70401358  0.33137536  0.72882623  1
  O2-  O237  1  0.69754597  0.82478134  0.06766153  1
  O2-  O238  1  0.70262088  0.83150697  0.39570102  1
  O2-  O239  1  0.70332250  0.83515280  0.73551121  1
  O2-  O240  1  0.46177618  0.41155433  0.27068239  1
  O2-  O241  1  0.45238874  0.41909341  0.60592576  1
  O2-  O242  1  0.45781181  0.41088190  0.93681806  1
  O2-  O243  1  0.46274200  0.91675428  0.26507684  1
  O2-  O244  1  0.46532278  0.91491369  0.59512120  1
  O2-  O245  1  0.46108440  0.92300338  0.93329648  1
  O2-  O246  1  0.95731886  0.41605917  0.26429164  1
  O2-  O247  1  0.95620478  0.41458617  0.60336943  1
  O2-  O248  1  0.95541534  0.41883491  0.93313793  1
  O2-  O249  1  0.96021774  0.91758071  0.26927053  1
  O2-  O250  1  0.95134077  0.91493500  0.60424533  1
  O2-  O251  1  0.95207639  0.92240537  0.93098507  1
  O2-  O252  1  0.33609135  0.29675897  0.27468879  1
  O2-  O253  1  0.33715301  0.29566809  0.60071299  1
  O2-  O254  1  0.33560002  0.29499680  0.94138243  1
  O2-  O255  1  0.33218009  0.79289209  0.26464068  1
  O2-  O256  1  0.33254626  0.79442213  0.59511721  1
  O2-  O257  1  0.33206363  0.79853351  0.93107899  1
  O2-  O258  1  0.83141938  0.29013646  0.26681177  1
  O2-  O259  1  0.83461401  0.29877016  0.60141419  1
  O2-  O260  1  0.82674343  0.29570359  0.93042922  1
  O2-  O261  1  0.83212731  0.79009566  0.26650460  1
  O2-  O262  1  0.83091948  0.79482798  0.60720044  1
  O2-  O263  1  0.82830980  0.79445720  0.93550141  1
  O2-  O264  1  0.41587184  0.04221579  0.06818647  1
  O2-  O265  1  0.42025034  0.03934408  0.40201858  1
  O2-  O266  1  0.41153393  0.04005689  0.72486660  1
  O2-  O267  1  0.41465161  0.54079073  0.06288840  1
  O2-  O268  1  0.41564187  0.53822252  0.40184239  1
  O2-  O269  1  0.42252897  0.55112587  0.73409502  1
  O2-  O270  1  0.92407213  0.05081632  0.06416275  1
  O2-  O271  1  0.92088396  0.04438119  0.40164203  1
  O2-  O272  1  0.91924021  0.04988352  0.72585801  1
  O2-  O273  1  0.90999906  0.54017643  0.06649802  1
  O2-  O274  1  0.91260083  0.54150955  0.39354001  1
  O2-  O275  1  0.91488153  0.53786095  0.73594416  1
  O2-  O276  1  0.29070689  0.16642180  0.06889129  1
  O2-  O277  1  0.29556128  0.16804138  0.40497888  1
  O2-  O278  1  0.29690791  0.16383915  0.72351434  1
  O2-  O279  1  0.30119584  0.66868816  0.05839155  1
  O2-  O280  1  0.29118726  0.66889172  0.39857159  1
  O2-  O281  1  0.29390929  0.67623482  0.73289308  1
  O2-  O282  1  0.78551493  0.16790831  0.06657136  1
  O2-  O283  1  0.78686955  0.16582662  0.40315546  1
  O2-  O284  1  0.79749451  0.16764680  0.72540063  1
  O2-  O285  1  0.79226161  0.66086997  0.06526557  1
  O2-  O286  1  0.79245421  0.66141693  0.39545602  1
  O2-  O287  1  0.78962087  0.66525361  0.73643037  1
