# generated using pymatgen
data_Ca2Al2SiO7
_symmetry_space_group_name_H-M   'P 1'
_cell_length_a   15.45564572
_cell_length_b   15.45606741
_cell_length_c   15.28239784
_cell_angle_alpha   90.00230264
_cell_angle_beta   90.00953099
_cell_angle_gamma   89.98626079
_symmetry_Int_Tables_number   1
_chemical_formula_structural   Ca2Al2SiO7
_chemical_formula_sum   'Ca48 Al48 Si24 O168'
_cell_volume   3650.71255666
_cell_formula_units_Z   24
loop_
 _symmetry_equiv_pos_site_id
 _symmetry_equiv_pos_as_xyz
  1  'x, y, z'
loop_
 _atom_type_symbol
 _atom_type_oxidation_number
  Ca2+  2.0
  Al0+  0.0
  Si0+  0.0
  O2-  -2.0
loop_
 _atom_site_type_symbol
 _atom_site_label
 _atom_site_symmetry_multiplicity
 _atom_site_fract_x
 _atom_site_fract_y
 _atom_site_fract_z
 _atom_site_occupancy
  Ca2+  Ca0  1  0.16563345  0.08282443  0.16593686  1
  Ca2+  Ca1  1  0.17204316  0.09163833  0.50686291  1
  Ca2+  Ca2  1  0.17652346  0.08501214  0.84158096  1
  Ca2+  Ca3  1  0.16362298  0.58034648  0.16583652  1
  Ca2+  Ca4  1  0.16942039  0.57311617  0.50948818  1
  Ca2+  Ca5  1  0.15702570  0.57244067  0.83991166  1
  Ca2+  Ca6  1  0.67030860  0.08100903  0.17650360  1
  Ca2+  Ca7  1  0.66343311  0.07401017  0.50294676  1
  Ca2+  Ca8  1  0.66588650  0.07763586  0.83883455  1
  Ca2+  Ca9  1  0.66195669  0.57923677  0.17005926  1
  Ca2+  Ca10  1  0.66763785  0.58734672  0.50883913  1
  Ca2+  Ca11  1  0.66964267  0.58179743  0.83417757  1
  Ca2+  Ca12  1  0.08421050  0.32192747  0.16033048  1
  Ca2+  Ca13  1  0.08265501  0.32551711  0.50151566  1
  Ca2+  Ca14  1  0.08764269  0.32817469  0.82596957  1
  Ca2+  Ca15  1  0.07778918  0.83153310  0.15052095  1
  Ca2+  Ca16  1  0.07314291  0.83928306  0.49907610  1
  Ca2+  Ca17  1  0.07422283  0.83655458  0.83220446  1
  Ca2+  Ca18  1  0.58176335  0.32384633  0.16067796  1
  Ca2+  Ca19  1  0.57441761  0.32670827  0.48870212  1
  Ca2+  Ca20  1  0.58760443  0.32795961  0.83474114  1
  Ca2+  Ca21  1  0.58267927  0.83195230  0.16275176  1
  Ca2+  Ca22  1  0.58948871  0.82873208  0.50163256  1
  Ca2+  Ca23  1  0.57273355  0.83446947  0.82350717  1
  Ca2+  Ca24  1  0.32955832  0.41112201  0.16746572  1
  Ca2+  Ca25  1  0.33061126  0.41327571  0.50616060  1
  Ca2+  Ca26  1  0.32054926  0.41789176  0.83884145  1
  Ca2+  Ca27  1  0.33148896  0.91795061  0.16186673  1
  Ca2+  Ca28  1  0.33404360  0.92481075  0.51006936  1
  Ca2+  Ca29  1  0.33373081  0.92340686  0.84143730  1
  Ca2+  Ca30  1  0.82619116  0.41522558  0.16619185  1
  Ca2+  Ca31  1  0.83536972  0.42366816  0.51056665  1
  Ca2+  Ca32  1  0.83499809  0.42151699  0.83678610  1
  Ca2+  Ca33  1  0.83027233  0.92195779  0.17517890  1
  Ca2+  Ca34  1  0.82368352  0.92003983  0.50404660  1
  Ca2+  Ca35  1  0.82943545  0.90792551  0.83417273  1
  Ca2+  Ca36  1  0.42723021  0.16405749  0.16330634  1
  Ca2+  Ca37  1  0.41915695  0.16987022  0.49463550  1
  Ca2+  Ca38  1  0.41834780  0.15755127  0.83226554  1
  Ca2+  Ca39  1  0.42217361  0.67385269  0.16102747  1
  Ca2+  Ca40  1  0.42876732  0.67136896  0.49640352  1
  Ca2+  Ca41  1  0.41875763  0.68064609  0.82703930  1
  Ca2+  Ca42  1  0.92622467  0.15836341  0.16238240  1
  Ca2+  Ca43  1  0.92633613  0.16438642  0.49679902  1
  Ca2+  Ca44  1  0.93209653  0.17319771  0.82605215  1
  Ca2+  Ca45  1  0.92228645  0.67672117  0.15764366  1
  Ca2+  Ca46  1  0.90910503  0.67135198  0.50426710  1
  Ca2+  Ca47  1  0.91741727  0.67360371  0.83054274  1
  Al0+  Al48  1  0.00004734  0.00129673  -0.00733999  1
  Al0+  Al49  1  -0.00085454  0.00006022  0.33358828  1
  Al0+  Al50  1  0.00043608  -0.00014042  0.65768088  1
  Al0+  Al51  1  -0.00154717  0.50103730  0.00571657  1
  Al0+  Al52  1  -0.00010141  0.49898590  0.33437722  1
  Al0+  Al53  1  -0.00165590  0.49948112  0.67159182  1
  Al0+  Al54  1  0.50106019  0.00008086  -0.00185150  1
  Al0+  Al55  1  0.49763656  -0.00109505  0.33487265  1
  Al0+  Al56  1  0.49977228  -0.00040639  0.67016899  1
  Al0+  Al57  1  0.50021156  0.49807730  0.00387989  1
  Al0+  Al58  1  0.49787443  0.50225340  0.32606251  1
  Al0+  Al59  1  0.49994218  0.49988863  0.66570806  1
  Al0+  Al60  1  0.25294558  0.25112172  0.00666774  1
  Al0+  Al61  1  0.24744753  0.24977177  0.32615698  1
  Al0+  Al62  1  0.25202152  0.24967240  0.67200704  1
  Al0+  Al63  1  0.25012117  0.74902386  -0.00465216  1
  Al0+  Al64  1  0.25008373  0.74835225  0.33634499  1
  Al0+  Al65  1  0.25001304  0.75079888  0.66151096  1
  Al0+  Al66  1  0.74939034  0.24986733  0.00023146  1
  Al0+  Al67  1  0.75169082  0.25150231  0.33667447  1
  Al0+  Al68  1  0.75126598  0.24957120  0.66236663  1
  Al0+  Al69  1  0.75013668  0.74883555  -0.00103124  1
  Al0+  Al70  1  0.74953490  0.74964724  0.33102429  1
  Al0+  Al71  1  0.75065729  0.74937313  0.66938712  1
  Al0+  Al72  1  0.42749937  0.82396620  0.64951357  1
  Al0+  Al73  1  0.57154123  0.17943809  0.98561494  1
  Al0+  Al74  1  0.57011271  0.67930720  0.65344781  1
  Al0+  Al75  1  0.06821825  0.17915459  0.31755814  1
  Al0+  Al76  1  0.82322374  0.07296506  0.34964242  1
  Al0+  Al77  1  0.07325821  0.18087893  0.98551791  1
  Al0+  Al78  1  0.32342353  0.07082338  0.01877325  1
  Al0+  Al79  1  0.81908497  0.57006678  0.68173988  1
  Al0+  Al80  1  0.57170807  0.68156086  0.31762425  1
  Al0+  Al81  1  0.42791895  0.32124555  0.31710666  1
  Al0+  Al82  1  0.92771202  0.82281702  0.98467089  1
  Al0+  Al83  1  0.07382391  0.18049155  0.65203521  1
  Al0+  Al84  1  0.17788767  0.92948805  0.01247907  1
  Al0+  Al85  1  0.67759389  0.92849338  0.34839858  1
  Al0+  Al86  1  0.92841088  0.32268190  0.65224696  1
  Al0+  Al87  1  0.31965573  0.06962030  0.67994287  1
  Al0+  Al88  1  0.68192813  0.93109152  0.68246097  1
  Al0+  Al89  1  0.18137820  0.43104589  0.67968209  1
  Al0+  Al90  1  0.67927888  0.42832789  0.01451516  1
  Al0+  Al91  1  0.07140554  0.67716300  0.98537364  1
  Al0+  Al92  1  0.17767653  0.42947256  0.01676277  1
  Al0+  Al93  1  0.43087506  0.82041217  0.98676567  1
  Al0+  Al94  1  0.92909212  0.82015169  0.65059447  1
  Al0+  Al95  1  0.57225622  0.17737766  0.31998328  1
  Si0+  Si96  1  0.82078831  0.56980536  0.34796140  1
  Si0+  Si97  1  0.07241904  0.67713762  0.32041769  1
  Si0+  Si98  1  0.67661502  0.43059904  0.34821091  1
  Si0+  Si99  1  0.92753296  0.32143844  0.98568587  1
  Si0+  Si100  1  0.67519129  0.42489874  0.68177605  1
  Si0+  Si101  1  0.57202088  0.67519058  0.98297932  1
  Si0+  Si102  1  0.42916815  0.32281974  0.98167124  1
  Si0+  Si103  1  0.32407337  0.57378913  0.68249678  1
  Si0+  Si104  1  0.92815500  0.32593405  0.31574503  1
  Si0+  Si105  1  0.32143583  0.57184005  0.34947458  1
  Si0+  Si106  1  0.17815392  0.92653049  0.34792948  1
  Si0+  Si107  1  0.67946542  0.92817475  0.01410860  1
  Si0+  Si108  1  0.82443599  0.07363056  0.68397216  1
  Si0+  Si109  1  0.17979247  0.42875298  0.34903067  1
  Si0+  Si110  1  0.82046304  0.07093182  0.01188502  1
  Si0+  Si111  1  0.31806902  0.07083646  0.34756608  1
  Si0+  Si112  1  0.07142408  0.67598597  0.64938789  1
  Si0+  Si113  1  0.43024982  0.32019959  0.65514267  1
  Si0+  Si114  1  0.57234224  0.17806982  0.65265930  1
  Si0+  Si115  1  0.82021764  0.57331116  0.02020768  1
  Si0+  Si116  1  0.17535683  0.92595512  0.68129143  1
  Si0+  Si117  1  0.32245836  0.57236881  0.01717870  1
  Si0+  Si118  1  0.93079153  0.81884216  0.31884841  1
  Si0+  Si119  1  0.42432079  0.82208451  0.31601317  1
  O2-  O120  1  0.24800367  0.00084979  0.06741461  1
  O2-  O121  1  0.24857587  -0.00182891  0.38998583  1
  O2-  O122  1  0.24534408  -0.00660639  0.72405524  1
  O2-  O123  1  0.25215333  0.50547052  0.06279516  1
  O2-  O124  1  0.25195395  0.49880725  0.39134455  1
  O2-  O125  1  0.25175676  0.50968309  0.72718155  1
  O2-  O126  1  0.75265535  -0.00299391  0.05516457  1
  O2-  O127  1  0.74604156  0.00490009  0.39781059  1
  O2-  O128  1  0.75661272  0.00550135  0.73054515  1
  O2-  O129  1  0.75074610  0.50507731  0.06395451  1
  O2-  O130  1  0.74919413  0.49965174  0.39105833  1
  O2-  O131  1  0.74537482  0.49251240  0.72524776  1
  O2-  O132  1  -0.00957550  0.25155847  0.27180947  1
  O2-  O133  1  -0.00156205  0.24925110  0.60161584  1
  O2-  O134  1  0.00189272  0.25984537  0.94103963  1
  O2-  O135  1  0.00427266  0.75009882  0.27762675  1
  O2-  O136  1  0.00674239  0.74775186  0.60318430  1
  O2-  O137  1  0.00150382  0.75136800  0.93637138  1
  O2-  O138  1  0.50246903  0.25097348  0.26877027  1
  O2-  O139  1  0.50468865  0.25325035  0.61237088  1
  O2-  O140  1  0.49576254  0.25243392  0.93713881  1
  O2-  O141  1  0.49781402  0.75782410  0.27266143  1
  O2-  O142  1  0.49830221  0.75012647  0.60076421  1
  O2-  O143  1  0.50496134  0.74500696  0.93993142  1
  O2-  O144  1  0.06823001  0.17945089  0.09891542  1
  O2-  O145  1  0.07245096  0.18269027  0.43025217  1
  O2-  O146  1  0.07531858  0.18332266  0.76538811  1
  O2-  O147  1  0.06799870  0.67811400  0.10017317  1
  O2-  O148  1  0.07194002  0.67575224  0.42540150  1
  O2-  O149  1  0.06947972  0.67501584  0.75443024  1
  O2-  O150  1  0.57367505  0.17994209  0.09849171  1
  O2-  O151  1  0.56727769  0.17893524  0.43414361  1
  O2-  O152  1  0.57290469  0.17851618  0.75771261  1
  O2-  O153  1  0.57147656  0.67676898  0.08904753  1
  O2-  O154  1  0.57149248  0.67906412  0.43027546  1
  O2-  O155  1  0.56748031  0.67856579  0.76692178  1
  O2-  O156  1  0.17842895  0.43176887  0.24422554  1
  O2-  O157  1  0.18501949  0.43032645  0.56577844  1
  O2-  O158  1  0.17902631  0.43011741  0.90364695  1
  O2-  O159  1  0.17783915  0.92359891  0.24330864  1
  O2-  O160  1  0.17629466  0.92700114  0.57481527  1
  O2-  O161  1  0.17809538  0.93126358  0.89924675  1
  O2-  O162  1  0.67852160  0.43194110  0.24309918  1
  O2-  O163  1  0.67266603  0.42583622  0.57596243  1
  O2-  O164  1  0.68207113  0.42874647  0.90143768  1
  O2-  O165  1  0.68175577  0.92636572  0.23421204  1
  O2-  O166  1  0.68162073  0.93234251  0.56940770  1
  O2-  O167  1  0.67929593  0.92866295  0.90910434  1
  O2-  O168  1  0.43239391  0.32407133  0.08723339  1
  O2-  O169  1  0.42755313  0.32033143  0.43176817  1
  O2-  O170  1  0.42988433  0.32090974  0.75977912  1
  O2-  O171  1  0.43394097  0.81893518  0.10049520  1
  O2-  O172  1  0.41921732  0.81898786  0.42107738  1
  O2-  O173  1  0.42929029  0.82365197  0.76303368  1
  O2-  O174  1  0.92561736  0.31802554  0.09165093  1
  O2-  O175  1  0.93357079  0.33353110  0.42063299  1
  O2-  O176  1  0.92941926  0.32221473  0.76596213  1
  O2-  O177  1  0.92615928  0.82116693  0.09919658  1
  O2-  O178  1  0.93045228  0.81697234  0.42398632  1
  O2-  O179  1  0.92933984  0.81821553  0.76304336  1
  O2-  O180  1  0.31815054  0.06990267  0.24305206  1
  O2-  O181  1  0.31918634  0.07242001  0.56592430  1
  O2-  O182  1  0.32365343  0.06852141  0.90520853  1
  O2-  O183  1  0.31858329  0.57603539  0.24476551  1
  O2-  O184  1  0.32469015  0.56918364  0.57638004  1
  O2-  O185  1  0.32523546  0.56896401  0.91181818  1
  O2-  O186  1  0.82661431  0.06686396  0.23542804  1
  O2-  O187  1  0.82164609  0.07247807  0.57841943  1
  O2-  O188  1  0.81730825  0.07331828  0.90705985  1
  O2-  O189  1  0.82220312  0.56864144  0.24308769  1
  O2-  O190  1  0.81755932  0.56955138  0.56770130  1
  O2-  O191  1  0.82018898  0.57362025  0.91495405  1
  O2-  O192  1  0.03954484  0.08086077  0.26490351  1
  O2-  O193  1  0.04952133  0.08184984  0.59731484  1
  O2-  O194  1  0.04022185  0.08694338  0.92938514  1
  O2-  O195  1  0.04214875  0.58617852  0.27247105  1
  O2-  O196  1  0.04141979  0.58390061  0.60260692  1
  O2-  O197  1  0.03805721  0.57910857  0.93443925  1
  O2-  O198  1  0.54233607  0.07871803  0.26797788  1
  O2-  O199  1  0.53909854  0.08853022  0.60544970  1
  O2-  O200  1  0.54204098  0.08317835  0.93115276  1
  O2-  O201  1  0.53804567  0.58679968  0.26184614  1
  O2-  O202  1  0.54327805  0.57985731  0.59927096  1
  O2-  O203  1  0.54647951  0.58095685  0.93910389  1
  O2-  O204  1  0.16247479  0.21240044  0.26154628  1
  O2-  O205  1  0.17132288  0.21491571  0.59937758  1
  O2-  O206  1  0.17252591  0.20999326  0.93736629  1
  O2-  O207  1  0.16545811  0.70163682  0.27416716  1
  O2-  O208  1  0.16688982  0.69555886  0.60367245  1
  O2-  O209  1  0.17107620  0.69679044  0.93297268  1
  O2-  O210  1  0.67306446  0.20379862  0.27065431  1
  O2-  O211  1  0.66460823  0.20077952  0.60400152  1
  O2-  O212  1  0.66689870  0.21327524  0.93048623  1
  O2-  O213  1  0.66866803  0.70910030  0.26194035  1
  O2-  O214  1  0.66819567  0.70896028  0.60121604  1
  O2-  O215  1  0.66675648  0.69839879  0.93945278  1
  O2-  O216  1  0.08097216  0.45904498  0.07249383  1
  O2-  O217  1  0.08855291  0.45917938  0.39673965  1
  O2-  O218  1  0.08450643  0.45868065  0.73368849  1
  O2-  O219  1  0.07782592  0.95758391  0.06429671  1
  O2-  O220  1  0.08626333  0.95422355  0.39498790  1
  O2-  O221  1  0.08066512  0.95111436  0.72446397  1
  O2-  O222  1  0.58247657  0.45661549  0.07010172  1
  O2-  O223  1  0.58391354  0.46014584  0.39294549  1
  O2-  O224  1  0.58248401  0.45165109  0.72974338  1
  O2-  O225  1  0.58936742  0.95821336  0.06235513  1
  O2-  O226  1  0.57681479  0.95103722  0.40024080  1
  O2-  O227  1  0.58568660  0.96327933  0.73606514  1
  O2-  O228  1  0.21147876  0.33509112  0.07306694  1
  O2-  O229  1  0.20765281  0.33622221  0.39452664  1
  O2-  O230  1  0.21734970  0.33762891  0.73555284  1
  O2-  O231  1  0.20554626  0.82913031  0.06406153  1
  O2-  O232  1  0.20433562  0.83465119  0.39714971  1
  O2-  O233  1  0.19718276  0.83029937  0.72472065  1
  O2-  O234  1  0.71370938  0.33315090  0.07029422  1
  O2-  O235  1  0.70026256  0.33809697  0.39603600  1
  O2-  O236  1  0.69980301  0.33032965  0.72658302  1
  O2-  O237  1  0.70413766  0.83472219  0.06075547  1
  O2-  O238  1  0.71238907  0.83080668  0.40034080  1
  O2-  O239  1  0.71234872  0.83469555  0.73596852  1
  O2-  O240  1  0.45213581  0.42033303  0.26404008  1
  O2-  O241  1  0.45346882  0.41257514  0.60569890  1
  O2-  O242  1  0.45671806  0.41607530  0.93561567  1
  O2-  O243  1  0.44475507  0.91732747  0.27248975  1
  O2-  O244  1  0.45939587  0.92181782  0.59748790  1
  O2-  O245  1  0.46371009  0.91540967  0.93234741  1
  O2-  O246  1  0.95938077  0.41684275  0.26577481  1
  O2-  O247  1  0.95821145  0.42104185  0.59951076  1
  O2-  O248  1  0.94635508  0.41847498  0.94537588  1
  O2-  O249  1  0.95716651  0.91094371  0.27241054  1
  O2-  O250  1  0.95723884  0.91601386  0.59312060  1
  O2-  O251  1  0.95285331  0.92007500  0.92901184  1
  O2-  O252  1  0.33069173  0.29221348  0.26355723  1
  O2-  O253  1  0.34070515  0.28849252  0.60593437  1
  O2-  O254  1  0.33416082  0.29977134  0.93885823  1
  O2-  O255  1  0.33259318  0.78974515  0.26863875  1
  O2-  O256  1  0.32809762  0.79895712  0.59586606  1
  O2-  O257  1  0.33478175  0.79112462  0.93201685  1
  O2-  O258  1  0.83128550  0.30756899  0.27426225  1
  O2-  O259  1  0.82889121  0.29898995  0.59770599  1
  O2-  O260  1  0.83659019  0.29162685  0.93755956  1
  O2-  O261  1  0.84062702  0.78841427  0.27031138  1
  O2-  O262  1  0.83417254  0.78440428  0.59708993  1
  O2-  O263  1  0.82985645  0.79037963  0.93220431  1
  O2-  O264  1  0.42137919  0.03713630  0.07082141  1
  O2-  O265  1  0.41003849  0.04568065  0.39629342  1
  O2-  O266  1  0.41584308  0.04008056  0.73502169  1
  O2-  O267  1  0.41501602  0.54472926  0.06564133  1
  O2-  O268  1  0.41395018  0.54427376  0.39565184  1
  O2-  O269  1  0.41580702  0.54455984  0.73010234  1
  O2-  O270  1  0.91303037  0.04437096  0.05802595  1
  O2-  O271  1  0.91973384  0.03837133  0.40402606  1
  O2-  O272  1  0.91986320  0.04816117  0.72563293  1
  O2-  O273  1  0.91265852  0.54746710  0.06881168  1
  O2-  O274  1  0.91273279  0.54204412  0.39634323  1
  O2-  O275  1  0.91479080  0.54045089  0.73767962  1
  O2-  O276  1  0.30065699  0.17054599  0.07066299  1
  O2-  O277  1  0.28723859  0.16306213  0.39335035  1
  O2-  O278  1  0.29067899  0.16500449  0.73682255  1
  O2-  O279  1  0.29831839  0.66622525  0.06336605  1
  O2-  O280  1  0.29203493  0.66184110  0.40042470  1
  O2-  O281  1  0.30264163  0.66996070  0.72432070  1
  O2-  O282  1  0.79094161  0.16091282  0.06192076  1
  O2-  O283  1  0.80473282  0.17479820  0.40031409  1
  O2-  O284  1  0.79933708  0.16824821  0.72836001  1
  O2-  O285  1  0.79361701  0.66667661  0.06761899  1
  O2-  O286  1  0.79316450  0.66206266  0.39413063  1
  O2-  O287  1  0.78684022  0.66443514  0.73792376  1
