# generated using pymatgen
data_Ca2Al2SiO7
_symmetry_space_group_name_H-M   'P 1'
_cell_length_a   15.45572035
_cell_length_b   15.45546944
_cell_length_c   15.28135634
_cell_angle_alpha   89.98826271
_cell_angle_beta   90.00396124
_cell_angle_gamma   89.98766854
_symmetry_Int_Tables_number   1
_chemical_formula_structural   Ca2Al2SiO7
_chemical_formula_sum   'Ca48 Al48 Si24 O168'
_cell_volume   3650.34014441
_cell_formula_units_Z   24
loop_
 _symmetry_equiv_pos_site_id
 _symmetry_equiv_pos_as_xyz
  1  'x, y, z'
loop_
 _atom_type_symbol
 _atom_type_oxidation_number
  Ca2+  2.0
  Al0+  0.0
  Si0+  0.0
  O2-  -2.0
loop_
 _atom_site_type_symbol
 _atom_site_label
 _atom_site_symmetry_multiplicity
 _atom_site_fract_x
 _atom_site_fract_y
 _atom_site_fract_z
 _atom_site_occupancy
  Ca2+  Ca0  1  0.16682153  0.08345954  0.16650452  1
  Ca2+  Ca1  1  0.16477412  0.08502221  0.50800097  1
  Ca2+  Ca2  1  0.17192533  0.08010776  0.84378474  1
  Ca2+  Ca3  1  0.17308908  0.59126836  0.17023970  1
  Ca2+  Ca4  1  0.17109906  0.57912504  0.50290016  1
  Ca2+  Ca5  1  0.17089093  0.57739087  0.84145141  1
  Ca2+  Ca6  1  0.66186804  0.08605448  0.17004425  1
  Ca2+  Ca7  1  0.66879585  0.08366946  0.51116197  1
  Ca2+  Ca8  1  0.66167635  0.08384266  0.83517574  1
  Ca2+  Ca9  1  0.68160254  0.58453149  0.17228302  1
  Ca2+  Ca10  1  0.67056265  0.58254634  0.50970253  1
  Ca2+  Ca11  1  0.66439602  0.57781970  0.83726510  1
  Ca2+  Ca12  1  0.07896777  0.32514537  0.15921037  1
  Ca2+  Ca13  1  0.08895745  0.32376528  0.49988221  1
  Ca2+  Ca14  1  0.08227135  0.32637064  0.82839852  1
  Ca2+  Ca15  1  0.08797243  0.82294696  0.16038113  1
  Ca2+  Ca16  1  0.07927876  0.82659748  0.49333607  1
  Ca2+  Ca17  1  0.09068181  0.82770974  0.83457247  1
  Ca2+  Ca18  1  0.58547938  0.32201138  0.16210076  1
  Ca2+  Ca19  1  0.58713387  0.32856497  0.50212565  1
  Ca2+  Ca20  1  0.57800454  0.32665191  0.82430370  1
  Ca2+  Ca21  1  0.56879321  0.83271872  0.16098103  1
  Ca2+  Ca22  1  0.57555267  0.83527559  0.50151139  1
  Ca2+  Ca23  1  0.57275790  0.82953044  0.82383663  1
  Ca2+  Ca24  1  0.33388085  0.43118592  0.17171377  1
  Ca2+  Ca25  1  0.33116298  0.41906722  0.50853829  1
  Ca2+  Ca26  1  0.33047510  0.41677671  0.83664055  1
  Ca2+  Ca27  1  0.33204971  0.91634734  0.16339536  1
  Ca2+  Ca28  1  0.33707161  0.91439307  0.50157307  1
  Ca2+  Ca29  1  0.33398931  0.92007983  0.84385983  1
  Ca2+  Ca30  1  0.84048643  0.42278609  0.16569492  1
  Ca2+  Ca31  1  0.82787494  0.42196650  0.50480136  1
  Ca2+  Ca32  1  0.82803362  0.41610038  0.83834527  1
  Ca2+  Ca33  1  0.82976646  0.91830614  0.17000704  1
  Ca2+  Ca34  1  0.82443330  0.92479496  0.51274850  1
  Ca2+  Ca35  1  0.82628531  0.92264312  0.83139256  1
  Ca2+  Ca36  1  0.42629568  0.16156243  0.16014961  1
  Ca2+  Ca37  1  0.42776443  0.17380479  0.49959076  1
  Ca2+  Ca38  1  0.42388210  0.16629000  0.82726786  1
  Ca2+  Ca39  1  0.40387834  0.67561393  0.16190717  1
  Ca2+  Ca40  1  0.41952747  0.67443537  0.49679753  1
  Ca2+  Ca41  1  0.41391634  0.67656506  0.82787401  1
  Ca2+  Ca42  1  0.92699436  0.17359537  0.15727166  1
  Ca2+  Ca43  1  0.92567329  0.16197433  0.49792394  1
  Ca2+  Ca44  1  0.92636221  0.16581214  0.83012167  1
  Ca2+  Ca45  1  0.92610176  0.65738970  0.16078241  1
  Ca2+  Ca46  1  0.92107593  0.66393167  0.49299675  1
  Ca2+  Ca47  1  0.91974054  0.66217001  0.83547018  1
  Al0+  Al48  1  -0.00200379  -0.00220490  0.00203761  1
  Al0+  Al49  1  -0.00020724  -0.00076884  0.32980480  1
  Al0+  Al50  1  0.00000476  -0.00128054  0.66753931  1
  Al0+  Al51  1  -0.00127161  0.49931922  -0.00549129  1
  Al0+  Al52  1  0.00047497  0.49894680  0.33556780  1
  Al0+  Al53  1  0.00225683  0.49805429  0.66997297  1
  Al0+  Al54  1  0.49917357  -0.00152273  -0.00345560  1
  Al0+  Al55  1  0.49794086  -0.00037005  0.32671120  1
  Al0+  Al56  1  0.49945899  -0.00023785  0.66239220  1
  Al0+  Al57  1  0.50080144  0.49862598  0.00840460  1
  Al0+  Al58  1  0.50084283  0.50106890  0.33815952  1
  Al0+  Al59  1  0.50095688  0.50285670  0.66423623  1
  Al0+  Al60  1  0.25187288  0.24951452  0.00372230  1
  Al0+  Al61  1  0.25199897  0.24961820  0.32891404  1
  Al0+  Al62  1  0.24940121  0.25008738  0.66366684  1
  Al0+  Al63  1  0.24822803  0.75056677  -0.00258558  1
  Al0+  Al64  1  0.24890999  0.75089923  0.33304925  1
  Al0+  Al65  1  0.24913814  0.74981746  0.66122061  1
  Al0+  Al66  1  0.74991012  0.24892837  -0.00627529  1
  Al0+  Al67  1  0.75066569  0.24978295  0.32972316  1
  Al0+  Al68  1  0.75372681  0.25343579  0.67171309  1
  Al0+  Al69  1  0.75031148  0.74909021  0.00570604  1
  Al0+  Al70  1  0.74848382  0.75118958  0.33938319  1
  Al0+  Al71  1  0.75130925  0.75269063  0.66832978  1
  Al0+  Al72  1  0.93003568  0.32115703  0.98254029  1
  Al0+  Al73  1  0.43004969  0.81859322  0.31667843  1
  Al0+  Al74  1  0.17732275  0.92916179  0.01547634  1
  Al0+  Al75  1  0.06808704  0.67908367  0.32092623  1
  Al0+  Al76  1  0.18060850  0.42790108  0.68095539  1
  Al0+  Al77  1  0.42943466  0.81725936  0.98558166  1
  Al0+  Al78  1  0.82206609  0.57068671  0.34837062  1
  Al0+  Al79  1  0.32027797  0.57346068  0.34971465  1
  Al0+  Al80  1  0.57018407  0.18103704  0.31977501  1
  Al0+  Al81  1  0.67674936  0.93066577  0.68266361  1
  Al0+  Al82  1  0.67803527  0.43107763  0.68090609  1
  Al0+  Al83  1  0.42773173  0.32260472  0.65302323  1
  Al0+  Al84  1  0.56889515  0.17901349  0.98484024  1
  Al0+  Al85  1  0.07334608  0.17686542  0.98445324  1
  Al0+  Al86  1  0.82310887  0.07297063  0.68263680  1
  Al0+  Al87  1  0.06948210  0.17829206  0.65367575  1
  Al0+  Al88  1  0.06986148  0.68064182  0.98509155  1
  Al0+  Al89  1  0.42693170  0.82157469  0.65026793  1
  Al0+  Al90  1  0.57354126  0.18055092  0.65257394  1
  Al0+  Al91  1  0.57353426  0.67941057  0.65288573  1
  Al0+  Al92  1  0.31992711  0.57038577  0.01214571  1
  Al0+  Al93  1  0.07262891  0.17718135  0.31845981  1
  Al0+  Al94  1  0.82037668  0.57000945  0.01339958  1
  Al0+  Al95  1  0.32276907  0.07173863  0.01528015  1
  Si0+  Si96  1  0.93013616  0.82091381  0.65226043  1
  Si0+  Si97  1  0.42864137  0.32571268  0.98612832  1
  Si0+  Si98  1  0.32182824  0.07125830  0.34928392  1
  Si0+  Si99  1  0.82367452  0.57325987  0.68410624  1
  Si0+  Si100  1  0.92529131  0.82188878  0.31765594  1
  Si0+  Si101  1  0.92361714  0.82235031  0.98290593  1
  Si0+  Si102  1  0.17701030  0.42727438  0.01700074  1
  Si0+  Si103  1  0.57406522  0.67625605  0.31628336  1
  Si0+  Si104  1  0.67837061  0.42546423  0.01852201  1
  Si0+  Si105  1  0.81988715  0.07152557  0.01637229  1
  Si0+  Si106  1  0.67860889  0.92903557  0.01627743  1
  Si0+  Si107  1  0.17829614  0.92715223  0.67948138  1
  Si0+  Si108  1  0.57483045  0.67682383  0.98740782  1
  Si0+  Si109  1  0.67636781  0.93149706  0.34783356  1
  Si0+  Si110  1  0.42780327  0.32496902  0.31567181  1
  Si0+  Si111  1  0.17964376  0.42598821  0.34986120  1
  Si0+  Si112  1  0.92829616  0.32064343  0.31747826  1
  Si0+  Si113  1  0.92934970  0.32429751  0.64831087  1
  Si0+  Si114  1  0.32079367  0.57357313  0.68253406  1
  Si0+  Si115  1  0.17844471  0.93073698  0.34940469  1
  Si0+  Si116  1  0.31957398  0.07000773  0.67804967  1
  Si0+  Si117  1  0.67919284  0.42628968  0.34994866  1
  Si0+  Si118  1  0.82130018  0.07070062  0.34639087  1
  Si0+  Si119  1  0.07006511  0.67726974  0.65117483  1
  O2-  O120  1  0.24632144  0.00409621  0.06614822  1
  O2-  O121  1  0.24640050  0.00459244  0.39218362  1
  O2-  O122  1  0.25102506  -0.00364274  0.71983444  1
  O2-  O123  1  0.24629757  0.49535022  0.06138942  1
  O2-  O124  1  0.24882726  0.49446656  0.39438322  1
  O2-  O125  1  0.25605720  0.50173748  0.72741369  1
  O2-  O126  1  0.74867897  0.00083063  0.05982461  1
  O2-  O127  1  0.74972825  0.00073868  0.38893912  1
  O2-  O128  1  0.74464437  0.00714981  0.73257684  1
  O2-  O129  1  0.74623990  0.49556165  0.06207986  1
  O2-  O130  1  0.74431647  0.49896087  0.39376086  1
  O2-  O131  1  0.75143654  0.50799898  0.72693917  1
  O2-  O132  1  -0.00190257  0.25262260  0.27413765  1
  O2-  O133  1  -0.00540865  0.25186874  0.60450328  1
  O2-  O134  1  0.00322958  0.24982211  0.93361553  1
  O2-  O135  1  -0.01007811  0.75003337  0.27340754  1
  O2-  O136  1  -0.00232810  0.74695750  0.60919519  1
  O2-  O137  1  -0.00533704  0.75572992  0.93893869  1
  O2-  O138  1  0.49737925  0.25692361  0.27199254  1
  O2-  O139  1  0.50347475  0.25438937  0.60216513  1
  O2-  O140  1  0.49342813  0.25387574  0.94158036  1
  O2-  O141  1  0.50256918  0.74091170  0.27060026  1
  O2-  O142  1  0.50093324  0.75051397  0.60191403  1
  O2-  O143  1  0.50292628  0.74045254  0.94176208  1
  O2-  O144  1  0.06917997  0.17898531  0.09853544  1
  O2-  O145  1  0.07041945  0.17605056  0.43181160  1
  O2-  O146  1  0.07051717  0.17718010  0.76589764  1
  O2-  O147  1  0.06897940  0.68099085  0.09839948  1
  O2-  O148  1  0.06679638  0.68170941  0.43457136  1
  O2-  O149  1  0.07136279  0.67885789  0.75600348  1
  O2-  O150  1  0.56987684  0.17982020  0.09858568  1
  O2-  O151  1  0.57152886  0.18094071  0.43229147  1
  O2-  O152  1  0.56830366  0.17997720  0.76584601  1
  O2-  O153  1  0.57820531  0.68164679  0.09307644  1
  O2-  O154  1  0.57584641  0.67921633  0.42154242  1
  O2-  O155  1  0.57185562  0.67998513  0.76682201  1
  O2-  O156  1  0.17961157  0.42592497  0.24439432  1
  O2-  O157  1  0.17952528  0.43062225  0.56744912  1
  O2-  O158  1  0.17887750  0.42838087  0.91126848  1
  O2-  O159  1  0.17805258  0.92976325  0.24494132  1
  O2-  O160  1  0.17584352  0.92721835  0.57384991  1
  O2-  O161  1  0.18096959  0.92794785  0.90134239  1
  O2-  O162  1  0.68134902  0.42445173  0.24442719  1
  O2-  O163  1  0.68285487  0.43125606  0.56734101  1
  O2-  O164  1  0.67650923  0.42716021  0.91319510  1
  O2-  O165  1  0.67782513  0.93184822  0.24227032  1
  O2-  O166  1  0.68039185  0.93080306  0.56826219  1
  O2-  O167  1  0.67967902  0.92808868  0.91176410  1
  O2-  O168  1  0.43287650  0.32866309  0.09187071  1
  O2-  O169  1  0.42614696  0.32267538  0.42107558  1
  O2-  O170  1  0.42615738  0.31889013  0.76671303  1
  O2-  O171  1  0.43054792  0.81728485  0.09892146  1
  O2-  O172  1  0.43246056  0.82082042  0.42936859  1
  O2-  O173  1  0.42320998  0.81942895  0.76357621  1
  O2-  O174  1  0.93107587  0.31974734  0.09708657  1
  O2-  O175  1  0.92540914  0.31900520  0.42292377  1
  O2-  O176  1  0.93287520  0.32757021  0.75326614  1
  O2-  O177  1  0.92076583  0.82137964  0.08875242  1
  O2-  O178  1  0.92834053  0.82465093  0.42346287  1
  O2-  O179  1  0.93164013  0.82176154  0.75704001  1
  O2-  O180  1  0.32322566  0.06928023  0.24461779  1
  O2-  O181  1  0.31724896  0.06997730  0.57229835  1
  O2-  O182  1  0.32477599  0.06891338  0.90131022  1
  O2-  O183  1  0.31632786  0.57372517  0.23642043  1
  O2-  O184  1  0.31572058  0.57538612  0.57676499  1
  O2-  O185  1  0.31927530  0.56914639  0.89910817  1
  O2-  O186  1  0.82114299  0.06911018  0.24109091  1
  O2-  O187  1  0.82598727  0.06727668  0.56808335  1
  O2-  O188  1  0.82015963  0.06976372  0.91184970  1
  O2-  O189  1  0.82324013  0.56852981  0.23540898  1
  O2-  O190  1  0.82580045  0.57125394  0.57805313  1
  O2-  O191  1  0.81684891  0.57156366  0.90059474  1
  O2-  O192  1  0.04049496  0.08103966  0.26444981  1
  O2-  O193  1  0.03915675  0.08091980  0.59911238  1
  O2-  O194  1  0.04294290  0.07725271  0.93536155  1
  O2-  O195  1  0.04155846  0.58084693  0.26825115  1
  O2-  O196  1  0.04272361  0.58514932  0.60438670  1
  O2-  O197  1  0.03892535  0.58499346  0.93020165  1
  O2-  O198  1  0.53710408  0.08589513  0.26416669  1
  O2-  O199  1  0.54369692  0.08298066  0.59885647  1
  O2-  O200  1  0.53920034  0.08243401  0.93156010  1
  O2-  O201  1  0.55486766  0.57996949  0.27346188  1
  O2-  O202  1  0.54774216  0.58194230  0.59726698  1
  O2-  O203  1  0.55348212  0.58000718  0.94710324  1
  O2-  O204  1  0.16989948  0.20574491  0.26526485  1
  O2-  O205  1  0.16458768  0.21036613  0.59740308  1
  O2-  O206  1  0.17446121  0.20205208  0.93602567  1
  O2-  O207  1  0.16269415  0.71511693  0.26749917  1
  O2-  O208  1  0.15992969  0.70714098  0.60133752  1
  O2-  O209  1  0.16418988  0.71297152  0.92832586  1
  O2-  O210  1  0.66757397  0.20915751  0.26440940  1
  O2-  O211  1  0.67441229  0.20751736  0.60341550  1
  O2-  O212  1  0.66537242  0.20763961  0.93137372  1
  O2-  O213  1  0.66752081  0.70624793  0.27104423  1
  O2-  O214  1  0.67296345  0.70791946  0.60035476  1
  O2-  O215  1  0.66695519  0.70527982  0.94033471  1
  O2-  O216  1  0.08299491  0.45407631  0.06069552  1
  O2-  O217  1  0.08608787  0.45110031  0.39635194  1
  O2-  O218  1  0.08518884  0.46019369  0.73636217  1
  O2-  O219  1  0.07643363  0.94993981  0.06840224  1
  O2-  O220  1  0.08465131  0.95567683  0.39622116  1
  O2-  O221  1  0.08778439  0.95460768  0.72835492  1
  O2-  O222  1  0.58570133  0.44821893  0.06812324  1
  O2-  O223  1  0.58429606  0.44647758  0.39529798  1
  O2-  O224  1  0.58070210  0.46021525  0.73511515  1
  O2-  O225  1  0.58723319  0.95793933  0.06358051  1
  O2-  O226  1  0.58515151  0.96231230  0.39371039  1
  O2-  O227  1  0.57616546  0.95417009  0.73320920  1
  O2-  O228  1  0.20046340  0.33373461  0.06420738  1
  O2-  O229  1  0.20637929  0.33184622  0.39565487  1
  O2-  O230  1  0.21028346  0.33088123  0.73445793  1
  O2-  O231  1  0.21024312  0.83194365  0.06852895  1
  O2-  O232  1  0.20863945  0.84025209  0.39820430  1
  O2-  O233  1  0.20413361  0.83402274  0.72542599  1
  O2-  O234  1  0.70768170  0.33198889  0.06352058  1
  O2-  O235  1  0.71022167  0.33397160  0.39678711  1
  O2-  O236  1  0.70995719  0.33623675  0.73718270  1
  O2-  O237  1  0.70770901  0.83868038  0.06666418  1
  O2-  O238  1  0.70128267  0.83948600  0.39637293  1
  O2-  O239  1  0.71121221  0.83400609  0.73653506  1
  O2-  O240  1  0.45286865  0.41988323  0.27167186  1
  O2-  O241  1  0.45127962  0.42238012  0.60127365  1
  O2-  O242  1  0.45720228  0.41811991  0.93862017  1
  O2-  O243  1  0.46291492  0.91384113  0.26130214  1
  O2-  O244  1  0.45447468  0.91938589  0.59565172  1
  O2-  O245  1  0.46272343  0.91251816  0.93198295  1
  O2-  O246  1  0.95509418  0.41415174  0.27212198  1
  O2-  O247  1  0.95973406  0.41643484  0.60041721  1
  O2-  O248  1  0.95473989  0.41917171  0.92806692  1
  O2-  O249  1  0.95309028  0.91382723  0.26923870  1
  O2-  O250  1  0.96185399  0.91012362  0.60173273  1
  O2-  O251  1  0.94589597  0.91674577  0.93804606  1
  O2-  O252  1  0.33517452  0.29955679  0.26796803  1
  O2-  O253  1  0.33205786  0.28999686  0.59646891  1
  O2-  O254  1  0.33284446  0.30501121  0.94375623  1
  O2-  O255  1  0.33202548  0.78953682  0.26539316  1
  O2-  O256  1  0.32918121  0.79183768  0.59457403  1
  O2-  O257  1  0.33334255  0.78814970  0.93129669  1
  O2-  O258  1  0.83639341  0.29447198  0.26813259  1
  O2-  O259  1  0.83458966  0.30327763  0.60360790  1
  O2-  O260  1  0.83206049  0.29194582  0.93025499  1
  O2-  O261  1  0.82927181  0.80141955  0.27447078  1
  O2-  O262  1  0.83783648  0.79737913  0.60382528  1
  O2-  O263  1  0.83134458  0.79265556  0.93621377  1
  O2-  O264  1  0.41953778  0.03605664  0.06901759  1
  O2-  O265  1  0.41221726  0.03778887  0.39623808  1
  O2-  O266  1  0.41193532  0.04444733  0.72439398  1
  O2-  O267  1  0.41667265  0.54344040  0.06989497  1
  O2-  O268  1  0.41941382  0.54783941  0.40160180  1
  O2-  O269  1  0.41655529  0.55502055  0.72516073  1
  O2-  O270  1  0.91061295  0.04285438  0.06592498  1
  O2-  O271  1  0.91307057  0.04137550  0.39386977  1
  O2-  O272  1  0.91797743  0.03372325  0.73683142  1
  O2-  O273  1  0.91756788  0.53749092  0.06609780  1
  O2-  O274  1  0.91772510  0.53819782  0.40402277  1
  O2-  O275  1  0.91604834  0.54370392  0.73036417  1
  O2-  O276  1  0.30197711  0.17186142  0.06953759  1
  O2-  O277  1  0.29848071  0.16540211  0.39429699  1
  O2-  O278  1  0.28968237  0.16040562  0.72573267  1
  O2-  O279  1  0.28473542  0.66568448  0.06552751  1
  O2-  O280  1  0.28482141  0.66860493  0.40393007  1
  O2-  O281  1  0.28855878  0.66584763  0.72824598  1
  O2-  O282  1  0.79132473  0.16361281  0.06299124  1
  O2-  O283  1  0.79515120  0.16331840  0.39253217  1
  O2-  O284  1  0.80677003  0.17405258  0.73279077  1
  O2-  O285  1  0.79173555  0.66625006  0.07114719  1
  O2-  O286  1  0.79498615  0.66907818  0.40225163  1
  O2-  O287  1  0.80438085  0.66894658  0.72761302  1
