# generated using pymatgen
data_Ca2Al2SiO7
_symmetry_space_group_name_H-M   'P 1'
_cell_length_a   15.45793580
_cell_length_b   15.45816711
_cell_length_c   15.28351898
_cell_angle_alpha   90.00714960
_cell_angle_beta   89.99897478
_cell_angle_gamma   89.99194410
_symmetry_Int_Tables_number   1
_chemical_formula_structural   Ca2Al2SiO7
_chemical_formula_sum   'Ca48 Al48 Si24 O168'
_cell_volume   3652.01750278
_cell_formula_units_Z   24
loop_
 _symmetry_equiv_pos_site_id
 _symmetry_equiv_pos_as_xyz
  1  'x, y, z'
loop_
 _atom_type_symbol
 _atom_type_oxidation_number
  Ca2+  2.0
  Al0+  0.0
  Si0+  0.0
  O2-  -2.0
loop_
 _atom_site_type_symbol
 _atom_site_label
 _atom_site_symmetry_multiplicity
 _atom_site_fract_x
 _atom_site_fract_y
 _atom_site_fract_z
 _atom_site_occupancy
  Ca2+  Ca0  1  0.16699040  0.07614650  0.16442274  1
  Ca2+  Ca1  1  0.15936681  0.07203633  0.50372149  1
  Ca2+  Ca2  1  0.16616599  0.07720272  0.84138586  1
  Ca2+  Ca3  1  0.16480238  0.58686245  0.16611132  1
  Ca2+  Ca4  1  0.17326330  0.58059863  0.50904354  1
  Ca2+  Ca5  1  0.17046896  0.58359398  0.83771768  1
  Ca2+  Ca6  1  0.66860075  0.07173189  0.17567388  1
  Ca2+  Ca7  1  0.66892632  0.07880816  0.49949467  1
  Ca2+  Ca8  1  0.66579410  0.07179302  0.83799574  1
  Ca2+  Ca9  1  0.67120996  0.58801106  0.16344790  1
  Ca2+  Ca10  1  0.67566452  0.57958143  0.50912369  1
  Ca2+  Ca11  1  0.67728152  0.58761070  0.84048415  1
  Ca2+  Ca12  1  0.07796123  0.32527007  0.15996934  1
  Ca2+  Ca13  1  0.07300084  0.32713150  0.49918556  1
  Ca2+  Ca14  1  0.08350099  0.31745704  0.82646756  1
  Ca2+  Ca15  1  0.07399716  0.83903871  0.15919221  1
  Ca2+  Ca16  1  0.08040692  0.83670417  0.49364209  1
  Ca2+  Ca17  1  0.08238024  0.83619116  0.83220176  1
  Ca2+  Ca18  1  0.57956790  0.32238582  0.16217143  1
  Ca2+  Ca19  1  0.58074181  0.32696576  0.49514015  1
  Ca2+  Ca20  1  0.57291231  0.33329514  0.83053472  1
  Ca2+  Ca21  1  0.58363782  0.83348561  0.15494981  1
  Ca2+  Ca22  1  0.58076527  0.84255109  0.50041184  1
  Ca2+  Ca23  1  0.57542864  0.83855234  0.83171444  1
  Ca2+  Ca24  1  0.33464477  0.41557567  0.16618508  1
  Ca2+  Ca25  1  0.33603345  0.42371975  0.50982430  1
  Ca2+  Ca26  1  0.34180663  0.41997454  0.83805565  1
  Ca2+  Ca27  1  0.32441869  0.91507150  0.16539598  1
  Ca2+  Ca28  1  0.32161517  0.91462065  0.50901499  1
  Ca2+  Ca29  1  0.32520745  0.91707655  0.84169290  1
  Ca2+  Ca30  1  0.84007446  0.42389405  0.16994765  1
  Ca2+  Ca31  1  0.83942983  0.41879848  0.50862576  1
  Ca2+  Ca32  1  0.84446157  0.42773718  0.83504623  1
  Ca2+  Ca33  1  0.82675559  0.91467052  0.17341023  1
  Ca2+  Ca34  1  0.82529805  0.91857152  0.50134763  1
  Ca2+  Ca35  1  0.82175652  0.90881082  0.84042519  1
  Ca2+  Ca36  1  0.41860742  0.16527615  0.15919466  1
  Ca2+  Ca37  1  0.42342625  0.16869003  0.49815443  1
  Ca2+  Ca38  1  0.40722860  0.17566827  0.83084684  1
  Ca2+  Ca39  1  0.42670624  0.67685644  0.15487403  1
  Ca2+  Ca40  1  0.41387124  0.67219570  0.50226376  1
  Ca2+  Ca41  1  0.41807623  0.67849911  0.82938693  1
  Ca2+  Ca42  1  0.91716346  0.16639433  0.16387391  1
  Ca2+  Ca43  1  0.91456036  0.17153102  0.49505307  1
  Ca2+  Ca44  1  0.93030933  0.16514332  0.82682533  1
  Ca2+  Ca45  1  0.91968785  0.67914290  0.15633615  1
  Ca2+  Ca46  1  0.91565195  0.67230603  0.49620157  1
  Ca2+  Ca47  1  0.91600849  0.66842296  0.83655854  1
  Al0+  Al48  1  -0.00187620  0.00099263  -0.00529239  1
  Al0+  Al49  1  -0.00057848  0.00063007  0.33686317  1
  Al0+  Al50  1  -0.00133726  -0.00205404  0.66596518  1
  Al0+  Al51  1  0.00089765  0.50215270  0.00327712  1
  Al0+  Al52  1  0.00228045  0.49890866  0.33132196  1
  Al0+  Al53  1  0.00235915  0.50002434  0.66790507  1
  Al0+  Al54  1  0.49995691  0.00075900  0.00392333  1
  Al0+  Al55  1  0.49825066  0.00062539  0.33288769  1
  Al0+  Al56  1  0.49817277  -0.00019761  0.66565962  1
  Al0+  Al57  1  0.50244902  0.49938730  -0.00406709  1
  Al0+  Al58  1  0.50068728  0.50132123  0.33365251  1
  Al0+  Al59  1  0.50177144  0.50144838  0.66646642  1
  Al0+  Al60  1  0.24928140  0.25043978  -0.00236880  1
  Al0+  Al61  1  0.24874971  0.25173622  0.33567800  1
  Al0+  Al62  1  0.24931207  0.24901413  0.65306790  1
  Al0+  Al63  1  0.24974346  0.74875826  -0.00051867  1
  Al0+  Al64  1  0.25168722  0.74885502  0.33692696  1
  Al0+  Al65  1  0.25058994  0.74910468  0.67024342  1
  Al0+  Al66  1  0.74808561  0.25216801  -0.00251069  1
  Al0+  Al67  1  0.74830712  0.25078664  0.32674931  1
  Al0+  Al68  1  0.74982819  0.24990323  0.66599523  1
  Al0+  Al69  1  0.75153814  0.74825242  0.00239555  1
  Al0+  Al70  1  0.74962999  0.74871143  0.33525988  1
  Al0+  Al71  1  0.74952608  0.74852338  0.67344033  1
  Al0+  Al72  1  0.67717285  0.92639922  0.34945749  1
  Al0+  Al73  1  0.07175449  0.67796748  0.98466505  1
  Al0+  Al74  1  0.17717241  0.92716689  0.01508365  1
  Al0+  Al75  1  0.82043183  0.07297339  0.34750223  1
  Al0+  Al76  1  0.32244027  0.56969741  0.68220248  1
  Al0+  Al77  1  0.43020499  0.32300088  0.65125696  1
  Al0+  Al78  1  0.31964558  0.07346983  0.01412184  1
  Al0+  Al79  1  0.92890072  0.32178590  0.31760711  1
  Al0+  Al80  1  0.56902787  0.17848251  0.31879094  1
  Al0+  Al81  1  0.07086272  0.17455187  0.64767788  1
  Al0+  Al82  1  0.82273256  0.56919731  0.68085483  1
  Al0+  Al83  1  0.17773254  0.92915134  0.68122266  1
  Al0+  Al84  1  0.92911489  0.82069688  0.32201636  1
  Al0+  Al85  1  0.42937645  0.31899487  0.98770010  1
  Al0+  Al86  1  0.67857075  0.93074199  0.68164808  1
  Al0+  Al87  1  0.18046724  0.92949803  0.34713018  1
  Al0+  Al88  1  0.42827910  0.82082953  0.65187029  1
  Al0+  Al89  1  0.82158758  0.56875297  0.01687531  1
  Al0+  Al90  1  0.42897107  0.82346992  0.98570852  1
  Al0+  Al91  1  0.68057302  0.92993038  0.01383502  1
  Al0+  Al92  1  0.57253880  0.67925585  0.98426314  1
  Al0+  Al93  1  0.92997089  0.32127524  0.65320628  1
  Al0+  Al94  1  0.92928132  0.82206000  0.98413548  1
  Al0+  Al95  1  0.06903423  0.17975804  0.98764332  1
  Si0+  Si96  1  0.18027169  0.42924123  0.01497414  1
  Si0+  Si97  1  0.17800151  0.42848708  0.34975396  1
  Si0+  Si98  1  0.67590263  0.42724581  0.01866831  1
  Si0+  Si99  1  0.92692697  0.32376768  0.98428752  1
  Si0+  Si100  1  0.67804981  0.42585205  0.68343071  1
  Si0+  Si101  1  0.57218769  0.17697948  0.65017042  1
  Si0+  Si102  1  0.57069959  0.67756987  0.31974542  1
  Si0+  Si103  1  0.18022169  0.42712706  0.68250200  1
  Si0+  Si104  1  0.07163832  0.67975273  0.65167738  1
  Si0+  Si105  1  0.32198755  0.56917179  0.34828239  1
  Si0+  Si106  1  0.42784108  0.81977137  0.31947815  1
  Si0+  Si107  1  0.82207672  0.56920564  0.34845123  1
  Si0+  Si108  1  0.82159490  0.07353462  0.68399540  1
  Si0+  Si109  1  0.82163718  0.07531417  0.01431513  1
  Si0+  Si110  1  0.57290505  0.17697129  0.98229508  1
  Si0+  Si111  1  0.42771880  0.32399760  0.31709503  1
  Si0+  Si112  1  0.07406696  0.67837078  0.31882380  1
  Si0+  Si113  1  0.32354948  0.57049796  0.01544622  1
  Si0+  Si114  1  0.92600111  0.81848958  0.65139688  1
  Si0+  Si115  1  0.57351544  0.68022241  0.64887473  1
  Si0+  Si116  1  0.32115562  0.07295875  0.68054831  1
  Si0+  Si117  1  0.07231211  0.17787392  0.31517282  1
  Si0+  Si118  1  0.67822474  0.42988029  0.34735840  1
  Si0+  Si119  1  0.32196228  0.07448943  0.35151829  1
  O2-  O120  1  0.25072496  -0.00153163  0.06454406  1
  O2-  O121  1  0.25367555  0.00535429  0.39526439  1
  O2-  O122  1  0.25080019  0.00660071  0.72476605  1
  O2-  O123  1  0.25087862  0.50099104  0.05826813  1
  O2-  O124  1  0.25098819  0.49824712  0.39084824  1
  O2-  O125  1  0.25277594  0.49023533  0.72886762  1
  O2-  O126  1  0.75391974  0.00641894  0.05932070  1
  O2-  O127  1  0.74978527  -0.00091675  0.39779933  1
  O2-  O128  1  0.75288168  0.00546753  0.72854884  1
  O2-  O129  1  0.74767329  0.49260741  0.06352404  1
  O2-  O130  1  0.75265532  0.49673668  0.39110514  1
  O2-  O131  1  0.75045237  0.49114641  0.72629498  1
  O2-  O132  1  0.00190316  0.24543035  0.27135125  1
  O2-  O133  1  -0.00356084  0.24611719  0.60019101  1
  O2-  O134  1  -0.00882415  0.25147113  0.94089638  1
  O2-  O135  1  0.00610496  0.74762147  0.27608825  1
  O2-  O136  1  0.00047544  0.75039092  0.60921908  1
  O2-  O137  1  0.00423204  0.75291668  0.93333969  1
  O2-  O138  1  0.49116732  0.25129365  0.27303349  1
  O2-  O139  1  0.50562819  0.24862919  0.60603744  1
  O2-  O140  1  0.50189674  0.24368083  0.93885385  1
  O2-  O141  1  0.50466350  0.75394218  0.27905699  1
  O2-  O142  1  0.50472938  0.74799692  0.60302105  1
  O2-  O143  1  0.50137083  0.75195932  0.93501442  1
  O2-  O144  1  0.06933819  0.18280948  0.10102195  1
  O2-  O145  1  0.07316123  0.18061203  0.42045888  1
  O2-  O146  1  0.07209373  0.17672142  0.76137656  1
  O2-  O147  1  0.06842862  0.67514864  0.09874421  1
  O2-  O148  1  0.07457129  0.67618040  0.42478158  1
  O2-  O149  1  0.07187953  0.67830701  0.75615738  1
  O2-  O150  1  0.57421122  0.17996465  0.08792231  1
  O2-  O151  1  0.56799694  0.18232154  0.43221565  1
  O2-  O152  1  0.57176016  0.17694293  0.75553727  1
  O2-  O153  1  0.56942683  0.67879835  0.09905978  1
  O2-  O154  1  0.56834600  0.67110752  0.42454765  1
  O2-  O155  1  0.57379223  0.68059496  0.75377651  1
  O2-  O156  1  0.17809815  0.42810984  0.24458590  1
  O2-  O157  1  0.17934859  0.43297833  0.57645828  1
  O2-  O158  1  0.18098939  0.42883931  0.91005003  1
  O2-  O159  1  0.18194375  0.92763822  0.23470207  1
  O2-  O160  1  0.17907434  0.92748795  0.56743334  1
  O2-  O161  1  0.17852806  0.92954149  0.90160885  1
  O2-  O162  1  0.67433107  0.43432757  0.24273877  1
  O2-  O163  1  0.67676279  0.42811340  0.57713611  1
  O2-  O164  1  0.67418331  0.42677712  0.91335406  1
  O2-  O165  1  0.67790070  0.92501091  0.23616325  1
  O2-  O166  1  0.68069450  0.93155086  0.56853386  1
  O2-  O167  1  0.67996140  0.93169927  0.90054881  1
  O2-  O168  1  0.43101332  0.31984493  0.10117118  1
  O2-  O169  1  0.43122592  0.32766447  0.42246472  1
  O2-  O170  1  0.43079597  0.32211267  0.76420829  1
  O2-  O171  1  0.42952873  0.81956236  0.10028289  1
  O2-  O172  1  0.42464849  0.81565792  0.42468997  1
  O2-  O173  1  0.42807713  0.82048235  0.76408340  1
  O2-  O174  1  0.92942377  0.32370925  0.09025880  1
  O2-  O175  1  0.93183099  0.32592477  0.43028564  1
  O2-  O176  1  0.93473250  0.32226878  0.76656001  1
  O2-  O177  1  0.92864905  0.82092186  0.09819873  1
  O2-  O178  1  0.92866415  0.81597981  0.43567723  1
  O2-  O179  1  0.92469068  0.81671409  0.75599724  1
  O2-  O180  1  0.32122370  0.07606388  0.24624739  1
  O2-  O181  1  0.32324847  0.06983388  0.57461823  1
  O2-  O182  1  0.31572781  0.07779828  0.90064524  1
  O2-  O183  1  0.32298131  0.56882422  0.24329676  1
  O2-  O184  1  0.31894797  0.56951509  0.56804860  1
  O2-  O185  1  0.32400789  0.56786204  0.91062484  1
  O2-  O186  1  0.81878883  0.07220361  0.23384135  1
  O2-  O187  1  0.82001308  0.07408386  0.57835233  1
  O2-  O188  1  0.81871947  0.07711661  0.90871360  1
  O2-  O189  1  0.82105121  0.56898209  0.24371695  1
  O2-  O190  1  0.82074133  0.56973302  0.56679368  1
  O2-  O191  1  0.82221099  0.56574220  0.90384537  1
  O2-  O192  1  0.04808462  0.08376844  0.27102889  1
  O2-  O193  1  0.04045611  0.07612065  0.59559225  1
  O2-  O194  1  0.04085231  0.08485433  0.93037074  1
  O2-  O195  1  0.04943403  0.58470264  0.27258935  1
  O2-  O196  1  0.04434079  0.58787535  0.60325688  1
  O2-  O197  1  0.04096384  0.57976661  0.93169538  1
  O2-  O198  1  0.53960074  0.08151095  0.26453985  1
  O2-  O199  1  0.54245651  0.08582883  0.60160841  1
  O2-  O200  1  0.54938695  0.08303130  0.93817252  1
  O2-  O201  1  0.53779449  0.58844461  0.26916242  1
  O2-  O202  1  0.54861054  0.58608378  0.60265861  1
  O2-  O203  1  0.54537504  0.58085931  0.93172090  1
  O2-  O204  1  0.16589300  0.20764097  0.27042945  1
  O2-  O205  1  0.16711974  0.20345620  0.59048864  1
  O2-  O206  1  0.16280560  0.21599713  0.93239138  1
  O2-  O207  1  0.16888880  0.70149904  0.27377175  1
  O2-  O208  1  0.16305453  0.70735099  0.60326666  1
  O2-  O209  1  0.17262985  0.69755811  0.93429364  1
  O2-  O210  1  0.66251640  0.21251416  0.26163215  1
  O2-  O211  1  0.66615889  0.20102419  0.60381068  1
  O2-  O212  1  0.66486474  0.20567503  0.93365918  1
  O2-  O213  1  0.66431487  0.69983492  0.27399805  1
  O2-  O214  1  0.66729014  0.70628551  0.60247905  1
  O2-  O215  1  0.67168401  0.70461719  0.93419583  1
  O2-  O216  1  0.08951727  0.45723934  0.06482681  1
  O2-  O217  1  0.08771483  0.45931803  0.39877339  1
  O2-  O218  1  0.08929372  0.45711143  0.73054289  1
  O2-  O219  1  0.07806058  0.95969131  0.06510453  1
  O2-  O220  1  0.08386010  0.95868159  0.40188491  1
  O2-  O221  1  0.07914668  0.95542830  0.73308884  1
  O2-  O222  1  0.58387329  0.45615730  0.06693858  1
  O2-  O223  1  0.58785671  0.46127846  0.39731810  1
  O2-  O224  1  0.58605287  0.45545645  0.72989386  1
  O2-  O225  1  0.58394617  0.95884513  0.06874555  1
  O2-  O226  1  0.57767433  0.95619389  0.40028663  1
  O2-  O227  1  0.58098388  0.96166619  0.73346585  1
  O2-  O228  1  0.21027276  0.33946708  0.06484414  1
  O2-  O229  1  0.20328910  0.33682265  0.39875492  1
  O2-  O230  1  0.20180768  0.33001478  0.72150669  1
  O2-  O231  1  0.20374862  0.82748356  0.06767320  1
  O2-  O232  1  0.21226832  0.83235315  0.40169592  1
  O2-  O233  1  0.21004136  0.83323388  0.73405861  1
  O2-  O234  1  0.69886781  0.33212332  0.06383895  1
  O2-  O235  1  0.70183671  0.33677837  0.39266092  1
  O2-  O236  1  0.69735657  0.33074229  0.72881650  1
  O2-  O237  1  0.71122798  0.83334627  0.06735909  1
  O2-  O238  1  0.70443043  0.82724197  0.40300605  1
  O2-  O239  1  0.70954574  0.83437012  0.73496472  1
  O2-  O240  1  0.45736396  0.41644358  0.27002093  1
  O2-  O241  1  0.46168660  0.41999080  0.59709946  1
  O2-  O242  1  0.46227246  0.41425122  0.93284494  1
  O2-  O243  1  0.44749907  0.91409061  0.27512991  1
  O2-  O244  1  0.45733647  0.91776688  0.59703236  1
  O2-  O245  1  0.45564472  0.92267298  0.93436977  1
  O2-  O246  1  0.96460955  0.41738536  0.26286615  1
  O2-  O247  1  0.96294490  0.41897349  0.59918553  1
  O2-  O248  1  0.95817768  0.41588103  0.94023385  1
  O2-  O249  1  0.95727959  0.91843308  0.26987508  1
  O2-  O250  1  0.95043392  0.91137786  0.60525766  1
  O2-  O251  1  0.95035916  0.92101303  0.92983279  1
  O2-  O252  1  0.33105851  0.30400953  0.27488259  1
  O2-  O253  1  0.33475544  0.29522349  0.59329822  1
  O2-  O254  1  0.33280188  0.29252790  0.93221785  1
  O2-  O255  1  0.33893932  0.78448491  0.27074183  1
  O2-  O256  1  0.33281631  0.78425847  0.59768470  1
  O2-  O257  1  0.33123218  0.79247117  0.93431922  1
  O2-  O258  1  0.83122365  0.29758158  0.26337921  1
  O2-  O259  1  0.82850342  0.29958240  0.60224475  1
  O2-  O260  1  0.83093720  0.30619828  0.94013565  1
  O2-  O261  1  0.83293342  0.78666263  0.26871877  1
  O2-  O262  1  0.83574838  0.78559168  0.60372549  1
  O2-  O263  1  0.83319759  0.78598087  0.93217214  1
  O2-  O264  1  0.41900740  0.04889286  0.06719012  1
  O2-  O265  1  0.41549029  0.04907401  0.39735568  1
  O2-  O266  1  0.41426601  0.04867803  0.72743194  1
  O2-  O267  1  0.41457532  0.53922776  0.06316836  1
  O2-  O268  1  0.41322426  0.54071894  0.39727766  1
  O2-  O269  1  0.42085113  0.54325893  0.73398467  1
  O2-  O270  1  0.91592455  0.05185939  0.05891876  1
  O2-  O271  1  0.91893621  0.04789517  0.40159307  1
  O2-  O272  1  0.91497703  0.04609325  0.72848705  1
  O2-  O273  1  0.91788441  0.53819660  0.07285672  1
  O2-  O274  1  0.91556882  0.54312227  0.39404426  1
  O2-  O275  1  0.91994236  0.54020681  0.73474247  1
  O2-  O276  1  0.28894162  0.17124522  0.06920430  1
  O2-  O277  1  0.29828145  0.16940085  0.39733800  1
  O2-  O278  1  0.29696062  0.16932467  0.72129139  1
  O2-  O279  1  0.29687353  0.66159715  0.06457341  1
  O2-  O280  1  0.29407522  0.65993560  0.39782166  1
  O2-  O281  1  0.28709672  0.66364287  0.73643028  1
  O2-  O282  1  0.79694653  0.17015261  0.05981448  1
  O2-  O283  1  0.78900107  0.17226159  0.39853373  1
  O2-  O284  1  0.79832101  0.16786275  0.73010300  1
  O2-  O285  1  0.78890371  0.66385771  0.07229655  1
  O2-  O286  1  0.79198659  0.65933626  0.39750964  1
  O2-  O287  1  0.78895512  0.66318430  0.73670939  1
