# generated using pymatgen
data_Ca2Al2SiO7
_symmetry_space_group_name_H-M   'P 1'
_cell_length_a   15.45377200
_cell_length_b   15.45348205
_cell_length_c   15.27994724
_cell_angle_alpha   90.01336472
_cell_angle_beta   89.99568107
_cell_angle_gamma   90.00182626
_symmetry_Int_Tables_number   1
_chemical_formula_structural   Ca2Al2SiO7
_chemical_formula_sum   'Ca48 Al48 Si24 O168'
_cell_volume   3649.07419687
_cell_formula_units_Z   24
loop_
 _symmetry_equiv_pos_site_id
 _symmetry_equiv_pos_as_xyz
  1  'x, y, z'
loop_
 _atom_type_symbol
 _atom_type_oxidation_number
  Ca2+  2.0
  Al0+  0.0
  Si0+  0.0
  O2-  -2.0
loop_
 _atom_site_type_symbol
 _atom_site_label
 _atom_site_symmetry_multiplicity
 _atom_site_fract_x
 _atom_site_fract_y
 _atom_site_fract_z
 _atom_site_occupancy
  Ca2+  Ca0  1  0.16880478  0.07454047  0.17469826  1
  Ca2+  Ca1  1  0.16897145  0.06976237  0.50827143  1
  Ca2+  Ca2  1  0.17193932  0.08155150  0.83265815  1
  Ca2+  Ca3  1  0.15958304  0.58411114  0.16648924  1
  Ca2+  Ca4  1  0.17279621  0.58600785  0.50378912  1
  Ca2+  Ca5  1  0.17188919  0.58091035  0.83872414  1
  Ca2+  Ca6  1  0.66176277  0.08063489  0.16282551  1
  Ca2+  Ca7  1  0.67266750  0.07477532  0.50897011  1
  Ca2+  Ca8  1  0.66486749  0.07820815  0.83704999  1
  Ca2+  Ca9  1  0.66949636  0.58169203  0.16877327  1
  Ca2+  Ca10  1  0.68182781  0.58045870  0.50869316  1
  Ca2+  Ca11  1  0.66940559  0.57214889  0.83814430  1
  Ca2+  Ca12  1  0.07104068  0.34204311  0.16059900  1
  Ca2+  Ca13  1  0.07075053  0.33230504  0.49626826  1
  Ca2+  Ca14  1  0.07256621  0.34022689  0.82976345  1
  Ca2+  Ca15  1  0.08251411  0.82375582  0.16587665  1
  Ca2+  Ca16  1  0.08092651  0.83097337  0.49007331  1
  Ca2+  Ca17  1  0.08653524  0.82824387  0.82962442  1
  Ca2+  Ca18  1  0.58083993  0.33005594  0.15904757  1
  Ca2+  Ca19  1  0.57340208  0.34103535  0.50066770  1
  Ca2+  Ca20  1  0.58727764  0.33136846  0.82623374  1
  Ca2+  Ca21  1  0.57469143  0.83058448  0.15432667  1
  Ca2+  Ca22  1  0.57955294  0.83454451  0.49527134  1
  Ca2+  Ca23  1  0.58589447  0.83313553  0.83377185  1
  Ca2+  Ca24  1  0.32681393  0.41492106  0.17087786  1
  Ca2+  Ca25  1  0.33621178  0.42019267  0.50978958  1
  Ca2+  Ca26  1  0.33277160  0.42140858  0.83715098  1
  Ca2+  Ca27  1  0.33314059  0.91175308  0.17292884  1
  Ca2+  Ca28  1  0.32272722  0.91540096  0.50643481  1
  Ca2+  Ca29  1  0.33397390  0.91914528  0.83432410  1
  Ca2+  Ca30  1  0.83104083  0.41810715  0.17054871  1
  Ca2+  Ca31  1  0.83499809  0.42453106  0.50689431  1
  Ca2+  Ca32  1  0.82826563  0.41376193  0.83698391  1
  Ca2+  Ca33  1  0.82752475  0.91053708  0.17122795  1
  Ca2+  Ca34  1  0.83185494  0.92108148  0.51073532  1
  Ca2+  Ca35  1  0.82207676  0.92258648  0.83566545  1
  Ca2+  Ca36  1  0.42221247  0.17158197  0.16182194  1
  Ca2+  Ca37  1  0.41166259  0.17538447  0.49972953  1
  Ca2+  Ca38  1  0.42130066  0.17094329  0.82660643  1
  Ca2+  Ca39  1  0.42108851  0.67976770  0.15943703  1
  Ca2+  Ca40  1  0.41857658  0.66969580  0.49516244  1
  Ca2+  Ca41  1  0.42152535  0.66711349  0.83157715  1
  Ca2+  Ca42  1  0.91470957  0.17947242  0.16181421  1
  Ca2+  Ca43  1  0.90710231  0.17674395  0.49919425  1
  Ca2+  Ca44  1  0.91066547  0.17708278  0.82743326  1
  Ca2+  Ca45  1  0.92361394  0.66478578  0.16751216  1
  Ca2+  Ca46  1  0.91992234  0.66862958  0.49064971  1
  Ca2+  Ca47  1  0.92270638  0.66014767  0.82969541  1
  Al0+  Al48  1  0.00129490  0.00174573  0.00185235  1
  Al0+  Al49  1  -0.00090975  -0.00035042  0.33414767  1
  Al0+  Al50  1  -0.00018804  -0.00125906  0.67616600  1
  Al0+  Al51  1  0.00084973  0.50115542  -0.00510764  1
  Al0+  Al52  1  -0.00013160  0.49907325  0.33128671  1
  Al0+  Al53  1  0.00151855  0.50032671  0.66249394  1
  Al0+  Al54  1  0.50002887  0.00250844  -0.00317881  1
  Al0+  Al55  1  0.49978630  0.00165098  0.33174580  1
  Al0+  Al56  1  0.49782480  -0.00061887  0.67008103  1
  Al0+  Al57  1  0.49964753  0.50262277  0.00392436  1
  Al0+  Al58  1  0.49860295  0.49824663  0.32777876  1
  Al0+  Al59  1  0.50121238  0.50135124  0.66913049  1
  Al0+  Al60  1  0.24859847  0.24992895  0.00663280  1
  Al0+  Al61  1  0.24997577  0.25002874  0.33014059  1
  Al0+  Al62  1  0.24847124  0.24841907  0.66515767  1
  Al0+  Al63  1  0.24937688  0.75111774  -0.00764662  1
  Al0+  Al64  1  0.25098128  0.74896127  0.32989498  1
  Al0+  Al65  1  0.25125093  0.74813187  0.67395017  1
  Al0+  Al66  1  0.74920763  0.25102485  -0.00268466  1
  Al0+  Al67  1  0.74782474  0.24891083  0.33022434  1
  Al0+  Al68  1  0.74930690  0.24903593  0.66462232  1
  Al0+  Al69  1  0.74979281  0.75114747  0.00118925  1
  Al0+  Al70  1  0.75083861  0.74803407  0.33529369  1
  Al0+  Al71  1  0.75200871  0.74847869  0.67368181  1
  Al0+  Al72  1  0.82093373  0.56896811  0.34648912  1
  Al0+  Al73  1  0.06831166  0.68088814  0.98348445  1
  Al0+  Al74  1  0.56935888  0.18217959  0.98493711  1
  Al0+  Al75  1  0.92846559  0.32002060  0.65108519  1
  Al0+  Al76  1  0.82510271  0.57044320  0.68285704  1
  Al0+  Al77  1  0.32213528  0.56998648  0.67967553  1
  Al0+  Al78  1  0.17925414  0.43062982  0.01359113  1
  Al0+  Al79  1  0.42900639  0.32166119  0.65538776  1
  Al0+  Al80  1  0.18036321  0.92806733  0.34530385  1
  Al0+  Al81  1  0.07186360  0.67907947  0.31932713  1
  Al0+  Al82  1  0.92885782  0.32002037  0.31928859  1
  Al0+  Al83  1  0.42774422  0.32192315  0.31831954  1
  Al0+  Al84  1  0.31993340  0.07302612  0.68163678  1
  Al0+  Al85  1  0.92683128  0.82339752  0.31999736  1
  Al0+  Al86  1  0.67724004  0.92736226  0.68123737  1
  Al0+  Al87  1  0.57329640  0.67763327  0.98381379  1
  Al0+  Al88  1  0.17862766  0.92708550  0.68375575  1
  Al0+  Al89  1  0.67959717  0.43011445  0.67962027  1
  Al0+  Al90  1  0.42935702  0.82197430  0.98163727  1
  Al0+  Al91  1  0.43070259  0.82079719  0.32260317  1
  Al0+  Al92  1  0.67849079  0.42838549  0.01523266  1
  Al0+  Al93  1  0.82091237  0.07231485  0.68184456  1
  Al0+  Al94  1  0.93083611  0.31979895  0.98539710  1
  Al0+  Al95  1  0.67963798  0.93035731  0.01584213  1
  Si0+  Si96  1  0.32307732  0.07331255  0.35000058  1
  Si0+  Si97  1  0.32146249  0.56948343  0.34652740  1
  Si0+  Si98  1  0.17873245  0.42776700  0.34903413  1
  Si0+  Si99  1  0.67635528  0.42605730  0.34963870  1
  Si0+  Si100  1  0.07408585  0.17601721  0.98369270  1
  Si0+  Si101  1  0.17907086  0.92818563  0.01685511  1
  Si0+  Si102  1  0.57256055  0.67935828  0.65129257  1
  Si0+  Si103  1  0.67799763  0.92889308  0.34647652  1
  Si0+  Si104  1  0.57326972  0.67761287  0.31849070  1
  Si0+  Si105  1  0.82031858  0.07205117  0.34685009  1
  Si0+  Si106  1  0.07290796  0.68002463  0.65070535  1
  Si0+  Si107  1  0.07204912  0.17738049  0.31742472  1
  Si0+  Si108  1  0.32100041  0.07091838  0.01726476  1
  Si0+  Si109  1  0.42531142  0.32262893  0.98489494  1
  Si0+  Si110  1  0.92941258  0.82048217  0.65428975  1
  Si0+  Si111  1  0.42883362  0.82029032  0.65098530  1
  Si0+  Si112  1  0.32126362  0.57419253  0.01894381  1
  Si0+  Si113  1  0.82265377  0.07270833  0.01859862  1
  Si0+  Si114  1  0.57150088  0.17774873  0.31603938  1
  Si0+  Si115  1  0.82298169  0.57166878  0.01733722  1
  Si0+  Si116  1  0.92730836  0.82550684  0.98235232  1
  Si0+  Si117  1  0.17816400  0.42762436  0.68014039  1
  Si0+  Si118  1  0.07170307  0.17518305  0.64996545  1
  Si0+  Si119  1  0.57084454  0.17573656  0.64830926  1
  O2-  O120  1  0.25043846  -0.00108063  0.05918346  1
  O2-  O121  1  0.25467963  0.00345303  0.39236794  1
  O2-  O122  1  0.24993367  0.00010767  0.73331889  1
  O2-  O123  1  0.25481171  0.50326201  0.06346217  1
  O2-  O124  1  0.25186231  0.49726973  0.39033757  1
  O2-  O125  1  0.25017336  0.49217921  0.72471749  1
  O2-  O126  1  0.75746360  0.00125978  0.06451609  1
  O2-  O127  1  0.75266025  -0.00335985  0.38794183  1
  O2-  O128  1  0.74652249  0.00237723  0.73049620  1
  O2-  O129  1  0.75148562  0.50533393  0.06148725  1
  O2-  O130  1  0.74540019  0.49455731  0.39287101  1
  O2-  O131  1  0.75492376  0.49694575  0.73191465  1
  O2-  O132  1  0.00405384  0.24594119  0.27205077  1
  O2-  O133  1  0.00148409  0.24231678  0.60507309  1
  O2-  O134  1  0.00560067  0.24435639  0.93958040  1
  O2-  O135  1  -0.00076891  0.75156043  0.27045867  1
  O2-  O136  1  0.00119973  0.75095814  0.61008532  1
  O2-  O137  1  -0.00579422  0.75597530  0.93656481  1
  O2-  O138  1  0.50301537  0.24761838  0.27334529  1
  O2-  O139  1  0.50245674  0.24620009  0.60574768  1
  O2-  O140  1  0.49784032  0.26010874  0.93894370  1
  O2-  O141  1  0.50761012  0.74937842  0.27498286  1
  O2-  O142  1  0.50321009  0.75260583  0.60836527  1
  O2-  O143  1  0.50171767  0.74968986  0.93262376  1
  O2-  O144  1  0.07298320  0.17395727  0.08952559  1
  O2-  O145  1  0.07240773  0.17877793  0.42289515  1
  O2-  O146  1  0.07338149  0.17795298  0.75548166  1
  O2-  O147  1  0.06791027  0.68178081  0.09652516  1
  O2-  O148  1  0.07333330  0.68017423  0.43329560  1
  O2-  O149  1  0.07272856  0.67960152  0.75576606  1
  O2-  O150  1  0.56615377  0.18169145  0.09862131  1
  O2-  O151  1  0.57265068  0.17478539  0.42123655  1
  O2-  O152  1  0.56991065  0.17591520  0.75377943  1
  O2-  O153  1  0.57090449  0.68007651  0.09823220  1
  O2-  O154  1  0.57178499  0.67766453  0.42449163  1
  O2-  O155  1  0.57055519  0.67842729  0.75582385  1
  O2-  O156  1  0.17882748  0.42833736  0.24391907  1
  O2-  O157  1  0.17779204  0.43052675  0.57401693  1
  O2-  O158  1  0.18118277  0.43153020  0.90043234  1
  O2-  O159  1  0.18286395  0.92947674  0.23194606  1
  O2-  O160  1  0.17950222  0.92529912  0.56962846  1
  O2-  O161  1  0.17836695  0.93019714  0.91211302  1
  O2-  O162  1  0.67674777  0.42602987  0.24392275  1
  O2-  O163  1  0.67755704  0.43519017  0.56556598  1
  O2-  O164  1  0.68089317  0.42637421  0.90260967  1
  O2-  O165  1  0.67632886  0.93123133  0.24160736  1
  O2-  O166  1  0.67911122  0.92731794  0.56639371  1
  O2-  O167  1  0.68015410  0.93330895  0.90331880  1
  O2-  O168  1  0.42449415  0.31749204  0.09085977  1
  O2-  O169  1  0.42782443  0.32323804  0.43150192  1
  O2-  O170  1  0.42935561  0.32127872  0.76820964  1
  O2-  O171  1  0.42913977  0.82094772  0.09602492  1
  O2-  O172  1  0.43127447  0.81895681  0.43607462  1
  O2-  O173  1  0.42801840  0.81856885  0.75558190  1
  O2-  O174  1  0.93149081  0.31939688  0.09900976  1
  O2-  O175  1  0.92922588  0.31893488  0.43230945  1
  O2-  O176  1  0.93146226  0.32110483  0.76396529  1
  O2-  O177  1  0.92981742  0.82607103  0.08805404  1
  O2-  O178  1  0.92701360  0.82418329  0.43401644  1
  O2-  O179  1  0.93053425  0.81912293  0.75929845  1
  O2-  O180  1  0.32289184  0.07339631  0.24409702  1
  O2-  O181  1  0.31792201  0.07141686  0.56758224  1
  O2-  O182  1  0.31898722  0.07321394  0.91256370  1
  O2-  O183  1  0.32165542  0.56882648  0.24176623  1
  O2-  O184  1  0.32046715  0.57192642  0.56573088  1
  O2-  O185  1  0.32050430  0.57265703  0.91319901  1
  O2-  O186  1  0.81868679  0.07500158  0.24195790  1
  O2-  O187  1  0.82008175  0.06940672  0.56717266  1
  O2-  O188  1  0.82217693  0.07168346  0.91338071  1
  O2-  O189  1  0.81988241  0.56787456  0.23343210  1
  O2-  O190  1  0.82458055  0.57188633  0.56879455  1
  O2-  O191  1  0.82419533  0.56874730  0.91189646  1
  O2-  O192  1  0.04637479  0.08402620  0.27102314  1
  O2-  O193  1  0.04712551  0.07950105  0.60707943  1
  O2-  O194  1  0.05040666  0.08215478  0.93693075  1
  O2-  O195  1  0.04259446  0.58119621  0.26598068  1
  O2-  O196  1  0.04736686  0.58834318  0.60180832  1
  O2-  O197  1  0.03854421  0.58530988  0.92748950  1
  O2-  O198  1  0.54392911  0.08552234  0.26729969  1
  O2-  O199  1  0.54315940  0.08221430  0.60180163  1
  O2-  O200  1  0.53563719  0.08772265  0.93016343  1
  O2-  O201  1  0.54539203  0.58538916  0.27113591  1
  O2-  O202  1  0.54132910  0.58961331  0.60192920  1
  O2-  O203  1  0.54326519  0.57864392  0.93226228  1
  O2-  O204  1  0.16575059  0.20100824  0.27027794  1
  O2-  O205  1  0.16404665  0.20112677  0.60096725  1
  O2-  O206  1  0.16828558  0.20240128  0.93968124  1
  O2-  O207  1  0.16902614  0.70711704  0.26385449  1
  O2-  O208  1  0.16568333  0.70860389  0.60514581  1
  O2-  O209  1  0.16447884  0.71091404  0.92871826  1
  O2-  O210  1  0.66398151  0.20259914  0.26721867  1
  O2-  O211  1  0.66460034  0.19917485  0.60161777  1
  O2-  O212  1  0.66660249  0.20868141  0.93140825  1
  O2-  O213  1  0.66728716  0.69986763  0.27305776  1
  O2-  O214  1  0.66583712  0.70661656  0.60543593  1
  O2-  O215  1  0.67261725  0.70479409  0.93270399  1
  O2-  O216  1  0.08311968  0.46531674  0.06689705  1
  O2-  O217  1  0.08778839  0.45684058  0.39680669  1
  O2-  O218  1  0.08710837  0.45884698  0.72706858  1
  O2-  O219  1  0.08723042  0.95641145  0.06485770  1
  O2-  O220  1  0.08294467  0.95797587  0.39924391  1
  O2-  O221  1  0.08144172  0.95307898  0.73944600  1
  O2-  O222  1  0.58052456  0.45647055  0.06967818  1
  O2-  O223  1  0.58140673  0.45251123  0.39302922  1
  O2-  O224  1  0.58364595  0.46131170  0.73484432  1
  O2-  O225  1  0.58302017  0.96597479  0.06817395  1
  O2-  O226  1  0.58748627  0.96049135  0.39531708  1
  O2-  O227  1  0.57817905  0.95202227  0.73276058  1
  O2-  O228  1  0.20598319  0.33351849  0.07053037  1
  O2-  O229  1  0.20477589  0.33465527  0.39493536  1
  O2-  O230  1  0.19705057  0.33249689  0.72431993  1
  O2-  O231  1  0.20753550  0.83550123  0.06157134  1
  O2-  O232  1  0.21273164  0.83163477  0.39905793  1
  O2-  O233  1  0.20998641  0.83075269  0.73814588  1
  O2-  O234  1  0.71110402  0.33197640  0.06944153  1
  O2-  O235  1  0.69999884  0.33137528  0.39422300  1
  O2-  O236  1  0.70211574  0.32924571  0.72806730  1
  O2-  O237  1  0.70715747  0.83248257  0.07009964  1
  O2-  O238  1  0.70034060  0.83557711  0.39306321  1
  O2-  O239  1  0.70844538  0.83141691  0.73603382  1
  O2-  O240  1  0.45592233  0.41765815  0.26109499  1
  O2-  O241  1  0.46132390  0.41832837  0.60013740  1
  O2-  O242  1  0.44363637  0.42003413  0.94591869  1
  O2-  O243  1  0.45716593  0.91864758  0.26867301  1
  O2-  O244  1  0.45224844  0.91366538  0.60417467  1
  O2-  O245  1  0.45724632  0.92077941  0.93098923  1
  O2-  O246  1  0.96161447  0.41493407  0.26439462  1
  O2-  O247  1  0.96388921  0.41556680  0.59608576  1
  O2-  O248  1  0.96335630  0.41490803  0.93084714  1
  O2-  O249  1  0.95230190  0.92224393  0.26619077  1
  O2-  O250  1  0.95573004  0.91398026  0.60889578  1
  O2-  O251  1  0.95480970  0.91945019  0.93770205  1
  O2-  O252  1  0.33129020  0.29117162  0.26322616  1
  O2-  O253  1  0.33145480  0.29260374  0.60026033  1
  O2-  O254  1  0.33243552  0.29233432  0.94025144  1
  O2-  O255  1  0.33694024  0.78719426  0.26580763  1
  O2-  O256  1  0.33749162  0.78704080  0.60511573  1
  O2-  O257  1  0.33137170  0.79428181  0.92840460  1
  O2-  O258  1  0.83189455  0.28887896  0.26594797  1
  O2-  O259  1  0.83162572  0.29040051  0.59589188  1
  O2-  O260  1  0.83497723  0.28798266  0.93213112  1
  O2-  O261  1  0.82868130  0.79311259  0.26695803  1
  O2-  O262  1  0.83722604  0.79276121  0.60698273  1
  O2-  O263  1  0.83255548  0.80261972  0.93883248  1
  O2-  O264  1  0.41262905  0.04326920  0.06457825  1
  O2-  O265  1  0.41736202  0.04981473  0.39555126  1
  O2-  O266  1  0.41791156  0.04585822  0.73462326  1
  O2-  O267  1  0.41538604  0.55328770  0.06578586  1
  O2-  O268  1  0.41421466  0.54267744  0.39369580  1
  O2-  O269  1  0.41759922  0.54139649  0.73526480  1
  O2-  O270  1  0.91834577  0.05179150  0.06378279  1
  O2-  O271  1  0.91297862  0.04942117  0.39458320  1
  O2-  O272  1  0.91760513  0.04501657  0.73765410  1
  O2-  O273  1  0.91572402  0.54204127  0.06250229  1
  O2-  O274  1  0.91780884  0.53765120  0.40014269  1
  O2-  O275  1  0.92491229  0.54338414  0.73278997  1
  O2-  O276  1  0.29255545  0.16153850  0.06781552  1
  O2-  O277  1  0.29609516  0.16726285  0.39510265  1
  O2-  O278  1  0.29050287  0.17069227  0.73611697  1
  O2-  O279  1  0.29073087  0.66788623  0.06220232  1
  O2-  O280  1  0.29276370  0.66066288  0.39479542  1
  O2-  O281  1  0.28906523  0.66287012  0.73781922  1
  O2-  O282  1  0.79198485  0.16490192  0.06447758  1
  O2-  O283  1  0.78736917  0.16202640  0.39593549  1
  O2-  O284  1  0.79386639  0.17086357  0.73337812  1
  O2-  O285  1  0.80095082  0.66687087  0.06203916  1
  O2-  O286  1  0.79158806  0.66594802  0.40252972  1
  O2-  O287  1  0.79733702  0.66741869  0.73719380  1
