# generated using pymatgen
data_Ca2Al2SiO7
_symmetry_space_group_name_H-M   'P 1'
_cell_length_a   15.46295101
_cell_length_b   15.46213133
_cell_length_c   15.28674512
_cell_angle_alpha   90.01084639
_cell_angle_beta   89.98682977
_cell_angle_gamma   90.01067941
_symmetry_Int_Tables_number   1
_chemical_formula_structural   Ca2Al2SiO7
_chemical_formula_sum   'Ca48 Al48 Si24 O168'
_cell_volume   3654.91040559
_cell_formula_units_Z   24
loop_
 _symmetry_equiv_pos_site_id
 _symmetry_equiv_pos_as_xyz
  1  'x, y, z'
loop_
 _atom_type_symbol
 _atom_type_oxidation_number
  Ca2+  2.0
  Al0+  0.0
  Si0+  0.0
  O2-  -2.0
loop_
 _atom_site_type_symbol
 _atom_site_label
 _atom_site_symmetry_multiplicity
 _atom_site_fract_x
 _atom_site_fract_y
 _atom_site_fract_z
 _atom_site_occupancy
  Ca2+  Ca0  1  0.17628128  0.07791457  0.16675683  1
  Ca2+  Ca1  1  0.17061141  0.08864972  0.50483625  1
  Ca2+  Ca2  1  0.17277394  0.08240495  0.83956664  1
  Ca2+  Ca3  1  0.17311473  0.58381333  0.17220393  1
  Ca2+  Ca4  1  0.18021661  0.58700906  0.50531155  1
  Ca2+  Ca5  1  0.17457626  0.58786164  0.83398650  1
  Ca2+  Ca6  1  0.66540468  0.07434939  0.16213375  1
  Ca2+  Ca7  1  0.67102991  0.07020372  0.50770284  1
  Ca2+  Ca8  1  0.67375930  0.07562235  0.83926107  1
  Ca2+  Ca9  1  0.67184619  0.57110456  0.17238702  1
  Ca2+  Ca10  1  0.66578289  0.57518291  0.50489689  1
  Ca2+  Ca11  1  0.65764577  0.57263140  0.83227018  1
  Ca2+  Ca12  1  0.07391131  0.33151839  0.15795820  1
  Ca2+  Ca13  1  0.07903611  0.32900861  0.50233129  1
  Ca2+  Ca14  1  0.06945629  0.32454086  0.82451286  1
  Ca2+  Ca15  1  0.07891624  0.83282325  0.15718129  1
  Ca2+  Ca16  1  0.07465337  0.83440222  0.50146405  1
  Ca2+  Ca17  1  0.07184651  0.84522779  0.83198677  1
  Ca2+  Ca18  1  0.58865975  0.32794824  0.15835300  1
  Ca2+  Ca19  1  0.58365327  0.33907927  0.50088060  1
  Ca2+  Ca20  1  0.58741724  0.32698673  0.82831624  1
  Ca2+  Ca21  1  0.58217686  0.83657727  0.15831244  1
  Ca2+  Ca22  1  0.58539275  0.83295568  0.49990624  1
  Ca2+  Ca23  1  0.57711901  0.83491257  0.82500405  1
  Ca2+  Ca24  1  0.33159509  0.42455221  0.17411440  1
  Ca2+  Ca25  1  0.33967688  0.42732604  0.50960093  1
  Ca2+  Ca26  1  0.34119107  0.42085607  0.83036214  1
  Ca2+  Ca27  1  0.33965644  0.92741512  0.16274650  1
  Ca2+  Ca28  1  0.33443030  0.92126897  0.50520325  1
  Ca2+  Ca29  1  0.33027906  0.91578879  0.84382602  1
  Ca2+  Ca30  1  0.82355721  0.41568653  0.17034582  1
  Ca2+  Ca31  1  0.82379372  0.41785900  0.50752576  1
  Ca2+  Ca32  1  0.82533362  0.40802912  0.83766458  1
  Ca2+  Ca33  1  0.82446160  0.91625171  0.16735073  1
  Ca2+  Ca34  1  0.82340141  0.91750763  0.51187487  1
  Ca2+  Ca35  1  0.83000237  0.92330986  0.83971813  1
  Ca2+  Ca36  1  0.42225971  0.16144996  0.15856302  1
  Ca2+  Ca37  1  0.41537442  0.17275231  0.49585690  1
  Ca2+  Ca38  1  0.42524583  0.16616542  0.83005213  1
  Ca2+  Ca39  1  0.41817503  0.67273330  0.16009202  1
  Ca2+  Ca40  1  0.42111318  0.66587728  0.50288785  1
  Ca2+  Ca41  1  0.42216945  0.67770610  0.82319633  1
  Ca2+  Ca42  1  0.91123122  0.17211958  0.15584724  1
  Ca2+  Ca43  1  0.91461282  0.16635750  0.50558342  1
  Ca2+  Ca44  1  0.91260051  0.16930016  0.82540174  1
  Ca2+  Ca45  1  0.91324427  0.67108439  0.16082036  1
  Ca2+  Ca46  1  0.90597046  0.67192794  0.49803539  1
  Ca2+  Ca47  1  0.91381388  0.68142904  0.82923374  1
  Al0+  Al48  1  0.00205648  0.00056791  0.00543277  1
  Al0+  Al49  1  0.00086734  0.00025795  0.33039314  1
  Al0+  Al50  1  0.00147564  0.00004589  0.65956472  1
  Al0+  Al51  1  0.00121158  0.50004602  -0.00516682  1
  Al0+  Al52  1  0.00029666  0.50086791  0.33486370  1
  Al0+  Al53  1  0.00121481  0.49921315  0.66286111  1
  Al0+  Al54  1  0.50046738  0.00069399  -0.00285951  1
  Al0+  Al55  1  0.49891597  0.00156439  0.34104637  1
  Al0+  Al56  1  0.49927690  0.00073672  0.66490732  1
  Al0+  Al57  1  0.50033259  0.49996396  0.00611312  1
  Al0+  Al58  1  0.49918161  0.50127593  0.33721235  1
  Al0+  Al59  1  0.50008822  0.50114757  0.66870748  1
  Al0+  Al60  1  0.25000880  0.25338466  0.00421153  1
  Al0+  Al61  1  0.24905273  0.25000775  0.33348119  1
  Al0+  Al62  1  0.24969430  0.25174637  0.66040361  1
  Al0+  Al63  1  0.25064870  0.74980958  0.00134855  1
  Al0+  Al64  1  0.24867963  0.75166074  0.33577919  1
  Al0+  Al65  1  0.25095012  0.75141041  0.66755923  1
  Al0+  Al66  1  0.74780428  0.24911290  -0.00043908  1
  Al0+  Al67  1  0.74879449  0.24808519  0.33556709  1
  Al0+  Al68  1  0.75028594  0.24920181  0.66686840  1
  Al0+  Al69  1  0.75053337  0.74728280  -0.00227168  1
  Al0+  Al70  1  0.74732874  0.74905296  0.33633925  1
  Al0+  Al71  1  0.74829982  0.74696931  0.66255753  1
  Al0+  Al72  1  0.17890134  0.92757596  0.01513984  1
  Al0+  Al73  1  0.31958778  0.57232238  0.34751656  1
  Al0+  Al74  1  0.42762247  0.82331900  0.64981166  1
  Al0+  Al75  1  0.92905056  0.82162258  0.98794135  1
  Al0+  Al76  1  0.67951030  0.42916552  0.01334267  1
  Al0+  Al77  1  0.56915593  0.17973261  0.98654903  1
  Al0+  Al78  1  0.43104530  0.31988544  0.65407459  1
  Al0+  Al79  1  0.31935675  0.07074879  0.34866507  1
  Al0+  Al80  1  0.07120405  0.17845613  0.65139576  1
  Al0+  Al81  1  0.92924353  0.81957598  0.65279921  1
  Al0+  Al82  1  0.68042608  0.43029899  0.68200626  1
  Al0+  Al83  1  0.67928854  0.92996517  0.34687635  1
  Al0+  Al84  1  0.92834235  0.32000709  0.98719946  1
  Al0+  Al85  1  0.32219989  0.07341459  0.01243297  1
  Al0+  Al86  1  0.57029425  0.67867118  0.65065805  1
  Al0+  Al87  1  0.67946692  0.42659594  0.34943842  1
  Al0+  Al88  1  0.31997801  0.57116054  0.68295219  1
  Al0+  Al89  1  0.67706889  0.92593730  0.68302269  1
  Al0+  Al90  1  0.82188270  0.57090488  0.34755330  1
  Al0+  Al91  1  0.43076708  0.82007979  0.98811295  1
  Al0+  Al92  1  0.82229006  0.06809379  0.68089006  1
  Al0+  Al93  1  0.67901579  0.92594971  0.01296070  1
  Al0+  Al94  1  0.92612332  0.32183406  0.64938934  1
  Al0+  Al95  1  0.82147589  0.07124320  0.01449684  1
  Si0+  Si96  1  0.17789599  0.42689855  0.68443518  1
  Si0+  Si97  1  0.42878405  0.32263634  0.31793093  1
  Si0+  Si98  1  0.92896928  0.32014039  0.31785733  1
  Si0+  Si99  1  0.18053492  0.92990293  0.68029049  1
  Si0+  Si100  1  0.07248829  0.67988791  0.31859565  1
  Si0+  Si101  1  0.56984481  0.67859914  0.31612533  1
  Si0+  Si102  1  0.32040009  0.07433468  0.68058014  1
  Si0+  Si103  1  0.42860542  0.82240323  0.31802267  1
  Si0+  Si104  1  0.32034168  0.57043269  0.01569590  1
  Si0+  Si105  1  0.17741372  0.42782506  0.35050550  1
  Si0+  Si106  1  0.57193874  0.67501276  0.98498095  1
  Si0+  Si107  1  0.56924565  0.17843708  0.31846536  1
  Si0+  Si108  1  0.57251729  0.17760805  0.64752631  1
  Si0+  Si109  1  0.82497349  0.57126862  0.01419610  1
  Si0+  Si110  1  0.07421053  0.17909695  0.98574042  1
  Si0+  Si111  1  0.17584665  0.92890026  0.35212368  1
  Si0+  Si112  1  0.07325183  0.67765968  0.64977289  1
  Si0+  Si113  1  0.07262147  0.17878239  0.31433654  1
  Si0+  Si114  1  0.92749708  0.81994724  0.31784661  1
  Si0+  Si115  1  0.17683733  0.43037797  0.01477224  1
  Si0+  Si116  1  0.42606725  0.32528573  0.98577731  1
  Si0+  Si117  1  0.82472906  0.07150240  0.34976262  1
  Si0+  Si118  1  0.07355685  0.67761632  0.98322841  1
  Si0+  Si119  1  0.82552020  0.57179934  0.68484625  1
  O2-  O120  1  0.25141240  0.00019789  0.06338415  1
  O2-  O121  1  0.24356757  -0.00201461  0.39650733  1
  O2-  O122  1  0.25328076  -0.00051835  0.72183190  1
  O2-  O123  1  0.24922228  0.49956555  0.05798028  1
  O2-  O124  1  0.24699435  0.49551508  0.39423302  1
  O2-  O125  1  0.24412443  0.49738738  0.73000932  1
  O2-  O126  1  0.75310259  -0.00451483  0.06435947  1
  O2-  O127  1  0.75830872  0.00041016  0.39224505  1
  O2-  O128  1  0.75149747  -0.00422480  0.73148502  1
  O2-  O129  1  0.75651470  0.50231536  0.05839485  1
  O2-  O130  1  0.75286718  0.49727134  0.39843372  1
  O2-  O131  1  0.75898410  0.50130623  0.72919436  1
  O2-  O132  1  -0.00110331  0.24813466  0.27387149  1
  O2-  O133  1  -0.00180527  0.24915976  0.60016420  1
  O2-  O134  1  0.00114371  0.24273799  0.94196785  1
  O2-  O135  1  -0.00115449  0.74816598  0.27622582  1
  O2-  O136  1  0.00019475  0.74102798  0.60461373  1
  O2-  O137  1  0.00569951  0.74789280  0.94133209  1
  O2-  O138  1  0.50025472  0.25241251  0.27573512  1
  O2-  O139  1  0.50368957  0.24612230  0.60280727  1
  O2-  O140  1  0.49225120  0.25427057  0.94278595  1
  O2-  O141  1  0.49921531  0.75095761  0.27489290  1
  O2-  O142  1  0.50225938  0.75442206  0.59931337  1
  O2-  O143  1  0.50794900  0.74833522  0.94208688  1
  O2-  O144  1  0.07626866  0.18431915  0.09176711  1
  O2-  O145  1  0.07474222  0.17933318  0.41895719  1
  O2-  O146  1  0.07467621  0.17993321  0.76485184  1
  O2-  O147  1  0.07373351  0.67518242  0.08933078  1
  O2-  O148  1  0.07607006  0.68232586  0.42312928  1
  O2-  O149  1  0.07457990  0.67959422  0.75533268  1
  O2-  O150  1  0.56810739  0.18084672  0.10054408  1
  O2-  O151  1  0.56711884  0.17795179  0.42323149  1
  O2-  O152  1  0.57079473  0.17762833  0.75314961  1
  O2-  O153  1  0.56822591  0.67180420  0.09103580  1
  O2-  O154  1  0.56919752  0.67745738  0.42066726  1
  O2-  O155  1  0.56539934  0.67643982  0.76447204  1
  O2-  O156  1  0.17771487  0.42936208  0.24424843  1
  O2-  O157  1  0.18003009  0.42770181  0.57860818  1
  O2-  O158  1  0.17568732  0.43100262  0.91033272  1
  O2-  O159  1  0.17434009  0.92871656  0.24684313  1
  O2-  O160  1  0.18101810  0.92955227  0.57485913  1
  O2-  O161  1  0.17948371  0.92835167  0.90138459  1
  O2-  O162  1  0.68070966  0.42631057  0.23543078  1
  O2-  O163  1  0.68007298  0.43248990  0.56901469  1
  O2-  O164  1  0.67705487  0.43085323  0.90077287  1
  O2-  O165  1  0.67874232  0.93027466  0.23378885  1
  O2-  O166  1  0.67904857  0.92940275  0.56877462  1
  O2-  O167  1  0.67895055  0.92646823  0.90034024  1
  O2-  O168  1  0.42635120  0.32813096  0.09176291  1
  O2-  O169  1  0.42785230  0.32202631  0.42282601  1
  O2-  O170  1  0.43085101  0.31682814  0.76728799  1
  O2-  O171  1  0.43033311  0.81705244  0.10214567  1
  O2-  O172  1  0.42834694  0.82179496  0.42267765  1
  O2-  O173  1  0.42418938  0.82127026  0.76340428  1
  O2-  O174  1  0.93163393  0.32156482  0.10128623  1
  O2-  O175  1  0.93062457  0.31946541  0.42233257  1
  O2-  O176  1  0.92817107  0.32091866  0.76299172  1
  O2-  O177  1  0.92921174  0.81661100  0.10170154  1
  O2-  O178  1  0.92941878  0.82009030  0.42275661  1
  O2-  O179  1  0.93282233  0.82144865  0.76577556  1
  O2-  O180  1  0.32029772  0.06970294  0.23583779  1
  O2-  O181  1  0.31768153  0.07464889  0.57515146  1
  O2-  O182  1  0.31962625  0.07511272  0.89892973  1
  O2-  O183  1  0.31726689  0.57125089  0.23367592  1
  O2-  O184  1  0.31778967  0.57010793  0.56970719  1
  O2-  O185  1  0.32028390  0.56997764  0.91102558  1
  O2-  O186  1  0.82530877  0.07266883  0.24424509  1
  O2-  O187  1  0.82053068  0.06576245  0.56655599  1
  O2-  O188  1  0.82102902  0.07143409  0.90157933  1
  O2-  O189  1  0.82103535  0.57030171  0.23347828  1
  O2-  O190  1  0.82471284  0.57046847  0.57908895  1
  O2-  O191  1  0.82716382  0.57180785  0.90920684  1
  O2-  O192  1  0.04802915  0.08529460  0.26808713  1
  O2-  O193  1  0.04595121  0.08145797  0.59350728  1
  O2-  O194  1  0.05623943  0.08279973  0.94404439  1
  O2-  O195  1  0.04946296  0.58598284  0.27159831  1
  O2-  O196  1  0.05606850  0.58212414  0.60442074  1
  O2-  O197  1  0.04924375  0.58506860  0.93466931  1
  O2-  O198  1  0.53663749  0.08758788  0.27152330  1
  O2-  O199  1  0.54521363  0.08497996  0.60061515  1
  O2-  O200  1  0.53881903  0.08496590  0.92986646  1
  O2-  O201  1  0.53989697  0.58677626  0.26869231  1
  O2-  O202  1  0.53456563  0.58284586  0.59670299  1
  O2-  O203  1  0.53886029  0.58363350  0.93854073  1
  O2-  O204  1  0.16353185  0.20948215  0.26602174  1
  O2-  O205  1  0.16694263  0.21184147  0.59423066  1
  O2-  O206  1  0.16608860  0.21043554  0.93894887  1
  O2-  O207  1  0.16278101  0.71071419  0.26820694  1
  O2-  O208  1  0.16423616  0.71018508  0.60222796  1
  O2-  O209  1  0.16748128  0.70201946  0.93786237  1
  O2-  O210  1  0.66265480  0.20318399  0.27196241  1
  O2-  O211  1  0.66542407  0.20356436  0.60153161  1
  O2-  O212  1  0.66360399  0.21268998  0.93118414  1
  O2-  O213  1  0.66200794  0.70583661  0.26868316  1
  O2-  O214  1  0.66987046  0.69847841  0.59639363  1
  O2-  O215  1  0.66736929  0.69191914  0.94062414  1
  O2-  O216  1  0.08631659  0.46050370  0.06452389  1
  O2-  O217  1  0.08450300  0.45367203  0.39667517  1
  O2-  O218  1  0.08294769  0.45027525  0.72859542  1
  O2-  O219  1  0.08259383  0.95546541  0.07237998  1
  O2-  O220  1  0.08168043  0.95446797  0.39754311  1
  O2-  O221  1  0.08913541  0.96004657  0.72605897  1
  O2-  O222  1  0.58397678  0.46045015  0.07088347  1
  O2-  O223  1  0.58087687  0.45658683  0.39990602  1
  O2-  O224  1  0.58483630  0.46338434  0.73608663  1
  O2-  O225  1  0.58183852  0.95892286  0.06610074  1
  O2-  O226  1  0.58521655  0.96365545  0.40289416  1
  O2-  O227  1  0.57777848  0.95693601  0.73248026  1
  O2-  O228  1  0.20278527  0.33977554  0.06589104  1
  O2-  O229  1  0.20157291  0.33385636  0.39506819  1
  O2-  O230  1  0.20741118  0.33438970  0.73003160  1
  O2-  O231  1  0.20656125  0.82873369  0.06906482  1
  O2-  O232  1  0.20182369  0.83574306  0.39816991  1
  O2-  O233  1  0.20531108  0.83829470  0.72872924  1
  O2-  O234  1  0.71012085  0.33353672  0.06825529  1
  O2-  O235  1  0.70516320  0.32744053  0.40179085  1
  O2-  O236  1  0.70789923  0.33181893  0.73327810  1
  O2-  O237  1  0.70445817  0.82573145  0.06548970  1
  O2-  O238  1  0.70600947  0.83245575  0.39963516  1
  O2-  O239  1  0.70028835  0.82430933  0.72977146  1
  O2-  O240  1  0.45428552  0.41573079  0.27118607  1
  O2-  O241  1  0.46199084  0.41637160  0.60079311  1
  O2-  O242  1  0.45434056  0.41834414  0.94012055  1
  O2-  O243  1  0.45823533  0.91510059  0.27326525  1
  O2-  O244  1  0.45181017  0.92325518  0.59741041  1
  O2-  O245  1  0.45513895  0.91724950  0.93415935  1
  O2-  O246  1  0.95789104  0.41263285  0.27125142  1
  O2-  O247  1  0.95639270  0.42009352  0.59589050  1
  O2-  O248  1  0.96119109  0.41547100  0.93248298  1
  O2-  O249  1  0.95575129  0.91223565  0.27108442  1
  O2-  O250  1  0.96471566  0.91255848  0.59489016  1
  O2-  O251  1  0.96137306  0.91888434  0.93622490  1
  O2-  O252  1  0.33564306  0.29599045  0.27133618  1
  O2-  O253  1  0.33494494  0.29225481  0.59720920  1
  O2-  O254  1  0.33069630  0.30502362  0.94112849  1
  O2-  O255  1  0.33560730  0.79457334  0.27238569  1
  O2-  O256  1  0.32957449  0.79192716  0.59678178  1
  O2-  O257  1  0.33428210  0.78672019  0.93531290  1
  O2-  O258  1  0.83613823  0.29205201  0.27173857  1
  O2-  O259  1  0.82869115  0.29182899  0.59548757  1
  O2-  O260  1  0.83184911  0.29084340  0.93461617  1
  O2-  O261  1  0.83553286  0.79114471  0.27133265  1
  O2-  O262  1  0.83304152  0.78984322  0.59790014  1
  O2-  O263  1  0.83399530  0.78876619  0.93231806  1
  O2-  O264  1  0.41903612  0.04205228  0.06687446  1
  O2-  O265  1  0.41391193  0.04053313  0.40543573  1
  O2-  O266  1  0.41408580  0.05134897  0.72505743  1
  O2-  O267  1  0.41070091  0.54260518  0.06608212  1
  O2-  O268  1  0.41560903  0.54269452  0.40125763  1
  O2-  O269  1  0.41439524  0.53727441  0.73746393  1
  O2-  O270  1  0.92128705  0.04974964  0.06781758  1
  O2-  O271  1  0.91990298  0.04879841  0.39381205  1
  O2-  O272  1  0.92301345  0.04187259  0.72972195  1
  O2-  O273  1  0.91946193  0.54723015  0.06041727  1
  O2-  O274  1  0.92264394  0.54964363  0.39902617  1
  O2-  O275  1  0.92163027  0.55103044  0.72792501  1
  O2-  O276  1  0.29521639  0.17210952  0.06772802  1
  O2-  O277  1  0.28892646  0.16864593  0.40075094  1
  O2-  O278  1  0.28912452  0.16504031  0.72718284  1
  O2-  O279  1  0.29125582  0.66088911  0.06489731  1
  O2-  O280  1  0.28608580  0.66780895  0.40133399  1
  O2-  O281  1  0.28712237  0.66761275  0.73643633  1
  O2-  O282  1  0.78731360  0.16734348  0.06913441  1
  O2-  O283  1  0.79677249  0.16390710  0.39608422  1
  O2-  O284  1  0.79446135  0.16729129  0.73095828  1
  O2-  O285  1  0.79811969  0.66363202  0.06211403  1
  O2-  O286  1  0.79086389  0.66785962  0.40076323  1
  O2-  O287  1  0.79776352  0.66522134  0.72927186  1
