# generated using pymatgen
data_Ca2Al2SiO7
_symmetry_space_group_name_H-M   'P 1'
_cell_length_a   15.47524923
_cell_length_b   15.47001077
_cell_length_c   15.29471867
_cell_angle_alpha   90.00441950
_cell_angle_beta   90.01628659
_cell_angle_gamma   90.00729310
_symmetry_Int_Tables_number   1
_chemical_formula_structural   Ca2Al2SiO7
_chemical_formula_sum   'Ca48 Al48 Si24 O168'
_cell_volume   3661.59021604
_cell_formula_units_Z   24
loop_
 _symmetry_equiv_pos_site_id
 _symmetry_equiv_pos_as_xyz
  1  'x, y, z'
loop_
 _atom_type_symbol
 _atom_type_oxidation_number
  Ca2+  2.0
  Al0+  0.0
  Si0+  0.0
  O2-  -2.0
loop_
 _atom_site_type_symbol
 _atom_site_label
 _atom_site_symmetry_multiplicity
 _atom_site_fract_x
 _atom_site_fract_y
 _atom_site_fract_z
 _atom_site_occupancy
  Ca2+  Ca0  1  0.15155509  0.07353196  0.17111646  1
  Ca2+  Ca1  1  0.16515197  0.07457992  0.50540564  1
  Ca2+  Ca2  1  0.15871615  0.07144515  0.83540673  1
  Ca2+  Ca3  1  0.16304722  0.58585895  0.16804938  1
  Ca2+  Ca4  1  0.16390048  0.57814956  0.51103613  1
  Ca2+  Ca5  1  0.15320899  0.58257477  0.83312034  1
  Ca2+  Ca6  1  0.67609967  0.08104361  0.17606140  1
  Ca2+  Ca7  1  0.67595751  0.08020019  0.50796752  1
  Ca2+  Ca8  1  0.67589826  0.07844889  0.82962611  1
  Ca2+  Ca9  1  0.67384416  0.57822601  0.17491352  1
  Ca2+  Ca10  1  0.67552224  0.58542079  0.50779239  1
  Ca2+  Ca11  1  0.67463441  0.57869974  0.83168853  1
  Ca2+  Ca12  1  0.07482725  0.31910301  0.15815473  1
  Ca2+  Ca13  1  0.07836307  0.32829736  0.49948261  1
  Ca2+  Ca14  1  0.07212217  0.33266353  0.82460283  1
  Ca2+  Ca15  1  0.07409829  0.83546406  0.15921097  1
  Ca2+  Ca16  1  0.07481558  0.84034387  0.49851156  1
  Ca2+  Ca17  1  0.07894058  0.82761840  0.82822145  1
  Ca2+  Ca18  1  0.59023388  0.32722916  0.16330479  1
  Ca2+  Ca19  1  0.58650273  0.32873508  0.49774316  1
  Ca2+  Ca20  1  0.58645468  0.33924732  0.82740441  1
  Ca2+  Ca21  1  0.58651881  0.82385296  0.16535484  1
  Ca2+  Ca22  1  0.59611313  0.82282723  0.50000658  1
  Ca2+  Ca23  1  0.58375943  0.82984847  0.81962320  1
  Ca2+  Ca24  1  0.32917544  0.41766758  0.16905937  1
  Ca2+  Ca25  1  0.32479379  0.41672540  0.50692016  1
  Ca2+  Ca26  1  0.32301809  0.41774003  0.83190609  1
  Ca2+  Ca27  1  0.31671242  0.91567674  0.17131795  1
  Ca2+  Ca28  1  0.32031615  0.92069895  0.50867262  1
  Ca2+  Ca29  1  0.32036588  0.91810708  0.83357462  1
  Ca2+  Ca30  1  0.83584026  0.42163040  0.16891854  1
  Ca2+  Ca31  1  0.83266961  0.42967788  0.51193719  1
  Ca2+  Ca32  1  0.83126779  0.41652688  0.83500226  1
  Ca2+  Ca33  1  0.84243650  0.91981252  0.17395910  1
  Ca2+  Ca34  1  0.83762829  0.92602350  0.50682991  1
  Ca2+  Ca35  1  0.83948453  0.91432394  0.83042164  1
  Ca2+  Ca36  1  0.42610680  0.16290910  0.16716087  1
  Ca2+  Ca37  1  0.42153632  0.16253917  0.49697365  1
  Ca2+  Ca38  1  0.41660583  0.16412239  0.82622581  1
  Ca2+  Ca39  1  0.42298580  0.66553554  0.16572170  1
  Ca2+  Ca40  1  0.43083099  0.66640580  0.49749102  1
  Ca2+  Ca41  1  0.42587395  0.66684359  0.82554217  1
  Ca2+  Ca42  1  0.92471347  0.16453095  0.16217317  1
  Ca2+  Ca43  1  0.91107482  0.17044656  0.49618780  1
  Ca2+  Ca44  1  0.91604089  0.17593465  0.83082626  1
  Ca2+  Ca45  1  0.91701039  0.67856432  0.16260366  1
  Ca2+  Ca46  1  0.91130355  0.67726881  0.49910881  1
  Ca2+  Ca47  1  0.92098356  0.67659060  0.82294110  1
  Al0+  Al48  1  -0.00065782  0.00009228  -0.00394484  1
  Al0+  Al49  1  -0.00185857  0.00066829  0.33585354  1
  Al0+  Al50  1  0.00179679  0.00151893  0.67270049  1
  Al0+  Al51  1  -0.00085528  0.49939332  -0.00064028  1
  Al0+  Al52  1  -0.00015861  0.50079760  0.33793154  1
  Al0+  Al53  1  -0.00047237  0.49975508  0.66707242  1
  Al0+  Al54  1  0.50017596  -0.00079909  0.00149236  1
  Al0+  Al55  1  0.49779063  -0.00080124  0.32679786  1
  Al0+  Al56  1  0.49971870  0.00071514  0.67198569  1
  Al0+  Al57  1  0.50044068  0.49767140  0.00539244  1
  Al0+  Al58  1  0.49809798  0.50022036  0.32841892  1
  Al0+  Al59  1  0.49907708  0.49965641  0.66370040  1
  Al0+  Al60  1  0.25444145  0.24908360  -0.00116891  1
  Al0+  Al61  1  0.24983724  0.24932431  0.32786716  1
  Al0+  Al62  1  0.25107087  0.25292872  0.67278518  1
  Al0+  Al63  1  0.25211145  0.75083970  0.00210108  1
  Al0+  Al64  1  0.25035204  0.74899582  0.33928483  1
  Al0+  Al65  1  0.25282790  0.75011277  0.66623056  1
  Al0+  Al66  1  0.74874378  0.24785018  0.00131650  1
  Al0+  Al67  1  0.74839181  0.25125461  0.33110173  1
  Al0+  Al68  1  0.74897601  0.24967977  0.66878817  1
  Al0+  Al69  1  0.74922767  0.74853362  -0.00313273  1
  Al0+  Al70  1  0.75015768  0.74881269  0.32578875  1
  Al0+  Al71  1  0.75108908  0.74986033  0.66629834  1
  Al0+  Al72  1  0.07277949  0.67893906  0.65019528  1
  Al0+  Al73  1  0.93125614  0.82022014  0.32050168  1
  Al0+  Al74  1  0.92674607  0.31941621  0.65184777  1
  Al0+  Al75  1  0.06935764  0.18012766  0.32209925  1
  Al0+  Al76  1  0.17856859  0.92744256  0.68365038  1
  Al0+  Al77  1  0.92739727  0.31994043  0.98587813  1
  Al0+  Al78  1  0.67976215  0.42905507  0.01602134  1
  Al0+  Al79  1  0.32117409  0.07234936  0.68073179  1
  Al0+  Al80  1  0.17790774  0.92972976  0.34733341  1
  Al0+  Al81  1  0.68103009  0.92860666  0.67929331  1
  Al0+  Al82  1  0.82050579  0.57156884  0.34701572  1
  Al0+  Al83  1  0.07384208  0.67956350  0.98736750  1
  Al0+  Al84  1  0.82312600  0.07306940  0.68309890  1
  Al0+  Al85  1  0.67786488  0.42932049  0.67913617  1
  Al0+  Al86  1  0.82209342  0.57204085  0.68271756  1
  Al0+  Al87  1  0.57040751  0.67975804  0.31755510  1
  Al0+  Al88  1  0.17821120  0.43141382  0.67995873  1
  Al0+  Al89  1  0.57078068  0.67893459  0.65366872  1
  Al0+  Al90  1  0.92724485  0.82069197  0.98359761  1
  Al0+  Al91  1  0.17985214  0.93129067  0.01560073  1
  Al0+  Al92  1  0.57193735  0.17874094  0.32021803  1
  Al0+  Al93  1  0.93059682  0.82310756  0.64922798  1
  Al0+  Al94  1  0.07325312  0.17841569  0.98337904  1
  Al0+  Al95  1  0.81930027  0.07138176  0.34557122  1
  Si0+  Si96  1  0.32542727  0.07285207  0.02021121  1
  Si0+  Si97  1  0.67544788  0.92767997  0.34601206  1
  Si0+  Si98  1  0.42726898  0.32158833  0.31483940  1
  Si0+  Si99  1  0.07423850  0.67579550  0.31877390  1
  Si0+  Si100  1  0.82228465  0.57320753  0.01831925  1
  Si0+  Si101  1  0.42778577  0.32129376  0.65158892  1
  Si0+  Si102  1  0.32325743  0.57161298  0.68202562  1
  Si0+  Si103  1  0.42939855  0.82452076  0.64931637  1
  Si0+  Si104  1  0.42428262  0.82089014  0.31571636  1
  Si0+  Si105  1  0.43075157  0.82044885  0.98541801  1
  Si0+  Si106  1  0.81817255  0.06813544  0.01559695  1
  Si0+  Si107  1  0.18041116  0.42774257  0.34653999  1
  Si0+  Si108  1  0.32220354  0.57029059  0.34907677  1
  Si0+  Si109  1  0.17807007  0.42726150  0.01568781  1
  Si0+  Si110  1  0.43086955  0.32226577  0.98343246  1
  Si0+  Si111  1  0.67605706  0.42886408  0.34944230  1
  Si0+  Si112  1  0.32171730  0.56939535  0.01570399  1
  Si0+  Si113  1  0.07415366  0.18058696  0.65114696  1
  Si0+  Si114  1  0.56966646  0.17824776  0.65293854  1
  Si0+  Si115  1  0.32324965  0.07267322  0.34813811  1
  Si0+  Si116  1  0.67620321  0.92643693  0.01581839  1
  Si0+  Si117  1  0.56934076  0.67694782  0.98488375  1
  Si0+  Si118  1  0.92766192  0.32508314  0.31801005  1
  Si0+  Si119  1  0.57000188  0.17791083  0.98337369  1
  O2-  O120  1  0.25101628  0.01032166  0.06352061  1
  O2-  O121  1  0.25466039  0.00435780  0.39128499  1
  O2-  O122  1  0.24861740  0.00281502  0.73224420  1
  O2-  O123  1  0.24630169  0.50215811  0.05774180  1
  O2-  O124  1  0.24880959  0.50136720  0.38933604  1
  O2-  O125  1  0.24823603  0.51092669  0.72708066  1
  O2-  O126  1  0.75099345  -0.00706740  0.05806733  1
  O2-  O127  1  0.74049317  -0.00048542  0.38941184  1
  O2-  O128  1  0.75551353  -0.00404988  0.73229125  1
  O2-  O129  1  0.75510756  0.50246326  0.06279290  1
  O2-  O130  1  0.74568930  0.49594870  0.39261206  1
  O2-  O131  1  0.75134167  0.49763995  0.73135168  1
  O2-  O132  1  -0.00596422  0.25407892  0.27461919  1
  O2-  O133  1  0.00057975  0.24327227  0.60551979  1
  O2-  O134  1  0.00497662  0.25449719  0.93516882  1
  O2-  O135  1  0.00711789  0.74556733  0.27512156  1
  O2-  O136  1  0.00351609  0.75206552  0.59834347  1
  O2-  O137  1  -0.00062657  0.74752917  0.93668498  1
  O2-  O138  1  0.49808658  0.25433717  0.27176194  1
  O2-  O139  1  0.49863890  0.24980358  0.61089024  1
  O2-  O140  1  0.49940650  0.24927334  0.94132610  1
  O2-  O141  1  0.49595688  0.75520716  0.27057801  1
  O2-  O142  1  0.49962419  0.75709525  0.60571033  1
  O2-  O143  1  0.50341803  0.75197102  0.94204785  1
  O2-  O144  1  0.06870266  0.17836411  0.09763918  1
  O2-  O145  1  0.07304169  0.18371848  0.43462482  1
  O2-  O146  1  0.07627780  0.18564459  0.75646158  1
  O2-  O147  1  0.07433048  0.68203172  0.10162483  1
  O2-  O148  1  0.07514354  0.67305713  0.42346415  1
  O2-  O149  1  0.07120678  0.68067435  0.76373557  1
  O2-  O150  1  0.56880528  0.17822220  0.08873923  1
  O2-  O151  1  0.56957727  0.17951773  0.43307072  1
  O2-  O152  1  0.56791821  0.17844854  0.75821354  1
  O2-  O153  1  0.56690883  0.67769905  0.09023187  1
  O2-  O154  1  0.56903568  0.67914908  0.43009573  1
  O2-  O155  1  0.56588692  0.67747290  0.76723841  1
  O2-  O156  1  0.18287936  0.42839600  0.24114293  1
  O2-  O157  1  0.18366651  0.42769328  0.56634132  1
  O2-  O158  1  0.18149404  0.42648011  0.91114810  1
  O2-  O159  1  0.17892036  0.92965214  0.23393460  1
  O2-  O160  1  0.18046019  0.92948715  0.56977222  1
  O2-  O161  1  0.18467225  0.92959777  0.90354713  1
  O2-  O162  1  0.67627499  0.42965264  0.24347973  1
  O2-  O163  1  0.67626385  0.43009094  0.56544588  1
  O2-  O164  1  0.67536667  0.43245484  0.90381759  1
  O2-  O165  1  0.67629166  0.92865876  0.23970177  1
  O2-  O166  1  0.67763107  0.93261808  0.56556395  1
  O2-  O167  1  0.67021430  0.92888477  0.91160146  1
  O2-  O168  1  0.43067713  0.32372265  0.08862418  1
  O2-  O169  1  0.42465659  0.32258772  0.42012539  1
  O2-  O170  1  0.42795306  0.32330264  0.75671149  1
  O2-  O171  1  0.43175300  0.81786903  0.09069273  1
  O2-  O172  1  0.42236118  0.81892567  0.42067220  1
  O2-  O173  1  0.43051526  0.82223776  0.75542002  1
  O2-  O174  1  0.92843131  0.31813427  0.10021534  1
  O2-  O175  1  0.92938807  0.32612702  0.42329112  1
  O2-  O176  1  0.92760409  0.31869180  0.76481879  1
  O2-  O177  1  0.92740682  0.82113275  0.09780176  1
  O2-  O178  1  0.92983539  0.82242003  0.43257263  1
  O2-  O179  1  0.93072090  0.82023620  0.76250181  1
  O2-  O180  1  0.32530265  0.07212298  0.24263151  1
  O2-  O181  1  0.32180058  0.07175256  0.56662669  1
  O2-  O182  1  0.33201313  0.06970190  0.91550657  1
  O2-  O183  1  0.32337498  0.56923702  0.24352010  1
  O2-  O184  1  0.32654012  0.56586942  0.57634790  1
  O2-  O185  1  0.32814441  0.56659811  0.91138314  1
  O2-  O186  1  0.81956048  0.06934303  0.23187908  1
  O2-  O187  1  0.81779876  0.07559299  0.56929890  1
  O2-  O188  1  0.81397124  0.07063197  0.91116498  1
  O2-  O189  1  0.81951996  0.56996319  0.23349653  1
  O2-  O190  1  0.81858021  0.57215015  0.56880361  1
  O2-  O191  1  0.81938962  0.57550874  0.91351688  1
  O2-  O192  1  0.03507747  0.08521691  0.26750755  1
  O2-  O193  1  0.05507287  0.08409513  0.61023025  1
  O2-  O194  1  0.04030761  0.08262210  0.93055132  1
  O2-  O195  1  0.04851856  0.58182159  0.27218341  1
  O2-  O196  1  0.04640839  0.57889284  0.59979789  1
  O2-  O197  1  0.05182416  0.57790361  0.93959298  1
  O2-  O198  1  0.54091602  0.08300446  0.26254776  1
  O2-  O199  1  0.54016589  0.08736373  0.60498407  1
  O2-  O200  1  0.54117491  0.08571056  0.93767449  1
  O2-  O201  1  0.53593026  0.58411211  0.26229211  1
  O2-  O202  1  0.53448199  0.58477369  0.59761144  1
  O2-  O203  1  0.53468115  0.58644396  0.94039091  1
  O2-  O204  1  0.16544962  0.20948212  0.26490803  1
  O2-  O205  1  0.16626105  0.21305137  0.60533153  1
  O2-  O206  1  0.17587359  0.19969743  0.93682692  1
  O2-  O207  1  0.16987850  0.69827960  0.27478283  1
  O2-  O208  1  0.17555235  0.69995716  0.60136697  1
  O2-  O209  1  0.17351209  0.70594245  0.93570719  1
  O2-  O210  1  0.66690136  0.21021160  0.26193806  1
  O2-  O211  1  0.66031403  0.20662156  0.60482982  1
  O2-  O212  1  0.66124878  0.20564565  0.93692489  1
  O2-  O213  1  0.66438498  0.71052805  0.25885960  1
  O2-  O214  1  0.66667654  0.70847116  0.59898577  1
  O2-  O215  1  0.66225518  0.69956167  0.93929520  1
  O2-  O216  1  0.08576032  0.45076462  0.06426522  1
  O2-  O217  1  0.08841155  0.45197779  0.39417280  1
  O2-  O218  1  0.08223085  0.45748935  0.73537805  1
  O2-  O219  1  0.08120087  0.96117084  0.06700630  1
  O2-  O220  1  0.08399285  0.96452156  0.40194046  1
  O2-  O221  1  0.08164770  0.95467605  0.73831862  1
  O2-  O222  1  0.58331184  0.45985382  0.07210373  1
  O2-  O223  1  0.58070989  0.45372669  0.39185979  1
  O2-  O224  1  0.57892767  0.45861271  0.73158222  1
  O2-  O225  1  0.58625121  0.95758939  0.06609522  1
  O2-  O226  1  0.57935408  0.94808643  0.38850146  1
  O2-  O227  1  0.58399267  0.95960131  0.73478072  1
  O2-  O228  1  0.21269500  0.33722647  0.06371150  1
  O2-  O229  1  0.21284472  0.33727556  0.39347806  1
  O2-  O230  1  0.21619801  0.33946105  0.73759268  1
  O2-  O231  1  0.21672374  0.83571062  0.06962249  1
  O2-  O232  1  0.20839017  0.83302780  0.40112343  1
  O2-  O233  1  0.21307894  0.83012441  0.73551979  1
  O2-  O234  1  0.70803055  0.33047200  0.06853967  1
  O2-  O235  1  0.69776703  0.33378731  0.39295851  1
  O2-  O236  1  0.70137899  0.33042108  0.73227270  1
  O2-  O237  1  0.69927442  0.83194521  0.06063132  1
  O2-  O238  1  0.70353892  0.83407044  0.38867014  1
  O2-  O239  1  0.70312674  0.82951555  0.73252098  1
  O2-  O240  1  0.45051091  0.41524868  0.26723187  1
  O2-  O241  1  0.45521284  0.41155274  0.60098906  1
  O2-  O242  1  0.46105996  0.41346554  0.93654838  1
  O2-  O243  1  0.44483810  0.91509128  0.26843627  1
  O2-  O244  1  0.45315548  0.91893534  0.60488476  1
  O2-  O245  1  0.45694927  0.91312725  0.93963891  1
  O2-  O246  1  0.95745262  0.41724294  0.27074241  1
  O2-  O247  1  0.95990162  0.41543700  0.59902590  1
  O2-  O248  1  0.94959344  0.42065823  0.93639431  1
  O2-  O249  1  0.96278546  0.91651032  0.26639765  1
  O2-  O250  1  0.95816149  0.92449801  0.60075050  1
  O2-  O251  1  0.95443443  0.91889960  0.93244088  1
  O2-  O252  1  0.33581219  0.29411125  0.26472875  1
  O2-  O253  1  0.33658592  0.29339371  0.60278407  1
  O2-  O254  1  0.33874264  0.29742556  0.93553915  1
  O2-  O255  1  0.33281247  0.78877200  0.26790952  1
  O2-  O256  1  0.33734650  0.79689542  0.60205790  1
  O2-  O257  1  0.34078515  0.78971402  0.93756224  1
  O2-  O258  1  0.83260848  0.30390054  0.27349562  1
  O2-  O259  1  0.82963397  0.28951318  0.59795560  1
  O2-  O260  1  0.83021333  0.28598057  0.93399964  1
  O2-  O261  1  0.83578084  0.78984677  0.26324821  1
  O2-  O262  1  0.83114704  0.79469723  0.59838882  1
  O2-  O263  1  0.82737663  0.79449035  0.93196354  1
  O2-  O264  1  0.41689361  0.04036025  0.06890513  1
  O2-  O265  1  0.41740141  0.04716692  0.39358143  1
  O2-  O266  1  0.41820079  0.04384574  0.73674866  1
  O2-  O267  1  0.40997341  0.53567926  0.06785981  1
  O2-  O268  1  0.41303193  0.53895990  0.39645668  1
  O2-  O269  1  0.41255422  0.53701064  0.73127272  1
  O2-  O270  1  0.91151184  0.04340697  0.06101290  1
  O2-  O271  1  0.91344050  0.03983064  0.40166215  1
  O2-  O272  1  0.92246339  0.05263411  0.73565603  1
  O2-  O273  1  0.91651298  0.54895057  0.06443896  1
  O2-  O274  1  0.91726759  0.54316019  0.40153985  1
  O2-  O275  1  0.91999631  0.54457442  0.73474954  1
  O2-  O276  1  0.30936384  0.17014430  0.06290003  1
  O2-  O277  1  0.29950147  0.16787426  0.39159161  1
  O2-  O278  1  0.29893596  0.17187123  0.73403228  1
  O2-  O279  1  0.29847471  0.66195467  0.06413781  1
  O2-  O280  1  0.29984011  0.66215988  0.39756699  1
  O2-  O281  1  0.30901623  0.66785289  0.72559094  1
  O2-  O282  1  0.78558695  0.15764677  0.06482918  1
  O2-  O283  1  0.79038292  0.16985402  0.39699752  1
  O2-  O284  1  0.78544244  0.16728020  0.73812629  1
  O2-  O285  1  0.79199503  0.66599894  0.06493996  1
  O2-  O286  1  0.78591651  0.66824417  0.39766882  1
  O2-  O287  1  0.78960855  0.66825951  0.73610837  1
