# generated using pymatgen
data_Ca2Al2SiO7
_symmetry_space_group_name_H-M   'P 1'
_cell_length_a   15.46368847
_cell_length_b   15.46418386
_cell_length_c   15.28743731
_cell_angle_alpha   89.98691971
_cell_angle_beta   90.00243025
_cell_angle_gamma   90.01772369
_symmetry_Int_Tables_number   1
_chemical_formula_structural   Ca2Al2SiO7
_chemical_formula_sum   'Ca48 Al48 Si24 O168'
_cell_volume   3655.73538768
_cell_formula_units_Z   24
loop_
 _symmetry_equiv_pos_site_id
 _symmetry_equiv_pos_as_xyz
  1  'x, y, z'
loop_
 _atom_type_symbol
 _atom_type_oxidation_number
  Ca2+  2.0
  Al0+  0.0
  Si0+  0.0
  O2-  -2.0
loop_
 _atom_site_type_symbol
 _atom_site_label
 _atom_site_symmetry_multiplicity
 _atom_site_fract_x
 _atom_site_fract_y
 _atom_site_fract_z
 _atom_site_occupancy
  Ca2+  Ca0  1  0.16365048  0.07209602  0.16999932  1
  Ca2+  Ca1  1  0.16378288  0.07978279  0.50972407  1
  Ca2+  Ca2  1  0.17034480  0.07918133  0.83612077  1
  Ca2+  Ca3  1  0.17845477  0.59377070  0.16780074  1
  Ca2+  Ca4  1  0.17775480  0.57538415  0.50995800  1
  Ca2+  Ca5  1  0.17165618  0.57994261  0.83811384  1
  Ca2+  Ca6  1  0.66109466  0.08111926  0.16660628  1
  Ca2+  Ca7  1  0.67212548  0.08129168  0.50956954  1
  Ca2+  Ca8  1  0.66910207  0.07431018  0.83871971  1
  Ca2+  Ca9  1  0.67225306  0.58964803  0.16298600  1
  Ca2+  Ca10  1  0.67423006  0.57905440  0.51019149  1
  Ca2+  Ca11  1  0.67795202  0.58600923  0.83866522  1
  Ca2+  Ca12  1  0.08761573  0.32591518  0.16543020  1
  Ca2+  Ca13  1  0.08663170  0.32358602  0.50493208  1
  Ca2+  Ca14  1  0.08326169  0.32786721  0.82017187  1
  Ca2+  Ca15  1  0.08062002  0.83283009  0.15571485  1
  Ca2+  Ca16  1  0.07828139  0.84499919  0.49979691  1
  Ca2+  Ca17  1  0.07809280  0.83584605  0.82905521  1
  Ca2+  Ca18  1  0.58255981  0.32056760  0.16030023  1
  Ca2+  Ca19  1  0.57599707  0.32756191  0.49762522  1
  Ca2+  Ca20  1  0.57495522  0.32745855  0.82900090  1
  Ca2+  Ca21  1  0.57942880  0.82894608  0.15346318  1
  Ca2+  Ca22  1  0.58103848  0.83596790  0.50081499  1
  Ca2+  Ca23  1  0.58854221  0.83211413  0.83134793  1
  Ca2+  Ca24  1  0.33686841  0.42945777  0.16692947  1
  Ca2+  Ca25  1  0.33240117  0.42262790  0.51092088  1
  Ca2+  Ca26  1  0.33206717  0.42056169  0.83157955  1
  Ca2+  Ca27  1  0.32101842  0.91740434  0.16594330  1
  Ca2+  Ca28  1  0.31896042  0.92470147  0.50875010  1
  Ca2+  Ca29  1  0.32192099  0.92651117  0.83705583  1
  Ca2+  Ca30  1  0.83516907  0.42426956  0.16621642  1
  Ca2+  Ca31  1  0.83566317  0.42048359  0.51006206  1
  Ca2+  Ca32  1  0.84542702  0.42923154  0.83483421  1
  Ca2+  Ca33  1  0.82820237  0.91004721  0.16213332  1
  Ca2+  Ca34  1  0.82716320  0.92280293  0.51416569  1
  Ca2+  Ca35  1  0.82902141  0.91309886  0.83335547  1
  Ca2+  Ca36  1  0.42528783  0.16050622  0.15835291  1
  Ca2+  Ca37  1  0.41505686  0.16979415  0.49968706  1
  Ca2+  Ca38  1  0.41646880  0.16218084  0.82623034  1
  Ca2+  Ca39  1  0.41917605  0.66479728  0.15725834  1
  Ca2+  Ca40  1  0.41124300  0.66464229  0.49761914  1
  Ca2+  Ca41  1  0.42114737  0.65830272  0.82992527  1
  Ca2+  Ca42  1  0.92286330  0.16720816  0.16474765  1
  Ca2+  Ca43  1  0.92902515  0.15970742  0.50304913  1
  Ca2+  Ca44  1  0.92226355  0.17130148  0.82034947  1
  Ca2+  Ca45  1  0.92569744  0.67348813  0.15079081  1
  Ca2+  Ca46  1  0.91677632  0.67144924  0.50326519  1
  Ca2+  Ca47  1  0.91540874  0.67512714  0.82998662  1
  Al0+  Al48  1  -0.00226049  0.00183446  -0.00036866  1
  Al0+  Al49  1  -0.00338060  0.00091250  0.33018837  1
  Al0+  Al50  1  -0.00320749  -0.00122878  0.66592191  1
  Al0+  Al51  1  0.00098494  0.50011834  0.00478157  1
  Al0+  Al52  1  0.00115966  0.50143886  0.33348627  1
  Al0+  Al53  1  0.00156648  0.50074934  0.66855251  1
  Al0+  Al54  1  0.50147518  -0.00112755  0.00235615  1
  Al0+  Al55  1  0.49781196  -0.00197593  0.32915796  1
  Al0+  Al56  1  0.49912296  -0.00425271  0.67031718  1
  Al0+  Al57  1  0.50071183  0.49789666  -0.00000604  1
  Al0+  Al58  1  0.50283455  0.50043840  0.33585122  1
  Al0+  Al59  1  0.50279261  0.49831586  0.66383869  1
  Al0+  Al60  1  0.25165078  0.25150485  0.00535501  1
  Al0+  Al61  1  0.25005750  0.25154437  0.32537206  1
  Al0+  Al62  1  0.25210289  0.25169121  0.66378871  1
  Al0+  Al63  1  0.25016845  0.74996802  0.00279178  1
  Al0+  Al64  1  0.24901745  0.75148915  0.34239359  1
  Al0+  Al65  1  0.25247329  0.74987005  0.67229329  1
  Al0+  Al66  1  0.74878681  0.24958645  -0.00409182  1
  Al0+  Al67  1  0.74923937  0.25133252  0.32899260  1
  Al0+  Al68  1  0.74904026  0.25056454  0.66644449  1
  Al0+  Al69  1  0.74982452  0.74994062  0.00165707  1
  Al0+  Al70  1  0.74955783  0.75053089  0.33446580  1
  Al0+  Al71  1  0.75091410  0.74772936  0.66644443  1
  Al0+  Al72  1  0.56982354  0.17881158  0.31979795  1
  Al0+  Al73  1  0.32153860  0.56977434  0.01317565  1
  Al0+  Al74  1  0.07092729  0.17845823  0.65378610  1
  Al0+  Al75  1  0.17999335  0.42912169  0.68077587  1
  Al0+  Al76  1  0.82161081  0.56892184  0.67961036  1
  Al0+  Al77  1  0.17628505  0.93057739  0.01490162  1
  Al0+  Al78  1  0.67859012  0.92779988  0.68104422  1
  Al0+  Al79  1  0.07041342  0.17851429  0.31758722  1
  Al0+  Al80  1  0.32429583  0.57103468  0.68261533  1
  Al0+  Al81  1  0.32054684  0.07238246  0.67859212  1
  Al0+  Al82  1  0.17700380  0.93210870  0.34805334  1
  Al0+  Al83  1  0.82038964  0.07328452  0.68122495  1
  Al0+  Al84  1  0.57010006  0.17690735  0.98364801  1
  Al0+  Al85  1  0.07426100  0.67783409  0.98476624  1
  Al0+  Al86  1  0.82102983  0.57054581  0.01490298  1
  Al0+  Al87  1  0.92940697  0.82185262  0.98359923  1
  Al0+  Al88  1  0.17573054  0.92883739  0.68179074  1
  Al0+  Al89  1  0.43069453  0.32052799  0.65257882  1
  Al0+  Al90  1  0.92736266  0.32424828  0.65270870  1
  Al0+  Al91  1  0.56964471  0.67805608  0.98594742  1
  Al0+  Al92  1  0.32153442  0.07251500  0.01628753  1
  Al0+  Al93  1  0.92931258  0.81871749  0.65120890  1
  Al0+  Al94  1  0.32157931  0.56969078  0.34776074  1
  Al0+  Al95  1  0.68110206  0.92952047  0.01481946  1
  Si0+  Si96  1  0.07065153  0.67972436  0.32057540  1
  Si0+  Si97  1  0.57084974  0.17406164  0.65099535  1
  Si0+  Si98  1  0.42904317  0.32478128  0.31460740  1
  Si0+  Si99  1  0.82083500  0.07568451  0.01854476  1
  Si0+  Si100  1  0.68148067  0.42835892  0.34836674  1
  Si0+  Si101  1  0.92874295  0.32122943  0.98686200  1
  Si0+  Si102  1  0.92787144  0.32464127  0.31539293  1
  Si0+  Si103  1  0.42763625  0.81846888  0.31868385  1
  Si0+  Si104  1  0.42776765  0.82105961  0.65071241  1
  Si0+  Si105  1  0.67837270  0.42678920  0.01723732  1
  Si0+  Si106  1  0.92713627  0.82035092  0.31781685  1
  Si0+  Si107  1  0.07155825  0.18098978  0.98622574  1
  Si0+  Si108  1  0.67731435  0.92806815  0.34739075  1
  Si0+  Si109  1  0.57239249  0.67911671  0.31861267  1
  Si0+  Si110  1  0.42776662  0.82152980  0.98247080  1
  Si0+  Si111  1  0.17678136  0.42762441  0.01959954  1
  Si0+  Si112  1  0.81807528  0.07203653  0.34656976  1
  Si0+  Si113  1  0.17725026  0.42624615  0.35029880  1
  Si0+  Si114  1  0.07541562  0.67858802  0.64927430  1
  Si0+  Si115  1  0.82150006  0.57214382  0.34855886  1
  Si0+  Si116  1  0.32302459  0.07271867  0.34818610  1
  Si0+  Si117  1  0.67744336  0.42696433  0.68331139  1
  Si0+  Si118  1  0.57079766  0.67938174  0.65040237  1
  Si0+  Si119  1  0.42784832  0.32144557  0.98318184  1
  O2-  O120  1  0.24761727  0.00268881  0.06676231  1
  O2-  O121  1  0.24844219  0.01105744  0.39248090  1
  O2-  O122  1  0.24533351  0.00434653  0.72871387  1
  O2-  O123  1  0.24345182  0.49955812  0.06216065  1
  O2-  O124  1  0.24927436  0.49234116  0.39272921  1
  O2-  O125  1  0.24972955  0.50232802  0.73190297  1
  O2-  O126  1  0.75372213  0.00546445  0.06358795  1
  O2-  O127  1  0.74536006  0.00201821  0.38800155  1
  O2-  O128  1  0.74775023  0.00211282  0.73062227  1
  O2-  O129  1  0.74644767  0.49579392  0.06296278  1
  O2-  O130  1  0.75241122  0.49947708  0.39083030  1
  O2-  O131  1  0.75234214  0.48909817  0.72613702  1
  O2-  O132  1  -0.00231686  0.25673190  0.27160369  1
  O2-  O133  1  -0.00316271  0.24952765  0.60312416  1
  O2-  O134  1  0.00115804  0.25246358  0.94499468  1
  O2-  O135  1  -0.00101624  0.74971119  0.27736362  1
  O2-  O136  1  0.00868092  0.74905324  0.60301332  1
  O2-  O137  1  0.00392824  0.75148003  0.93510297  1
  O2-  O138  1  0.49261027  0.25073482  0.27148292  1
  O2-  O139  1  0.50254379  0.24262733  0.60579253  1
  O2-  O140  1  0.49133994  0.24782698  0.93938434  1
  O2-  O141  1  0.49917065  0.74744526  0.27638820  1
  O2-  O142  1  0.49787073  0.74822847  0.60777723  1
  O2-  O143  1  0.49369966  0.75007163  0.93783076  1
  O2-  O144  1  0.06909875  0.18197176  0.09189124  1
  O2-  O145  1  0.06854427  0.17649674  0.42980273  1
  O2-  O146  1  0.07096473  0.18056314  0.76753979  1
  O2-  O147  1  0.07208835  0.67920593  0.09985869  1
  O2-  O148  1  0.06786116  0.67742833  0.42523481  1
  O2-  O149  1  0.07375628  0.67813445  0.75430405  1
  O2-  O150  1  0.57082581  0.18048750  0.09747050  1
  O2-  O151  1  0.57144630  0.18100823  0.43267376  1
  O2-  O152  1  0.56966689  0.17500348  0.75627309  1
  O2-  O153  1  0.56850402  0.68017319  0.10016503  1
  O2-  O154  1  0.57614004  0.68054115  0.42353352  1
  O2-  O155  1  0.57166535  0.67889533  0.75509767  1
  O2-  O156  1  0.17533139  0.42840010  0.24465085  1
  O2-  O157  1  0.18203849  0.43008560  0.56655689  1
  O2-  O158  1  0.17611104  0.42430947  0.91469914  1
  O2-  O159  1  0.17831433  0.92918485  0.23533448  1
  O2-  O160  1  0.17853372  0.93079013  0.56744678  1
  O2-  O161  1  0.17579981  0.93342526  0.90218262  1
  O2-  O162  1  0.68194658  0.42879435  0.24344268  1
  O2-  O163  1  0.67499634  0.43146090  0.57690575  1
  O2-  O164  1  0.67886137  0.42669535  0.91217719  1
  O2-  O165  1  0.67916853  0.92421115  0.24275182  1
  O2-  O166  1  0.67859940  0.92908622  0.56602722  1
  O2-  O167  1  0.68198632  0.92946832  0.90263871  1
  O2-  O168  1  0.43177191  0.32422189  0.08916419  1
  O2-  O169  1  0.43176458  0.32677772  0.41996510  1
  O2-  O170  1  0.43462517  0.32351146  0.76524389  1
  O2-  O171  1  0.43011778  0.81948240  0.08918352  1
  O2-  O172  1  0.43041699  0.81900155  0.42372025  1
  O2-  O173  1  0.42858077  0.82241000  0.75514527  1
  O2-  O174  1  0.92840349  0.31948717  0.09262186  1
  O2-  O175  1  0.92551934  0.32654496  0.42004007  1
  O2-  O176  1  0.93086557  0.32411174  0.76659796  1
  O2-  O177  1  0.92922506  0.81896523  0.09862037  1
  O2-  O178  1  0.92380839  0.81938669  0.42261553  1
  O2-  O179  1  0.92528337  0.81554237  0.76321639  1
  O2-  O180  1  0.32581867  0.06725443  0.24304385  1
  O2-  O181  1  0.32273671  0.06922774  0.56428181  1
  O2-  O182  1  0.31878602  0.07302050  0.90316298  1
  O2-  O183  1  0.32209563  0.57078566  0.23458050  1
  O2-  O184  1  0.32368074  0.56854410  0.56835597  1
  O2-  O185  1  0.32497968  0.56426469  0.90129829  1
  O2-  O186  1  0.81862807  0.07149355  0.24149459  1
  O2-  O187  1  0.81836862  0.07084259  0.56629296  1
  O2-  O188  1  0.81963046  0.07971038  0.91388332  1
  O2-  O189  1  0.81976059  0.57323141  0.24372374  1
  O2-  O190  1  0.81690904  0.57043002  0.56545523  1
  O2-  O191  1  0.82032961  0.56898248  0.90242245  1
  O2-  O192  1  0.03281440  0.08444695  0.26148861  1
  O2-  O193  1  0.04009538  0.08116701  0.59894186  1
  O2-  O194  1  0.04334099  0.08983662  0.93981879  1
  O2-  O195  1  0.04502844  0.58774728  0.27165350  1
  O2-  O196  1  0.04610697  0.58621117  0.60218961  1
  O2-  O197  1  0.04495366  0.57780986  0.93649873  1
  O2-  O198  1  0.54191949  0.08070207  0.26587685  1
  O2-  O199  1  0.54581313  0.08002232  0.60495430  1
  O2-  O200  1  0.54378628  0.07858233  0.93259317  1
  O2-  O201  1  0.54858804  0.58576427  0.27240531  1
  O2-  O202  1  0.54554352  0.58745899  0.60106385  1
  O2-  O203  1  0.54282532  0.57991917  0.93360402  1
  O2-  O204  1  0.16744642  0.20635757  0.26155140  1
  O2-  O205  1  0.16803694  0.20859985  0.59860162  1
  O2-  O206  1  0.16458136  0.20902238  0.94258945  1
  O2-  O207  1  0.16319183  0.70987135  0.27588234  1
  O2-  O208  1  0.17093740  0.70108198  0.60499519  1
  O2-  O209  1  0.17464024  0.70038071  0.93463690  1
  O2-  O210  1  0.66518626  0.21263097  0.26374443  1
  O2-  O211  1  0.66427381  0.20084458  0.60473357  1
  O2-  O212  1  0.66563115  0.21103248  0.92999140  1
  O2-  O213  1  0.66360104  0.70962032  0.27035976  1
  O2-  O214  1  0.66094147  0.70931916  0.60024042  1
  O2-  O215  1  0.66595308  0.71028348  0.93408148  1
  O2-  O216  1  0.08315542  0.44902443  0.06782669  1
  O2-  O217  1  0.08425128  0.45478595  0.39616138  1
  O2-  O218  1  0.08181355  0.45521576  0.73396506  1
  O2-  O219  1  0.07771299  0.96025543  0.06879665  1
  O2-  O220  1  0.07769445  0.96054154  0.39795634  1
  O2-  O221  1  0.07614620  0.95209555  0.73156981  1
  O2-  O222  1  0.58568819  0.45224141  0.06514430  1
  O2-  O223  1  0.59055111  0.45705316  0.39705999  1
  O2-  O224  1  0.58799470  0.46047255  0.73135361  1
  O2-  O225  1  0.58458945  0.95827218  0.07055071  1
  O2-  O226  1  0.58344740  0.95211651  0.39244168  1
  O2-  O227  1  0.57972142  0.94979855  0.73383294  1
  O2-  O228  1  0.20680337  0.33648118  0.06925708  1
  O2-  O229  1  0.20028919  0.33057958  0.39282525  1
  O2-  O230  1  0.21024262  0.33196332  0.73344969  1
  O2-  O231  1  0.20562013  0.83202096  0.06822959  1
  O2-  O232  1  0.20980404  0.83752686  0.40428026  1
  O2-  O233  1  0.20738960  0.83197664  0.73393418  1
  O2-  O234  1  0.70704164  0.33382176  0.06411392  1
  O2-  O235  1  0.70885935  0.33672244  0.39621378  1
  O2-  O236  1  0.69286029  0.33096227  0.72657928  1
  O2-  O237  1  0.71239497  0.83390061  0.07161605  1
  O2-  O238  1  0.70739439  0.83727860  0.39649811  1
  O2-  O239  1  0.70956713  0.82991786  0.73161332  1
  O2-  O240  1  0.46291388  0.41639946  0.26803874  1
  O2-  O241  1  0.46745539  0.41465691  0.59495830  1
  O2-  O242  1  0.46018209  0.41182873  0.93539636  1
  O2-  O243  1  0.45499597  0.90922928  0.26897278  1
  O2-  O244  1  0.45869377  0.91086980  0.59974615  1
  O2-  O245  1  0.45790488  0.91357016  0.93769148  1
  O2-  O246  1  0.95347294  0.41899437  0.26885036  1
  O2-  O247  1  0.95724607  0.42215930  0.59823092  1
  O2-  O248  1  0.95501718  0.41428606  0.94276939  1
  O2-  O249  1  0.95197109  0.91231361  0.27001627  1
  O2-  O250  1  0.95450224  0.91642204  0.59596143  1
  O2-  O251  1  0.95171227  0.92288964  0.93381519  1
  O2-  O252  1  0.33353331  0.30807084  0.26922392  1
  O2-  O253  1  0.33512624  0.29375079  0.59489869  1
  O2-  O254  1  0.33165090  0.30209767  0.94064497  1
  O2-  O255  1  0.33537676  0.78926418  0.27316829  1
  O2-  O256  1  0.33625648  0.79344079  0.60167772  1
  O2-  O257  1  0.33302302  0.79979876  0.93939672  1
  O2-  O258  1  0.83523403  0.29752806  0.26724260  1
  O2-  O259  1  0.82608259  0.30187356  0.60111929  1
  O2-  O260  1  0.83748218  0.29487361  0.93899185  1
  O2-  O261  1  0.83533090  0.79038189  0.27021991  1
  O2-  O262  1  0.83413857  0.78229796  0.59502447  1
  O2-  O263  1  0.83164009  0.78904917  0.93372513  1
  O2-  O264  1  0.41925063  0.04065188  0.06860982  1
  O2-  O265  1  0.41467531  0.04121123  0.39552457  1
  O2-  O266  1  0.41664908  0.03918883  0.73252608  1
  O2-  O267  1  0.41746667  0.53526422  0.06893162  1
  O2-  O268  1  0.42070962  0.54324453  0.39980066  1
  O2-  O269  1  0.42301161  0.53924287  0.73169623  1
  O2-  O270  1  0.91444060  0.05034379  0.06488086  1
  O2-  O271  1  0.90859849  0.04119640  0.39376289  1
  O2-  O272  1  0.91759126  0.04441917  0.73355052  1
  O2-  O273  1  0.91636363  0.53841382  0.07214688  1
  O2-  O274  1  0.91435546  0.54680814  0.39464536  1
  O2-  O275  1  0.91862267  0.54423069  0.73375767  1
  O2-  O276  1  0.29853913  0.17233442  0.07001299  1
  O2-  O277  1  0.30484642  0.17109334  0.38663054  1
  O2-  O278  1  0.29992474  0.17231669  0.72934638  1
  O2-  O279  1  0.29561187  0.66729684  0.06874483  1
  O2-  O280  1  0.28942886  0.66483790  0.40340051  1
  O2-  O281  1  0.30290546  0.67046925  0.73403591  1
  O2-  O282  1  0.79283883  0.16849310  0.06632536  1
  O2-  O283  1  0.79181394  0.16491111  0.39217746  1
  O2-  O284  1  0.79570705  0.17285424  0.73311871  1
  O2-  O285  1  0.78752323  0.66514099  0.07096516  1
  O2-  O286  1  0.79059926  0.66307851  0.39651437  1
  O2-  O287  1  0.78366892  0.66206345  0.73344577  1
