# generated using pymatgen
data_Ca2Al2SiO7
_symmetry_space_group_name_H-M   'P 1'
_cell_length_a   15.47100516
_cell_length_b   15.46904335
_cell_length_c   15.29156908
_cell_angle_alpha   89.99368950
_cell_angle_beta   90.00504314
_cell_angle_gamma   90.03862513
_symmetry_Int_Tables_number   1
_chemical_formula_structural   Ca2Al2SiO7
_chemical_formula_sum   'Ca48 Al48 Si24 O168'
_cell_volume   3659.60266856
_cell_formula_units_Z   24
loop_
 _symmetry_equiv_pos_site_id
 _symmetry_equiv_pos_as_xyz
  1  'x, y, z'
loop_
 _atom_type_symbol
 _atom_type_oxidation_number
  Ca2+  2.0
  Al0+  0.0
  Si0+  0.0
  O2-  -2.0
loop_
 _atom_site_type_symbol
 _atom_site_label
 _atom_site_symmetry_multiplicity
 _atom_site_fract_x
 _atom_site_fract_y
 _atom_site_fract_z
 _atom_site_occupancy
  Ca2+  Ca0  1  0.16743114  0.08126528  0.16176648  1
  Ca2+  Ca1  1  0.16895173  0.08255719  0.50541177  1
  Ca2+  Ca2  1  0.17290077  0.07758524  0.84633795  1
  Ca2+  Ca3  1  0.17716697  0.58483742  0.16963998  1
  Ca2+  Ca4  1  0.17685417  0.58345684  0.50310584  1
  Ca2+  Ca5  1  0.17607450  0.57746622  0.84062778  1
  Ca2+  Ca6  1  0.64775731  0.07314334  0.16797469  1
  Ca2+  Ca7  1  0.66583421  0.07411632  0.50534544  1
  Ca2+  Ca8  1  0.66580126  0.07272897  0.84048628  1
  Ca2+  Ca9  1  0.67756952  0.58194553  0.16877349  1
  Ca2+  Ca10  1  0.67401145  0.58100275  0.51194979  1
  Ca2+  Ca11  1  0.67074448  0.57875862  0.83566327  1
  Ca2+  Ca12  1  0.08367219  0.33125537  0.15605127  1
  Ca2+  Ca13  1  0.08306228  0.33865195  0.49851058  1
  Ca2+  Ca14  1  0.09169724  0.33298204  0.83286648  1
  Ca2+  Ca15  1  0.08353654  0.82763536  0.16034282  1
  Ca2+  Ca16  1  0.07225688  0.82519322  0.49542445  1
  Ca2+  Ca17  1  0.07663726  0.83402489  0.82732489  1
  Ca2+  Ca18  1  0.58372950  0.32382490  0.15881919  1
  Ca2+  Ca19  1  0.58022230  0.33169281  0.49095373  1
  Ca2+  Ca20  1  0.59283178  0.33173843  0.82999938  1
  Ca2+  Ca21  1  0.58037474  0.83456855  0.15829868  1
  Ca2+  Ca22  1  0.59175063  0.82858924  0.50094926  1
  Ca2+  Ca23  1  0.58309928  0.82945703  0.83014707  1
  Ca2+  Ca24  1  0.33298456  0.42283093  0.16908112  1
  Ca2+  Ca25  1  0.33330789  0.42496740  0.50670375  1
  Ca2+  Ca26  1  0.32725523  0.42800536  0.83750416  1
  Ca2+  Ca27  1  0.33641869  0.92118785  0.16152227  1
  Ca2+  Ca28  1  0.33109172  0.91864146  0.50196320  1
  Ca2+  Ca29  1  0.32995430  0.91931132  0.84799557  1
  Ca2+  Ca30  1  0.83088779  0.42429653  0.16482877  1
  Ca2+  Ca31  1  0.82825467  0.42779879  0.50687784  1
  Ca2+  Ca32  1  0.82456045  0.42726738  0.83728759  1
  Ca2+  Ca33  1  0.81870757  0.91899850  0.16998107  1
  Ca2+  Ca34  1  0.82373124  0.91982264  0.50895684  1
  Ca2+  Ca35  1  0.82443886  0.91481167  0.83228978  1
  Ca2+  Ca36  1  0.42233381  0.17222138  0.16044847  1
  Ca2+  Ca37  1  0.42445493  0.17858117  0.48906849  1
  Ca2+  Ca38  1  0.42117948  0.16466156  0.83555470  1
  Ca2+  Ca39  1  0.41100860  0.67162940  0.15931976  1
  Ca2+  Ca40  1  0.42257112  0.65892994  0.49918341  1
  Ca2+  Ca41  1  0.41627257  0.66792572  0.82867315  1
  Ca2+  Ca42  1  0.92336606  0.16929512  0.15648178  1
  Ca2+  Ca43  1  0.91369837  0.16716280  0.49956340  1
  Ca2+  Ca44  1  0.92260150  0.16204728  0.82882197  1
  Ca2+  Ca45  1  0.92024070  0.65770320  0.16339116  1
  Ca2+  Ca46  1  0.91476155  0.66618218  0.49457595  1
  Ca2+  Ca47  1  0.91061787  0.66951712  0.82549363  1
  Al0+  Al48  1  -0.00062094  -0.00059549  -0.00059451  1
  Al0+  Al49  1  -0.00148211  -0.00161691  0.33318130  1
  Al0+  Al50  1  0.00053583  -0.00088049  0.66215823  1
  Al0+  Al51  1  0.00097142  0.49961137  0.00339845  1
  Al0+  Al52  1  0.00085753  0.50018398  0.33222016  1
  Al0+  Al53  1  0.00137221  0.49741599  0.67117194  1
  Al0+  Al54  1  0.49815887  -0.00004479  -0.00173138  1
  Al0+  Al55  1  0.49742885  -0.00092539  0.33802187  1
  Al0+  Al56  1  0.49925434  0.00043293  0.66728828  1
  Al0+  Al57  1  0.50176126  0.49962039  0.00721926  1
  Al0+  Al58  1  0.49976037  0.50101789  0.33127196  1
  Al0+  Al59  1  0.49904326  0.50009712  0.66920169  1
  Al0+  Al60  1  0.25124631  0.24970884  0.00155040  1
  Al0+  Al61  1  0.24944655  0.24954201  0.32968162  1
  Al0+  Al62  1  0.25148705  0.24890169  0.66692861  1
  Al0+  Al63  1  0.24782675  0.75093646  0.00096006  1
  Al0+  Al64  1  0.24822396  0.74881062  0.33524589  1
  Al0+  Al65  1  0.24895192  0.75143397  0.66698502  1
  Al0+  Al66  1  0.75184349  0.25068831  -0.00304261  1
  Al0+  Al67  1  0.75182621  0.24764626  0.32652402  1
  Al0+  Al68  1  0.75443020  0.24833965  0.66928319  1
  Al0+  Al69  1  0.75057136  0.75176526  0.00781969  1
  Al0+  Al70  1  0.74978555  0.75251189  0.33943997  1
  Al0+  Al71  1  0.74861991  0.75246610  0.66433241  1
  Al0+  Al72  1  0.32182656  0.07085889  0.01571570  1
  Al0+  Al73  1  0.67887753  0.93147396  0.01387356  1
  Al0+  Al74  1  0.82040183  0.57251141  0.01486227  1
  Al0+  Al75  1  0.57069243  0.18011672  0.98360458  1
  Al0+  Al76  1  0.82123083  0.56925621  0.34821301  1
  Al0+  Al77  1  0.56807724  0.67966350  0.65459622  1
  Al0+  Al78  1  0.82146545  0.57288492  0.67975256  1
  Al0+  Al79  1  0.32180668  0.57279909  0.01566162  1
  Al0+  Al80  1  0.67771943  0.42749636  0.67854473  1
  Al0+  Al81  1  0.57081493  0.17834518  0.31895906  1
  Al0+  Al82  1  0.67709167  0.93011432  0.68373945  1
  Al0+  Al83  1  0.42806913  0.32399032  0.31710026  1
  Al0+  Al84  1  0.82353723  0.07045025  0.68158138  1
  Al0+  Al85  1  0.67669558  0.93157994  0.34868748  1
  Al0+  Al86  1  0.07111615  0.17928012  0.98530717  1
  Al0+  Al87  1  0.32193691  0.57192368  0.34859485  1
  Al0+  Al88  1  0.06958679  0.67958050  0.31884991  1
  Al0+  Al89  1  0.18032650  0.42892081  0.01614197  1
  Al0+  Al90  1  0.32102134  0.57313899  0.68165202  1
  Al0+  Al91  1  0.92914971  0.82009555  0.65205019  1
  Al0+  Al92  1  0.67871692  0.42584254  0.01650285  1
  Al0+  Al93  1  0.17978953  0.42645611  0.68082989  1
  Al0+  Al94  1  0.42897685  0.81839309  0.98757346  1
  Al0+  Al95  1  0.17561670  0.92869771  0.01505514  1
  Si0+  Si96  1  0.07109216  0.17641135  0.31844139  1
  Si0+  Si97  1  0.92781814  0.82046745  0.98559999  1
  Si0+  Si98  1  0.07181714  0.17972700  0.65064907  1
  Si0+  Si99  1  0.82523352  0.07217909  0.34906363  1
  Si0+  Si100  1  0.07273097  0.67585087  0.65057522  1
  Si0+  Si101  1  0.67946952  0.42611509  0.34743883  1
  Si0+  Si102  1  0.31819450  0.07107473  0.34973372  1
  Si0+  Si103  1  0.92910316  0.32193860  0.65052173  1
  Si0+  Si104  1  0.92956252  0.32348580  0.97981975  1
  Si0+  Si105  1  0.17918359  0.93034742  0.67901192  1
  Si0+  Si106  1  0.57351528  0.17779529  0.65230734  1
  Si0+  Si107  1  0.93047249  0.32087405  0.31789148  1
  Si0+  Si108  1  0.06991180  0.67848099  0.98394294  1
  Si0+  Si109  1  0.82229167  0.07205661  0.01579434  1
  Si0+  Si110  1  0.42766398  0.81968141  0.32014404  1
  Si0+  Si111  1  0.17910934  0.42652976  0.34932571  1
  Si0+  Si112  1  0.92669519  0.82205786  0.31423231  1
  Si0+  Si113  1  0.57314014  0.68025249  0.31919687  1
  Si0+  Si114  1  0.17676818  0.92871160  0.34988366  1
  Si0+  Si115  1  0.42985979  0.31873115  0.65309537  1
  Si0+  Si116  1  0.32046269  0.07061353  0.68010798  1
  Si0+  Si117  1  0.42854788  0.32447055  0.98120178  1
  Si0+  Si118  1  0.42504830  0.82453505  0.64905034  1
  Si0+  Si119  1  0.57452627  0.67787341  0.98623974  1
  O2-  O120  1  0.24822512  -0.00012822  0.06555679  1
  O2-  O121  1  0.24533031  0.00204961  0.39303041  1
  O2-  O122  1  0.25471883  -0.00483535  0.72154865  1
  O2-  O123  1  0.25241135  0.49923691  0.06726103  1
  O2-  O124  1  0.25055383  0.49236476  0.39287885  1
  O2-  O125  1  0.24620417  0.50345495  0.72955105  1
  O2-  O126  1  0.74890365  0.01018482  0.06192495  1
  O2-  O127  1  0.75223415  0.00765832  0.39148615  1
  O2-  O128  1  0.74833304  0.00334920  0.73256974  1
  O2-  O129  1  0.74830666  0.50073324  0.06513693  1
  O2-  O130  1  0.74477469  0.49634986  0.39406936  1
  O2-  O131  1  0.74801116  0.50164030  0.72751942  1
  O2-  O132  1  0.00053671  0.24773090  0.27727251  1
  O2-  O133  1  0.00175580  0.25126635  0.60798302  1
  O2-  O134  1  -0.00175401  0.25404721  0.93603444  1
  O2-  O135  1  -0.00695951  0.75167953  0.26979239  1
  O2-  O136  1  -0.00031477  0.74030225  0.60618093  1
  O2-  O137  1  -0.00259546  0.74828141  0.94244011  1
  O2-  O138  1  0.50309519  0.25414480  0.26879441  1
  O2-  O139  1  0.50585086  0.25240654  0.61068403  1
  O2-  O140  1  0.50008310  0.25859860  0.93580429  1
  O2-  O141  1  0.49901248  0.74892082  0.27836899  1
  O2-  O142  1  0.49271148  0.75450237  0.60581858  1
  O2-  O143  1  0.50093841  0.74125751  0.94174109  1
  O2-  O144  1  0.06641100  0.17880934  0.09902314  1
  O2-  O145  1  0.07188269  0.17547277  0.42392374  1
  O2-  O146  1  0.07293185  0.17794239  0.75506202  1
  O2-  O147  1  0.06967887  0.67998697  0.08920994  1
  O2-  O148  1  0.06968889  0.68244933  0.43212047  1
  O2-  O149  1  0.07531372  0.68057652  0.75599901  1
  O2-  O150  1  0.56642994  0.17900507  0.09653689  1
  O2-  O151  1  0.56867345  0.17952873  0.43338832  1
  O2-  O152  1  0.57010836  0.17565666  0.75703244  1
  O2-  O153  1  0.57683244  0.68266090  0.09222961  1
  O2-  O154  1  0.57329234  0.68083162  0.42436123  1
  O2-  O155  1  0.56717968  0.68059486  0.76749887  1
  O2-  O156  1  0.17790919  0.42570448  0.24434468  1
  O2-  O157  1  0.18355332  0.42294345  0.56683294  1
  O2-  O158  1  0.18119197  0.43154918  0.90270811  1
  O2-  O159  1  0.17567397  0.92974443  0.24552920  1
  O2-  O160  1  0.17934135  0.93348206  0.57330126  1
  O2-  O161  1  0.17571897  0.93007879  0.90086465  1
  O2-  O162  1  0.68315856  0.42648030  0.24237036  1
  O2-  O163  1  0.67923796  0.42682498  0.56424954  1
  O2-  O164  1  0.68190293  0.42637734  0.90300103  1
  O2-  O165  1  0.67625659  0.93176539  0.23558647  1
  O2-  O166  1  0.67697189  0.93311057  0.56984281  1
  O2-  O167  1  0.68119905  0.92902036  0.90146765  1
  O2-  O168  1  0.42808046  0.32165373  0.08673561  1
  O2-  O169  1  0.42731585  0.32062790  0.43176192  1
  O2-  O170  1  0.42561081  0.31481720  0.75748638  1
  O2-  O171  1  0.43107805  0.81940083  0.10137912  1
  O2-  O172  1  0.42635430  0.82103672  0.42536172  1
  O2-  O173  1  0.42310358  0.82680898  0.75407967  1
  O2-  O174  1  0.93075439  0.32175840  0.08612715  1
  O2-  O175  1  0.93088065  0.32058851  0.42322599  1
  O2-  O176  1  0.92824831  0.32155551  0.75475170  1
  O2-  O177  1  0.92896589  0.82121513  0.09072545  1
  O2-  O178  1  0.92977055  0.82396874  0.41982375  1
  O2-  O179  1  0.93315852  0.82238958  0.76531962  1
  O2-  O180  1  0.31844295  0.06958062  0.24549971  1
  O2-  O181  1  0.31737550  0.07198895  0.57438830  1
  O2-  O182  1  0.32069641  0.06802635  0.90139860  1
  O2-  O183  1  0.31813162  0.57655772  0.23640949  1
  O2-  O184  1  0.32069399  0.57074300  0.56765148  1
  O2-  O185  1  0.31866461  0.57366774  0.90225480  1
  O2-  O186  1  0.83387271  0.06955134  0.24420769  1
  O2-  O187  1  0.82275535  0.07014536  0.56743711  1
  O2-  O188  1  0.82439544  0.06767105  0.91058137  1
  O2-  O189  1  0.82126497  0.56709525  0.23558651  1
  O2-  O190  1  0.82116255  0.56923141  0.56577780  1
  O2-  O191  1  0.81936224  0.57417698  0.90155969  1
  O2-  O192  1  0.04299521  0.08438364  0.27169121  1
  O2-  O193  1  0.04355668  0.08910651  0.60012537  1
  O2-  O194  1  0.03907920  0.08227321  0.93158517  1
  O2-  O195  1  0.04119323  0.58232072  0.26497526  1
  O2-  O196  1  0.05310738  0.57968830  0.60733783  1
  O2-  O197  1  0.04396756  0.58578578  0.93794495  1
  O2-  O198  1  0.53379690  0.08075605  0.26937400  1
  O2-  O199  1  0.54089428  0.08764337  0.60346868  1
  O2-  O200  1  0.53511425  0.08484830  0.92956492  1
  O2-  O201  1  0.55045096  0.58725672  0.27257816  1
  O2-  O202  1  0.53823268  0.58247432  0.59883054  1
  O2-  O203  1  0.55543780  0.58125685  0.94450337  1
  O2-  O204  1  0.16263177  0.20212923  0.27048620  1
  O2-  O205  1  0.16381974  0.20706615  0.60169426  1
  O2-  O206  1  0.16945099  0.20649035  0.93274909  1
  O2-  O207  1  0.16511764  0.71494518  0.26547780  1
  O2-  O208  1  0.16434943  0.70754615  0.60223337  1
  O2-  O209  1  0.16031455  0.70863670  0.93574497  1
  O2-  O210  1  0.67154782  0.19703827  0.26610660  1
  O2-  O211  1  0.66762058  0.20023159  0.60710486  1
  O2-  O212  1  0.67014659  0.20517461  0.93174722  1
  O2-  O213  1  0.66385262  0.71237946  0.27217656  1
  O2-  O214  1  0.66358007  0.71166675  0.59811055  1
  O2-  O215  1  0.66612410  0.71082084  0.94033206  1
  O2-  O216  1  0.08168966  0.45566682  0.06866622  1
  O2-  O217  1  0.08658479  0.45545448  0.39586294  1
  O2-  O218  1  0.07967734  0.44538263  0.73232712  1
  O2-  O219  1  0.07859010  0.95912512  0.06986155  1
  O2-  O220  1  0.08454172  0.95587209  0.39773140  1
  O2-  O221  1  0.08969386  0.96282769  0.72604966  1
  O2-  O222  1  0.58014606  0.44864156  0.07031439  1
  O2-  O223  1  0.58403934  0.44873258  0.39034580  1
  O2-  O224  1  0.57957049  0.45194218  0.73197940  1
  O2-  O225  1  0.58174081  0.96072474  0.06649511  1
  O2-  O226  1  0.58045755  0.96058269  0.40490031  1
  O2-  O227  1  0.57742592  0.95706636  0.73459346  1
  O2-  O228  1  0.20508103  0.32942638  0.06756180  1
  O2-  O229  1  0.19995407  0.33073890  0.39424368  1
  O2-  O230  1  0.21255685  0.32922860  0.73388508  1
  O2-  O231  1  0.20350467  0.83125940  0.06810827  1
  O2-  O232  1  0.20826526  0.83917243  0.39876857  1
  O2-  O233  1  0.19950196  0.83700734  0.72537254  1
  O2-  O234  1  0.71146874  0.32810352  0.06904923  1
  O2-  O235  1  0.70663678  0.33153341  0.39135694  1
  O2-  O236  1  0.70851945  0.33004105  0.73073510  1
  O2-  O237  1  0.71260962  0.83802139  0.07147690  1
  O2-  O238  1  0.70953664  0.83647965  0.40394462  1
  O2-  O239  1  0.70701856  0.83229987  0.73444233  1
  O2-  O240  1  0.45103212  0.42380104  0.26529934  1
  O2-  O241  1  0.45301594  0.41187814  0.60641152  1
  O2-  O242  1  0.45110879  0.42029523  0.93839551  1
  O2-  O243  1  0.45510461  0.91218355  0.27436414  1
  O2-  O244  1  0.45107134  0.91847377  0.60175913  1
  O2-  O245  1  0.45947609  0.91430045  0.93262963  1
  O2-  O246  1  0.96076757  0.41088623  0.26933769  1
  O2-  O247  1  0.95757370  0.41322773  0.60105428  1
  O2-  O248  1  0.95697736  0.41703680  0.93506373  1
  O2-  O249  1  0.95535550  0.91507222  0.26816377  1
  O2-  O250  1  0.96653982  0.91401599  0.59470791  1
  O2-  O251  1  0.95686303  0.91127730  0.93718642  1
  O2-  O252  1  0.33049200  0.29109022  0.26477134  1
  O2-  O253  1  0.34092839  0.28429125  0.60246543  1
  O2-  O254  1  0.33603322  0.29470109  0.93530294  1
  O2-  O255  1  0.33589116  0.79236991  0.27316495  1
  O2-  O256  1  0.33027102  0.80190017  0.60225406  1
  O2-  O257  1  0.33048336  0.79214760  0.93389015  1
  O2-  O258  1  0.83983899  0.29445538  0.26755299  1
  O2-  O259  1  0.83903974  0.29181891  0.59963462  1
  O2-  O260  1  0.83636729  0.29834515  0.93382488  1
  O2-  O261  1  0.83127088  0.79913950  0.27147018  1
  O2-  O262  1  0.83168698  0.79564384  0.59724161  1
  O2-  O263  1  0.83552201  0.79266706  0.93932689  1
  O2-  O264  1  0.41747827  0.03791094  0.07016089  1
  O2-  O265  1  0.40743803  0.04030468  0.40036883  1
  O2-  O266  1  0.41340745  0.04836033  0.72622061  1
  O2-  O267  1  0.42144269  0.55071605  0.06782503  1
  O2-  O268  1  0.42084652  0.54486680  0.40071759  1
  O2-  O269  1  0.41727453  0.54235962  0.73518475  1
  O2-  O270  1  0.91324515  0.04103548  0.06397093  1
  O2-  O271  1  0.91680843  0.04341288  0.39924912  1
  O2-  O272  1  0.92209560  0.03892413  0.73229719  1
  O2-  O273  1  0.91810682  0.54155346  0.06749805  1
  O2-  O274  1  0.91798880  0.53665621  0.40106340  1
  O2-  O275  1  0.91979981  0.54524602  0.73192103  1
  O2-  O276  1  0.29455783  0.16857229  0.06853766  1
  O2-  O277  1  0.28992859  0.16316714  0.39720087  1
  O2-  O278  1  0.28839190  0.15946353  0.72871624  1
  O2-  O279  1  0.28817355  0.66952272  0.06846120  1
  O2-  O280  1  0.28627296  0.66674559  0.40411955  1
  O2-  O281  1  0.29564960  0.67345613  0.73183822  1
  O2-  O282  1  0.80550341  0.16853353  0.05784714  1
  O2-  O283  1  0.80360020  0.16814025  0.39215940  1
  O2-  O284  1  0.80452761  0.17050626  0.73314492  1
  O2-  O285  1  0.79375773  0.66942219  0.07181577  1
  O2-  O286  1  0.79350430  0.66753034  0.39965889  1
  O2-  O287  1  0.79452022  0.67180154  0.72969867  1
