# generated using pymatgen
data_Ca2Al2SiO7
_symmetry_space_group_name_H-M   'P 1'
_cell_length_a   15.45743522
_cell_length_b   15.45813714
_cell_length_c   15.28296774
_cell_angle_alpha   89.98157145
_cell_angle_beta   89.99125418
_cell_angle_gamma   89.99185642
_symmetry_Int_Tables_number   1
_chemical_formula_structural   Ca2Al2SiO7
_chemical_formula_sum   'Ca48 Al48 Si24 O168'
_cell_volume   3651.76023616
_cell_formula_units_Z   24
loop_
 _symmetry_equiv_pos_site_id
 _symmetry_equiv_pos_as_xyz
  1  'x, y, z'
loop_
 _atom_type_symbol
 _atom_type_oxidation_number
  Ca2+  2.0
  Al0+  0.0
  Si0+  0.0
  O2-  -2.0
loop_
 _atom_site_type_symbol
 _atom_site_label
 _atom_site_symmetry_multiplicity
 _atom_site_fract_x
 _atom_site_fract_y
 _atom_site_fract_z
 _atom_site_occupancy
  Ca2+  Ca0  1  0.17230153  0.08688855  0.16962590  1
  Ca2+  Ca1  1  0.17992924  0.09218628  0.50199001  1
  Ca2+  Ca2  1  0.17448977  0.08050375  0.84485336  1
  Ca2+  Ca3  1  0.16759935  0.58314953  0.17452360  1
  Ca2+  Ca4  1  0.16720197  0.58707450  0.50054715  1
  Ca2+  Ca5  1  0.16352527  0.58444308  0.83758239  1
  Ca2+  Ca6  1  0.67865175  0.09463228  0.17181952  1
  Ca2+  Ca7  1  0.67247955  0.09056988  0.50458397  1
  Ca2+  Ca8  1  0.67629121  0.09209259  0.83516491  1
  Ca2+  Ca9  1  0.65867199  0.57624299  0.16662875  1
  Ca2+  Ca10  1  0.67357088  0.58048388  0.50829524  1
  Ca2+  Ca11  1  0.67174771  0.57923961  0.84298563  1
  Ca2+  Ca12  1  0.07840222  0.31948818  0.16035078  1
  Ca2+  Ca13  1  0.07971906  0.32632523  0.49430626  1
  Ca2+  Ca14  1  0.07852065  0.32627746  0.83713370  1
  Ca2+  Ca15  1  0.09272507  0.82413528  0.16118824  1
  Ca2+  Ca16  1  0.08098135  0.82574537  0.49809542  1
  Ca2+  Ca17  1  0.08341241  0.82787646  0.82993849  1
  Ca2+  Ca18  1  0.57437557  0.33046192  0.16313471  1
  Ca2+  Ca19  1  0.57473480  0.32190734  0.49724777  1
  Ca2+  Ca20  1  0.57409242  0.33041947  0.83003533  1
  Ca2+  Ca21  1  0.57641482  0.82917074  0.16484253  1
  Ca2+  Ca22  1  0.57707840  0.83293714  0.49445967  1
  Ca2+  Ca23  1  0.58781587  0.82803112  0.83287338  1
  Ca2+  Ca24  1  0.33890848  0.42081065  0.17310880  1
  Ca2+  Ca25  1  0.33756224  0.41613268  0.49970081  1
  Ca2+  Ca26  1  0.33633083  0.41353462  0.83782372  1
  Ca2+  Ca27  1  0.33004907  0.92608110  0.17071516  1
  Ca2+  Ca28  1  0.33718862  0.92740725  0.50126065  1
  Ca2+  Ca29  1  0.32847383  0.93066349  0.84110371  1
  Ca2+  Ca30  1  0.82655313  0.40804281  0.16601138  1
  Ca2+  Ca31  1  0.83195081  0.42288449  0.50765621  1
  Ca2+  Ca32  1  0.82815905  0.41879379  0.84256556  1
  Ca2+  Ca33  1  0.83310772  0.92750426  0.16928643  1
  Ca2+  Ca34  1  0.83535068  0.92516397  0.50565894  1
  Ca2+  Ca35  1  0.83929746  0.92508005  0.83544745  1
  Ca2+  Ca36  1  0.41197132  0.17405589  0.16195648  1
  Ca2+  Ca37  1  0.42352225  0.16814011  0.49064845  1
  Ca2+  Ca38  1  0.41492515  0.17336017  0.82465295  1
  Ca2+  Ca39  1  0.41303241  0.67386462  0.16349463  1
  Ca2+  Ca40  1  0.41167534  0.67493247  0.48990550  1
  Ca2+  Ca41  1  0.42466897  0.66641360  0.83337870  1
  Ca2+  Ca42  1  0.92395319  0.16227682  0.15943281  1
  Ca2+  Ca43  1  0.92024989  0.15968862  0.49251988  1
  Ca2+  Ca44  1  0.91566775  0.16349869  0.83345642  1
  Ca2+  Ca45  1  0.92967320  0.66792914  0.15896527  1
  Ca2+  Ca46  1  0.92287305  0.66947020  0.49858083  1
  Ca2+  Ca47  1  0.92657756  0.67142861  0.82199752  1
  Al0+  Al48  1  0.00171085  -0.00303460  0.00484965  1
  Al0+  Al49  1  -0.00056972  -0.00190348  0.33419162  1
  Al0+  Al50  1  0.00042998  -0.00196880  0.66614639  1
  Al0+  Al51  1  0.00038012  0.49983909  -0.00602181  1
  Al0+  Al52  1  -0.00066507  0.50027998  0.33044129  1
  Al0+  Al53  1  0.00161785  0.49938091  0.66726778  1
  Al0+  Al54  1  0.50102132  0.00063320  0.00334607  1
  Al0+  Al55  1  0.50167266  -0.00153665  0.32711599  1
  Al0+  Al56  1  0.50164056  -0.00047514  0.66930214  1
  Al0+  Al57  1  0.50130381  0.49985729  -0.00408488  1
  Al0+  Al58  1  0.50021163  0.49925834  0.33873001  1
  Al0+  Al59  1  0.49906516  0.49926938  0.66326237  1
  Al0+  Al60  1  0.24836025  0.25259996  -0.00416661  1
  Al0+  Al61  1  0.24776181  0.25123915  0.33074713  1
  Al0+  Al62  1  0.24852201  0.25357421  0.66769570  1
  Al0+  Al63  1  0.25151191  0.75162874  -0.00359361  1
  Al0+  Al64  1  0.25030369  0.74975416  0.33017004  1
  Al0+  Al65  1  0.25096205  0.74837916  0.66495160  1
  Al0+  Al66  1  0.74830741  0.25246017  0.00558214  1
  Al0+  Al67  1  0.74842091  0.25146403  0.33806733  1
  Al0+  Al68  1  0.74845656  0.25090468  0.66775901  1
  Al0+  Al69  1  0.75084709  0.75023040  -0.00144441  1
  Al0+  Al70  1  0.75032219  0.75030001  0.33310964  1
  Al0+  Al71  1  0.75220205  0.75073768  0.66637283  1
  Al0+  Al72  1  0.81914486  0.06991640  0.01400578  1
  Al0+  Al73  1  0.42907156  0.32088235  0.31759247  1
  Al0+  Al74  1  0.42611583  0.32143923  0.64907747  1
  Al0+  Al75  1  0.42886197  0.82119947  0.31930802  1
  Al0+  Al76  1  0.57021260  0.67962669  0.98751452  1
  Al0+  Al77  1  0.06980569  0.17617084  0.98430723  1
  Al0+  Al78  1  0.06929346  0.67993172  0.31838906  1
  Al0+  Al79  1  0.57263131  0.17807667  0.31666053  1
  Al0+  Al80  1  0.32010184  0.57085447  0.34597317  1
  Al0+  Al81  1  0.67849249  0.43125947  0.01471270  1
  Al0+  Al82  1  0.82156161  0.07109335  0.68044831  1
  Al0+  Al83  1  0.92625542  0.31910488  0.98536763  1
  Al0+  Al84  1  0.32128314  0.07499773  0.01577494  1
  Al0+  Al85  1  0.32153988  0.07226289  0.67913910  1
  Al0+  Al86  1  0.18014907  0.92761589  0.01536988  1
  Al0+  Al87  1  0.06967206  0.17782771  0.32125613  1
  Al0+  Al88  1  0.92887504  0.82251745  0.65006084  1
  Al0+  Al89  1  0.82018774  0.07027643  0.34816932  1
  Al0+  Al90  1  0.07228397  0.67707780  0.64927901  1
  Al0+  Al91  1  0.07274025  0.67940043  0.98508621  1
  Al0+  Al92  1  0.82185536  0.57118733  0.68079343  1
  Al0+  Al93  1  0.57105014  0.17780858  0.65236058  1
  Al0+  Al94  1  0.32052504  0.07195980  0.34656852  1
  Al0+  Al95  1  0.42921647  0.32022466  0.98586170  1
  Si0+  Si96  1  0.92681569  0.32294829  0.31903124  1
  Si0+  Si97  1  0.57194764  0.67866920  0.65198929  1
  Si0+  Si98  1  0.57252070  0.17722539  0.98443981  1
  Si0+  Si99  1  0.82203087  0.57165815  0.34750973  1
  Si0+  Si100  1  0.92756006  0.82140067  0.98370046  1
  Si0+  Si101  1  0.67762741  0.43009378  0.68468918  1
  Si0+  Si102  1  0.17862883  0.42949733  0.68346498  1
  Si0+  Si103  1  0.67833140  0.92539165  0.35009436  1
  Si0+  Si104  1  0.06987253  0.17864994  0.65279214  1
  Si0+  Si105  1  0.67847339  0.42992819  0.35222732  1
  Si0+  Si106  1  0.17668562  0.43062005  0.01495320  1
  Si0+  Si107  1  0.67716195  0.92689370  0.68376201  1
  Si0+  Si108  1  0.92838462  0.32057916  0.65298034  1
  Si0+  Si109  1  0.42898015  0.82381326  0.98120173  1
  Si0+  Si110  1  0.17870718  0.92661923  0.35167322  1
  Si0+  Si111  1  0.18010401  0.92667047  0.68185544  1
  Si0+  Si112  1  0.32128241  0.56964749  0.01232421  1
  Si0+  Si113  1  0.67727000  0.92429065  0.01845769  1
  Si0+  Si114  1  0.17588836  0.42889811  0.34977511  1
  Si0+  Si115  1  0.43009650  0.81989878  0.65319325  1
  Si0+  Si116  1  0.57375760  0.67725194  0.31921429  1
  Si0+  Si117  1  0.92626863  0.82160360  0.31459110  1
  Si0+  Si118  1  0.32180616  0.57208544  0.68249305  1
  Si0+  Si119  1  0.82345549  0.57265413  0.01716366  1
  O2-  O120  1  0.24896149  0.00270144  0.06516653  1
  O2-  O121  1  0.24469449  -0.00154669  0.39563275  1
  O2-  O122  1  0.24616998  -0.00198195  0.72546879  1
  O2-  O123  1  0.24801728  0.50202641  0.05573716  1
  O2-  O124  1  0.24589180  0.49638547  0.39442555  1
  O2-  O125  1  0.25129313  0.50058988  0.72416668  1
  O2-  O126  1  0.74292188  -0.00364510  0.06135784  1
  O2-  O127  1  0.74443856  -0.00378171  0.39466370  1
  O2-  O128  1  0.74578384  -0.00331292  0.72632646  1
  O2-  O129  1  0.75478890  0.50472720  0.06309741  1
  O2-  O130  1  0.75064812  0.50181751  0.39143774  1
  O2-  O131  1  0.74595236  0.49899025  0.72905042  1
  O2-  O132  1  -0.00810401  0.25048785  0.27670446  1
  O2-  O133  1  -0.00556889  0.24536584  0.61025624  1
  O2-  O134  1  -0.00573322  0.24440827  0.93340982  1
  O2-  O135  1  -0.00447994  0.75400722  0.26998113  1
  O2-  O136  1  -0.00030345  0.74886910  0.60042267  1
  O2-  O137  1  -0.00420930  0.75196425  0.93994562  1
  O2-  O138  1  0.49675394  0.24582882  0.26631060  1
  O2-  O139  1  0.49453744  0.24493093  0.60194992  1
  O2-  O140  1  0.49819268  0.23968590  0.94024611  1
  O2-  O141  1  0.50354642  0.74426687  0.27566347  1
  O2-  O142  1  0.50103116  0.74906244  0.60959250  1
  O2-  O143  1  0.50016466  0.75697060  0.93746849  1
  O2-  O144  1  0.06972429  0.17939819  0.09794911  1
  O2-  O145  1  0.06943532  0.18118076  0.43527764  1
  O2-  O146  1  0.07053469  0.18026613  0.75754226  1
  O2-  O147  1  0.07264881  0.67874534  0.09839147  1
  O2-  O148  1  0.06717842  0.67944527  0.43114211  1
  O2-  O149  1  0.07293422  0.67900541  0.76274441  1
  O2-  O150  1  0.57432981  0.18104031  0.08976272  1
  O2-  O151  1  0.57398458  0.18102502  0.43026364  1
  O2-  O152  1  0.57284417  0.18134264  0.76600750  1
  O2-  O153  1  0.56568243  0.67934526  0.10064394  1
  O2-  O154  1  0.57600461  0.67941010  0.42521559  1
  O2-  O155  1  0.57041998  0.67843417  0.75713763  1
  O2-  O156  1  0.17305259  0.43151672  0.24426619  1
  O2-  O157  1  0.17618081  0.42816290  0.57850879  1
  O2-  O158  1  0.17664167  0.43161382  0.90947335  1
  O2-  O159  1  0.18111660  0.92502465  0.24634659  1
  O2-  O160  1  0.18239815  0.92500186  0.57623583  1
  O2-  O161  1  0.18365828  0.92632775  0.90124061  1
  O2-  O162  1  0.67750105  0.43075369  0.24712288  1
  O2-  O163  1  0.67946001  0.43238185  0.57870687  1
  O2-  O164  1  0.67830772  0.43453416  0.90165479  1
  O2-  O165  1  0.68250867  0.91914156  0.24490896  1
  O2-  O166  1  0.67508192  0.92447201  0.57837276  1
  O2-  O167  1  0.67877805  0.92091874  0.91291824  1
  O2-  O168  1  0.43108687  0.32495335  0.09847052  1
  O2-  O169  1  0.43200315  0.32179769  0.43093355  1
  O2-  O170  1  0.42856179  0.32371657  0.76276502  1
  O2-  O171  1  0.42783949  0.82077808  0.08664785  1
  O2-  O172  1  0.43049671  0.81971846  0.43325879  1
  O2-  O173  1  0.43082344  0.81715063  0.75819732  1
  O2-  O174  1  0.92905515  0.31924612  0.09921664  1
  O2-  O175  1  0.92899043  0.32655155  0.42520685  1
  O2-  O176  1  0.92984863  0.32191950  0.75756407  1
  O2-  O177  1  0.92513164  0.81814832  0.08936745  1
  O2-  O178  1  0.92487820  0.81933810  0.41997917  1
  O2-  O179  1  0.93078486  0.82230712  0.76364958  1
  O2-  O180  1  0.31803211  0.07224304  0.23413538  1
  O2-  O181  1  0.32142825  0.07030011  0.56572429  1
  O2-  O182  1  0.32080814  0.07312401  0.90156794  1
  O2-  O183  1  0.31936110  0.57075061  0.23253015  1
  O2-  O184  1  0.32210215  0.57453014  0.57763703  1
  O2-  O185  1  0.32160754  0.56825686  0.90668828  1
  O2-  O186  1  0.82031709  0.06937317  0.23520468  1
  O2-  O187  1  0.82139645  0.07051837  0.56741581  1
  O2-  O188  1  0.81771815  0.06872489  0.90064316  1
  O2-  O189  1  0.82224697  0.57145807  0.24263633  1
  O2-  O190  1  0.81935496  0.56797909  0.56682642  1
  O2-  O191  1  0.82137855  0.57186936  0.91152335  1
  O2-  O192  1  0.04203798  0.08002638  0.26897260  1
  O2-  O193  1  0.04762600  0.08569542  0.60608503  1
  O2-  O194  1  0.04621780  0.07539904  0.93471765  1
  O2-  O195  1  0.03850676  0.58304717  0.26439870  1
  O2-  O196  1  0.04407241  0.57791227  0.59763942  1
  O2-  O197  1  0.04353595  0.58309973  0.93047992  1
  O2-  O198  1  0.55552826  0.07707473  0.26622039  1
  O2-  O199  1  0.54944871  0.07649938  0.60199686  1
  O2-  O200  1  0.55645419  0.08015598  0.94161500  1
  O2-  O201  1  0.54901650  0.58288675  0.27603984  1
  O2-  O202  1  0.54500458  0.58714247  0.60397900  1
  O2-  O203  1  0.53580264  0.58665334  0.92920462  1
  O2-  O204  1  0.16322816  0.21244209  0.26506325  1
  O2-  O205  1  0.15917930  0.21364394  0.60483576  1
  O2-  O206  1  0.16505855  0.21205753  0.92948934  1
  O2-  O207  1  0.16598062  0.70943498  0.26501293  1
  O2-  O208  1  0.17159263  0.70579428  0.59745794  1
  O2-  O209  1  0.16920193  0.70985164  0.93032920  1
  O2-  O210  1  0.66991672  0.21468762  0.26581958  1
  O2-  O211  1  0.66831728  0.21174646  0.59862931  1
  O2-  O212  1  0.66363214  0.21033372  0.93825217  1
  O2-  O213  1  0.66638422  0.70321641  0.27096852  1
  O2-  O214  1  0.66358361  0.70591643  0.60446573  1
  O2-  O215  1  0.66825749  0.70700493  0.93365177  1
  O2-  O216  1  0.08519293  0.45893465  0.06269577  1
  O2-  O217  1  0.08261786  0.45653453  0.39730511  1
  O2-  O218  1  0.08814139  0.45846449  0.73285077  1
  O2-  O219  1  0.08049803  0.94673214  0.06903971  1
  O2-  O220  1  0.08320204  0.94762128  0.39571359  1
  O2-  O221  1  0.08556742  0.94948329  0.72651447  1
  O2-  O222  1  0.58343143  0.46769199  0.06912994  1
  O2-  O223  1  0.58876735  0.45921279  0.40272023  1
  O2-  O224  1  0.58331416  0.45706906  0.72870848  1
  O2-  O225  1  0.58215425  0.94516431  0.06309046  1
  O2-  O226  1  0.58310202  0.94728682  0.39377406  1
  O2-  O227  1  0.58418379  0.94937685  0.73293765  1
  O2-  O228  1  0.20392689  0.33889874  0.06154994  1
  O2-  O229  1  0.20028778  0.33561595  0.39678033  1
  O2-  O230  1  0.20557409  0.33891092  0.73393611  1
  O2-  O231  1  0.21410389  0.82991071  0.06842752  1
  O2-  O232  1  0.20861197  0.83440564  0.39820240  1
  O2-  O233  1  0.20887120  0.83367733  0.72849276  1
  O2-  O234  1  0.70760064  0.33630888  0.07246441  1
  O2-  O235  1  0.70795380  0.34005539  0.40219627  1
  O2-  O236  1  0.70376508  0.33701256  0.73031680  1
  O2-  O237  1  0.70554393  0.83171968  0.06649323  1
  O2-  O238  1  0.70526308  0.83233587  0.39926012  1
  O2-  O239  1  0.70396329  0.83350646  0.73046976  1
  O2-  O240  1  0.46165701  0.42025878  0.26783804  1
  O2-  O241  1  0.45749309  0.41979577  0.59625549  1
  O2-  O242  1  0.46511209  0.41452811  0.92992160  1
  O2-  O243  1  0.46071317  0.91441136  0.26094995  1
  O2-  O244  1  0.45806092  0.91146254  0.60603193  1
  O2-  O245  1  0.45402386  0.91819708  0.93643500  1
  O2-  O246  1  0.95383019  0.41460986  0.27010432  1
  O2-  O247  1  0.96142047  0.41008887  0.60369950  1
  O2-  O248  1  0.95767924  0.41630256  0.93119275  1
  O2-  O249  1  0.95100972  0.91543629  0.26984609  1
  O2-  O250  1  0.95931476  0.91981128  0.59501566  1
  O2-  O251  1  0.95476076  0.91429198  0.93820404  1
  O2-  O252  1  0.32807989  0.30021071  0.26756063  1
  O2-  O253  1  0.32488506  0.30019572  0.59917138  1
  O2-  O254  1  0.33108063  0.29715254  0.93165854  1
  O2-  O255  1  0.33459234  0.78777634  0.26347823  1
  O2-  O256  1  0.33962110  0.79058252  0.60451117  1
  O2-  O257  1  0.33818827  0.79408109  0.93241958  1
  O2-  O258  1  0.83166009  0.30097990  0.27634785  1
  O2-  O259  1  0.83486425  0.29928392  0.60622788  1
  O2-  O260  1  0.82591600  0.29568763  0.93424772  1
  O2-  O261  1  0.83299179  0.79478449  0.26813648  1
  O2-  O262  1  0.82975508  0.79509138  0.59713479  1
  O2-  O263  1  0.83390114  0.79826738  0.93637742  1
  O2-  O264  1  0.42106570  0.04765242  0.06675252  1
  O2-  O265  1  0.41880183  0.03811212  0.39635536  1
  O2-  O266  1  0.41763275  0.04065182  0.73354205  1
  O2-  O267  1  0.41185211  0.53966240  0.05968755  1
  O2-  O268  1  0.41714195  0.54383989  0.40252210  1
  O2-  O269  1  0.41461540  0.54439670  0.72905445  1
  O2-  O270  1  0.91526105  0.03776467  0.06781376  1
  O2-  O271  1  0.91683954  0.03768012  0.40225162  1
  O2-  O272  1  0.91864183  0.03960793  0.73381900  1
  O2-  O273  1  0.91780316  0.54607306  0.06119079  1
  O2-  O274  1  0.91309406  0.54203192  0.39586518  1
  O2-  O275  1  0.91855140  0.53947695  0.73326618  1
  O2-  O276  1  0.29091043  0.17417449  0.06578845  1
  O2-  O277  1  0.28812731  0.16906788  0.40002641  1
  O2-  O278  1  0.28991053  0.16952235  0.73091050  1
  O2-  O279  1  0.29698706  0.66341992  0.05683583  1
  O2-  O280  1  0.28800424  0.66718359  0.40058597  1
  O2-  O281  1  0.29484118  0.66358788  0.73158604  1
  O2-  O282  1  0.78970957  0.16663956  0.06835481  1
  O2-  O283  1  0.79253287  0.16843377  0.40192905  1
  O2-  O284  1  0.79147660  0.16873778  0.73369887  1
  O2-  O285  1  0.79882291  0.66687316  0.06229349  1
  O2-  O286  1  0.79463639  0.66375367  0.39517794  1
  O2-  O287  1  0.79302259  0.66864194  0.73344030  1
