# generated using pymatgen
data_Ca2Al2SiO7
_symmetry_space_group_name_H-M   'P 1'
_cell_length_a   15.46895339
_cell_length_b   15.47046023
_cell_length_c   15.29157458
_cell_angle_alpha   89.99550089
_cell_angle_beta   90.00655013
_cell_angle_gamma   89.97823648
_symmetry_Int_Tables_number   1
_chemical_formula_structural   Ca2Al2SiO7
_chemical_formula_sum   'Ca48 Al48 Si24 O168'
_cell_volume   3659.45436956
_cell_formula_units_Z   24
loop_
 _symmetry_equiv_pos_site_id
 _symmetry_equiv_pos_as_xyz
  1  'x, y, z'
loop_
 _atom_type_symbol
 _atom_type_oxidation_number
  Ca2+  2.0
  Al0+  0.0
  Si0+  0.0
  O2-  -2.0
loop_
 _atom_site_type_symbol
 _atom_site_label
 _atom_site_symmetry_multiplicity
 _atom_site_fract_x
 _atom_site_fract_y
 _atom_site_fract_z
 _atom_site_occupancy
  Ca2+  Ca0  1  0.16752684  0.08785556  0.17355660  1
  Ca2+  Ca1  1  0.16768514  0.09138472  0.50222646  1
  Ca2+  Ca2  1  0.16176624  0.08701416  0.83688142  1
  Ca2+  Ca3  1  0.16967862  0.57047388  0.17958914  1
  Ca2+  Ca4  1  0.16768424  0.57761597  0.50869937  1
  Ca2+  Ca5  1  0.16665773  0.57154511  0.83242040  1
  Ca2+  Ca6  1  0.67662208  0.08620100  0.16958278  1
  Ca2+  Ca7  1  0.66569574  0.07835369  0.51361929  1
  Ca2+  Ca8  1  0.66938168  0.08157410  0.83272355  1
  Ca2+  Ca9  1  0.67182710  0.58476481  0.17163500  1
  Ca2+  Ca10  1  0.67482634  0.58010340  0.50872458  1
  Ca2+  Ca11  1  0.66010172  0.58276064  0.83075749  1
  Ca2+  Ca12  1  0.08866316  0.32834425  0.16567814  1
  Ca2+  Ca13  1  0.07979551  0.33610693  0.49494306  1
  Ca2+  Ca14  1  0.08355385  0.32635170  0.82500197  1
  Ca2+  Ca15  1  0.08812953  0.82245901  0.16694293  1
  Ca2+  Ca16  1  0.08289594  0.81990954  0.50258165  1
  Ca2+  Ca17  1  0.07641434  0.82716935  0.82070541  1
  Ca2+  Ca18  1  0.57149521  0.33575527  0.15926553  1
  Ca2+  Ca19  1  0.57901010  0.33957260  0.50569581  1
  Ca2+  Ca20  1  0.57263658  0.33334850  0.82093508  1
  Ca2+  Ca21  1  0.57988965  0.82473417  0.16093116  1
  Ca2+  Ca22  1  0.58081943  0.83119396  0.50541880  1
  Ca2+  Ca23  1  0.58153163  0.82362984  0.82208008  1
  Ca2+  Ca24  1  0.32296039  0.41576356  0.17232805  1
  Ca2+  Ca25  1  0.32162896  0.42504076  0.50850441  1
  Ca2+  Ca26  1  0.32509095  0.41049317  0.83366085  1
  Ca2+  Ca27  1  0.33079660  0.92627993  0.17532034  1
  Ca2+  Ca28  1  0.33704663  0.92296058  0.50595211  1
  Ca2+  Ca29  1  0.33594532  0.91620781  0.83025892  1
  Ca2+  Ca30  1  0.83119342  0.41997870  0.17602551  1
  Ca2+  Ca31  1  0.83557267  0.41601210  0.50681045  1
  Ca2+  Ca32  1  0.82624719  0.40696961  0.82955624  1
  Ca2+  Ca33  1  0.83476721  0.92402871  0.16814084  1
  Ca2+  Ca34  1  0.82986617  0.91734702  0.51084165  1
  Ca2+  Ca35  1  0.83115312  0.91987654  0.83540546  1
  Ca2+  Ca36  1  0.41186730  0.17273269  0.16290690  1
  Ca2+  Ca37  1  0.41831936  0.17127158  0.50059781  1
  Ca2+  Ca38  1  0.42037673  0.18029811  0.82485685  1
  Ca2+  Ca39  1  0.42213175  0.65896691  0.16203509  1
  Ca2+  Ca40  1  0.41503849  0.66069612  0.50086157  1
  Ca2+  Ca41  1  0.42464966  0.66871146  0.82012773  1
  Ca2+  Ca42  1  0.92600499  0.17179449  0.16233144  1
  Ca2+  Ca43  1  0.92752747  0.18043199  0.49808809  1
  Ca2+  Ca44  1  0.92534781  0.16797704  0.82540541  1
  Ca2+  Ca45  1  0.92227109  0.65906960  0.17107229  1
  Ca2+  Ca46  1  0.92701344  0.66187321  0.49762559  1
  Ca2+  Ca47  1  0.92319003  0.67404391  0.82244635  1
  Al0+  Al48  1  -0.00009195  -0.00035822  0.00374261  1
  Al0+  Al49  1  -0.00132808  -0.00047852  0.33177041  1
  Al0+  Al50  1  0.00122244  0.00072624  0.65888778  1
  Al0+  Al51  1  -0.00130165  0.49846571  0.00384798  1
  Al0+  Al52  1  -0.00266291  0.50107787  0.33161026  1
  Al0+  Al53  1  0.00083626  0.50005466  0.66786776  1
  Al0+  Al54  1  0.50027267  -0.00121803  0.00231699  1
  Al0+  Al55  1  0.49963494  -0.00074722  0.33353617  1
  Al0+  Al56  1  0.50157679  -0.00109836  0.66772030  1
  Al0+  Al57  1  0.49970974  0.50014881  -0.00805612  1
  Al0+  Al58  1  0.50014977  0.49938198  0.33366958  1
  Al0+  Al59  1  0.50212347  0.50119084  0.66480193  1
  Al0+  Al60  1  0.24895310  0.24970463  -0.00348963  1
  Al0+  Al61  1  0.25143277  0.24947039  0.33839631  1
  Al0+  Al62  1  0.25306146  0.25006908  0.66451829  1
  Al0+  Al63  1  0.25068368  0.74987531  0.00050252  1
  Al0+  Al64  1  0.25103802  0.75250953  0.32997167  1
  Al0+  Al65  1  0.25076701  0.75278210  0.66498679  1
  Al0+  Al66  1  0.75000427  0.24966473  0.00751090  1
  Al0+  Al67  1  0.74938732  0.24820605  0.33047060  1
  Al0+  Al68  1  0.75207480  0.24957366  0.66493580  1
  Al0+  Al69  1  0.74941736  0.74971703  -0.00163190  1
  Al0+  Al70  1  0.74864691  0.74929472  0.33557310  1
  Al0+  Al71  1  0.74824348  0.75206611  0.66574283  1
  Al0+  Al72  1  0.07211774  0.18012000  0.31711739  1
  Al0+  Al73  1  0.17888239  0.42842143  0.01490486  1
  Al0+  Al74  1  0.07167553  0.68016348  0.31898582  1
  Al0+  Al75  1  0.32298242  0.57299240  0.34669769  1
  Al0+  Al76  1  0.57074793  0.68042291  0.98593309  1
  Al0+  Al77  1  0.32082400  0.57365333  0.68271195  1
  Al0+  Al78  1  0.92757686  0.82234841  0.65291348  1
  Al0+  Al79  1  0.67878999  0.92876173  0.68196179  1
  Al0+  Al80  1  0.06867967  0.17958005  0.98671668  1
  Al0+  Al81  1  0.92711190  0.32226297  0.31604993  1
  Al0+  Al82  1  0.17852053  0.42981400  0.34889826  1
  Al0+  Al83  1  0.81898456  0.57032657  0.34715014  1
  Al0+  Al84  1  0.17827047  0.42754674  0.68346286  1
  Al0+  Al85  1  0.42878505  0.82131928  0.65079442  1
  Al0+  Al86  1  0.57132767  0.17948617  0.65383187  1
  Al0+  Al87  1  0.42907502  0.31878491  0.98665240  1
  Al0+  Al88  1  0.92970555  0.32149628  0.65395283  1
  Al0+  Al89  1  0.82160325  0.07059483  0.01464275  1
  Al0+  Al90  1  0.07376961  0.17871438  0.65163039  1
  Al0+  Al91  1  0.42897437  0.32335145  0.64874135  1
  Al0+  Al92  1  0.07120418  0.67852769  0.65446742  1
  Al0+  Al93  1  0.32047855  0.07010009  0.34765544  1
  Al0+  Al94  1  0.57121098  0.67784686  0.64834735  1
  Al0+  Al95  1  0.68132863  0.42871146  0.68007023  1
  Si0+  Si96  1  0.82003435  0.57300633  0.01482516  1
  Si0+  Si97  1  0.82351698  0.07073058  0.68236185  1
  Si0+  Si98  1  0.92463060  0.82081804  0.31527857  1
  Si0+  Si99  1  0.17633269  0.92723494  0.35075469  1
  Si0+  Si100  1  0.07133503  0.67686766  0.98665519  1
  Si0+  Si101  1  0.67833992  0.92673148  0.01837789  1
  Si0+  Si102  1  0.82156379  0.07144537  0.35020983  1
  Si0+  Si103  1  0.32250824  0.07072435  0.68335241  1
  Si0+  Si104  1  0.82251488  0.57319240  0.68463866  1
  Si0+  Si105  1  0.67730576  0.43005832  0.01433952  1
  Si0+  Si106  1  0.57460676  0.17681564  0.98549501  1
  Si0+  Si107  1  0.93083141  0.82041497  0.98759258  1
  Si0+  Si108  1  0.17815359  0.92708012  0.01519527  1
  Si0+  Si109  1  0.67988134  0.92997952  0.34782204  1
  Si0+  Si110  1  0.43185144  0.32000457  0.31815330  1
  Si0+  Si111  1  0.67707384  0.42570560  0.34859774  1
  Si0+  Si112  1  0.42662706  0.82401197  0.98418870  1
  Si0+  Si113  1  0.32213175  0.57214622  0.01505944  1
  Si0+  Si114  1  0.17849351  0.93128798  0.68111955  1
  Si0+  Si115  1  0.42993606  0.82372749  0.31627455  1
  Si0+  Si116  1  0.56999879  0.67947352  0.31783784  1
  Si0+  Si117  1  0.92504345  0.32341727  0.98389956  1
  Si0+  Si118  1  0.32037122  0.06982085  0.01289568  1
  Si0+  Si119  1  0.57031326  0.17446107  0.31679147  1
  O2-  O120  1  0.25125174  -0.00301195  0.05568822  1
  O2-  O121  1  0.24230922  -0.00107060  0.39386345  1
  O2-  O122  1  0.24757675  0.00337369  0.72546639  1
  O2-  O123  1  0.25202371  0.50595038  0.06033545  1
  O2-  O124  1  0.24650003  0.50677447  0.39633621  1
  O2-  O125  1  0.25167109  0.49910448  0.73348206  1
  O2-  O126  1  0.74415470  -0.00208572  0.06310448  1
  O2-  O127  1  0.75056785  0.00018930  0.39105973  1
  O2-  O128  1  0.75520701  0.00207890  0.72784373  1
  O2-  O129  1  0.74955917  0.50011569  0.05603146  1
  O2-  O130  1  0.74947045  0.49045378  0.39132872  1
  O2-  O131  1  0.75488766  0.50364405  0.72968912  1
  O2-  O132  1  0.00118002  0.25231203  0.26531093  1
  O2-  O133  1  0.00723676  0.25615397  0.60385187  1
  O2-  O134  1  -0.00617328  0.25423633  0.94147341  1
  O2-  O135  1  -0.00378997  0.75504325  0.27063449  1
  O2-  O136  1  -0.00467892  0.74654928  0.60423006  1
  O2-  O137  1  0.00119636  0.74920164  0.94531336  1
  O2-  O138  1  0.50257595  0.24856073  0.27436422  1
  O2-  O139  1  0.50218081  0.25133814  0.60000343  1
  O2-  O140  1  0.50606492  0.24505842  0.94232923  1
  O2-  O141  1  0.49554436  0.74703870  0.27459531  1
  O2-  O142  1  0.49572750  0.74627488  0.59846867  1
  O2-  O143  1  0.49441424  0.75437498  0.94208047  1
  O2-  O144  1  0.07002721  0.17894585  0.09947303  1
  O2-  O145  1  0.06974538  0.17963781  0.42968217  1
  O2-  O146  1  0.06880929  0.17521106  0.76573685  1
  O2-  O147  1  0.07082618  0.67861560  0.09179063  1
  O2-  O148  1  0.07115939  0.68266952  0.43105781  1
  O2-  O149  1  0.06946555  0.68206135  0.76917454  1
  O2-  O150  1  0.57372749  0.17769923  0.09173173  1
  O2-  O151  1  0.56939632  0.16984027  0.42087867  1
  O2-  O152  1  0.56887220  0.17976934  0.76803071  1
  O2-  O153  1  0.57085146  0.68156362  0.10010115  1
  O2-  O154  1  0.57234866  0.68083735  0.42165158  1
  O2-  O155  1  0.57159852  0.68184259  0.76235530  1
  O2-  O156  1  0.18324679  0.42818927  0.23440190  1
  O2-  O157  1  0.17720447  0.42892709  0.57038184  1
  O2-  O158  1  0.17782565  0.42819950  0.90260393  1
  O2-  O159  1  0.17987202  0.92575904  0.24421563  1
  O2-  O160  1  0.17906910  0.93154129  0.57639610  1
  O2-  O161  1  0.17619017  0.92506129  0.91050960  1
  O2-  O162  1  0.67332907  0.42917148  0.24213219  1
  O2-  O163  1  0.68433457  0.42939005  0.56699387  1
  O2-  O164  1  0.67794968  0.42834377  0.90995637  1
  O2-  O165  1  0.68076574  0.93077017  0.24214898  1
  O2-  O166  1  0.67859646  0.93201889  0.56834535  1
  O2-  O167  1  0.67928257  0.92579544  0.91364140  1
  O2-  O168  1  0.43016697  0.31723149  0.10064082  1
  O2-  O169  1  0.43517695  0.32046251  0.42224566  1
  O2-  O170  1  0.42892222  0.31900826  0.76276392  1
  O2-  O171  1  0.42708640  0.82635227  0.09012364  1
  O2-  O172  1  0.43388975  0.82990074  0.42012714  1
  O2-  O173  1  0.43114418  0.82273450  0.76500537  1
  O2-  O174  1  0.92326721  0.32336460  0.08916482  1
  O2-  O175  1  0.92345858  0.31872180  0.42878012  1
  O2-  O176  1  0.92676617  0.31636069  0.76804468  1
  O2-  O177  1  0.93104622  0.82021534  0.09275364  1
  O2-  O178  1  0.92141200  0.81996906  0.41995038  1
  O2-  O179  1  0.93128014  0.82322708  0.76770462  1
  O2-  O180  1  0.32256890  0.06765653  0.23346798  1
  O2-  O181  1  0.32455116  0.06798678  0.57838696  1
  O2-  O182  1  0.32140002  0.06797905  0.90822681  1
  O2-  O183  1  0.32609183  0.56754931  0.23224982  1
  O2-  O184  1  0.31649738  0.57311493  0.56915540  1
  O2-  O185  1  0.32069852  0.57468514  0.91042925  1
  O2-  O186  1  0.81973800  0.06988474  0.24457842  1
  O2-  O187  1  0.82172383  0.06883722  0.57665431  1
  O2-  O188  1  0.82206992  0.06738776  0.90214297  1
  O2-  O189  1  0.81357774  0.57306374  0.23300870  1
  O2-  O190  1  0.82108469  0.57332406  0.57912354  1
  O2-  O191  1  0.82126756  0.57681919  0.91051022  1
  O2-  O192  1  0.04371135  0.07940941  0.26607244  1
  O2-  O193  1  0.04286263  0.08318254  0.59543730  1
  O2-  O194  1  0.03928775  0.08082902  0.93559526  1
  O2-  O195  1  0.03855275  0.58528788  0.26297329  1
  O2-  O196  1  0.04537451  0.58054447  0.60195213  1
  O2-  O197  1  0.04103485  0.58568112  0.94061412  1
  O2-  O198  1  0.53988015  0.08471599  0.26584702  1
  O2-  O199  1  0.54092591  0.08198255  0.60136385  1
  O2-  O200  1  0.55047450  0.08150145  0.94266747  1
  O2-  O201  1  0.54500237  0.58658731  0.26958478  1
  O2-  O202  1  0.55010053  0.57871065  0.59590632  1
  O2-  O203  1  0.54346526  0.58424769  0.93113930  1
  O2-  O204  1  0.17327056  0.20631152  0.26680856  1
  O2-  O205  1  0.17476309  0.19812621  0.60310625  1
  O2-  O206  1  0.16521780  0.20765330  0.93253061  1
  O2-  O207  1  0.16760963  0.71279916  0.26196847  1
  O2-  O208  1  0.16602497  0.71370385  0.60086188  1
  O2-  O209  1  0.16389678  0.70434070  0.94144993  1
  O2-  O210  1  0.66306625  0.19978946  0.26971932  1
  O2-  O211  1  0.67014432  0.20370284  0.60117326  1
  O2-  O212  1  0.66893042  0.20156127  0.94202083  1
  O2-  O213  1  0.65994520  0.71261906  0.26854944  1
  O2-  O214  1  0.66812093  0.71131705  0.59643847  1
  O2-  O215  1  0.66692658  0.71204695  0.93217228  1
  O2-  O216  1  0.08123235  0.45713862  0.06886126  1
  O2-  O217  1  0.07780360  0.45466727  0.39590297  1
  O2-  O218  1  0.07974136  0.45628156  0.73771406  1
  O2-  O219  1  0.08808419  0.95495128  0.06558215  1
  O2-  O220  1  0.08043043  0.94756007  0.39322838  1
  O2-  O221  1  0.08593876  0.95852121  0.72850497  1
  O2-  O222  1  0.58561717  0.46029147  0.06175559  1
  O2-  O223  1  0.58584594  0.45599742  0.39523856  1
  O2-  O224  1  0.58461760  0.45878147  0.73413294  1
  O2-  O225  1  0.58322213  0.94887153  0.06465509  1
  O2-  O226  1  0.58819636  0.95845128  0.39361101  1
  O2-  O227  1  0.58380706  0.96159780  0.73844535  1
  O2-  O228  1  0.21407369  0.33196484  0.06748498  1
  O2-  O229  1  0.21043191  0.33317212  0.40118673  1
  O2-  O230  1  0.20928617  0.32814048  0.73488806  1
  O2-  O231  1  0.20628567  0.83540790  0.06464325  1
  O2-  O232  1  0.20620944  0.83541673  0.39651715  1
  O2-  O233  1  0.20718452  0.84105892  0.73131695  1
  O2-  O234  1  0.70141984  0.33829761  0.06476267  1
  O2-  O235  1  0.69662176  0.32956923  0.39105829  1
  O2-  O236  1  0.71253162  0.33193085  0.73544376  1
  O2-  O237  1  0.70807382  0.83444049  0.06609442  1
  O2-  O238  1  0.70613922  0.83814083  0.39460939  1
  O2-  O239  1  0.70838501  0.83246984  0.73733231  1
  O2-  O240  1  0.46125745  0.41088851  0.26831650  1
  O2-  O241  1  0.45918899  0.42029099  0.59652097  1
  O2-  O242  1  0.45863583  0.41440690  0.93201980  1
  O2-  O243  1  0.46477946  0.91203783  0.26446092  1
  O2-  O244  1  0.46300287  0.91778816  0.59800131  1
  O2-  O245  1  0.45220678  0.91778741  0.93840502  1
  O2-  O246  1  0.94892794  0.42256994  0.26419608  1
  O2-  O247  1  0.95019686  0.42215838  0.60401137  1
  O2-  O248  1  0.94861214  0.41794299  0.93932372  1
  O2-  O249  1  0.94833348  0.91556532  0.26989015  1
  O2-  O250  1  0.95915950  0.91718025  0.59622373  1
  O2-  O251  1  0.95941414  0.91150781  0.94053518  1
  O2-  O252  1  0.34036172  0.28989809  0.27188342  1
  O2-  O253  1  0.33275657  0.29187801  0.59558361  1
  O2-  O254  1  0.33525419  0.28422070  0.93143680  1
  O2-  O255  1  0.33650652  0.80403184  0.26850784  1
  O2-  O256  1  0.32882893  0.80190904  0.59869460  1
  O2-  O257  1  0.33192025  0.80126813  0.93903353  1
  O2-  O258  1  0.82794876  0.29138812  0.26234035  1
  O2-  O259  1  0.83431519  0.28908451  0.59811383  1
  O2-  O260  1  0.83016613  0.29682185  0.94081758  1
  O2-  O261  1  0.83211298  0.79203099  0.26708535  1
  O2-  O262  1  0.82789734  0.80067003  0.60230536  1
  O2-  O263  1  0.83862580  0.79370153  0.94098379  1
  O2-  O264  1  0.41309142  0.04493661  0.06223487  1
  O2-  O265  1  0.41623538  0.03476418  0.40026553  1
  O2-  O266  1  0.41160684  0.03782934  0.73282228  1
  O2-  O267  1  0.41671524  0.54453362  0.05904652  1
  O2-  O268  1  0.42051483  0.54172104  0.39907181  1
  O2-  O269  1  0.42233665  0.54923599  0.73041856  1
  O2-  O270  1  0.91572773  0.03518842  0.07196963  1
  O2-  O271  1  0.91331190  0.04342281  0.39622173  1
  O2-  O272  1  0.91734036  0.04283176  0.72714936  1
  O2-  O273  1  0.91129792  0.54551154  0.06401628  1
  O2-  O274  1  0.91686229  0.54618564  0.39929007  1
  O2-  O275  1  0.91636583  0.55070229  0.73123453  1
  O2-  O276  1  0.29029201  0.16035958  0.06089725  1
  O2-  O277  1  0.29552427  0.16638784  0.40293518  1
  O2-  O278  1  0.29842874  0.16323051  0.73047431  1
  O2-  O279  1  0.30095371  0.66758864  0.06165473  1
  O2-  O280  1  0.30411332  0.67608946  0.39213143  1
  O2-  O281  1  0.29295963  0.67339504  0.73480450  1
  O2-  O282  1  0.79134292  0.16619203  0.07263121  1
  O2-  O283  1  0.79236336  0.16316259  0.39551911  1
  O2-  O284  1  0.79746718  0.16330998  0.72932829  1
  O2-  O285  1  0.78997820  0.66364761  0.06433323  1
  O2-  O286  1  0.78411046  0.66531018  0.40126714  1
  O2-  O287  1  0.79467363  0.66667648  0.73018828  1
