# generated using pymatgen
data_Ca2Al2SiO7
_symmetry_space_group_name_H-M   'P 1'
_cell_length_a   15.45754955
_cell_length_b   15.45658343
_cell_length_c   15.28175367
_cell_angle_alpha   90.00315838
_cell_angle_beta   89.98172681
_cell_angle_gamma   90.00382828
_symmetry_Int_Tables_number   1
_chemical_formula_structural   Ca2Al2SiO7
_chemical_formula_sum   'Ca48 Al48 Si24 O168'
_cell_volume   3651.13020687
_cell_formula_units_Z   24
loop_
 _symmetry_equiv_pos_site_id
 _symmetry_equiv_pos_as_xyz
  1  'x, y, z'
loop_
 _atom_type_symbol
 _atom_type_oxidation_number
  Ca2+  2.0
  Al0+  0.0
  Si0+  0.0
  O2-  -2.0
loop_
 _atom_site_type_symbol
 _atom_site_label
 _atom_site_symmetry_multiplicity
 _atom_site_fract_x
 _atom_site_fract_y
 _atom_site_fract_z
 _atom_site_occupancy
  Ca2+  Ca0  1  0.17583275  0.08458163  0.17206369  1
  Ca2+  Ca1  1  0.17436143  0.08246155  0.50395011  1
  Ca2+  Ca2  1  0.17898284  0.07983131  0.83448504  1
  Ca2+  Ca3  1  0.15962835  0.57650300  0.16876582  1
  Ca2+  Ca4  1  0.17181948  0.58359123  0.50522112  1
  Ca2+  Ca5  1  0.17459668  0.57812001  0.83698452  1
  Ca2+  Ca6  1  0.67819674  0.08496041  0.17014067  1
  Ca2+  Ca7  1  0.67833404  0.08139250  0.50514648  1
  Ca2+  Ca8  1  0.67341989  0.07787832  0.83351644  1
  Ca2+  Ca9  1  0.66975317  0.58297117  0.16828491  1
  Ca2+  Ca10  1  0.66012097  0.56972645  0.50248350  1
  Ca2+  Ca11  1  0.66526086  0.57866267  0.83927362  1
  Ca2+  Ca12  1  0.07505364  0.32754921  0.16192505  1
  Ca2+  Ca13  1  0.07444947  0.32258918  0.48800483  1
  Ca2+  Ca14  1  0.07932232  0.33669576  0.83451592  1
  Ca2+  Ca15  1  0.07892409  0.82642946  0.16351428  1
  Ca2+  Ca16  1  0.09041070  0.82885749  0.49659170  1
  Ca2+  Ca17  1  0.07886972  0.84185509  0.83047400  1
  Ca2+  Ca18  1  0.57969765  0.33610669  0.16863211  1
  Ca2+  Ca19  1  0.57633293  0.33711473  0.49644644  1
  Ca2+  Ca20  1  0.57979325  0.33125511  0.82408747  1
  Ca2+  Ca21  1  0.57463559  0.83240178  0.15780438  1
  Ca2+  Ca22  1  0.57275628  0.84384472  0.49978376  1
  Ca2+  Ca23  1  0.57701824  0.83111699  0.82852221  1
  Ca2+  Ca24  1  0.32628477  0.41430582  0.17156623  1
  Ca2+  Ca25  1  0.33968841  0.42222782  0.50822077  1
  Ca2+  Ca26  1  0.33318470  0.42121037  0.83666041  1
  Ca2+  Ca27  1  0.34235059  0.92469243  0.17134178  1
  Ca2+  Ca28  1  0.33320917  0.92579135  0.50888620  1
  Ca2+  Ca29  1  0.33609051  0.92004909  0.83584400  1
  Ca2+  Ca30  1  0.83226404  0.41622793  0.17148938  1
  Ca2+  Ca31  1  0.82122598  0.40863026  0.50105264  1
  Ca2+  Ca32  1  0.82847033  0.42106449  0.84139753  1
  Ca2+  Ca33  1  0.83969083  0.92514527  0.16943280  1
  Ca2+  Ca34  1  0.83029141  0.92841887  0.50906841  1
  Ca2+  Ca35  1  0.83267837  0.92535367  0.84079810  1
  Ca2+  Ca36  1  0.41220601  0.16738870  0.16462777  1
  Ca2+  Ca37  1  0.40998610  0.17512233  0.49410600  1
  Ca2+  Ca38  1  0.41243122  0.16909884  0.82679541  1
  Ca2+  Ca39  1  0.42411363  0.67993381  0.15933319  1
  Ca2+  Ca40  1  0.41021217  0.68004607  0.49689628  1
  Ca2+  Ca41  1  0.41847012  0.67407191  0.82772786  1
  Ca2+  Ca42  1  0.91331162  0.17329421  0.16230937  1
  Ca2+  Ca43  1  0.92016398  0.16444445  0.48990084  1
  Ca2+  Ca44  1  0.91007191  0.16848395  0.83061494  1
  Ca2+  Ca45  1  0.91889679  0.66765010  0.15764330  1
  Ca2+  Ca46  1  0.92622672  0.66945697  0.49320890  1
  Ca2+  Ca47  1  0.91246331  0.67073896  0.83549373  1
  Al0+  Al48  1  0.00320557  0.00038002  0.00064127  1
  Al0+  Al49  1  0.00303294  -0.00188392  0.33387441  1
  Al0+  Al50  1  0.00150373  0.00157628  0.67191814  1
  Al0+  Al51  1  -0.00116262  0.49801326  0.00230160  1
  Al0+  Al52  1  -0.00046891  0.49988956  0.32892910  1
  Al0+  Al53  1  -0.00098300  0.50002514  0.66367511  1
  Al0+  Al54  1  0.50077644  0.00165554  -0.00019512  1
  Al0+  Al55  1  0.50019461  0.00314569  0.33363510  1
  Al0+  Al56  1  0.50346506  0.00154516  0.66861762  1
  Al0+  Al57  1  0.49866621  0.50006021  -0.00156023  1
  Al0+  Al58  1  0.49944778  0.50077380  0.33165789  1
  Al0+  Al59  1  0.49986227  0.50007232  0.67238454  1
  Al0+  Al60  1  0.24848628  0.24946168  0.00702060  1
  Al0+  Al61  1  0.24830657  0.25036320  0.33007727  1
  Al0+  Al62  1  0.24698350  0.25055566  0.66501642  1
  Al0+  Al63  1  0.25011705  0.74954468  -0.00295718  1
  Al0+  Al64  1  0.25039247  0.74922260  0.32136250  1
  Al0+  Al65  1  0.25024087  0.74905265  0.67178968  1
  Al0+  Al66  1  0.74909630  0.24973176  -0.00101940  1
  Al0+  Al67  1  0.74831329  0.25015395  0.33837918  1
  Al0+  Al68  1  0.74816906  0.25197522  0.67337955  1
  Al0+  Al69  1  0.74997900  0.74810986  -0.00365314  1
  Al0+  Al70  1  0.74927818  0.74917468  0.33678183  1
  Al0+  Al71  1  0.75072832  0.74891332  0.66477692  1
  Al0+  Al72  1  0.81889022  0.57059196  0.01334679  1
  Al0+  Al73  1  0.82194060  0.07098946  0.01507933  1
  Al0+  Al74  1  0.32170704  0.06893430  0.01512864  1
  Al0+  Al75  1  0.92592010  0.31839458  0.31857037  1
  Al0+  Al76  1  0.17976943  0.43030351  0.01473073  1
  Al0+  Al77  1  0.42980187  0.82117209  0.65218875  1
  Al0+  Al78  1  0.92852038  0.31963692  0.98451294  1
  Al0+  Al79  1  0.67917790  0.43134990  0.68180781  1
  Al0+  Al80  1  0.32065200  0.07192277  0.34814374  1
  Al0+  Al81  1  0.42881613  0.32265420  0.31935473  1
  Al0+  Al82  1  0.57124093  0.67773850  0.98384134  1
  Al0+  Al83  1  0.32210039  0.07374426  0.68002761  1
  Al0+  Al84  1  0.93135953  0.82183104  0.98653767  1
  Al0+  Al85  1  0.32031624  0.57047682  0.67954005  1
  Al0+  Al86  1  0.82185095  0.07121024  0.68286766  1
  Al0+  Al87  1  0.82248970  0.06899872  0.34608109  1
  Al0+  Al88  1  0.07159259  0.17589557  0.31702997  1
  Al0+  Al89  1  0.07100460  0.67891805  0.31925124  1
  Al0+  Al90  1  0.42898512  0.82344309  0.98238036  1
  Al0+  Al91  1  0.67894908  0.92625597  0.68210202  1
  Al0+  Al92  1  0.18069446  0.92768702  0.68134226  1
  Al0+  Al93  1  0.43102578  0.82315243  0.31995178  1
  Al0+  Al94  1  0.67859598  0.43087932  0.34667924  1
  Al0+  Al95  1  0.42829900  0.32020749  0.65474078  1
  Si0+  Si96  1  0.17825100  0.92584292  0.01877593  1
  Si0+  Si97  1  0.06948809  0.17885353  0.65188388  1
  Si0+  Si98  1  0.17737032  0.42939302  0.34909397  1
  Si0+  Si99  1  0.82402235  0.57336027  0.35129369  1
  Si0+  Si100  1  0.92950291  0.82292298  0.65178728  1
  Si0+  Si101  1  0.18056970  0.92463672  0.34776418  1
  Si0+  Si102  1  0.92615774  0.82109957  0.31925277  1
  Si0+  Si103  1  0.07121444  0.67573642  0.98100942  1
  Si0+  Si104  1  0.07353624  0.17887922  0.98113750  1
  Si0+  Si105  1  0.67953007  0.92808087  0.01642610  1
  Si0+  Si106  1  0.57326417  0.67701551  0.64816321  1
  Si0+  Si107  1  0.67731812  0.92669857  0.34875267  1
  Si0+  Si108  1  0.57157890  0.18036558  0.98463813  1
  Si0+  Si109  1  0.07051280  0.67860513  0.65320104  1
  Si0+  Si110  1  0.57212985  0.67710414  0.31820938  1
  Si0+  Si111  1  0.57378173  0.17923889  0.64926895  1
  Si0+  Si112  1  0.67579231  0.42703496  0.01764367  1
  Si0+  Si113  1  0.17513502  0.42797365  0.68068824  1
  Si0+  Si114  1  0.31923866  0.57053085  0.34592433  1
  Si0+  Si115  1  0.92759118  0.32179065  0.65194205  1
  Si0+  Si116  1  0.57147805  0.17916735  0.31688031  1
  Si0+  Si117  1  0.42674914  0.31936221  0.98615665  1
  Si0+  Si118  1  0.32294260  0.57283116  0.01897667  1
  Si0+  Si119  1  0.82531548  0.57159330  0.68210803  1
  O2-  O120  1  0.25108751  -0.00970718  0.06226192  1
  O2-  O121  1  0.24713058  -0.00507812  0.39248694  1
  O2-  O122  1  0.25573769  -0.00311584  0.73062272  1
  O2-  O123  1  0.25307563  0.50571566  0.06359627  1
  O2-  O124  1  0.24958964  0.49925309  0.39117862  1
  O2-  O125  1  0.24711844  0.49306605  0.72455141  1
  O2-  O126  1  0.75070725  -0.00668827  0.06242857  1
  O2-  O127  1  0.75084100  -0.00911381  0.39188970  1
  O2-  O128  1  0.75303957  -0.00407295  0.73224214  1
  O2-  O129  1  0.74375516  0.49671868  0.06076238  1
  O2-  O130  1  0.75477555  0.50465013  0.39433512  1
  O2-  O131  1  0.75404792  0.50620582  0.72646952  1
  O2-  O132  1  -0.00387346  0.24499146  0.26786398  1
  O2-  O133  1  -0.00363872  0.24865450  0.61044605  1
  O2-  O134  1  0.00115266  0.24357929  0.93584857  1
  O2-  O135  1  -0.00820894  0.74974306  0.27474590  1
  O2-  O136  1  0.00092476  0.75127985  0.61048888  1
  O2-  O137  1  0.00665646  0.74832330  0.93681411  1
  O2-  O138  1  0.50115499  0.24620263  0.27193237  1
  O2-  O139  1  0.50011749  0.24358345  0.60599001  1
  O2-  O140  1  0.49923734  0.25083223  0.94337708  1
  O2-  O141  1  0.50987730  0.75176384  0.27491984  1
  O2-  O142  1  0.50685167  0.74831997  0.60390414  1
  O2-  O143  1  0.49870649  0.74873339  0.93343672  1
  O2-  O144  1  0.07407974  0.18136858  0.08648639  1
  O2-  O145  1  0.07131305  0.17866615  0.43143964  1
  O2-  O146  1  0.07127995  0.18083568  0.75685380  1
  O2-  O147  1  0.06873466  0.67604282  0.08687329  1
  O2-  O148  1  0.07278936  0.68059544  0.43311744  1
  O2-  O149  1  0.06757279  0.67426523  0.75773128  1
  O2-  O150  1  0.57310630  0.18139573  0.08985368  1
  O2-  O151  1  0.57181367  0.17938223  0.42231265  1
  O2-  O152  1  0.57614114  0.18284383  0.75516667  1
  O2-  O153  1  0.56973650  0.67888178  0.09811424  1
  O2-  O154  1  0.56880697  0.67337291  0.42359419  1
  O2-  O155  1  0.57202893  0.67635716  0.75347032  1
  O2-  O156  1  0.17780054  0.43127393  0.24404092  1
  O2-  O157  1  0.17191614  0.43103078  0.57504748  1
  O2-  O158  1  0.18281881  0.43124989  0.90104733  1
  O2-  O159  1  0.18117851  0.92325835  0.24230161  1
  O2-  O160  1  0.17994725  0.92757464  0.56742047  1
  O2-  O161  1  0.17645113  0.92873956  0.91328503  1
  O2-  O162  1  0.67743108  0.43411336  0.23375183  1
  O2-  O163  1  0.67962248  0.43078688  0.56847905  1
  O2-  O164  1  0.67602310  0.42672672  0.91200984  1
  O2-  O165  1  0.67728637  0.92654080  0.24309826  1
  O2-  O166  1  0.68198149  0.92855842  0.56786018  1
  O2-  O167  1  0.67975635  0.93101243  0.91116680  1
  O2-  O168  1  0.42773803  0.31909685  0.09137294  1
  O2-  O169  1  0.43038744  0.32494876  0.43248128  1
  O2-  O170  1  0.42956418  0.31977041  0.76830615  1
  O2-  O171  1  0.43268149  0.82371346  0.09648704  1
  O2-  O172  1  0.42856958  0.82167876  0.43317295  1
  O2-  O173  1  0.42958462  0.81792465  0.76464620  1
  O2-  O174  1  0.92819920  0.31900934  0.09720397  1
  O2-  O175  1  0.92780281  0.31770693  0.43300663  1
  O2-  O176  1  0.93024109  0.32496459  0.75698444  1
  O2-  O177  1  0.93330678  0.82024251  0.09992353  1
  O2-  O178  1  0.92722359  0.82013158  0.42519469  1
  O2-  O179  1  0.92950102  0.82193779  0.75674536  1
  O2-  O180  1  0.32075490  0.07008584  0.23500563  1
  O2-  O181  1  0.31719642  0.07585202  0.56644392  1
  O2-  O182  1  0.31982204  0.07234115  0.90228817  1
  O2-  O183  1  0.31799831  0.56843711  0.24101457  1
  O2-  O184  1  0.31751557  0.57180666  0.56570198  1
  O2-  O185  1  0.32261161  0.57014748  0.91320144  1
  O2-  O186  1  0.81981781  0.06869824  0.23293755  1
  O2-  O187  1  0.82268778  0.07080036  0.56889192  1
  O2-  O188  1  0.81805964  0.07116088  0.90240077  1
  O2-  O189  1  0.82329145  0.57589595  0.24590654  1
  O2-  O190  1  0.82980307  0.56915662  0.57650036  1
  O2-  O191  1  0.81920749  0.56769665  0.90001756  1
  O2-  O192  1  0.05064815  0.07495201  0.26641127  1
  O2-  O193  1  0.04312334  0.08652522  0.60451577  1
  O2-  O194  1  0.05334524  0.08342799  0.93757091  1
  O2-  O195  1  0.04211394  0.58259578  0.26428377  1
  O2-  O196  1  0.04127030  0.58808619  0.60203711  1
  O2-  O197  1  0.04162004  0.58366629  0.93496958  1
  O2-  O198  1  0.54811391  0.08600208  0.26892280  1
  O2-  O199  1  0.55620691  0.08370818  0.60474969  1
  O2-  O200  1  0.54454572  0.08887131  0.93701002  1
  O2-  O201  1  0.54094125  0.58737637  0.26820966  1
  O2-  O202  1  0.54310539  0.58380390  0.60385452  1
  O2-  O203  1  0.54254103  0.57837517  0.93119203  1
  O2-  O204  1  0.16718643  0.20974677  0.26240383  1
  O2-  O205  1  0.15936520  0.20870422  0.60154275  1
  O2-  O206  1  0.16555309  0.21147700  0.93528674  1
  O2-  O207  1  0.16397232  0.70996375  0.25877059  1
  O2-  O208  1  0.16249302  0.70539950  0.60591810  1
  O2-  O209  1  0.16711583  0.69619239  0.93770741  1
  O2-  O210  1  0.66371431  0.20829436  0.27023671  1
  O2-  O211  1  0.66570500  0.21186355  0.60267046  1
  O2-  O212  1  0.66140194  0.20960926  0.93440315  1
  O2-  O213  1  0.66895184  0.69621895  0.27531323  1
  O2-  O214  1  0.66886750  0.69647192  0.60210006  1
  O2-  O215  1  0.66958620  0.70287734  0.93006957  1
  O2-  O216  1  0.08367905  0.46101003  0.06930404  1
  O2-  O217  1  0.08564389  0.45864772  0.39631338  1
  O2-  O218  1  0.08331572  0.45831044  0.72856562  1
  O2-  O219  1  0.08663845  0.95489972  0.06690206  1
  O2-  O220  1  0.08596545  0.94552627  0.39433374  1
  O2-  O221  1  0.08416350  0.95979221  0.73592879  1
  O2-  O222  1  0.58115589  0.45178653  0.06260968  1
  O2-  O223  1  0.58223023  0.46462942  0.40126088  1
  O2-  O224  1  0.58407348  0.46104311  0.73840768  1
  O2-  O225  1  0.58765587  0.95884122  0.06331353  1
  O2-  O226  1  0.58650214  0.95906429  0.39629095  1
  O2-  O227  1  0.58250175  0.95668517  0.73678380  1
  O2-  O228  1  0.21125924  0.33548193  0.07120850  1
  O2-  O229  1  0.20340296  0.33700793  0.39522246  1
  O2-  O230  1  0.19628232  0.33391853  0.72639038  1
  O2-  O231  1  0.19770571  0.82905814  0.06136923  1
  O2-  O232  1  0.20836673  0.83049093  0.39226402  1
  O2-  O233  1  0.20232245  0.82891750  0.73594790  1
  O2-  O234  1  0.70260218  0.33395207  0.06326604  1
  O2-  O235  1  0.70663148  0.33476112  0.40321439  1
  O2-  O236  1  0.70920793  0.33632481  0.73832238  1
  O2-  O237  1  0.70122498  0.83284606  0.05988134  1
  O2-  O238  1  0.69570119  0.83137631  0.39527257  1
  O2-  O239  1  0.70374545  0.82564774  0.73173007  1
  O2-  O240  1  0.46123970  0.41801544  0.26340800  1
  O2-  O241  1  0.46174770  0.41749278  0.60272131  1
  O2-  O242  1  0.45139779  0.41249469  0.93989788  1
  O2-  O243  1  0.46126292  0.92017451  0.26668592  1
  O2-  O244  1  0.46009314  0.91965469  0.60020439  1
  O2-  O245  1  0.45966972  0.92190868  0.93122517  1
  O2-  O246  1  0.95472954  0.41730045  0.26747629  1
  O2-  O247  1  0.95665572  0.41247796  0.60235831  1
  O2-  O248  1  0.96236675  0.41574375  0.93095812  1
  O2-  O249  1  0.95508079  0.91296502  0.27223250  1
  O2-  O250  1  0.95870150  0.91495634  0.60543845  1
  O2-  O251  1  0.96277249  0.91848280  0.93191341  1
  O2-  O252  1  0.33193072  0.29406561  0.26592149  1
  O2-  O253  1  0.32945279  0.29553501  0.60089532  1
  O2-  O254  1  0.33514949  0.28980653  0.94006953  1
  O2-  O255  1  0.33801954  0.78878495  0.26186981  1
  O2-  O256  1  0.33245522  0.78635044  0.60072032  1
  O2-  O257  1  0.32848882  0.79734103  0.93252449  1
  O2-  O258  1  0.82623410  0.29278376  0.26739614  1
  O2-  O259  1  0.83396689  0.29569593  0.60798098  1
  O2-  O260  1  0.83082257  0.29082477  0.93101290  1
  O2-  O261  1  0.83087110  0.79972849  0.27444231  1
  O2-  O262  1  0.83842572  0.79505959  0.60247674  1
  O2-  O263  1  0.83527609  0.79052462  0.93237543  1
  O2-  O264  1  0.42023915  0.04321600  0.06872765  1
  O2-  O265  1  0.41898004  0.04526445  0.40074944  1
  O2-  O266  1  0.42325478  0.05389863  0.72906558  1
  O2-  O267  1  0.41600395  0.54514860  0.06490200  1
  O2-  O268  1  0.41104568  0.54425303  0.39358402  1
  O2-  O269  1  0.41494987  0.54038943  0.73636307  1
  O2-  O270  1  0.92070150  0.04352169  0.06602690  1
  O2-  O271  1  0.92019047  0.04009061  0.39971086  1
  O2-  O272  1  0.92028659  0.04595653  0.73608403  1
  O2-  O273  1  0.91502486  0.53953012  0.06756910  1
  O2-  O274  1  0.91822054  0.54756182  0.39646621  1
  O2-  O275  1  0.91721995  0.54302275  0.73043155  1
  O2-  O276  1  0.28756545  0.16401321  0.07030400  1
  O2-  O277  1  0.28777425  0.16926493  0.39997631  1
  O2-  O278  1  0.28693466  0.17034716  0.73392836  1
  O2-  O279  1  0.29887586  0.66788233  0.06264430  1
  O2-  O280  1  0.28862778  0.66294682  0.39081065  1
  O2-  O281  1  0.28601808  0.66302669  0.73764586  1
  O2-  O282  1  0.78580187  0.16674565  0.06771704  1
  O2-  O283  1  0.78877161  0.16389849  0.40139269  1
  O2-  O284  1  0.79065126  0.16849870  0.73575565  1
  O2-  O285  1  0.79026500  0.66774743  0.06813165  1
  O2-  O286  1  0.80029468  0.66716479  0.39927272  1
  O2-  O287  1  0.80362360  0.66693336  0.72524844  1
