# generated using pymatgen
data_Ca2Al2SiO7
_symmetry_space_group_name_H-M   'P 1'
_cell_length_a   15.45765988
_cell_length_b   15.45897273
_cell_length_c   15.28372363
_cell_angle_alpha   90.01284569
_cell_angle_beta   90.00342787
_cell_angle_gamma   89.99754271
_symmetry_Int_Tables_number   1
_chemical_formula_structural   Ca2Al2SiO7
_chemical_formula_sum   'Ca48 Al48 Si24 O168'
_cell_volume   3652.19150385
_cell_formula_units_Z   24
loop_
 _symmetry_equiv_pos_site_id
 _symmetry_equiv_pos_as_xyz
  1  'x, y, z'
loop_
 _atom_type_symbol
 _atom_type_oxidation_number
  Ca2+  2.0
  Al0+  0.0
  Si0+  0.0
  O2-  -2.0
loop_
 _atom_site_type_symbol
 _atom_site_label
 _atom_site_symmetry_multiplicity
 _atom_site_fract_x
 _atom_site_fract_y
 _atom_site_fract_z
 _atom_site_occupancy
  Ca2+  Ca0  1  0.17610210  0.08391285  0.17356482  1
  Ca2+  Ca1  1  0.17585767  0.08536458  0.50860521  1
  Ca2+  Ca2  1  0.16559035  0.08442388  0.82873697  1
  Ca2+  Ca3  1  0.17032742  0.57007617  0.17136039  1
  Ca2+  Ca4  1  0.16702879  0.57496333  0.50868735  1
  Ca2+  Ca5  1  0.16403068  0.57579706  0.83512437  1
  Ca2+  Ca6  1  0.66858089  0.08054685  0.17604832  1
  Ca2+  Ca7  1  0.67511758  0.07236677  0.50341983  1
  Ca2+  Ca8  1  0.66441115  0.07985774  0.83620822  1
  Ca2+  Ca9  1  0.66247118  0.58106117  0.17355843  1
  Ca2+  Ca10  1  0.66407266  0.57843471  0.49900039  1
  Ca2+  Ca11  1  0.67003821  0.58347924  0.83724383  1
  Ca2+  Ca12  1  0.07633239  0.33856588  0.16454371  1
  Ca2+  Ca13  1  0.07959843  0.33519975  0.49706272  1
  Ca2+  Ca14  1  0.07834133  0.33653630  0.82428349  1
  Ca2+  Ca15  1  0.07641693  0.83530777  0.16571935  1
  Ca2+  Ca16  1  0.08073060  0.83473542  0.49847370  1
  Ca2+  Ca17  1  0.07977115  0.82896313  0.81667724  1
  Ca2+  Ca18  1  0.57135765  0.33233876  0.16111343  1
  Ca2+  Ca19  1  0.57410702  0.33373962  0.48907703  1
  Ca2+  Ca20  1  0.57770174  0.32622044  0.83292122  1
  Ca2+  Ca21  1  0.58442277  0.82508805  0.16275464  1
  Ca2+  Ca22  1  0.58909974  0.82992997  0.49376248  1
  Ca2+  Ca23  1  0.57826670  0.83182607  0.83087936  1
  Ca2+  Ca24  1  0.32481789  0.40454127  0.17277568  1
  Ca2+  Ca25  1  0.32216171  0.41797075  0.50627118  1
  Ca2+  Ca26  1  0.32114357  0.41700900  0.83626857  1
  Ca2+  Ca27  1  0.33975592  0.92262364  0.17149700  1
  Ca2+  Ca28  1  0.33022135  0.93026668  0.50970065  1
  Ca2+  Ca29  1  0.33004213  0.91791535  0.83377593  1
  Ca2+  Ca30  1  0.82747305  0.41392484  0.17539880  1
  Ca2+  Ca31  1  0.82939812  0.40759800  0.50103260  1
  Ca2+  Ca32  1  0.84045428  0.41536544  0.83855348  1
  Ca2+  Ca33  1  0.82712278  0.92536165  0.18131446  1
  Ca2+  Ca34  1  0.82796445  0.90966380  0.50261269  1
  Ca2+  Ca35  1  0.82902569  0.91166340  0.83361823  1
  Ca2+  Ca36  1  0.42017508  0.17334538  0.16370253  1
  Ca2+  Ca37  1  0.40993772  0.16906313  0.49373274  1
  Ca2+  Ca38  1  0.41638829  0.16765019  0.83305207  1
  Ca2+  Ca39  1  0.43062664  0.67046749  0.15958203  1
  Ca2+  Ca40  1  0.41936613  0.66509610  0.49474370  1
  Ca2+  Ca41  1  0.41701836  0.66665897  0.83102098  1
  Ca2+  Ca42  1  0.90877930  0.17776535  0.16555229  1
  Ca2+  Ca43  1  0.92297262  0.17163840  0.49583886  1
  Ca2+  Ca44  1  0.92477095  0.17958477  0.82435772  1
  Ca2+  Ca45  1  0.91402256  0.67362192  0.16790515  1
  Ca2+  Ca46  1  0.92235440  0.67686568  0.50038177  1
  Ca2+  Ca47  1  0.92615353  0.67145059  0.82196666  1
  Al0+  Al48  1  -0.00118323  0.00184194  0.00233471  1
  Al0+  Al49  1  0.00160008  0.00064803  0.33039939  1
  Al0+  Al50  1  -0.00146676  0.00383636  0.66265794  1
  Al0+  Al51  1  -0.00034889  0.50194289  0.00374613  1
  Al0+  Al52  1  -0.00013124  0.49997205  0.33277872  1
  Al0+  Al53  1  -0.00273356  0.50251043  0.66098052  1
  Al0+  Al54  1  0.50011138  -0.00210826  -0.00502897  1
  Al0+  Al55  1  0.50028841  -0.00002236  0.34235232  1
  Al0+  Al56  1  0.50214790  -0.00089063  0.67424629  1
  Al0+  Al57  1  0.50024262  0.50014305  -0.00882606  1
  Al0+  Al58  1  0.49951839  0.50017083  0.32768986  1
  Al0+  Al59  1  0.50076155  0.49924356  0.67148156  1
  Al0+  Al60  1  0.24877844  0.24766189  0.00175164  1
  Al0+  Al61  1  0.24866051  0.24964053  0.33734703  1
  Al0+  Al62  1  0.25043066  0.25186750  0.67267737  1
  Al0+  Al63  1  0.24970159  0.74873525  0.00108068  1
  Al0+  Al64  1  0.25013332  0.74886724  0.32961051  1
  Al0+  Al65  1  0.25307291  0.75069454  0.66716677  1
  Al0+  Al66  1  0.75038902  0.25066741  -0.00787097  1
  Al0+  Al67  1  0.75034878  0.24924798  0.33910855  1
  Al0+  Al68  1  0.74734410  0.24776078  0.66419635  1
  Al0+  Al69  1  0.75017921  0.74983528  -0.00194022  1
  Al0+  Al70  1  0.75123713  0.74860936  0.32800766  1
  Al0+  Al71  1  0.74906713  0.74815309  0.66873465  1
  Al0+  Al72  1  0.57146983  0.17878778  0.98598992  1
  Al0+  Al73  1  0.17725077  0.93039843  0.67975918  1
  Al0+  Al74  1  0.32402635  0.57199458  0.68170057  1
  Al0+  Al75  1  0.68218073  0.92723981  0.68355459  1
  Al0+  Al76  1  0.57021610  0.67937812  0.32080696  1
  Al0+  Al77  1  0.92706180  0.32278055  0.64960586  1
  Al0+  Al78  1  0.32029576  0.06948853  0.34566736  1
  Al0+  Al79  1  0.07502865  0.68007803  0.65122044  1
  Al0+  Al80  1  0.32203838  0.07276696  0.68559317  1
  Al0+  Al81  1  0.07355041  0.18128861  0.65078891  1
  Al0+  Al82  1  0.57306836  0.67869431  0.98154684  1
  Al0+  Al83  1  0.93116373  0.32196938  0.98780078  1
  Al0+  Al84  1  0.17852753  0.42999870  0.34788775  1
  Al0+  Al85  1  0.42769381  0.82040743  0.98393925  1
  Al0+  Al86  1  0.17915399  0.42867024  0.01575574  1
  Al0+  Al87  1  0.17644047  0.43206952  0.68205038  1
  Al0+  Al88  1  0.82363073  0.07297863  0.34929191  1
  Al0+  Al89  1  0.92837266  0.32019853  0.31862393  1
  Al0+  Al90  1  0.42495955  0.32065268  0.98324748  1
  Al0+  Al91  1  0.92754520  0.82235836  0.65273438  1
  Al0+  Al92  1  0.93081477  0.82130914  0.31843226  1
  Al0+  Al93  1  0.42758531  0.31968795  0.32198781  1
  Al0+  Al94  1  0.67761727  0.42977851  0.34445207  1
  Al0+  Al95  1  0.68057537  0.92699670  0.34751767  1
  Si0+  Si96  1  0.42748934  0.82400272  0.31971068  1
  Si0+  Si97  1  0.82215835  0.57218552  0.35030188  1
  Si0+  Si98  1  0.43087009  0.82227189  0.65064955  1
  Si0+  Si99  1  0.06913341  0.68049611  0.98731819  1
  Si0+  Si100  1  0.17796001  0.92522946  0.34756977  1
  Si0+  Si101  1  0.07300461  0.17869748  0.31505142  1
  Si0+  Si102  1  0.82029652  0.07184819  0.01415822  1
  Si0+  Si103  1  0.82055767  0.57200599  0.01588383  1
  Si0+  Si104  1  0.81806922  0.56958028  0.68071719  1
  Si0+  Si105  1  0.82110248  0.07424171  0.68567631  1
  Si0+  Si106  1  0.56994362  0.17625694  0.64935157  1
  Si0+  Si107  1  0.67954409  0.92871126  0.01562200  1
  Si0+  Si108  1  0.57149370  0.17683051  0.32102113  1
  Si0+  Si109  1  0.57059298  0.67794162  0.65090042  1
  Si0+  Si110  1  0.32337350  0.57206175  0.01825615  1
  Si0+  Si111  1  0.07370824  0.67690997  0.31378433  1
  Si0+  Si112  1  0.43169904  0.32078837  0.65233032  1
  Si0+  Si113  1  0.67944326  0.42845511  0.01283789  1
  Si0+  Si114  1  0.32235968  0.57279145  0.34685029  1
  Si0+  Si115  1  0.32158944  0.06817561  0.01631175  1
  Si0+  Si116  1  0.07175365  0.17586351  0.98460302  1
  Si0+  Si117  1  0.17663782  0.92702228  0.01555676  1
  Si0+  Si118  1  0.67816409  0.42645813  0.68280509  1
  Si0+  Si119  1  0.93008797  0.82318309  0.98590791  1
  O2-  O120  1  0.24989172  -0.00367065  0.05745454  1
  O2-  O121  1  0.24826397  -0.00807584  0.39077968  1
  O2-  O122  1  0.24810474  0.00129579  0.73410550  1
  O2-  O123  1  0.25961463  0.49854702  0.06258155  1
  O2-  O124  1  0.25233150  0.50667943  0.39183894  1
  O2-  O125  1  0.24731196  0.50543599  0.73234323  1
  O2-  O126  1  0.74912053  0.00118016  0.05729243  1
  O2-  O127  1  0.75483369  -0.00330371  0.39770046  1
  O2-  O128  1  0.75746055  0.00105008  0.73135639  1
  O2-  O129  1  0.74798907  0.50169027  0.05622226  1
  O2-  O130  1  0.75462725  0.50147234  0.39340124  1
  O2-  O131  1  0.75348769  0.49314051  0.72436289  1
  O2-  O132  1  0.00129974  0.24434556  0.27035293  1
  O2-  O133  1  0.00193485  0.25360234  0.60058758  1
  O2-  O134  1  0.00780819  0.24961358  0.94217462  1
  O2-  O135  1  0.00643362  0.74781582  0.26996071  1
  O2-  O136  1  0.00668261  0.75745901  0.60356291  1
  O2-  O137  1  0.00329067  0.75544413  0.94364869  1
  O2-  O138  1  0.50452625  0.24655287  0.27587325  1
  O2-  O139  1  0.49822463  0.24653919  0.60790109  1
  O2-  O140  1  0.49813376  0.24880553  0.93432739  1
  O2-  O141  1  0.49653823  0.75588858  0.27535148  1
  O2-  O142  1  0.49910748  0.74811812  0.60873119  1
  O2-  O143  1  0.49850673  0.74796425  0.93209586  1
  O2-  O144  1  0.06987384  0.17137908  0.09008945  1
  O2-  O145  1  0.07509623  0.18041122  0.42005550  1
  O2-  O146  1  0.07044271  0.18253717  0.76515760  1
  O2-  O147  1  0.06592187  0.68146519  0.09244143  1
  O2-  O148  1  0.07531002  0.67746192  0.41875836  1
  O2-  O149  1  0.06917438  0.67860795  0.76577732  1
  O2-  O150  1  0.57228022  0.17934837  0.09988150  1
  O2-  O151  1  0.56873417  0.17747974  0.42661350  1
  O2-  O152  1  0.57144893  0.17890200  0.75456795  1
  O2-  O153  1  0.57543013  0.68123990  0.09519813  1
  O2-  O154  1  0.56831528  0.67816988  0.43420700  1
  O2-  O155  1  0.57194820  0.67892737  0.75572797  1
  O2-  O156  1  0.17935260  0.42997876  0.23427765  1
  O2-  O157  1  0.17921147  0.43179687  0.56851155  1
  O2-  O158  1  0.17488050  0.43343703  0.90333750  1
  O2-  O159  1  0.17889544  0.92617431  0.24116394  1
  O2-  O160  1  0.18236457  0.93041123  0.56611979  1
  O2-  O161  1  0.17300562  0.92747554  0.91115173  1
  O2-  O162  1  0.67733129  0.43130992  0.23090525  1
  O2-  O163  1  0.67423998  0.42921167  0.57777132  1
  O2-  O164  1  0.68346610  0.42859930  0.90751709  1
  O2-  O165  1  0.67965148  0.92885462  0.23319211  1
  O2-  O166  1  0.68217668  0.92605505  0.57080872  1
  O2-  O167  1  0.68252408  0.92740062  0.91061218  1
  O2-  O168  1  0.42616472  0.31744354  0.09726528  1
  O2-  O169  1  0.42845066  0.31976259  0.43530163  1
  O2-  O170  1  0.43570246  0.32104246  0.75720546  1
  O2-  O171  1  0.43090627  0.82139541  0.09810326  1
  O2-  O172  1  0.42601847  0.82230153  0.42511390  1
  O2-  O173  1  0.43294070  0.82297112  0.75560065  1
  O2-  O174  1  0.92793985  0.32084744  0.10077525  1
  O2-  O175  1  0.92946319  0.31992502  0.43082441  1
  O2-  O176  1  0.92700348  0.32176168  0.76386035  1
  O2-  O177  1  0.93001846  0.82267707  0.09089566  1
  O2-  O178  1  0.93092022  0.81822779  0.43084389  1
  O2-  O179  1  0.92588129  0.81605266  0.76727439  1
  O2-  O180  1  0.32077326  0.06836128  0.23186634  1
  O2-  O181  1  0.32383380  0.07093455  0.57188409  1
  O2-  O182  1  0.32078976  0.06816304  0.91176018  1
  O2-  O183  1  0.32077787  0.57372552  0.24120418  1
  O2-  O184  1  0.32990677  0.56570034  0.56798852  1
  O2-  O185  1  0.31810334  0.57529950  0.91316624  1
  O2-  O186  1  0.81860371  0.07294145  0.23444657  1
  O2-  O187  1  0.81575349  0.07729896  0.58081361  1
  O2-  O188  1  0.82238423  0.06863840  0.90942852  1
  O2-  O189  1  0.82110526  0.57243514  0.24397837  1
  O2-  O190  1  0.81324788  0.57348267  0.57611086  1
  O2-  O191  1  0.82225788  0.57278952  0.91071583  1
  O2-  O192  1  0.05377444  0.08347591  0.26885850  1
  O2-  O193  1  0.04640475  0.08312704  0.59687531  1
  O2-  O194  1  0.04057440  0.08443199  0.93622827  1
  O2-  O195  1  0.04407427  0.58497312  0.26654546  1
  O2-  O196  1  0.03854793  0.58586511  0.59571774  1
  O2-  O197  1  0.03556930  0.59108750  0.93935396  1
  O2-  O198  1  0.54417832  0.08325964  0.27497330  1
  O2-  O199  1  0.54400740  0.08288531  0.60508059  1
  O2-  O200  1  0.54517675  0.08031157  0.93264175  1
  O2-  O201  1  0.53794082  0.58539431  0.26214737  1
  O2-  O202  1  0.54389320  0.58463189  0.60546015  1
  O2-  O203  1  0.55017403  0.57963943  0.92819784  1
  O2-  O204  1  0.16480624  0.20887930  0.26730939  1
  O2-  O205  1  0.17384482  0.20842173  0.60077962  1
  O2-  O206  1  0.16693477  0.19511084  0.94097162  1
  O2-  O207  1  0.16736566  0.70094435  0.26543086  1
  O2-  O208  1  0.17543627  0.70180997  0.59958901  1
  O2-  O209  1  0.16278100  0.70189252  0.94213794  1
  O2-  O210  1  0.66583736  0.20010883  0.27650803  1
  O2-  O211  1  0.66083814  0.20479970  0.60141476  1
  O2-  O212  1  0.66743588  0.20878252  0.92808284  1
  O2-  O213  1  0.66651353  0.70682013  0.26431189  1
  O2-  O214  1  0.66179448  0.70685110  0.60378641  1
  O2-  O215  1  0.67148442  0.70969286  0.92870511  1
  O2-  O216  1  0.08429622  0.46641045  0.07078584  1
  O2-  O217  1  0.08166016  0.46091868  0.40029048  1
  O2-  O218  1  0.07599199  0.46045290  0.73178293  1
  O2-  O219  1  0.08565398  0.95786696  0.06487746  1
  O2-  O220  1  0.08452826  0.95054514  0.39211324  1
  O2-  O221  1  0.07681885  0.95618976  0.73156114  1
  O2-  O222  1  0.58533981  0.45384147  0.05698712  1
  O2-  O223  1  0.58182671  0.46372769  0.39911561  1
  O2-  O224  1  0.58998878  0.45937196  0.73375400  1
  O2-  O225  1  0.58629827  0.95404428  0.06081561  1
  O2-  O226  1  0.58333972  0.95402135  0.40301014  1
  O2-  O227  1  0.58710260  0.95973504  0.73903437  1
  O2-  O228  1  0.20421457  0.32913859  0.06788926  1
  O2-  O229  1  0.21057359  0.33479663  0.40193626  1
  O2-  O230  1  0.20705306  0.33531814  0.73643277  1
  O2-  O231  1  0.20095046  0.83441751  0.06365078  1
  O2-  O232  1  0.20004455  0.83004837  0.39165710  1
  O2-  O233  1  0.20620836  0.83162539  0.73237652  1
  O2-  O234  1  0.70956401  0.33688560  0.05925081  1
  O2-  O235  1  0.70451151  0.33375079  0.40079383  1
  O2-  O236  1  0.70097424  0.33265626  0.72845301  1
  O2-  O237  1  0.71003971  0.83698458  0.06218407  1
  O2-  O238  1  0.70952387  0.82754876  0.39801928  1
  O2-  O239  1  0.71220389  0.83041696  0.73858918  1
  O2-  O240  1  0.45690576  0.41511585  0.26525311  1
  O2-  O241  1  0.46521031  0.41122871  0.60546069  1
  O2-  O242  1  0.45175465  0.41879619  0.93038561  1
  O2-  O243  1  0.45385362  0.91810440  0.27477979  1
  O2-  O244  1  0.46331200  0.91357922  0.60497903  1
  O2-  O245  1  0.45710234  0.91708436  0.92908132  1
  O2-  O246  1  0.95753743  0.41822941  0.26548772  1
  O2-  O247  1  0.94771228  0.42275030  0.59791862  1
  O2-  O248  1  0.95908894  0.42061845  0.93620699  1
  O2-  O249  1  0.96041276  0.91794507  0.26214611  1
  O2-  O250  1  0.94391489  0.92377976  0.60339264  1
  O2-  O251  1  0.95424476  0.91635178  0.93999905  1
  O2-  O252  1  0.33240902  0.28488069  0.26781966  1
  O2-  O253  1  0.33769716  0.29725721  0.60865019  1
  O2-  O254  1  0.32679465  0.28985789  0.93161055  1
  O2-  O255  1  0.33412872  0.80039061  0.27099644  1
  O2-  O256  1  0.33879585  0.79886314  0.60267494  1
  O2-  O257  1  0.32737503  0.79404337  0.93354466  1
  O2-  O258  1  0.82984739  0.28965387  0.26643617  1
  O2-  O259  1  0.82764317  0.29151717  0.59959386  1
  O2-  O260  1  0.83652239  0.29106163  0.93085439  1
  O2-  O261  1  0.83614453  0.78776866  0.26136759  1
  O2-  O262  1  0.83206420  0.78272453  0.60040684  1
  O2-  O263  1  0.83912551  0.79273723  0.93910276  1
  O2-  O264  1  0.41382336  0.03898639  0.06272018  1
  O2-  O265  1  0.41572095  0.04310585  0.40373151  1
  O2-  O266  1  0.41957619  0.04148667  0.73862248  1
  O2-  O267  1  0.42098478  0.55190238  0.05834970  1
  O2-  O268  1  0.41567059  0.54674895  0.39193527  1
  O2-  O269  1  0.42031724  0.53930288  0.73827542  1
  O2-  O270  1  0.91151184  0.04457091  0.06391467  1
  O2-  O271  1  0.92468947  0.04849061  0.39690903  1
  O2-  O272  1  0.91702978  0.05560737  0.72892393  1
  O2-  O273  1  0.91091592  0.54478639  0.06618648  1
  O2-  O274  1  0.91646330  0.54961482  0.39487391  1
  O2-  O275  1  0.91136544  0.54750512  0.72780851  1
  O2-  O276  1  0.29322423  0.15941991  0.06479563  1
  O2-  O277  1  0.28625423  0.16360472  0.40150759  1
  O2-  O278  1  0.29554226  0.17100912  0.73914947  1
  O2-  O279  1  0.29387536  0.66420638  0.06674021  1
  O2-  O280  1  0.29960892  0.66779209  0.39244815  1
  O2-  O281  1  0.30463658  0.67322200  0.73176867  1
  O2-  O282  1  0.79132661  0.16460588  0.05921678  1
  O2-  O283  1  0.79356925  0.16848459  0.40551998  1
  O2-  O284  1  0.78799536  0.16544825  0.73397305  1
  O2-  O285  1  0.79277088  0.66443721  0.06353702  1
  O2-  O286  1  0.79349088  0.66446690  0.39594605  1
  O2-  O287  1  0.78502567  0.65768483  0.73295470  1
