# generated using pymatgen
data_Ca2Al2SiO7
_symmetry_space_group_name_H-M   'P 1'
_cell_length_a   15.45807323
_cell_length_b   15.45804531
_cell_length_c   15.28357761
_cell_angle_alpha   90.00224100
_cell_angle_beta   89.99589258
_cell_angle_gamma   90.00787437
_symmetry_Int_Tables_number   1
_chemical_formula_structural   Ca2Al2SiO7
_chemical_formula_sum   'Ca48 Al48 Si24 O168'
_cell_volume   3652.03522129
_cell_formula_units_Z   24
loop_
 _symmetry_equiv_pos_site_id
 _symmetry_equiv_pos_as_xyz
  1  'x, y, z'
loop_
 _atom_type_symbol
 _atom_type_oxidation_number
  Ca2+  2.0
  Al0+  0.0
  Si0+  0.0
  O2-  -2.0
loop_
 _atom_site_type_symbol
 _atom_site_label
 _atom_site_symmetry_multiplicity
 _atom_site_fract_x
 _atom_site_fract_y
 _atom_site_fract_z
 _atom_site_occupancy
  Ca2+  Ca0  1  0.17236307  0.08039347  0.17673454  1
  Ca2+  Ca1  1  0.16970366  0.09012588  0.50147246  1
  Ca2+  Ca2  1  0.16698246  0.08359032  0.83291657  1
  Ca2+  Ca3  1  0.16644586  0.57560639  0.17417964  1
  Ca2+  Ca4  1  0.18103857  0.57118742  0.50500462  1
  Ca2+  Ca5  1  0.16992704  0.57533426  0.83767574  1
  Ca2+  Ca6  1  0.66970340  0.07840437  0.17506507  1
  Ca2+  Ca7  1  0.67238959  0.08346324  0.50514364  1
  Ca2+  Ca8  1  0.66601381  0.07105040  0.83653174  1
  Ca2+  Ca9  1  0.67158527  0.57966313  0.16934334  1
  Ca2+  Ca10  1  0.67508083  0.59132456  0.50641954  1
  Ca2+  Ca11  1  0.66691141  0.58447165  0.83280715  1
  Ca2+  Ca12  1  0.08996208  0.33212867  0.16729670  1
  Ca2+  Ca13  1  0.09026629  0.32674081  0.49610235  1
  Ca2+  Ca14  1  0.08958777  0.33065651  0.82560889  1
  Ca2+  Ca15  1  0.07542036  0.82354414  0.15551796  1
  Ca2+  Ca16  1  0.08063239  0.83039905  0.49553420  1
  Ca2+  Ca17  1  0.07756432  0.82555298  0.83320488  1
  Ca2+  Ca18  1  0.58279263  0.33041362  0.16532136  1
  Ca2+  Ca19  1  0.57099408  0.33063969  0.49196686  1
  Ca2+  Ca20  1  0.57908553  0.33656032  0.82610730  1
  Ca2+  Ca21  1  0.57357408  0.83601176  0.16243568  1
  Ca2+  Ca22  1  0.57768583  0.83169051  0.50076590  1
  Ca2+  Ca23  1  0.57877915  0.83402047  0.82538162  1
  Ca2+  Ca24  1  0.32261166  0.42153935  0.17825958  1
  Ca2+  Ca25  1  0.33063200  0.41549444  0.50612121  1
  Ca2+  Ca26  1  0.32785366  0.41926798  0.83387896  1
  Ca2+  Ca27  1  0.33754105  0.91892679  0.17461970  1
  Ca2+  Ca28  1  0.34287263  0.92097332  0.50026754  1
  Ca2+  Ca29  1  0.33955748  0.91484525  0.83650847  1
  Ca2+  Ca30  1  0.82751351  0.42083826  0.17151490  1
  Ca2+  Ca31  1  0.83251787  0.42751325  0.50334708  1
  Ca2+  Ca32  1  0.82742273  0.42236077  0.83691731  1
  Ca2+  Ca33  1  0.82780572  0.91558737  0.17157225  1
  Ca2+  Ca34  1  0.82557774  0.92832650  0.50886847  1
  Ca2+  Ca35  1  0.82234478  0.91622491  0.83606197  1
  Ca2+  Ca36  1  0.41714998  0.17021532  0.17252782  1
  Ca2+  Ca37  1  0.41791304  0.17714287  0.48972484  1
  Ca2+  Ca38  1  0.41913947  0.17576682  0.82492492  1
  Ca2+  Ca39  1  0.40787205  0.67725419  0.16383469  1
  Ca2+  Ca40  1  0.41296529  0.67160150  0.49728641  1
  Ca2+  Ca41  1  0.42227515  0.67549281  0.82085080  1
  Ca2+  Ca42  1  0.92094428  0.16295807  0.16794997  1
  Ca2+  Ca43  1  0.92452849  0.15991923  0.49455263  1
  Ca2+  Ca44  1  0.92244054  0.16776623  0.82376482  1
  Ca2+  Ca45  1  0.92079088  0.66773242  0.15913250  1
  Ca2+  Ca46  1  0.91297844  0.66309472  0.49513312  1
  Ca2+  Ca47  1  0.91710041  0.66677131  0.83085665  1
  Al0+  Al48  1  0.00156214  0.00006700  -0.00457659  1
  Al0+  Al49  1  -0.00182894  -0.00088313  0.33101808  1
  Al0+  Al50  1  0.00145182  0.00024879  0.66686580  1
  Al0+  Al51  1  0.00117309  0.49707692  -0.00008994  1
  Al0+  Al52  1  -0.00077965  0.49810124  0.34056152  1
  Al0+  Al53  1  -0.00023304  0.49907395  0.67379343  1
  Al0+  Al54  1  0.50222952  0.00187871  0.00074373  1
  Al0+  Al55  1  0.49888048  -0.00083742  0.33069036  1
  Al0+  Al56  1  0.50018984  0.00084040  0.66752539  1
  Al0+  Al57  1  0.49936831  0.50044419  0.00537994  1
  Al0+  Al58  1  0.49994932  0.50178094  0.33011859  1
  Al0+  Al59  1  0.50006485  0.50240101  0.66122143  1
  Al0+  Al60  1  0.25144043  0.25094552  0.00350698  1
  Al0+  Al61  1  0.24955697  0.24678789  0.33078581  1
  Al0+  Al62  1  0.24988756  0.24862023  0.66383546  1
  Al0+  Al63  1  0.24881540  0.75145220  -0.00948133  1
  Al0+  Al64  1  0.24765500  0.74804626  0.33201521  1
  Al0+  Al65  1  0.24882743  0.75071308  0.66593812  1
  Al0+  Al66  1  0.75117042  0.24958943  0.00269571  1
  Al0+  Al67  1  0.75152011  0.24952919  0.33381508  1
  Al0+  Al68  1  0.75317565  0.25151423  0.66945267  1
  Al0+  Al69  1  0.74864603  0.75169746  0.00221132  1
  Al0+  Al70  1  0.74770990  0.75021029  0.33555615  1
  Al0+  Al71  1  0.74972248  0.75159129  0.67119487  1
  Al0+  Al72  1  0.67837846  0.93187779  0.68203298  1
  Al0+  Al73  1  0.43024967  0.32076001  0.65441548  1
  Al0+  Al74  1  0.18015850  0.42733294  0.34998823  1
  Al0+  Al75  1  0.32312542  0.57320402  0.68300281  1
  Al0+  Al76  1  0.57303352  0.17942590  0.31847934  1
  Al0+  Al77  1  0.18200717  0.42730567  0.68285168  1
  Al0+  Al78  1  0.42803811  0.32321513  0.31583518  1
  Al0+  Al79  1  0.06907085  0.17931665  0.65249564  1
  Al0+  Al80  1  0.67885433  0.92927332  0.01681311  1
  Al0+  Al81  1  0.42677501  0.82277947  0.64974849  1
  Al0+  Al82  1  0.82413935  0.07302144  0.68311965  1
  Al0+  Al83  1  0.32245758  0.57373917  0.34752867  1
  Al0+  Al84  1  0.92652461  0.82179397  0.98392777  1
  Al0+  Al85  1  0.82101983  0.57168979  0.68207335  1
  Al0+  Al86  1  0.42881041  0.81819913  0.31913857  1
  Al0+  Al87  1  0.06986577  0.67564012  0.98355764  1
  Al0+  Al88  1  0.43068556  0.82242689  0.98557571  1
  Al0+  Al89  1  0.32033410  0.06781043  0.34685492  1
  Al0+  Al90  1  0.67748137  0.42761199  0.01370851  1
  Al0+  Al91  1  0.06986249  0.17813189  0.31794388  1
  Al0+  Al92  1  0.81871581  0.57079450  0.34527173  1
  Al0+  Al93  1  0.82166754  0.07073659  0.34652642  1
  Al0+  Al94  1  0.57261642  0.68012220  0.65122963  1
  Al0+  Al95  1  0.17977138  0.42850773  0.01582807  1
  Si0+  Si96  1  0.67690731  0.92891481  0.35105193  1
  Si0+  Si97  1  0.82404555  0.07135691  0.01730405  1
  Si0+  Si98  1  0.57546138  0.67857603  0.31414067  1
  Si0+  Si99  1  0.31997593  0.07007537  0.68100133  1
  Si0+  Si100  1  0.57427049  0.17853945  0.65260645  1
  Si0+  Si101  1  0.92725216  0.82026139  0.31996384  1
  Si0+  Si102  1  0.92762874  0.31933207  0.98527362  1
  Si0+  Si103  1  0.17735214  0.92763559  0.68232699  1
  Si0+  Si104  1  0.67722785  0.42840337  0.68056172  1
  Si0+  Si105  1  0.67725492  0.42699924  0.34977829  1
  Si0+  Si106  1  0.17612285  0.92678718  0.34806995  1
  Si0+  Si107  1  0.92886019  0.32364412  0.31626146  1
  Si0+  Si108  1  0.17884509  0.92917064  0.01318390  1
  Si0+  Si109  1  0.42924774  0.32080523  0.98571989  1
  Si0+  Si110  1  0.32049720  0.57432942  0.01557452  1
  Si0+  Si111  1  0.06802890  0.67771036  0.32091136  1
  Si0+  Si112  1  0.82164096  0.57091554  0.01578972  1
  Si0+  Si113  1  0.92690498  0.32429836  0.64987935  1
  Si0+  Si114  1  0.06995475  0.67672605  0.65035186  1
  Si0+  Si115  1  0.07298062  0.18028050  0.98509170  1
  Si0+  Si116  1  0.32106900  0.07103771  0.01452357  1
  Si0+  Si117  1  0.93007247  0.81977664  0.65116709  1
  Si0+  Si118  1  0.57279416  0.18080798  0.98443971  1
  Si0+  Si119  1  0.57120140  0.67599279  0.98480314  1
  O2-  O120  1  0.25229411  -0.00299802  0.05585378  1
  O2-  O121  1  0.24519593  -0.00633110  0.39405448  1
  O2-  O122  1  0.25255758  -0.00444620  0.72349124  1
  O2-  O123  1  0.25105639  0.50684662  0.06062276  1
  O2-  O124  1  0.25797778  0.49464210  0.39719635  1
  O2-  O125  1  0.25191791  0.50073364  0.73387359  1
  O2-  O126  1  0.75763935  0.00082218  0.06199866  1
  O2-  O127  1  0.74429693  -0.00035264  0.39345747  1
  O2-  O128  1  0.74933768  0.00482031  0.73327843  1
  O2-  O129  1  0.75159964  0.50344879  0.05972135  1
  O2-  O130  1  0.74235296  0.49911184  0.39370419  1
  O2-  O131  1  0.74550235  0.49684443  0.72649029  1
  O2-  O132  1  -0.00346259  0.25413966  0.27080678  1
  O2-  O133  1  -0.00639982  0.25339211  0.60650372  1
  O2-  O134  1  0.00080302  0.25001440  0.94338370  1
  O2-  O135  1  -0.00320606  0.74813302  0.27758340  1
  O2-  O136  1  -0.00176463  0.74694707  0.60673409  1
  O2-  O137  1  -0.00457377  0.74629389  0.93419167  1
  O2-  O138  1  0.50331953  0.25323518  0.26636922  1
  O2-  O139  1  0.50845740  0.24930377  0.60881192  1
  O2-  O140  1  0.50371220  0.25380515  0.94216741  1
  O2-  O141  1  0.50122680  0.74190511  0.27074725  1
  O2-  O142  1  0.49702991  0.74853952  0.60119632  1
  O2-  O143  1  0.50373618  0.74578758  0.94073090  1
  O2-  O144  1  0.07287192  0.17883451  0.08986454  1
  O2-  O145  1  0.06747415  0.17628185  0.43063373  1
  O2-  O146  1  0.07046711  0.18018005  0.76651414  1
  O2-  O147  1  0.06848042  0.67789243  0.09804090  1
  O2-  O148  1  0.06653752  0.68062861  0.42601934  1
  O2-  O149  1  0.06869246  0.67903093  0.75524846  1
  O2-  O150  1  0.57255576  0.18018741  0.08914015  1
  O2-  O151  1  0.57218525  0.18108634  0.43227066  1
  O2-  O152  1  0.57072012  0.17865432  0.75895689  1
  O2-  O153  1  0.57015376  0.67533317  0.09053305  1
  O2-  O154  1  0.58297572  0.68367576  0.41882804  1
  O2-  O155  1  0.57309610  0.68183613  0.76534604  1
  O2-  O156  1  0.17717954  0.43203577  0.23595496  1
  O2-  O157  1  0.18308313  0.42606866  0.56984868  1
  O2-  O158  1  0.18362795  0.42361761  0.90328638  1
  O2-  O159  1  0.17565849  0.92796626  0.24198707  1
  O2-  O160  1  0.17236496  0.92805532  0.57750359  1
  O2-  O161  1  0.17752753  0.93244406  0.90808595  1
  O2-  O162  1  0.68143152  0.42703494  0.24369136  1
  O2-  O163  1  0.68023483  0.42640758  0.57528378  1
  O2-  O164  1  0.67906142  0.42671524  0.90070485  1
  O2-  O165  1  0.67940180  0.92755318  0.24505791  1
  O2-  O166  1  0.67981043  0.93306402  0.56833578  1
  O2-  O167  1  0.67639169  0.93263926  0.90426728  1
  O2-  O168  1  0.42782321  0.31731605  0.09016227  1
  O2-  O169  1  0.42866944  0.31967336  0.42945547  1
  O2-  O170  1  0.43071335  0.31747541  0.76866670  1
  O2-  O171  1  0.42994811  0.82283716  0.09879440  1
  O2-  O172  1  0.43062667  0.81960520  0.43144931  1
  O2-  O173  1  0.42959911  0.82395770  0.76364127  1
  O2-  O174  1  0.92582941  0.31833798  0.09020903  1
  O2-  O175  1  0.92878321  0.32539253  0.42147606  1
  O2-  O176  1  0.92661262  0.32383894  0.75599541  1
  O2-  O177  1  0.93001164  0.82197169  0.09831461  1
  O2-  O178  1  0.92869525  0.82053883  0.42516102  1
  O2-  O179  1  0.93291641  0.81943276  0.75599454  1
  O2-  O180  1  0.31889823  0.06560396  0.23302265  1
  O2-  O181  1  0.31896775  0.07084265  0.57631019  1
  O2-  O182  1  0.31901376  0.07374326  0.90906113  1
  O2-  O183  1  0.31400130  0.57798828  0.23360862  1
  O2-  O184  1  0.31993207  0.57285140  0.56987242  1
  O2-  O185  1  0.32188933  0.57131742  0.91035450  1
  O2-  O186  1  0.82331242  0.06533103  0.23310686  1
  O2-  O187  1  0.82440420  0.06939293  0.56953408  1
  O2-  O188  1  0.82256840  0.07320111  0.91211420  1
  O2-  O189  1  0.81925458  0.57013616  0.23192465  1
  O2-  O190  1  0.82121878  0.57061807  0.56881737  1
  O2-  O191  1  0.82116208  0.56905936  0.91040891  1
  O2-  O192  1  0.03704604  0.08162277  0.26251596  1
  O2-  O193  1  0.04117412  0.08168512  0.59856655  1
  O2-  O194  1  0.04807071  0.08813994  0.93650274  1
  O2-  O195  1  0.03871645  0.58585466  0.27464224  1
  O2-  O196  1  0.04152003  0.58419505  0.60555024  1
  O2-  O197  1  0.04383277  0.57623635  0.93142346  1
  O2-  O198  1  0.54178074  0.08183187  0.26500516  1
  O2-  O199  1  0.54667442  0.08628450  0.60650969  1
  O2-  O200  1  0.54082315  0.09075750  0.93620371  1
  O2-  O201  1  0.55786724  0.58239634  0.27055127  1
  O2-  O202  1  0.55163713  0.58078359  0.59747913  1
  O2-  O203  1  0.54605264  0.58185179  0.93873500  1
  O2-  O204  1  0.16633611  0.20518842  0.26234056  1
  O2-  O205  1  0.16540292  0.20958730  0.59850684  1
  O2-  O206  1  0.16494405  0.20974217  0.93815459  1
  O2-  O207  1  0.15808132  0.70582646  0.27081842  1
  O2-  O208  1  0.16059050  0.70735836  0.60286626  1
  O2-  O209  1  0.16543429  0.70848131  0.92765737  1
  O2-  O210  1  0.67267088  0.20521998  0.26501308  1
  O2-  O211  1  0.66990221  0.20059694  0.60941251  1
  O2-  O212  1  0.66555304  0.20623350  0.93768691  1
  O2-  O213  1  0.66653689  0.71018311  0.26424735  1
  O2-  O214  1  0.67086108  0.71298084  0.59897339  1
  O2-  O215  1  0.66614136  0.69965227  0.94135481  1
  O2-  O216  1  0.08064957  0.45346753  0.06809521  1
  O2-  O217  1  0.08317136  0.45816037  0.40384300  1
  O2-  O218  1  0.08269293  0.45359593  0.73520840  1
  O2-  O219  1  0.08785041  0.95916177  0.06171009  1
  O2-  O220  1  0.08273811  0.95267361  0.39412027  1
  O2-  O221  1  0.08878424  0.96056403  0.73300739  1
  O2-  O222  1  0.58137939  0.45621668  0.07018544  1
  O2-  O223  1  0.58163567  0.44815276  0.39191708  1
  O2-  O224  1  0.58391674  0.45371093  0.72672222  1
  O2-  O225  1  0.58389579  0.96574880  0.07126085  1
  O2-  O226  1  0.58323047  0.95340585  0.39528222  1
  O2-  O227  1  0.58013662  0.96082192  0.73665596  1
  O2-  O228  1  0.21392604  0.33294950  0.07082480  1
  O2-  O229  1  0.20386849  0.32628768  0.39750644  1
  O2-  O230  1  0.21272755  0.32861880  0.73549688  1
  O2-  O231  1  0.20277630  0.83533615  0.05827768  1
  O2-  O232  1  0.19874638  0.83270756  0.39352736  1
  O2-  O233  1  0.20120890  0.83553915  0.73067701  1
  O2-  O234  1  0.71127565  0.33223160  0.06892340  1
  O2-  O235  1  0.70601197  0.33513290  0.39666352  1
  O2-  O236  1  0.70244623  0.33538265  0.72930150  1
  O2-  O237  1  0.70530446  0.83150953  0.07133235  1
  O2-  O238  1  0.70580480  0.83672908  0.39731064  1
  O2-  O239  1  0.70991678  0.83542195  0.73632040  1
  O2-  O240  1  0.45199503  0.42329525  0.26319321  1
  O2-  O241  1  0.45668245  0.41715406  0.59947957  1
  O2-  O242  1  0.45392989  0.41471760  0.94121630  1
  O2-  O243  1  0.46057840  0.91419889  0.26410676  1
  O2-  O244  1  0.45749983  0.92199791  0.59907523  1
  O2-  O245  1  0.46193526  0.92018008  0.93334041  1
  O2-  O246  1  0.95598548  0.41691136  0.26914007  1
  O2-  O247  1  0.95406820  0.41796622  0.60490804  1
  O2-  O248  1  0.95285159  0.41158510  0.93804654  1
  O2-  O249  1  0.95592551  0.91011246  0.26978140  1
  O2-  O250  1  0.96186912  0.91054481  0.60382042  1
  O2-  O251  1  0.95969998  0.91877143  0.93001517  1
  O2-  O252  1  0.33167387  0.28824689  0.26255435  1
  O2-  O253  1  0.33667717  0.28350302  0.60009385  1
  O2-  O254  1  0.33928563  0.28712931  0.93744944  1
  O2-  O255  1  0.32989017  0.79066741  0.26545159  1
  O2-  O256  1  0.32582920  0.79978336  0.59911479  1
  O2-  O257  1  0.33297884  0.79773621  0.93115811  1
  O2-  O258  1  0.83532202  0.29826096  0.26961340  1
  O2-  O259  1  0.83243847  0.30244736  0.60347066  1
  O2-  O260  1  0.83690493  0.28994401  0.93585315  1
  O2-  O261  1  0.83504689  0.79315748  0.27284137  1
  O2-  O262  1  0.83744311  0.79459558  0.60529666  1
  O2-  O263  1  0.82659173  0.79645605  0.93321059  1
  O2-  O264  1  0.41349713  0.04590530  0.06093412  1
  O2-  O265  1  0.41673711  0.03733525  0.40084359  1
  O2-  O266  1  0.41250851  0.04706485  0.72978163  1
  O2-  O267  1  0.41369160  0.54999918  0.06298125  1
  O2-  O268  1  0.42575810  0.55730945  0.39392136  1
  O2-  O269  1  0.42315627  0.54650709  0.73334004  1
  O2-  O270  1  0.91995080  0.04805028  0.06046545  1
  O2-  O271  1  0.91674740  0.03543314  0.40068498  1
  O2-  O272  1  0.92169264  0.04085618  0.73589208  1
  O2-  O273  1  0.91450993  0.54260796  0.06168290  1
  O2-  O274  1  0.91333112  0.53942170  0.40233513  1
  O2-  O275  1  0.91580278  0.54014185  0.73875920  1
  O2-  O276  1  0.28982781  0.16067728  0.06371966  1
  O2-  O277  1  0.28896987  0.16384843  0.39999330  1
  O2-  O278  1  0.28748069  0.15922280  0.73103365  1
  O2-  O279  1  0.29408177  0.66970491  0.05786927  1
  O2-  O280  1  0.28577933  0.66890857  0.40233694  1
  O2-  O281  1  0.29269204  0.67222950  0.73441892  1
  O2-  O282  1  0.79690168  0.16412065  0.06425209  1
  O2-  O283  1  0.79755519  0.16928977  0.39936212  1
  O2-  O284  1  0.80237303  0.17389522  0.73444570  1
  O2-  O285  1  0.79833347  0.66516951  0.06153517  1
  O2-  O286  1  0.79062443  0.66810599  0.40010544  1
  O2-  O287  1  0.79147446  0.66771992  0.73684360  1
