# generated using pymatgen
data_Ca2Al2SiO7
_symmetry_space_group_name_H-M   'P 1'
_cell_length_a   15.46487155
_cell_length_b   15.46861311
_cell_length_c   15.28905645
_cell_angle_alpha   89.98103677
_cell_angle_beta   90.00841187
_cell_angle_gamma   89.99973443
_symmetry_Int_Tables_number   1
_chemical_formula_structural   Ca2Al2SiO7
_chemical_formula_sum   'Ca48 Al48 Si24 O168'
_cell_volume   3657.44959893
_cell_formula_units_Z   24
loop_
 _symmetry_equiv_pos_site_id
 _symmetry_equiv_pos_as_xyz
  1  'x, y, z'
loop_
 _atom_type_symbol
 _atom_type_oxidation_number
  Ca2+  2.0
  Al0+  0.0
  Si0+  0.0
  O2-  -2.0
loop_
 _atom_site_type_symbol
 _atom_site_label
 _atom_site_symmetry_multiplicity
 _atom_site_fract_x
 _atom_site_fract_y
 _atom_site_fract_z
 _atom_site_occupancy
  Ca2+  Ca0  1  0.15954286  0.07126963  0.16925645  1
  Ca2+  Ca1  1  0.17031440  0.06857611  0.50850220  1
  Ca2+  Ca2  1  0.16464997  0.07295907  0.83934186  1
  Ca2+  Ca3  1  0.18001894  0.59722688  0.16218881  1
  Ca2+  Ca4  1  0.17900302  0.59152945  0.50796852  1
  Ca2+  Ca5  1  0.17157485  0.58519210  0.84300586  1
  Ca2+  Ca6  1  0.67230056  0.08183255  0.17135191  1
  Ca2+  Ca7  1  0.67133349  0.08378061  0.50536213  1
  Ca2+  Ca8  1  0.66329887  0.08483630  0.83848132  1
  Ca2+  Ca9  1  0.66838187  0.58769112  0.17058149  1
  Ca2+  Ca10  1  0.66785998  0.58215542  0.50569957  1
  Ca2+  Ca11  1  0.67821138  0.59745594  0.83737003  1
  Ca2+  Ca12  1  0.08799017  0.32466007  0.15532619  1
  Ca2+  Ca13  1  0.07369507  0.33648122  0.49943922  1
  Ca2+  Ca14  1  0.08516577  0.33252086  0.82916855  1
  Ca2+  Ca15  1  0.07555165  0.83588198  0.15941565  1
  Ca2+  Ca16  1  0.08641015  0.83196299  0.49750785  1
  Ca2+  Ca17  1  0.08512919  0.82639031  0.83459825  1
  Ca2+  Ca18  1  0.58712483  0.33033936  0.16361467  1
  Ca2+  Ca19  1  0.58547308  0.33129496  0.49640583  1
  Ca2+  Ca20  1  0.58481473  0.32200461  0.83013381  1
  Ca2+  Ca21  1  0.57540393  0.82131472  0.15732403  1
  Ca2+  Ca22  1  0.58086787  0.81905279  0.49632374  1
  Ca2+  Ca23  1  0.57435769  0.82239006  0.83435880  1
  Ca2+  Ca24  1  0.32819975  0.42629935  0.16611564  1
  Ca2+  Ca25  1  0.33241977  0.42690795  0.50277196  1
  Ca2+  Ca26  1  0.32921208  0.42894625  0.84001188  1
  Ca2+  Ca27  1  0.32084250  0.90440146  0.16490923  1
  Ca2+  Ca28  1  0.32141377  0.91727911  0.50852441  1
  Ca2+  Ca29  1  0.32360340  0.91528956  0.83828011  1
  Ca2+  Ca30  1  0.82768890  0.42784698  0.16753142  1
  Ca2+  Ca31  1  0.82702519  0.42034973  0.50851033  1
  Ca2+  Ca32  1  0.83699802  0.42804688  0.83519554  1
  Ca2+  Ca33  1  0.83990165  0.91983217  0.17361597  1
  Ca2+  Ca34  1  0.83703264  0.91874765  0.49877418  1
  Ca2+  Ca35  1  0.83227780  0.91449397  0.84016564  1
  Ca2+  Ca36  1  0.42242525  0.17132844  0.15506331  1
  Ca2+  Ca37  1  0.41833777  0.16223485  0.50162126  1
  Ca2+  Ca38  1  0.42471493  0.16184909  0.82590277  1
  Ca2+  Ca39  1  0.42400964  0.66277941  0.15929077  1
  Ca2+  Ca40  1  0.42456112  0.65432651  0.49582186  1
  Ca2+  Ca41  1  0.41805747  0.66370722  0.82803704  1
  Ca2+  Ca42  1  0.92016358  0.16740146  0.16070683  1
  Ca2+  Ca43  1  0.91304781  0.17121894  0.49713577  1
  Ca2+  Ca44  1  0.92497494  0.17615898  0.83140785  1
  Ca2+  Ca45  1  0.91947073  0.67960265  0.15491154  1
  Ca2+  Ca46  1  0.92336734  0.67006024  0.49813145  1
  Ca2+  Ca47  1  0.92686174  0.66144419  0.82920245  1
  Al0+  Al48  1  -0.00052546  0.00341038  -0.00519270  1
  Al0+  Al49  1  0.00045456  0.00114740  0.34088126  1
  Al0+  Al50  1  -0.00224071  0.00083257  0.67189106  1
  Al0+  Al51  1  -0.00304212  0.50006714  0.00881751  1
  Al0+  Al52  1  0.00071193  0.49973163  0.32958945  1
  Al0+  Al53  1  -0.00146218  0.50087549  0.65840582  1
  Al0+  Al54  1  0.50094304  -0.00151860  -0.00554725  1
  Al0+  Al55  1  0.50098506  -0.00095871  0.33249494  1
  Al0+  Al56  1  0.50102951  -0.00119250  0.66304043  1
  Al0+  Al57  1  0.50256511  0.49694660  -0.00149365  1
  Al0+  Al58  1  0.50096196  0.49681642  0.33543375  1
  Al0+  Al59  1  0.50028434  0.49608881  0.66766085  1
  Al0+  Al60  1  0.25152859  0.24981692  -0.00291325  1
  Al0+  Al61  1  0.25071192  0.25108173  0.33362462  1
  Al0+  Al62  1  0.25148713  0.24816970  0.66630719  1
  Al0+  Al63  1  0.24806849  0.75233129  0.00291071  1
  Al0+  Al64  1  0.25164408  0.75013161  0.34332972  1
  Al0+  Al65  1  0.24905111  0.75067221  0.67088468  1
  Al0+  Al66  1  0.75079558  0.25006252  -0.00325671  1
  Al0+  Al67  1  0.75076076  0.25102741  0.33938134  1
  Al0+  Al68  1  0.74988531  0.24974717  0.66020026  1
  Al0+  Al69  1  0.74760917  0.75363106  0.00002831  1
  Al0+  Al70  1  0.75092693  0.75134231  0.32722479  1
  Al0+  Al71  1  0.74898494  0.75073046  0.66552441  1
  Al0+  Al72  1  0.07139162  0.68064535  0.65299264  1
  Al0+  Al73  1  0.57029895  0.67547671  0.98470733  1
  Al0+  Al74  1  0.57127485  0.17961580  0.98817293  1
  Al0+  Al75  1  0.81972346  0.57120471  0.67845759  1
  Al0+  Al76  1  0.31927263  0.56834687  0.34705289  1
  Al0+  Al77  1  0.81941426  0.57435372  0.01428865  1
  Al0+  Al78  1  0.81969227  0.06993591  0.34719670  1
  Al0+  Al79  1  0.17706025  0.42726335  0.01369401  1
  Al0+  Al80  1  0.56944203  0.67734451  0.32000612  1
  Al0+  Al81  1  0.57065746  0.67761534  0.65227572  1
  Al0+  Al82  1  0.93102817  0.32081539  0.65265448  1
  Al0+  Al83  1  0.32185898  0.56880283  0.68054315  1
  Al0+  Al84  1  0.07271139  0.18052927  0.98684997  1
  Al0+  Al85  1  0.56986149  0.17776922  0.65000011  1
  Al0+  Al86  1  0.32276195  0.07067241  0.68186104  1
  Al0+  Al87  1  0.42674464  0.81934126  0.98529964  1
  Al0+  Al88  1  0.32215826  0.57190724  0.01458254  1
  Al0+  Al89  1  0.18056430  0.93098148  0.34752628  1
  Al0+  Al90  1  0.92809001  0.82375520  0.98479976  1
  Al0+  Al91  1  0.06865625  0.67814452  0.98740688  1
  Al0+  Al92  1  0.68160069  0.43109686  0.34709491  1
  Al0+  Al93  1  0.17773349  0.93172093  0.01543394  1
  Al0+  Al94  1  0.93259695  0.82145812  0.32148147  1
  Al0+  Al95  1  0.17657795  0.92885720  0.68615016  1
  Si0+  Si96  1  0.42717029  0.82309417  0.31822050  1
  Si0+  Si97  1  0.42697558  0.32115973  0.64775948  1
  Si0+  Si98  1  0.82337704  0.57527725  0.34970293  1
  Si0+  Si99  1  0.68057030  0.42510758  0.01476347  1
  Si0+  Si100  1  0.81920625  0.07160136  0.01346030  1
  Si0+  Si101  1  0.07529732  0.67731443  0.31697835  1
  Si0+  Si102  1  0.57255134  0.17849375  0.31859036  1
  Si0+  Si103  1  0.67994459  0.92918258  0.68167545  1
  Si0+  Si104  1  0.32466211  0.07079549  0.01600956  1
  Si0+  Si105  1  0.67645982  0.92675357  0.35052543  1
  Si0+  Si106  1  0.07227214  0.17624794  0.64881733  1
  Si0+  Si107  1  0.06977459  0.18173314  0.32096090  1
  Si0+  Si108  1  0.17709870  0.42353931  0.35068046  1
  Si0+  Si109  1  0.42767019  0.32176994  0.98153521  1
  Si0+  Si110  1  0.67871971  0.42591101  0.68466452  1
  Si0+  Si111  1  0.92638179  0.82368223  0.65012363  1
  Si0+  Si112  1  0.81918220  0.07355944  0.68422294  1
  Si0+  Si113  1  0.42800370  0.82001036  0.64906199  1
  Si0+  Si114  1  0.92755636  0.32218090  0.98559525  1
  Si0+  Si115  1  0.17619691  0.42831134  0.67926617  1
  Si0+  Si116  1  0.32457146  0.07560256  0.34781585  1
  Si0+  Si117  1  0.92672975  0.32204872  0.31641299  1
  Si0+  Si118  1  0.42937603  0.31936052  0.31734057  1
  Si0+  Si119  1  0.67713490  0.93050562  0.01579723  1
  O2-  O120  1  0.25450682  0.00526500  0.06253433  1
  O2-  O121  1  0.25858092  0.00423523  0.39087959  1
  O2-  O122  1  0.24866199  0.00268943  0.73336598  1
  O2-  O123  1  0.24668951  0.50189372  0.06406502  1
  O2-  O124  1  0.23939113  0.49823597  0.39348222  1
  O2-  O125  1  0.24464766  0.49572094  0.72453399  1
  O2-  O126  1  0.75075984  -0.00053248  0.05735557  1
  O2-  O127  1  0.74466559  -0.00399487  0.39519083  1
  O2-  O128  1  0.75009937  0.00087160  0.72554327  1
  O2-  O129  1  0.74152806  0.50080721  0.05867532  1
  O2-  O130  1  0.75532936  0.50630135  0.39444752  1
  O2-  O131  1  0.74318931  0.49872205  0.72729246  1
  O2-  O132  1  0.00215489  0.25496809  0.27589540  1
  O2-  O133  1  0.00563966  0.24645955  0.60370289  1
  O2-  O134  1  0.00433475  0.26215279  0.94228640  1
  O2-  O135  1  0.00358834  0.74368282  0.27454883  1
  O2-  O136  1  -0.00173383  0.75801702  0.60699266  1
  O2-  O137  1  -0.00451144  0.74785890  0.93516375  1
  O2-  O138  1  0.49759025  0.24456604  0.27595207  1
  O2-  O139  1  0.49436875  0.25100287  0.60270795  1
  O2-  O140  1  0.49553496  0.25119416  0.93926095  1
  O2-  O141  1  0.49577989  0.75392320  0.27514156  1
  O2-  O142  1  0.49191337  0.74710505  0.60375318  1
  O2-  O143  1  0.49123496  0.74017021  0.93532659  1
  O2-  O144  1  0.06759235  0.17817532  0.10074404  1
  O2-  O145  1  0.06784371  0.18404224  0.42595882  1
  O2-  O146  1  0.06992765  0.17749495  0.75423109  1
  O2-  O147  1  0.06831870  0.68288052  0.10137091  1
  O2-  O148  1  0.07494757  0.67774926  0.42285068  1
  O2-  O149  1  0.06987284  0.67666235  0.76540163  1
  O2-  O150  1  0.57257238  0.18217545  0.10193302  1
  O2-  O151  1  0.57235984  0.17951206  0.42344751  1
  O2-  O152  1  0.57162115  0.18033425  0.76304636  1
  O2-  O153  1  0.57086391  0.67904541  0.09871672  1
  O2-  O154  1  0.56874924  0.67781227  0.43341896  1
  O2-  O155  1  0.57270131  0.68195267  0.76456757  1
  O2-  O156  1  0.18149918  0.41386556  0.24626723  1
  O2-  O157  1  0.17749711  0.42919682  0.57321793  1
  O2-  O158  1  0.17997404  0.42623390  0.89987333  1
  O2-  O159  1  0.17859934  0.93288001  0.23461345  1
  O2-  O160  1  0.17707462  0.93080502  0.57182908  1
  O2-  O161  1  0.17630900  0.93402415  0.90321985  1
  O2-  O162  1  0.68374045  0.42781915  0.23405143  1
  O2-  O163  1  0.68055337  0.42495390  0.57868287  1
  O2-  O164  1  0.68603535  0.41656116  0.90997202  1
  O2-  O165  1  0.67467114  0.93003020  0.24512030  1
  O2-  O166  1  0.68199572  0.92987611  0.57628810  1
  O2-  O167  1  0.67677317  0.93283946  0.91052231  1
  O2-  O168  1  0.42805796  0.32047097  0.08772235  1
  O2-  O169  1  0.42923634  0.31880016  0.42227343  1
  O2-  O170  1  0.42851407  0.32200620  0.75289481  1
  O2-  O171  1  0.43156717  0.82174011  0.09942294  1
  O2-  O172  1  0.42893767  0.82558960  0.42373099  1
  O2-  O173  1  0.43113779  0.82116543  0.75427614  1
  O2-  O174  1  0.92220814  0.31575851  0.09128763  1
  O2-  O175  1  0.92636174  0.32118156  0.42152162  1
  O2-  O176  1  0.93196278  0.31941891  0.76565832  1
  O2-  O177  1  0.93058073  0.82633980  0.09878988  1
  O2-  O178  1  0.93357735  0.82143964  0.43466786  1
  O2-  O179  1  0.92340611  0.82295901  0.75515936  1
  O2-  O180  1  0.32424268  0.08100811  0.24267582  1
  O2-  O181  1  0.32125370  0.06733998  0.56743545  1
  O2-  O182  1  0.32557061  0.06848043  0.91082785  1
  O2-  O183  1  0.32027983  0.56732721  0.23442897  1
  O2-  O184  1  0.32234682  0.56556221  0.56703162  1
  O2-  O185  1  0.32214235  0.56900461  0.90117843  1
  O2-  O186  1  0.81878919  0.07140583  0.23381740  1
  O2-  O187  1  0.81890316  0.07339490  0.57885784  1
  O2-  O188  1  0.81634279  0.07361570  0.90838792  1
  O2-  O189  1  0.82163410  0.57381838  0.24421051  1
  O2-  O190  1  0.81867926  0.56954110  0.56502346  1
  O2-  O191  1  0.82070207  0.57142733  0.90104817  1
  O2-  O192  1  0.03808135  0.09065285  0.27522517  1
  O2-  O193  1  0.04122342  0.08360753  0.60362571  1
  O2-  O194  1  0.03341454  0.08997827  0.92867096  1
  O2-  O195  1  0.05574147  0.58151896  0.27238796  1
  O2-  O196  1  0.03962690  0.58627936  0.59462543  1
  O2-  O197  1  0.04183844  0.57731636  0.93858525  1
  O2-  O198  1  0.55119807  0.08435199  0.27247307  1
  O2-  O199  1  0.54204393  0.08086947  0.59433286  1
  O2-  O200  1  0.54383299  0.08360456  0.93273487  1
  O2-  O201  1  0.53864981  0.58020442  0.26754481  1
  O2-  O202  1  0.54452735  0.57776125  0.60173335  1
  O2-  O203  1  0.55619095  0.57320601  0.93506155  1
  O2-  O204  1  0.16305925  0.20558776  0.27413221  1
  O2-  O205  1  0.16739791  0.19767407  0.60404692  1
  O2-  O206  1  0.17046124  0.20398338  0.93226867  1
  O2-  O207  1  0.16916068  0.70733388  0.27467441  1
  O2-  O208  1  0.16831197  0.71211795  0.59892779  1
  O2-  O209  1  0.16734346  0.70686138  0.93673193  1
  O2-  O210  1  0.66342581  0.21161033  0.27253584  1
  O2-  O211  1  0.66564185  0.21004085  0.59504742  1
  O2-  O212  1  0.66666682  0.21169993  0.93205680  1
  O2-  O213  1  0.66626113  0.70746971  0.26640428  1
  O2-  O214  1  0.66546777  0.71382159  0.59699217  1
  O2-  O215  1  0.66491744  0.71547490  0.93241804  1
  O2-  O216  1  0.07714148  0.44564930  0.06778370  1
  O2-  O217  1  0.07968822  0.44398502  0.39130119  1
  O2-  O218  1  0.08192479  0.45264800  0.72276934  1
  O2-  O219  1  0.08124601  0.96886736  0.06736307  1
  O2-  O220  1  0.08730031  0.96586114  0.40499137  1
  O2-  O221  1  0.07738005  0.95737296  0.73733974  1
  O2-  O222  1  0.58434235  0.44122896  0.05868927  1
  O2-  O223  1  0.58468858  0.45735590  0.40240254  1
  O2-  O224  1  0.58324070  0.44373659  0.72833231  1
  O2-  O225  1  0.58721237  0.96218050  0.06469764  1
  O2-  O226  1  0.58296662  0.95201324  0.39774555  1
  O2-  O227  1  0.58834647  0.95766626  0.72766717  1
  O2-  O228  1  0.21016039  0.32888290  0.06706386  1
  O2-  O229  1  0.20754406  0.33311995  0.40166120  1
  O2-  O230  1  0.19955090  0.33301663  0.72286387  1
  O2-  O231  1  0.20593461  0.83552143  0.07143344  1
  O2-  O232  1  0.20985557  0.83565709  0.40476271  1
  O2-  O233  1  0.20628943  0.83127460  0.73802833  1
  O2-  O234  1  0.71408082  0.33487658  0.06525087  1
  O2-  O235  1  0.71290734  0.33572791  0.40394196  1
  O2-  O236  1  0.71010386  0.33317219  0.72912646  1
  O2-  O237  1  0.70224995  0.83948941  0.06514194  1
  O2-  O238  1  0.70477116  0.83349255  0.39569373  1
  O2-  O239  1  0.70869027  0.83865787  0.73022927  1
  O2-  O240  1  0.46244973  0.40824227  0.26858321  1
  O2-  O241  1  0.45622763  0.41288709  0.59945147  1
  O2-  O242  1  0.45589905  0.41334785  0.93387689  1
  O2-  O243  1  0.45095434  0.91706899  0.27099469  1
  O2-  O244  1  0.45885999  0.91128158  0.60090075  1
  O2-  O245  1  0.46335248  0.91415856  0.93009993  1
  O2-  O246  1  0.94871939  0.41571945  0.26946198  1
  O2-  O247  1  0.96002507  0.41486231  0.59238701  1
  O2-  O248  1  0.94394011  0.41876108  0.94442523  1
  O2-  O249  1  0.96439478  0.91952902  0.26994735  1
  O2-  O250  1  0.94843661  0.91995677  0.60688743  1
  O2-  O251  1  0.95643980  0.92112384  0.93054166  1
  O2-  O252  1  0.33687505  0.29401528  0.26947263  1
  O2-  O253  1  0.33302567  0.29738401  0.60016235  1
  O2-  O254  1  0.33491615  0.29801794  0.93416688  1
  O2-  O255  1  0.33285072  0.79573652  0.27520092  1
  O2-  O256  1  0.33248049  0.79905975  0.60593651  1
  O2-  O257  1  0.32565699  0.80129517  0.93591272  1
  O2-  O258  1  0.83673307  0.28787226  0.27001020  1
  O2-  O259  1  0.83584700  0.28751742  0.59649583  1
  O2-  O260  1  0.83961361  0.28652788  0.93464373  1
  O2-  O261  1  0.83444918  0.79770537  0.26661748  1
  O2-  O262  1  0.83432775  0.79599294  0.60174709  1
  O2-  O263  1  0.82686885  0.80221235  0.93606314  1
  O2-  O264  1  0.41855046  0.04459099  0.06209792  1
  O2-  O265  1  0.41980197  0.05223939  0.39249998  1
  O2-  O266  1  0.42264137  0.04227202  0.73147005  1
  O2-  O267  1  0.42118022  0.53916053  0.06561490  1
  O2-  O268  1  0.41364446  0.53032200  0.40081257  1
  O2-  O269  1  0.41781667  0.53562659  0.73435252  1
  O2-  O270  1  0.91152263  0.04596108  0.06024109  1
  O2-  O271  1  0.91438218  0.04020576  0.40521051  1
  O2-  O272  1  0.91144547  0.04940381  0.73183095  1
  O2-  O273  1  0.91258327  0.54216692  0.07414640  1
  O2-  O274  1  0.91890173  0.54961633  0.39233096  1
  O2-  O275  1  0.91621595  0.53593991  0.72972505  1
  O2-  O276  1  0.30269806  0.16644832  0.05911464  1
  O2-  O277  1  0.29733107  0.16777514  0.39662339  1
  O2-  O278  1  0.30130470  0.17198599  0.73203580  1
  O2-  O279  1  0.29490719  0.67035889  0.06865106  1
  O2-  O280  1  0.29464742  0.66490945  0.40444933  1
  O2-  O281  1  0.29449292  0.66642735  0.73170217  1
  O2-  O282  1  0.78917427  0.16238901  0.06239697  1
  O2-  O283  1  0.78823352  0.16518107  0.40341294  1
  O2-  O284  1  0.78847056  0.16485273  0.73011949  1
  O2-  O285  1  0.78846635  0.67135002  0.06793870  1
  O2-  O286  1  0.79831210  0.66945088  0.39418396  1
  O2-  O287  1  0.79010300  0.66833517  0.73165790  1
