# generated using pymatgen
data_Ca2Al2SiO7
_symmetry_space_group_name_H-M   'P 1'
_cell_length_a   15.45795683
_cell_length_b   15.45963270
_cell_length_c   15.28370817
_cell_angle_alpha   90.02203642
_cell_angle_beta   89.99884561
_cell_angle_gamma   90.00001207
_symmetry_Int_Tables_number   1
_chemical_formula_structural   Ca2Al2SiO7
_chemical_formula_sum   'Ca48 Al48 Si24 O168'
_cell_volume   3652.41372417
_cell_formula_units_Z   24
loop_
 _symmetry_equiv_pos_site_id
 _symmetry_equiv_pos_as_xyz
  1  'x, y, z'
loop_
 _atom_type_symbol
 _atom_type_oxidation_number
  Ca2+  2.0
  Al0+  0.0
  Si0+  0.0
  O2-  -2.0
loop_
 _atom_site_type_symbol
 _atom_site_label
 _atom_site_symmetry_multiplicity
 _atom_site_fract_x
 _atom_site_fract_y
 _atom_site_fract_z
 _atom_site_occupancy
  Ca2+  Ca0  1  0.16759790  0.07329292  0.17112734  1
  Ca2+  Ca1  1  0.16070020  0.08034901  0.49625258  1
  Ca2+  Ca2  1  0.17417174  0.07735131  0.84405402  1
  Ca2+  Ca3  1  0.17285344  0.59003515  0.17171065  1
  Ca2+  Ca4  1  0.17881504  0.58184116  0.50939323  1
  Ca2+  Ca5  1  0.16414946  0.58437856  0.83196053  1
  Ca2+  Ca6  1  0.67188699  0.07579735  0.16343794  1
  Ca2+  Ca7  1  0.66636428  0.07475961  0.50517970  1
  Ca2+  Ca8  1  0.67270547  0.07443654  0.84124307  1
  Ca2+  Ca9  1  0.66030850  0.57569074  0.17368513  1
  Ca2+  Ca10  1  0.66515430  0.57614144  0.50104361  1
  Ca2+  Ca11  1  0.66630688  0.57072151  0.83573997  1
  Ca2+  Ca12  1  0.07990211  0.32791669  0.16526538  1
  Ca2+  Ca13  1  0.07508351  0.33357385  0.49393225  1
  Ca2+  Ca14  1  0.07706589  0.33305654  0.82096640  1
  Ca2+  Ca15  1  0.07890852  0.83562408  0.15901167  1
  Ca2+  Ca16  1  0.08189983  0.82819995  0.49193378  1
  Ca2+  Ca17  1  0.08566883  0.82586271  0.83479896  1
  Ca2+  Ca18  1  0.58008321  0.34044690  0.16571572  1
  Ca2+  Ca19  1  0.57520698  0.34520885  0.49568706  1
  Ca2+  Ca20  1  0.58176729  0.33507168  0.82645580  1
  Ca2+  Ca21  1  0.57361203  0.83243126  0.15953197  1
  Ca2+  Ca22  1  0.57726193  0.82527728  0.48920947  1
  Ca2+  Ca23  1  0.58031626  0.84318635  0.83120702  1
  Ca2+  Ca24  1  0.33365942  0.42416269  0.17764007  1
  Ca2+  Ca25  1  0.33488345  0.42525095  0.50730738  1
  Ca2+  Ca26  1  0.33151355  0.42131248  0.83094566  1
  Ca2+  Ca27  1  0.32445832  0.90866599  0.16989987  1
  Ca2+  Ca28  1  0.32730449  0.91109556  0.49961647  1
  Ca2+  Ca29  1  0.33022913  0.92279926  0.84708119  1
  Ca2+  Ca30  1  0.82275221  0.41613668  0.17347083  1
  Ca2+  Ca31  1  0.82585032  0.40833301  0.50420935  1
  Ca2+  Ca32  1  0.82495911  0.41173922  0.83824795  1
  Ca2+  Ca33  1  0.84139692  0.91745537  0.17006129  1
  Ca2+  Ca34  1  0.82899577  0.91388440  0.50406971  1
  Ca2+  Ca35  1  0.82432298  0.91814076  0.84401881  1
  Ca2+  Ca36  1  0.41329725  0.17182771  0.16331088  1
  Ca2+  Ca37  1  0.41725467  0.18147139  0.49524176  1
  Ca2+  Ca38  1  0.41657912  0.17066865  0.82788198  1
  Ca2+  Ca39  1  0.41774463  0.67362945  0.16943693  1
  Ca2+  Ca40  1  0.42023801  0.66299748  0.49061810  1
  Ca2+  Ca41  1  0.41435657  0.67254518  0.83175773  1
  Ca2+  Ca42  1  0.91801644  0.16655936  0.16718309  1
  Ca2+  Ca43  1  0.92092808  0.17828488  0.49244727  1
  Ca2+  Ca44  1  0.91335919  0.16879788  0.83100092  1
  Ca2+  Ca45  1  0.92228778  0.67975267  0.15833244  1
  Ca2+  Ca46  1  0.92357282  0.67000221  0.49585622  1
  Ca2+  Ca47  1  0.92806147  0.66876883  0.83151760  1
  Al0+  Al48  1  0.00044233  0.00143915  0.00029720  1
  Al0+  Al49  1  0.00106732  0.00049667  0.33401294  1
  Al0+  Al50  1  -0.00042992  0.00007238  0.66775241  1
  Al0+  Al51  1  -0.00142081  0.49922943  -0.00291173  1
  Al0+  Al52  1  -0.00149027  0.49991896  0.32831727  1
  Al0+  Al53  1  0.00056605  0.50105013  0.65970481  1
  Al0+  Al54  1  0.50231375  0.00405472  0.00314392  1
  Al0+  Al55  1  0.49829459  0.00169985  0.33150129  1
  Al0+  Al56  1  0.49935228  0.00057346  0.66760997  1
  Al0+  Al57  1  0.49765802  0.50060801  0.00200373  1
  Al0+  Al58  1  0.50006150  0.49984419  0.33299387  1
  Al0+  Al59  1  0.50037319  0.50224585  0.67302563  1
  Al0+  Al60  1  0.24906879  0.25204520  0.00184900  1
  Al0+  Al61  1  0.25000866  0.24875405  0.32597915  1
  Al0+  Al62  1  0.25045056  0.25016331  0.66485433  1
  Al0+  Al63  1  0.25222863  0.74921507  -0.00487833  1
  Al0+  Al64  1  0.25125497  0.75008387  0.34053268  1
  Al0+  Al65  1  0.25012782  0.75052286  0.66720081  1
  Al0+  Al66  1  0.74755183  0.24897102  0.00829662  1
  Al0+  Al67  1  0.74904529  0.24849620  0.33502826  1
  Al0+  Al68  1  0.74974672  0.24709176  0.66600654  1
  Al0+  Al69  1  0.74912174  0.74679075  -0.00245858  1
  Al0+  Al70  1  0.75099799  0.74724512  0.32683657  1
  Al0+  Al71  1  0.74853363  0.74910468  0.67211042  1
  Al0+  Al72  1  0.32178624  0.57258424  0.68481473  1
  Al0+  Al73  1  0.92761058  0.32008750  0.65409326  1
  Al0+  Al74  1  0.68110012  0.42939308  0.34848090  1
  Al0+  Al75  1  0.57092366  0.67821593  0.31883874  1
  Al0+  Al76  1  0.07058572  0.17922194  0.31664746  1
  Al0+  Al77  1  0.31879704  0.56909020  0.34675405  1
  Al0+  Al78  1  0.92990638  0.81999472  0.32183352  1
  Al0+  Al79  1  0.18202920  0.92801461  0.01418300  1
  Al0+  Al80  1  0.17956253  0.93055953  0.34869032  1
  Al0+  Al81  1  0.67847535  0.43071713  0.01494704  1
  Al0+  Al82  1  0.07182107  0.68077431  0.64998923  1
  Al0+  Al83  1  0.17781648  0.42842403  0.67966544  1
  Al0+  Al84  1  0.68090915  0.42860384  0.68006134  1
  Al0+  Al85  1  0.42768178  0.82234289  0.31958607  1
  Al0+  Al86  1  0.43282596  0.82197983  0.98575301  1
  Al0+  Al87  1  0.07234071  0.67792947  0.98456030  1
  Al0+  Al88  1  0.32255393  0.07474681  0.01568477  1
  Al0+  Al89  1  0.92621040  0.32240791  0.31589025  1
  Al0+  Al90  1  0.43118741  0.32072427  0.31973092  1
  Al0+  Al91  1  0.67848572  0.92784087  0.67852014  1
  Al0+  Al92  1  0.43051691  0.32208122  0.65430279  1
  Al0+  Al93  1  0.82173389  0.06987809  0.01645134  1
  Al0+  Al94  1  0.92784941  0.82391267  0.98295645  1
  Al0+  Al95  1  0.67913367  0.92540515  0.01657259  1
  Si0+  Si96  1  0.17595524  0.42889993  0.01482236  1
  Si0+  Si97  1  0.42968890  0.82326336  0.65220229  1
  Si0+  Si98  1  0.92671445  0.82189815  0.65125722  1
  Si0+  Si99  1  0.82354312  0.57285541  0.68334716  1
  Si0+  Si100  1  0.57115785  0.67480319  0.98107797  1
  Si0+  Si101  1  0.07330073  0.17614510  0.65077687  1
  Si0+  Si102  1  0.92754576  0.31881931  0.98545404  1
  Si0+  Si103  1  0.82418756  0.57020917  0.01668977  1
  Si0+  Si104  1  0.31942247  0.56974019  0.01603814  1
  Si0+  Si105  1  0.57110457  0.67975229  0.65342636  1
  Si0+  Si106  1  0.67802654  0.92703695  0.34660060  1
  Si0+  Si107  1  0.07223128  0.18082808  0.98350553  1
  Si0+  Si108  1  0.57143772  0.18217633  0.98483230  1
  Si0+  Si109  1  0.32316673  0.07483503  0.35211966  1
  Si0+  Si110  1  0.57293346  0.17538593  0.31528327  1
  Si0+  Si111  1  0.17837122  0.92933366  0.68190885  1
  Si0+  Si112  1  0.07360445  0.67836627  0.31874172  1
  Si0+  Si113  1  0.82383527  0.57354875  0.34975462  1
  Si0+  Si114  1  0.32051977  0.07120648  0.67982123  1
  Si0+  Si115  1  0.57104963  0.17682946  0.65003200  1
  Si0+  Si116  1  0.82094656  0.06910079  0.35071028  1
  Si0+  Si117  1  0.82221696  0.07054168  0.68207718  1
  Si0+  Si118  1  0.17589308  0.42549495  0.34760357  1
  Si0+  Si119  1  0.42751884  0.32286422  0.98383331  1
  O2-  O120  1  0.25490809  -0.00122059  0.06519687  1
  O2-  O121  1  0.25585768  0.00434806  0.39626035  1
  O2-  O122  1  0.24845502  0.00178600  0.72242608  1
  O2-  O123  1  0.24538055  0.50117044  0.05679074  1
  O2-  O124  1  0.24315159  0.49484527  0.39242275  1
  O2-  O125  1  0.24826890  0.50045040  0.73315663  1
  O2-  O126  1  0.75788887  -0.00984563  0.06684791  1
  O2-  O127  1  0.74898162  -0.00249240  0.39117921  1
  O2-  O128  1  0.75563254  -0.00036240  0.72500307  1
  O2-  O129  1  0.75114491  0.50670633  0.06161926  1
  O2-  O130  1  0.75896960  0.50129861  0.39483360  1
  O2-  O131  1  0.75924236  0.49917588  0.72725356  1
  O2-  O132  1  0.00030309  0.25275998  0.26579728  1
  O2-  O133  1  0.00563994  0.24736990  0.60923871  1
  O2-  O134  1  -0.00035538  0.25013688  0.94095843  1
  O2-  O135  1  0.00383961  0.74533554  0.27458238  1
  O2-  O136  1  -0.00325319  0.75615472  0.60492284  1
  O2-  O137  1  0.00073011  0.75133507  0.93476444  1
  O2-  O138  1  0.50470566  0.24531602  0.27208089  1
  O2-  O139  1  0.50731631  0.25002144  0.60609313  1
  O2-  O140  1  0.49776281  0.25077730  0.94233509  1
  O2-  O141  1  0.50335100  0.75459276  0.26963041  1
  O2-  O142  1  0.50027965  0.75130750  0.61167982  1
  O2-  O143  1  0.51034693  0.75072972  0.93640991  1
  O2-  O144  1  0.07403029  0.18390517  0.08798518  1
  O2-  O145  1  0.06714218  0.17935310  0.43093174  1
  O2-  O146  1  0.07301604  0.17399267  0.75656134  1
  O2-  O147  1  0.07122056  0.67636491  0.09819619  1
  O2-  O148  1  0.07233348  0.68041088  0.42449387  1
  O2-  O149  1  0.07146539  0.68313541  0.76281713  1
  O2-  O150  1  0.57307607  0.18473312  0.08969696  1
  O2-  O151  1  0.57184491  0.17215236  0.42120863  1
  O2-  O152  1  0.56872336  0.17467075  0.75566688  1
  O2-  O153  1  0.56526163  0.67024565  0.08608356  1
  O2-  O154  1  0.57047721  0.67915745  0.43331341  1
  O2-  O155  1  0.57117759  0.67965611  0.75844986  1
  O2-  O156  1  0.17796266  0.42725894  0.24143399  1
  O2-  O157  1  0.17963583  0.42847308  0.56624260  1
  O2-  O158  1  0.17665343  0.42595608  0.90982104  1
  O2-  O159  1  0.17928790  0.92965463  0.23624746  1
  O2-  O160  1  0.17780550  0.92977718  0.57677210  1
  O2-  O161  1  0.18405870  0.93097134  0.89966841  1
  O2-  O162  1  0.68014367  0.43182873  0.23535637  1
  O2-  O163  1  0.67963338  0.43193055  0.56733663  1
  O2-  O164  1  0.67989579  0.42906195  0.90139811  1
  O2-  O165  1  0.67855609  0.92916406  0.24223320  1
  O2-  O166  1  0.67856815  0.92872713  0.56476030  1
  O2-  O167  1  0.67752020  0.93314774  0.90264225  1
  O2-  O168  1  0.42826164  0.32423728  0.08885035  1
  O2-  O169  1  0.43249989  0.32120467  0.43306726  1
  O2-  O170  1  0.43125369  0.31812485  0.76781089  1
  O2-  O171  1  0.43009525  0.81740735  0.09817892  1
  O2-  O172  1  0.42995605  0.82130946  0.43397404  1
  O2-  O173  1  0.43108046  0.82617807  0.75730872  1
  O2-  O174  1  0.92954938  0.31865398  0.09006147  1
  O2-  O175  1  0.92604627  0.31919401  0.42978742  1
  O2-  O176  1  0.92615193  0.31575780  0.76784479  1
  O2-  O177  1  0.93143762  0.82207970  0.09670262  1
  O2-  O178  1  0.92908096  0.81877041  0.43556142  1
  O2-  O179  1  0.92736216  0.82190888  0.75627963  1
  O2-  O180  1  0.32275760  0.07644141  0.24709251  1
  O2-  O181  1  0.32248266  0.06985906  0.57501585  1
  O2-  O182  1  0.31893879  0.07638877  0.90095468  1
  O2-  O183  1  0.31710035  0.56924825  0.23309786  1
  O2-  O184  1  0.32322510  0.57179068  0.57131141  1
  O2-  O185  1  0.32247608  0.56755980  0.91108816  1
  O2-  O186  1  0.82120410  0.06888051  0.24599201  1
  O2-  O187  1  0.82200622  0.07012187  0.57634219  1
  O2-  O188  1  0.81652586  0.07525748  0.90256037  1
  O2-  O189  1  0.82304742  0.57424946  0.24445564  1
  O2-  O190  1  0.81966233  0.57761430  0.57794917  1
  O2-  O191  1  0.82654103  0.56439670  0.91087002  1
  O2-  O192  1  0.03830579  0.08210314  0.26455871  1
  O2-  O193  1  0.04483680  0.08325697  0.60354731  1
  O2-  O194  1  0.04667536  0.08882566  0.93580907  1
  O2-  O195  1  0.05278760  0.58404204  0.27262694  1
  O2-  O196  1  0.04294895  0.58480609  0.59440451  1
  O2-  O197  1  0.04095519  0.57953625  0.93033622  1
  O2-  O198  1  0.54673484  0.08329498  0.26690361  1
  O2-  O199  1  0.53955716  0.08557670  0.60126125  1
  O2-  O200  1  0.54687870  0.09019601  0.93615489  1
  O2-  O201  1  0.53646082  0.58293527  0.26439962  1
  O2-  O202  1  0.54213005  0.58834889  0.60633102  1
  O2-  O203  1  0.53566492  0.58439080  0.93261781  1
  O2-  O204  1  0.16902706  0.20294898  0.26215536  1
  O2-  O205  1  0.16710776  0.19828010  0.60417219  1
  O2-  O206  1  0.16329776  0.21146148  0.93490477  1
  O2-  O207  1  0.16688423  0.70627803  0.27476794  1
  O2-  O208  1  0.16872364  0.71348600  0.59708887  1
  O2-  O209  1  0.17044503  0.70459962  0.92999771  1
  O2-  O210  1  0.66673881  0.20023289  0.27080146  1
  O2-  O211  1  0.66632359  0.19553830  0.60531337  1
  O2-  O212  1  0.66201858  0.21377519  0.93647243  1
  O2-  O213  1  0.67004182  0.69942762  0.26525200  1
  O2-  O214  1  0.66335991  0.70655770  0.60612197  1
  O2-  O215  1  0.66822494  0.68812122  0.93813075  1
  O2-  O216  1  0.08304764  0.45337730  0.06134731  1
  O2-  O217  1  0.08029479  0.44855026  0.39076423  1
  O2-  O218  1  0.07790328  0.45598069  0.73087558  1
  O2-  O219  1  0.08332989  0.95765989  0.06413348  1
  O2-  O220  1  0.08393108  0.96368682  0.40494268  1
  O2-  O221  1  0.08587516  0.95548265  0.72894395  1
  O2-  O222  1  0.58077919  0.46112070  0.06718598  1
  O2-  O223  1  0.58552019  0.46477619  0.40151889  1
  O2-  O224  1  0.58684341  0.46291153  0.73668606  1
  O2-  O225  1  0.58457069  0.96370432  0.07053815  1
  O2-  O226  1  0.58600307  0.95600592  0.39406211  1
  O2-  O227  1  0.58298647  0.96266855  0.73281559  1
  O2-  O228  1  0.20602751  0.33886439  0.06389917  1
  O2-  O229  1  0.20121630  0.33098887  0.39097876  1
  O2-  O230  1  0.20554354  0.32898158  0.73279776  1
  O2-  O231  1  0.21005985  0.82847653  0.06489051  1
  O2-  O232  1  0.21087310  0.83528560  0.40586324  1
  O2-  O233  1  0.20819602  0.83881916  0.72925599  1
  O2-  O234  1  0.70933063  0.33573973  0.07034125  1
  O2-  O235  1  0.70656949  0.33053463  0.40171100  1
  O2-  O236  1  0.70681173  0.32919526  0.73182363  1
  O2-  O237  1  0.69419247  0.82159543  0.06220229  1
  O2-  O238  1  0.70614002  0.83422923  0.39219679  1
  O2-  O239  1  0.70477272  0.83176129  0.73526585  1
  O2-  O240  1  0.46370825  0.41535381  0.26392511  1
  O2-  O241  1  0.46151650  0.42013714  0.60374611  1
  O2-  O242  1  0.45718803  0.41403337  0.93640272  1
  O2-  O243  1  0.44965745  0.92269149  0.26868676  1
  O2-  O244  1  0.45762489  0.91445970  0.60348146  1
  O2-  O245  1  0.46060049  0.92154434  0.93432478  1
  O2-  O246  1  0.95014185  0.42186871  0.26266603  1
  O2-  O247  1  0.95274884  0.41714287  0.59903800  1
  O2-  O248  1  0.95302246  0.41082055  0.93747951  1
  O2-  O249  1  0.96090386  0.91629067  0.26955506  1
  O2-  O250  1  0.94973230  0.91720343  0.60658844  1
  O2-  O251  1  0.95431944  0.92354455  0.93085134  1
  O2-  O252  1  0.33477449  0.29274040  0.26420222  1
  O2-  O253  1  0.33480112  0.28959947  0.59956892  1
  O2-  O254  1  0.33482258  0.29605489  0.93730500  1
  O2-  O255  1  0.33036096  0.78814976  0.26856736  1
  O2-  O256  1  0.33710547  0.79683970  0.60644175  1
  O2-  O257  1  0.33794649  0.78858288  0.92950882  1
  O2-  O258  1  0.82818731  0.28950777  0.26507065  1
  O2-  O259  1  0.83253005  0.28518461  0.59859084  1
  O2-  O260  1  0.83506305  0.28803030  0.94084684  1
  O2-  O261  1  0.83461979  0.79152310  0.26509104  1
  O2-  O262  1  0.83260207  0.79406185  0.60669716  1
  O2-  O263  1  0.82818847  0.79474382  0.93155545  1
  O2-  O264  1  0.42332459  0.05574998  0.06522241  1
  O2-  O265  1  0.41798583  0.05238363  0.39801501  1
  O2-  O266  1  0.41156375  0.04265856  0.72894281  1
  O2-  O267  1  0.40901422  0.53814658  0.06498193  1
  O2-  O268  1  0.41479417  0.53607626  0.40012207  1
  O2-  O269  1  0.41866256  0.54363011  0.74031966  1
  O2-  O270  1  0.92273240  0.05075953  0.06710982  1
  O2-  O271  1  0.91167385  0.04083865  0.39945411  1
  O2-  O272  1  0.91665995  0.04897742  0.72898535  1
  O2-  O273  1  0.91565420  0.54035096  0.06490769  1
  O2-  O274  1  0.91941153  0.55158394  0.39440004  1
  O2-  O275  1  0.91887161  0.55095507  0.72595698  1
  O2-  O276  1  0.29056884  0.17235996  0.06855058  1
  O2-  O277  1  0.29389019  0.16803951  0.39819259  1
  O2-  O278  1  0.29484235  0.16304525  0.72798816  1
  O2-  O279  1  0.29337726  0.66222891  0.06176607  1
  O2-  O280  1  0.29097712  0.66456996  0.40433084  1
  O2-  O281  1  0.29278985  0.67183058  0.73639952  1
  O2-  O282  1  0.78471472  0.16406825  0.07289137  1
  O2-  O283  1  0.79168375  0.16022288  0.39891578  1
  O2-  O284  1  0.79394740  0.16230963  0.73010979  1
  O2-  O285  1  0.80385813  0.66600867  0.05905690  1
  O2-  O286  1  0.79512239  0.66595433  0.39789612  1
  O2-  O287  1  0.79303192  0.66315010  0.73373530  1
