# generated using pymatgen
data_Ca2Al2SiO7
_symmetry_space_group_name_H-M   'P 1'
_cell_length_a   15.45748996
_cell_length_b   15.45760146
_cell_length_c   15.28397631
_cell_angle_alpha   90.00718691
_cell_angle_beta   89.99875002
_cell_angle_gamma   89.98429114
_symmetry_Int_Tables_number   1
_chemical_formula_structural   Ca2Al2SiO7
_chemical_formula_sum   'Ca48 Al48 Si24 O168'
_cell_volume   3651.88770687
_cell_formula_units_Z   24
loop_
 _symmetry_equiv_pos_site_id
 _symmetry_equiv_pos_as_xyz
  1  'x, y, z'
loop_
 _atom_type_symbol
 _atom_type_oxidation_number
  Ca2+  2.0
  Al0+  0.0
  Si0+  0.0
  O2-  -2.0
loop_
 _atom_site_type_symbol
 _atom_site_label
 _atom_site_symmetry_multiplicity
 _atom_site_fract_x
 _atom_site_fract_y
 _atom_site_fract_z
 _atom_site_occupancy
  Ca2+  Ca0  1  0.16003983  0.07803270  0.16290902  1
  Ca2+  Ca1  1  0.17850739  0.08004115  0.51093385  1
  Ca2+  Ca2  1  0.16980908  0.08042043  0.84016377  1
  Ca2+  Ca3  1  0.16671994  0.58179388  0.16198340  1
  Ca2+  Ca4  1  0.16745479  0.57851895  0.51049168  1
  Ca2+  Ca5  1  0.16598232  0.57827539  0.84008240  1
  Ca2+  Ca6  1  0.66890594  0.07625785  0.16799175  1
  Ca2+  Ca7  1  0.65636155  0.08152176  0.50378543  1
  Ca2+  Ca8  1  0.67168214  0.07835386  0.84050488  1
  Ca2+  Ca9  1  0.67750503  0.58033603  0.17303693  1
  Ca2+  Ca10  1  0.67172147  0.58159050  0.50873153  1
  Ca2+  Ca11  1  0.66036040  0.57784907  0.83434431  1
  Ca2+  Ca12  1  0.07878375  0.32682437  0.15243287  1
  Ca2+  Ca13  1  0.07995561  0.33913099  0.50400165  1
  Ca2+  Ca14  1  0.07617352  0.33956702  0.83100736  1
  Ca2+  Ca15  1  0.07607326  0.82839504  0.15038654  1
  Ca2+  Ca16  1  0.07951599  0.82787837  0.50192910  1
  Ca2+  Ca17  1  0.08052054  0.82751221  0.83031742  1
  Ca2+  Ca18  1  0.58107065  0.32596319  0.15947780  1
  Ca2+  Ca19  1  0.58563413  0.32450285  0.50196213  1
  Ca2+  Ca20  1  0.57135431  0.33118127  0.82221475  1
  Ca2+  Ca21  1  0.58174774  0.84079432  0.16552980  1
  Ca2+  Ca22  1  0.57367814  0.83585412  0.49777986  1
  Ca2+  Ca23  1  0.58107416  0.82789455  0.82517518  1
  Ca2+  Ca24  1  0.33152238  0.41779924  0.16048524  1
  Ca2+  Ca25  1  0.32653608  0.41401046  0.51338481  1
  Ca2+  Ca26  1  0.32571207  0.41690543  0.84235554  1
  Ca2+  Ca27  1  0.32596835  0.91229494  0.16885602  1
  Ca2+  Ca28  1  0.34246300  0.92027285  0.50753909  1
  Ca2+  Ca29  1  0.33313672  0.92183414  0.83696081  1
  Ca2+  Ca30  1  0.84121171  0.42323721  0.17028370  1
  Ca2+  Ca31  1  0.82940435  0.42145184  0.50951819  1
  Ca2+  Ca32  1  0.83021619  0.40931320  0.83419394  1
  Ca2+  Ca33  1  0.82528301  0.91717622  0.16667163  1
  Ca2+  Ca34  1  0.82702871  0.91651348  0.50555556  1
  Ca2+  Ca35  1  0.83295330  0.91871180  0.84476647  1
  Ca2+  Ca36  1  0.42386427  0.17147760  0.16221424  1
  Ca2+  Ca37  1  0.42501390  0.16670882  0.50207574  1
  Ca2+  Ca38  1  0.41768201  0.17502032  0.82494217  1
  Ca2+  Ca39  1  0.41547340  0.66964414  0.16120154  1
  Ca2+  Ca40  1  0.42172736  0.67560567  0.49975029  1
  Ca2+  Ca41  1  0.41870370  0.67037625  0.82619445  1
  Ca2+  Ca42  1  0.91962813  0.17193219  0.15264003  1
  Ca2+  Ca43  1  0.91394693  0.17509996  0.50129080  1
  Ca2+  Ca44  1  0.92062041  0.17116641  0.83417328  1
  Ca2+  Ca45  1  0.92013432  0.67086686  0.15668610  1
  Ca2+  Ca46  1  0.91886109  0.66557269  0.50218008  1
  Ca2+  Ca47  1  0.92681357  0.67790801  0.82820924  1
  Al0+  Al48  1  -0.00039153  0.00197684  0.00143033  1
  Al0+  Al49  1  -0.00056479  -0.00059048  0.33593672  1
  Al0+  Al50  1  -0.00007281  0.00009129  0.66147244  1
  Al0+  Al51  1  0.00008596  0.49969977  -0.00304019  1
  Al0+  Al52  1  0.00086983  0.50059205  0.33783221  1
  Al0+  Al53  1  -0.00034542  0.50066110  0.66366644  1
  Al0+  Al54  1  0.50003597  -0.00034554  0.00414568  1
  Al0+  Al55  1  0.49912908  0.00106348  0.32647618  1
  Al0+  Al56  1  0.50058500  0.00077700  0.66820675  1
  Al0+  Al57  1  0.49973945  0.49999006  0.00301796  1
  Al0+  Al58  1  0.49882786  0.50085655  0.33389041  1
  Al0+  Al59  1  0.50009282  0.50006419  0.66132803  1
  Al0+  Al60  1  0.25098289  0.25013764  -0.00038081  1
  Al0+  Al61  1  0.24917950  0.24927370  0.33364213  1
  Al0+  Al62  1  0.24951154  0.24902332  0.67222128  1
  Al0+  Al63  1  0.25191992  0.75023212  0.00399261  1
  Al0+  Al64  1  0.24906114  0.74843658  0.33052711  1
  Al0+  Al65  1  0.24873143  0.75043251  0.65842131  1
  Al0+  Al66  1  0.74954625  0.24798657  0.00142004  1
  Al0+  Al67  1  0.75053484  0.25002955  0.32708910  1
  Al0+  Al68  1  0.75092893  0.25025554  0.66334582  1
  Al0+  Al69  1  0.74813589  0.74857240  0.00120418  1
  Al0+  Al70  1  0.75013380  0.75037148  0.34348615  1
  Al0+  Al71  1  0.75132314  0.75009239  0.66113221  1
  Al0+  Al72  1  0.67822341  0.93249304  0.34989915  1
  Al0+  Al73  1  0.18022406  0.92974206  0.01179228  1
  Al0+  Al74  1  0.92735404  0.32226017  0.98486175  1
  Al0+  Al75  1  0.42990386  0.82167065  0.65428962  1
  Al0+  Al76  1  0.07045978  0.67894128  0.65044588  1
  Al0+  Al77  1  0.07358764  0.67953827  0.98560956  1
  Al0+  Al78  1  0.67798925  0.92619424  0.01450008  1
  Al0+  Al79  1  0.82170678  0.56994443  0.34846466  1
  Al0+  Al80  1  0.42983837  0.81954084  0.31660234  1
  Al0+  Al81  1  0.92986414  0.31989101  0.65218045  1
  Al0+  Al82  1  0.42586922  0.32109993  0.65221609  1
  Al0+  Al83  1  0.57169331  0.17972756  0.65403971  1
  Al0+  Al84  1  0.67910879  0.42904225  0.67997183  1
  Al0+  Al85  1  0.82130790  0.07169716  0.01481096  1
  Al0+  Al86  1  0.32274058  0.57135489  0.01494656  1
  Al0+  Al87  1  0.57226553  0.67681233  0.65154223  1
  Al0+  Al88  1  0.92642121  0.82121082  0.98782898  1
  Al0+  Al89  1  0.17844964  0.43000139  0.68165478  1
  Al0+  Al90  1  0.43144603  0.32164177  0.98701330  1
  Al0+  Al91  1  0.07245355  0.17778003  0.98478665  1
  Al0+  Al92  1  0.92839450  0.82412304  0.64989571  1
  Al0+  Al93  1  0.32246423  0.06914357  0.68104760  1
  Al0+  Al94  1  0.57044832  0.18069552  0.31672548  1
  Al0+  Al95  1  0.17721393  0.42850324  0.01562852  1
  Si0+  Si96  1  0.57380417  0.67745360  0.31603284  1
  Si0+  Si97  1  0.68018523  0.92905259  0.68110597  1
  Si0+  Si98  1  0.93186800  0.32120956  0.31923547  1
  Si0+  Si99  1  0.42947171  0.82166585  0.98635698  1
  Si0+  Si100  1  0.82314631  0.07356802  0.35178531  1
  Si0+  Si101  1  0.57108827  0.17650999  0.98281005  1
  Si0+  Si102  1  0.07213019  0.17813387  0.31993210  1
  Si0+  Si103  1  0.07269225  0.17715973  0.64903931  1
  Si0+  Si104  1  0.67798336  0.42838370  0.01452508  1
  Si0+  Si105  1  0.06943231  0.67854735  0.31675400  1
  Si0+  Si106  1  0.57106713  0.67833320  0.98781792  1
  Si0+  Si107  1  0.82155844  0.57277892  0.68617405  1
  Si0+  Si108  1  0.32296428  0.07293890  0.01919689  1
  Si0+  Si109  1  0.82275971  0.07132769  0.68057157  1
  Si0+  Si110  1  0.42467500  0.32358825  0.31622186  1
  Si0+  Si111  1  0.18120020  0.42902709  0.34895274  1
  Si0+  Si112  1  0.32116845  0.57276494  0.35012366  1
  Si0+  Si113  1  0.17740512  0.92678111  0.34896608  1
  Si0+  Si114  1  0.31862728  0.06978213  0.34704647  1
  Si0+  Si115  1  0.67732378  0.42634735  0.34890698  1
  Si0+  Si116  1  0.92807592  0.82128967  0.31837122  1
  Si0+  Si117  1  0.82001164  0.56998181  0.01222887  1
  Si0+  Si118  1  0.32203534  0.57382661  0.68055787  1
  Si0+  Si119  1  0.17679318  0.92742505  0.68182672  1
  O2-  O120  1  0.25325018  0.00461872  0.06273526  1
  O2-  O121  1  0.24897439  -0.00250439  0.39039522  1
  O2-  O122  1  0.24712259  -0.00588736  0.72577237  1
  O2-  O123  1  0.24878891  0.50115694  0.06622348  1
  O2-  O124  1  0.25517452  0.49676504  0.39134495  1
  O2-  O125  1  0.25563977  0.50359371  0.72518671  1
  O2-  O126  1  0.75061322  -0.00210192  0.06431384  1
  O2-  O127  1  0.75266474  0.00772167  0.39733857  1
  O2-  O128  1  0.75415681  -0.00253441  0.72206384  1
  O2-  O129  1  0.75344750  0.49502651  0.05641522  1
  O2-  O130  1  0.74418664  0.49677944  0.39286057  1
  O2-  O131  1  0.75059545  0.50589955  0.72971064  1
  O2-  O132  1  -0.00108977  0.24670663  0.27789746  1
  O2-  O133  1  0.00544580  0.24679506  0.60352083  1
  O2-  O134  1  0.00216295  0.25226110  0.93618380  1
  O2-  O135  1  -0.00075053  0.75073605  0.27548105  1
  O2-  O136  1  -0.00117651  0.75083035  0.59909154  1
  O2-  O137  1  0.00209392  0.75325419  0.93824869  1
  O2-  O138  1  0.49848653  0.25988004  0.27268073  1
  O2-  O139  1  0.50013242  0.25161474  0.60221109  1
  O2-  O140  1  0.50338890  0.24552209  0.93933831  1
  O2-  O141  1  0.50510521  0.74487222  0.26954505  1
  O2-  O142  1  0.50088286  0.74982553  0.60232603  1
  O2-  O143  1  0.50165861  0.75126392  0.94626605  1
  O2-  O144  1  0.06971340  0.17934758  0.09971654  1
  O2-  O145  1  0.07436458  0.17960619  0.42488083  1
  O2-  O146  1  0.07026843  0.17361986  0.75378097  1
  O2-  O147  1  0.06930501  0.68004517  0.10033938  1
  O2-  O148  1  0.06983342  0.67822148  0.42153303  1
  O2-  O149  1  0.07070020  0.68058766  0.76343917  1
  O2-  O150  1  0.56980304  0.17808152  0.08897222  1
  O2-  O151  1  0.56835786  0.18062378  0.42948825  1
  O2-  O152  1  0.57124355  0.17924925  0.76725791  1
  O2-  O153  1  0.57177231  0.67668949  0.09305242  1
  O2-  O154  1  0.57102393  0.67703034  0.42108527  1
  O2-  O155  1  0.57139599  0.67899046  0.76583025  1
  O2-  O156  1  0.17903673  0.42885446  0.24442742  1
  O2-  O157  1  0.17967257  0.43131145  0.56718910  1
  O2-  O158  1  0.17814462  0.43069582  0.90259949  1
  O2-  O159  1  0.17580591  0.92779035  0.24402589  1
  O2-  O160  1  0.17648764  0.93055282  0.57544554  1
  O2-  O161  1  0.18470171  0.92885819  0.89898713  1
  O2-  O162  1  0.67909327  0.42723256  0.24279141  1
  O2-  O163  1  0.68381747  0.42847568  0.56649180  1
  O2-  O164  1  0.67525523  0.43082460  0.90978478  1
  O2-  O165  1  0.68099201  0.93249072  0.23712918  1
  O2-  O166  1  0.67863755  0.93211118  0.57578616  1
  O2-  O167  1  0.67636177  0.92628398  0.90081876  1
  O2-  O168  1  0.43584026  0.32059579  0.10094694  1
  O2-  O169  1  0.42001016  0.32107397  0.42123116  1
  O2-  O170  1  0.42704080  0.31996891  0.76563925  1
  O2-  O171  1  0.42969068  0.82095951  0.09173610  1
  O2-  O172  1  0.42983645  0.81915653  0.42936420  1
  O2-  O173  1  0.43141964  0.82146230  0.76812811  1
  O2-  O174  1  0.92830216  0.32238952  0.09961875  1
  O2-  O175  1  0.93292219  0.32167885  0.42425185  1
  O2-  O176  1  0.92870689  0.31729275  0.76434162  1
  O2-  O177  1  0.92542507  0.81632329  0.10233046  1
  O2-  O178  1  0.93133289  0.82249994  0.42309341  1
  O2-  O179  1  0.92893780  0.82509696  0.76311920  1
  O2-  O180  1  0.31513605  0.07142219  0.24218974  1
  O2-  O181  1  0.32148653  0.06777382  0.56684490  1
  O2-  O182  1  0.32643222  0.06999625  0.91390117  1
  O2-  O183  1  0.31985560  0.57441557  0.24540924  1
  O2-  O184  1  0.31901156  0.57330408  0.57422628  1
  O2-  O185  1  0.32672383  0.57114104  0.90187583  1
  O2-  O186  1  0.82609941  0.07204254  0.24679102  1
  O2-  O187  1  0.82237142  0.07109336  0.57501637  1
  O2-  O188  1  0.81787209  0.07311657  0.90090388  1
  O2-  O189  1  0.82349846  0.56761266  0.23463060  1
  O2-  O190  1  0.82140354  0.56958373  0.57997385  1
  O2-  O191  1  0.81559584  0.57309241  0.90792966  1
  O2-  O192  1  0.04648393  0.08448247  0.27459217  1
  O2-  O193  1  0.04659038  0.08523510  0.59910376  1
  O2-  O194  1  0.04372957  0.08040448  0.93117569  1
  O2-  O195  1  0.03994146  0.58620256  0.27110078  1
  O2-  O196  1  0.03962980  0.58221044  0.59483617  1
  O2-  O197  1  0.04442611  0.58204318  0.93384195  1
  O2-  O198  1  0.53518438  0.08710232  0.26043684  1
  O2-  O199  1  0.53996892  0.08271912  0.60016517  1
  O2-  O200  1  0.54498550  0.08223216  0.93903513  1
  O2-  O201  1  0.54981280  0.58240434  0.27053900  1
  O2-  O202  1  0.54556463  0.58011113  0.59470000  1
  O2-  O203  1  0.54170657  0.58749343  0.94001772  1
  O2-  O204  1  0.16258368  0.20750321  0.27083512  1
  O2-  O205  1  0.16630629  0.20334608  0.60373254  1
  O2-  O206  1  0.17290283  0.20008146  0.93510287  1
  O2-  O207  1  0.16147553  0.70488170  0.26959859  1
  O2-  O208  1  0.16729734  0.70660839  0.59280786  1
  O2-  O209  1  0.17286778  0.70734345  0.93551764  1
  O2-  O210  1  0.66809749  0.20830108  0.26167033  1
  O2-  O211  1  0.66864778  0.20749337  0.59754439  1
  O2-  O212  1  0.66536672  0.20042950  0.93947758  1
  O2-  O213  1  0.66919045  0.70332026  0.27371880  1
  O2-  O214  1  0.67047513  0.70345726  0.59829644  1
  O2-  O215  1  0.66189650  0.70398758  0.93843538  1
  O2-  O216  1  0.07797345  0.45644510  0.06912185  1
  O2-  O217  1  0.09084322  0.46027576  0.39771525  1
  O2-  O218  1  0.08135302  0.46233504  0.73276763  1
  O2-  O219  1  0.08405655  0.95943178  0.06821365  1
  O2-  O220  1  0.08615015  0.95508290  0.39775381  1
  O2-  O221  1  0.08341426  0.95546929  0.72657861  1
  O2-  O222  1  0.59008043  0.46128492  0.06639000  1
  O2-  O223  1  0.58161943  0.44802461  0.39270172  1
  O2-  O224  1  0.58076167  0.45841263  0.73198198  1
  O2-  O225  1  0.58058358  0.95690554  0.06979907  1
  O2-  O226  1  0.57983580  0.96507225  0.39972590  1
  O2-  O227  1  0.58999009  0.95855555  0.72997733  1
  O2-  O228  1  0.20780208  0.33020497  0.06933218  1
  O2-  O229  1  0.20574577  0.33582154  0.39619430  1
  O2-  O230  1  0.20413707  0.33224794  0.73430930  1
  O2-  O231  1  0.21234346  0.83524860  0.07014445  1
  O2-  O232  1  0.20467838  0.83399233  0.39447008  1
  O2-  O233  1  0.20018013  0.83216478  0.72405623  1
  O2-  O234  1  0.70101699  0.33521888  0.06133189  1
  O2-  O235  1  0.70600199  0.33289157  0.39331817  1
  O2-  O236  1  0.71271118  0.33276754  0.73317592  1
  O2-  O237  1  0.70467981  0.82771561  0.06980377  1
  O2-  O238  1  0.70738857  0.83594203  0.40468197  1
  O2-  O239  1  0.70513818  0.83518269  0.72547215  1
  O2-  O240  1  0.44505132  0.41987973  0.27300249  1
  O2-  O241  1  0.45084227  0.41948477  0.59847625  1
  O2-  O242  1  0.46411728  0.41776408  0.93427589  1
  O2-  O243  1  0.45827966  0.91600643  0.26179300  1
  O2-  O244  1  0.46223278  0.91829858  0.59993960  1
  O2-  O245  1  0.45595364  0.91440548  0.94042066  1
  O2-  O246  1  0.96394158  0.41239408  0.27280986  1
  O2-  O247  1  0.96039088  0.41584015  0.59688412  1
  O2-  O248  1  0.95164184  0.42078689  0.93165156  1
  O2-  O249  1  0.95548320  0.91420949  0.27240726  1
  O2-  O250  1  0.95733203  0.92117050  0.59299915  1
  O2-  O251  1  0.95013305  0.92121255  0.93905296  1
  O2-  O252  1  0.33315414  0.29169391  0.26843489  1
  O2-  O253  1  0.32806567  0.28904867  0.59966100  1
  O2-  O254  1  0.33378609  0.29427686  0.93593586  1
  O2-  O255  1  0.33210311  0.78745150  0.26414923  1
  O2-  O256  1  0.33180232  0.79800611  0.59830802  1
  O2-  O257  1  0.33864332  0.79365081  0.93909557  1
  O2-  O258  1  0.83895157  0.29940686  0.27144523  1
  O2-  O259  1  0.83571617  0.28691881  0.59463928  1
  O2-  O260  1  0.82833702  0.29235579  0.93408138  1
  O2-  O261  1  0.83505805  0.79235514  0.27501724  1
  O2-  O262  1  0.83085477  0.79604100  0.59544323  1
  O2-  O263  1  0.82924044  0.78926319  0.93457714  1
  O2-  O264  1  0.41534029  0.04501351  0.06730897  1
  O2-  O265  1  0.41093842  0.04168643  0.39203563  1
  O2-  O266  1  0.41769022  0.03778405  0.73737789  1
  O2-  O267  1  0.41933116  0.53947461  0.07277795  1
  O2-  O268  1  0.41566013  0.55141907  0.39564392  1
  O2-  O269  1  0.41757839  0.55286211  0.72343003  1
  O2-  O270  1  0.91983436  0.04768119  0.06938355  1
  O2-  O271  1  0.91639476  0.04668180  0.39951671  1
  O2-  O272  1  0.91597125  0.04562990  0.72601776  1
  O2-  O273  1  0.91231477  0.54524537  0.06046792  1
  O2-  O274  1  0.91682680  0.53602207  0.40426330  1
  O2-  O275  1  0.91453978  0.54413666  0.72993739  1
  O2-  O276  1  0.29894101  0.16633564  0.06590818  1
  O2-  O277  1  0.28922104  0.16098462  0.39580276  1
  O2-  O278  1  0.29083988  0.16428850  0.73613551  1
  O2-  O279  1  0.29613173  0.66924623  0.07075022  1
  O2-  O280  1  0.28780650  0.66276686  0.39797532  1
  O2-  O281  1  0.29534434  0.66818096  0.72466654  1
  O2-  O282  1  0.79039808  0.16897971  0.07138651  1
  O2-  O283  1  0.79945003  0.16973208  0.39394985  1
  O2-  O284  1  0.79320753  0.16225479  0.72721086  1
  O2-  O285  1  0.78791199  0.65870270  0.06407541  1
  O2-  O286  1  0.79402932  0.66567146  0.40498287  1
  O2-  O287  1  0.79846159  0.66845157  0.72863657  1
