# generated using pymatgen
data_Ca2Al2SiO7
_symmetry_space_group_name_H-M   'P 1'
_cell_length_a   15.46427236
_cell_length_b   15.46235800
_cell_length_c   15.28714576
_cell_angle_alpha   90.00260700
_cell_angle_beta   90.01839717
_cell_angle_gamma   89.98677975
_symmetry_Int_Tables_number   1
_chemical_formula_structural   Ca2Al2SiO7
_chemical_formula_sum   'Ca48 Al48 Si24 O168'
_cell_volume   3655.37204770
_cell_formula_units_Z   24
loop_
 _symmetry_equiv_pos_site_id
 _symmetry_equiv_pos_as_xyz
  1  'x, y, z'
loop_
 _atom_type_symbol
 _atom_type_oxidation_number
  Ca2+  2.0
  Al0+  0.0
  Si0+  0.0
  O2-  -2.0
loop_
 _atom_site_type_symbol
 _atom_site_label
 _atom_site_symmetry_multiplicity
 _atom_site_fract_x
 _atom_site_fract_y
 _atom_site_fract_z
 _atom_site_occupancy
  Ca2+  Ca0  1  0.15768385  0.07366000  0.16830665  1
  Ca2+  Ca1  1  0.16370325  0.07462106  0.50846048  1
  Ca2+  Ca2  1  0.15610055  0.07459623  0.83682074  1
  Ca2+  Ca3  1  0.17590476  0.58145277  0.17575597  1
  Ca2+  Ca4  1  0.16908757  0.57959709  0.49794121  1
  Ca2+  Ca5  1  0.17504954  0.58343196  0.84534558  1
  Ca2+  Ca6  1  0.66538511  0.07852993  0.16685014  1
  Ca2+  Ca7  1  0.67148527  0.08118831  0.50847623  1
  Ca2+  Ca8  1  0.67350698  0.08823406  0.84256019  1
  Ca2+  Ca9  1  0.66849900  0.58292933  0.17280255  1
  Ca2+  Ca10  1  0.65762764  0.58010441  0.50756674  1
  Ca2+  Ca11  1  0.66102086  0.57650148  0.83323831  1
  Ca2+  Ca12  1  0.08047257  0.32965752  0.15680091  1
  Ca2+  Ca13  1  0.08901244  0.32700862  0.49493007  1
  Ca2+  Ca14  1  0.07636897  0.31979713  0.83140696  1
  Ca2+  Ca15  1  0.09709318  0.82413416  0.16309720  1
  Ca2+  Ca16  1  0.07929045  0.83648121  0.49592655  1
  Ca2+  Ca17  1  0.08400697  0.83334150  0.82702347  1
  Ca2+  Ca18  1  0.57073915  0.32892412  0.15911444  1
  Ca2+  Ca19  1  0.57545267  0.33316888  0.50093554  1
  Ca2+  Ca20  1  0.57745022  0.32537841  0.82744250  1
  Ca2+  Ca21  1  0.58974008  0.83129402  0.16385258  1
  Ca2+  Ca22  1  0.58895612  0.82289736  0.49203592  1
  Ca2+  Ca23  1  0.58768004  0.82807194  0.82816644  1
  Ca2+  Ca24  1  0.33373599  0.42240209  0.17347055  1
  Ca2+  Ca25  1  0.33803642  0.41695895  0.49899916  1
  Ca2+  Ca26  1  0.34143192  0.42047565  0.83839450  1
  Ca2+  Ca27  1  0.32330373  0.91990368  0.17010410  1
  Ca2+  Ca28  1  0.31981286  0.91240631  0.50248019  1
  Ca2+  Ca29  1  0.32134632  0.91696349  0.83995797  1
  Ca2+  Ca30  1  0.83601798  0.41497080  0.16915834  1
  Ca2+  Ca31  1  0.82384566  0.42202263  0.50910869  1
  Ca2+  Ca32  1  0.82682704  0.41027109  0.83707967  1
  Ca2+  Ca33  1  0.82370606  0.92207647  0.16631484  1
  Ca2+  Ca34  1  0.83124510  0.91960341  0.50718719  1
  Ca2+  Ca35  1  0.83046128  0.92607610  0.83797419  1
  Ca2+  Ca36  1  0.41726999  0.17886661  0.15728402  1
  Ca2+  Ca37  1  0.41633368  0.17847331  0.49653967  1
  Ca2+  Ca38  1  0.42697546  0.17412199  0.82605065  1
  Ca2+  Ca39  1  0.41553602  0.66237936  0.16609884  1
  Ca2+  Ca40  1  0.42552235  0.66370085  0.49512251  1
  Ca2+  Ca41  1  0.41922769  0.66723710  0.82995818  1
  Ca2+  Ca42  1  0.92036631  0.17168877  0.15598993  1
  Ca2+  Ca43  1  0.91905047  0.16206499  0.50482532  1
  Ca2+  Ca44  1  0.92175106  0.15571993  0.83231566  1
  Ca2+  Ca45  1  0.93400405  0.66688908  0.16107089  1
  Ca2+  Ca46  1  0.92060894  0.67685642  0.49387842  1
  Ca2+  Ca47  1  0.92380381  0.67663417  0.82957963  1
  Al0+  Al48  1  -0.00385265  -0.00219754  0.00878054  1
  Al0+  Al49  1  -0.00256604  0.00129648  0.33595733  1
  Al0+  Al50  1  -0.00177397  -0.00172163  0.66543544  1
  Al0+  Al51  1  0.00074285  0.50088855  -0.01015381  1
  Al0+  Al52  1  0.00059186  0.50127157  0.33517437  1
  Al0+  Al53  1  0.00076662  0.49990140  0.66882443  1
  Al0+  Al54  1  0.49775715  -0.00190536  0.00042838  1
  Al0+  Al55  1  0.50114593  -0.00101988  0.33919682  1
  Al0+  Al56  1  0.49759395  -0.00085560  0.66190068  1
  Al0+  Al57  1  0.50109110  0.50168822  0.00225797  1
  Al0+  Al58  1  0.50084158  0.50015615  0.32821819  1
  Al0+  Al59  1  0.50022400  0.50055832  0.66536023  1
  Al0+  Al60  1  0.24793699  0.25064798  -0.01015182  1
  Al0+  Al61  1  0.24985638  0.25002332  0.32981713  1
  Al0+  Al62  1  0.24920887  0.25001985  0.65966659  1
  Al0+  Al63  1  0.25320265  0.74839658  0.00340981  1
  Al0+  Al64  1  0.25194885  0.75005258  0.33962600  1
  Al0+  Al65  1  0.25066339  0.74766196  0.67008360  1
  Al0+  Al66  1  0.74832804  0.25130027  0.00194976  1
  Al0+  Al67  1  0.75080504  0.25040101  0.33436095  1
  Al0+  Al68  1  0.75028366  0.25078967  0.67101391  1
  Al0+  Al69  1  0.75170252  0.74774149  0.00294221  1
  Al0+  Al70  1  0.75131186  0.75160971  0.33078568  1
  Al0+  Al71  1  0.75280780  0.74985939  0.65917618  1
  Al0+  Al72  1  0.18060184  0.92995935  0.68084817  1
  Al0+  Al73  1  0.57438747  0.17699981  0.65075066  1
  Al0+  Al74  1  0.32201036  0.56894248  0.01436861  1
  Al0+  Al75  1  0.17788641  0.42771597  0.34751745  1
  Al0+  Al76  1  0.32314907  0.56978048  0.35118923  1
  Al0+  Al77  1  0.06810299  0.17934723  0.65169079  1
  Al0+  Al78  1  0.67958412  0.92878913  0.34914009  1
  Al0+  Al79  1  0.67927519  0.43202241  0.68101619  1
  Al0+  Al80  1  0.81926517  0.07319092  0.01752185  1
  Al0+  Al81  1  0.17910841  0.93056040  0.34827133  1
  Al0+  Al82  1  0.81822612  0.06927097  0.68079777  1
  Al0+  Al83  1  0.17848153  0.92970222  0.01357439  1
  Al0+  Al84  1  0.93215548  0.81966907  0.65323002  1
  Al0+  Al85  1  0.06876894  0.17491316  0.98556762  1
  Al0+  Al86  1  0.42846119  0.32375718  0.98408537  1
  Al0+  Al87  1  0.56948121  0.68253216  0.65494161  1
  Al0+  Al88  1  0.42974319  0.32127185  0.64977113  1
  Al0+  Al89  1  0.57120370  0.68046601  0.31736694  1
  Al0+  Al90  1  0.07155794  0.68083660  0.32094515  1
  Al0+  Al91  1  0.92746955  0.32284551  0.98493894  1
  Al0+  Al92  1  0.07458106  0.68156856  0.98630866  1
  Al0+  Al93  1  0.42956591  0.31930379  0.31712448  1
  Al0+  Al94  1  0.67635924  0.92656017  0.01350668  1
  Al0+  Al95  1  0.56892890  0.17634411  0.98685180  1
  Si0+  Si96  1  0.42864222  0.82005068  0.98631937  1
  Si0+  Si97  1  0.57397998  0.17680908  0.31723726  1
  Si0+  Si98  1  0.06979132  0.17848908  0.31909780  1
  Si0+  Si99  1  0.82425428  0.57448251  0.68403141  1
  Si0+  Si100  1  0.57354394  0.68016132  0.98552756  1
  Si0+  Si101  1  0.42806868  0.82348548  0.31655237  1
  Si0+  Si102  1  0.92766335  0.32458476  0.64872640  1
  Si0+  Si103  1  0.07517072  0.67570009  0.64951152  1
  Si0+  Si104  1  0.92837106  0.32188634  0.32142567  1
  Si0+  Si105  1  0.82025184  0.07415586  0.35286275  1
  Si0+  Si106  1  0.68047084  0.43017881  0.34719250  1
  Si0+  Si107  1  0.67607481  0.92550278  0.68051520  1
  Si0+  Si108  1  0.31944797  0.56768805  0.68254685  1
  Si0+  Si109  1  0.17669999  0.42781336  0.01287994  1
  Si0+  Si110  1  0.32208317  0.07450558  0.68267049  1
  Si0+  Si111  1  0.32115142  0.07381341  0.01397589  1
  Si0+  Si112  1  0.82291687  0.57024140  0.01485647  1
  Si0+  Si113  1  0.17655949  0.42585307  0.68331252  1
  Si0+  Si114  1  0.82241856  0.57139748  0.34744166  1
  Si0+  Si115  1  0.92873115  0.82435934  0.31338324  1
  Si0+  Si116  1  0.42433076  0.82199324  0.64997774  1
  Si0+  Si117  1  0.32261306  0.07345218  0.34950210  1
  Si0+  Si118  1  0.67928542  0.43052045  0.01694557  1
  Si0+  Si119  1  0.92660001  0.81919383  0.98506700  1
  O2-  O120  1  0.24813073  0.00996663  0.05945781  1
  O2-  O121  1  0.25360919  0.00536909  0.39473898  1
  O2-  O122  1  0.25558128  0.00406961  0.72798283  1
  O2-  O123  1  0.24791068  0.49271686  0.05856902  1
  O2-  O124  1  0.25080706  0.49746850  0.40045929  1
  O2-  O125  1  0.24711671  0.49800280  0.72475037  1
  O2-  O126  1  0.74375341  0.00262159  0.06434041  1
  O2-  O127  1  0.75155327  0.00540958  0.39607479  1
  O2-  O128  1  0.73695266  0.00004155  0.72556153  1
  O2-  O129  1  0.75491471  0.49717905  0.05893659  1
  O2-  O130  1  0.74931099  0.50306901  0.39020618  1
  O2-  O131  1  0.75625436  0.50522785  0.72833849  1
  O2-  O132  1  0.00137654  0.25312492  0.27938110  1
  O2-  O133  1  -0.00261461  0.25776316  0.60343512  1
  O2-  O134  1  -0.00523654  0.24581961  0.93610449  1
  O2-  O135  1  0.00121473  0.75861624  0.27102823  1
  O2-  O136  1  0.00581303  0.74366752  0.60614504  1
  O2-  O137  1  0.00180122  0.75808758  0.94004455  1
  O2-  O138  1  0.50241869  0.24179316  0.27248668  1
  O2-  O139  1  0.49999643  0.24665510  0.60060284  1
  O2-  O140  1  0.49728649  0.24813395  0.93606865  1
  O2-  O141  1  0.49809579  0.75662135  0.27070879  1
  O2-  O142  1  0.50006230  0.76093688  0.60653586  1
  O2-  O143  1  0.50495798  0.75379463  0.94472212  1
  O2-  O144  1  0.06885667  0.17754897  0.09984508  1
  O2-  O145  1  0.06807687  0.17683682  0.42418418  1
  O2-  O146  1  0.06558017  0.17795229  0.76422120  1
  O2-  O147  1  0.07382808  0.68061043  0.09956950  1
  O2-  O148  1  0.06603254  0.68019049  0.43400240  1
  O2-  O149  1  0.07617709  0.67701242  0.75525086  1
  O2-  O150  1  0.56611394  0.17866144  0.10108165  1
  O2-  O151  1  0.57656477  0.18033655  0.42252239  1
  O2-  O152  1  0.57332337  0.17914157  0.76411859  1
  O2-  O153  1  0.57489994  0.67927808  0.09043863  1
  O2-  O154  1  0.57093587  0.67992780  0.43053360  1
  O2-  O155  1  0.56728708  0.68184301  0.76852909  1
  O2-  O156  1  0.17563610  0.42838623  0.23394214  1
  O2-  O157  1  0.17464643  0.42786110  0.57833567  1
  O2-  O158  1  0.17638203  0.43188269  0.90716083  1
  O2-  O159  1  0.18045803  0.93149332  0.23514140  1
  O2-  O160  1  0.18125556  0.93005359  0.56762979  1
  O2-  O161  1  0.18065747  0.92779793  0.90043887  1
  O2-  O162  1  0.68400865  0.42964362  0.24195390  1
  O2-  O163  1  0.67973114  0.43533965  0.56719351  1
  O2-  O164  1  0.67691565  0.43450553  0.91203173  1
  O2-  O165  1  0.68151231  0.92866909  0.23627996  1
  O2-  O166  1  0.68151523  0.92313829  0.57504186  1
  O2-  O167  1  0.68034098  0.92050934  0.90015734  1
  O2-  O168  1  0.43106867  0.32451992  0.09788708  1
  O2-  O169  1  0.43239413  0.31946044  0.42993213  1
  O2-  O170  1  0.43207423  0.32305250  0.76299597  1
  O2-  O171  1  0.42605915  0.81817556  0.09112763  1
  O2-  O172  1  0.42876990  0.82186618  0.42224042  1
  O2-  O173  1  0.42103125  0.81826740  0.75576237  1
  O2-  O174  1  0.93185603  0.32543244  0.09951419  1
  O2-  O175  1  0.92508503  0.32096953  0.42621680  1
  O2-  O176  1  0.92939540  0.32644874  0.75376692  1
  O2-  O177  1  0.92305274  0.81301199  0.09037445  1
  O2-  O178  1  0.92857437  0.82308504  0.41930754  1
  O2-  O179  1  0.93301549  0.81837105  0.76637995  1
  O2-  O180  1  0.32156440  0.07256202  0.24378347  1
  O2-  O181  1  0.31885667  0.07390865  0.57687396  1
  O2-  O182  1  0.32415635  0.06835379  0.90871607  1
  O2-  O183  1  0.32191243  0.56832649  0.23758972  1
  O2-  O184  1  0.31965966  0.56893244  0.57788906  1
  O2-  O185  1  0.32256111  0.57064491  0.90066416  1
  O2-  O186  1  0.82042214  0.07684030  0.24782739  1
  O2-  O187  1  0.81955854  0.06612154  0.56729138  1
  O2-  O188  1  0.82018415  0.06888761  0.90401206  1
  O2-  O189  1  0.82349744  0.56797812  0.24208320  1
  O2-  O190  1  0.82468812  0.57280892  0.57806839  1
  O2-  O191  1  0.81927538  0.57345934  0.91006033  1
  O2-  O192  1  0.03768297  0.08805294  0.27129827  1
  O2-  O193  1  0.03324698  0.08446249  0.59703140  1
  O2-  O194  1  0.03866000  0.07485599  0.93634514  1
  O2-  O195  1  0.03698868  0.58478813  0.26698685  1
  O2-  O196  1  0.05022105  0.58107647  0.60536669  1
  O2-  O197  1  0.04201563  0.58747916  0.92925934  1
  O2-  O198  1  0.55192351  0.08057572  0.27558097  1
  O2-  O199  1  0.55016638  0.07637778  0.59908351  1
  O2-  O200  1  0.54425971  0.07680571  0.93430165  1
  O2-  O201  1  0.54229545  0.58409779  0.26238882  1
  O2-  O202  1  0.53414309  0.58806894  0.60033116  1
  O2-  O203  1  0.54206842  0.58976806  0.93818011  1
  O2-  O204  1  0.16206102  0.20139308  0.27126963  1
  O2-  O205  1  0.16480787  0.20697362  0.59635076  1
  O2-  O206  1  0.16616571  0.20087903  0.92963214  1
  O2-  O207  1  0.17041458  0.70929455  0.27040339  1
  O2-  O208  1  0.16880846  0.70142217  0.60440103  1
  O2-  O209  1  0.17151458  0.71120320  0.93276208  1
  O2-  O210  1  0.66668391  0.20664126  0.27088106  1
  O2-  O211  1  0.67241550  0.20897628  0.59894873  1
  O2-  O212  1  0.66751241  0.20669478  0.93718429  1
  O2-  O213  1  0.66923041  0.70944674  0.26419032  1
  O2-  O214  1  0.66732329  0.70540883  0.59948641  1
  O2-  O215  1  0.66598989  0.70445664  0.93766275  1
  O2-  O216  1  0.08304975  0.45625261  0.05757723  1
  O2-  O217  1  0.07992121  0.45709140  0.40266519  1
  O2-  O218  1  0.08435759  0.45197595  0.73121984  1
  O2-  O219  1  0.08117905  0.95196658  0.06987038  1
  O2-  O220  1  0.08124166  0.96123562  0.40038770  1
  O2-  O221  1  0.08391662  0.96147305  0.73269396  1
  O2-  O222  1  0.59077312  0.46510931  0.06658582  1
  O2-  O223  1  0.58883745  0.45830124  0.39299595  1
  O2-  O224  1  0.58447418  0.46781161  0.73576496  1
  O2-  O225  1  0.57587287  0.94845362  0.06609399  1
  O2-  O226  1  0.58155182  0.95254837  0.40396573  1
  O2-  O227  1  0.57758589  0.93974552  0.72053272  1
  O2-  O228  1  0.19686001  0.33146415  0.05562340  1
  O2-  O229  1  0.20496812  0.32785473  0.39876136  1
  O2-  O230  1  0.20422998  0.33319210  0.72800383  1
  O2-  O231  1  0.21843401  0.83608656  0.06755712  1
  O2-  O232  1  0.21003664  0.83500283  0.40369846  1
  O2-  O233  1  0.21086409  0.83209594  0.73385734  1
  O2-  O234  1  0.70161913  0.33846352  0.06568356  1
  O2-  O235  1  0.71036154  0.33928609  0.39540772  1
  O2-  O236  1  0.70949599  0.33617193  0.73581420  1
  O2-  O237  1  0.71068005  0.82945302  0.06832304  1
  O2-  O238  1  0.71381382  0.83193042  0.40158632  1
  O2-  O239  1  0.70870786  0.83329211  0.72607218  1
  O2-  O240  1  0.46393856  0.41446971  0.26331214  1
  O2-  O241  1  0.46293559  0.41833507  0.59685568  1
  O2-  O242  1  0.46349466  0.42140284  0.93297196  1
  O2-  O243  1  0.45107850  0.91881201  0.27245049  1
  O2-  O244  1  0.43846854  0.91797239  0.60529934  1
  O2-  O245  1  0.44904805  0.91264810  0.93771531  1
  O2-  O246  1  0.95289059  0.41451037  0.27432060  1
  O2-  O247  1  0.95085541  0.41985764  0.60354665  1
  O2-  O248  1  0.95600660  0.41877926  0.92689725  1
  O2-  O249  1  0.95002290  0.92004395  0.27033681  1
  O2-  O250  1  0.96403113  0.91362814  0.59559673  1
  O2-  O251  1  0.94529194  0.91571957  0.94477193  1
  O2-  O252  1  0.33202745  0.29093897  0.26301334  1
  O2-  O253  1  0.33077052  0.29592935  0.59610713  1
  O2-  O254  1  0.32882061  0.30297012  0.93135789  1
  O2-  O255  1  0.33484069  0.79575087  0.27124859  1
  O2-  O256  1  0.33442727  0.78675789  0.60172406  1
  O2-  O257  1  0.34088395  0.78518541  0.93541580  1
  O2-  O258  1  0.83757219  0.29271489  0.27154216  1
  O2-  O259  1  0.83424249  0.29781611  0.60373188  1
  O2-  O260  1  0.82592994  0.30169433  0.93709084  1
  O2-  O261  1  0.83709772  0.79425693  0.26686766  1
  O2-  O262  1  0.83734309  0.78914313  0.59451114  1
  O2-  O263  1  0.83680071  0.78522986  0.93565458  1
  O2-  O264  1  0.41181966  0.04381358  0.06384750  1
  O2-  O265  1  0.41613477  0.05008105  0.39688710  1
  O2-  O266  1  0.41735244  0.05067437  0.72675001  1
  O2-  O267  1  0.41935670  0.54176690  0.06922374  1
  O2-  O268  1  0.42275035  0.53940132  0.40138554  1
  O2-  O269  1  0.41085452  0.53915831  0.73018893  1
  O2-  O270  1  0.91484379  0.04174685  0.07521074  1
  O2-  O271  1  0.91353318  0.04713980  0.39913456  1
  O2-  O272  1  0.91257487  0.03099851  0.73396978  1
  O2-  O273  1  0.91637081  0.54339540  0.05984982  1
  O2-  O274  1  0.91168256  0.54228717  0.39838449  1
  O2-  O275  1  0.91866455  0.55124350  0.73018552  1
  O2-  O276  1  0.29916286  0.17016681  0.05605402  1
  O2-  O277  1  0.29595334  0.16680141  0.39483738  1
  O2-  O278  1  0.29569359  0.16837256  0.72701086  1
  O2-  O279  1  0.29109434  0.66438809  0.06984454  1
  O2-  O280  1  0.29690808  0.66828813  0.40454854  1
  O2-  O281  1  0.29333006  0.65964247  0.73157183  1
  O2-  O282  1  0.79416549  0.17291273  0.07056221  1
  O2-  O283  1  0.79556974  0.16804586  0.40002557  1
  O2-  O284  1  0.79671436  0.16815513  0.73378958  1
  O2-  O285  1  0.79261128  0.65935962  0.06593319  1
  O2-  O286  1  0.79719599  0.66466731  0.39237743  1
  O2-  O287  1  0.79726398  0.66821009  0.72862500  1
