# generated using pymatgen
data_Ca2Al2SiO7
_symmetry_space_group_name_H-M   'P 1'
_cell_length_a   15.45632321
_cell_length_b   15.45665670
_cell_length_c   15.28255349
_cell_angle_alpha   90.01280748
_cell_angle_beta   90.00670957
_cell_angle_gamma   89.98156564
_symmetry_Int_Tables_number   1
_chemical_formula_structural   Ca2Al2SiO7
_chemical_formula_sum   'Ca48 Al48 Si24 O168'
_cell_volume   3651.04881841
_cell_formula_units_Z   24
loop_
 _symmetry_equiv_pos_site_id
 _symmetry_equiv_pos_as_xyz
  1  'x, y, z'
loop_
 _atom_type_symbol
 _atom_type_oxidation_number
  Ca2+  2.0
  Al0+  0.0
  Si0+  0.0
  O2-  -2.0
loop_
 _atom_site_type_symbol
 _atom_site_label
 _atom_site_symmetry_multiplicity
 _atom_site_fract_x
 _atom_site_fract_y
 _atom_site_fract_z
 _atom_site_occupancy
  Ca2+  Ca0  1  0.16172271  0.07900987  0.17426825  1
  Ca2+  Ca1  1  0.15804808  0.07558582  0.50461432  1
  Ca2+  Ca2  1  0.15862428  0.08196943  0.83292173  1
  Ca2+  Ca3  1  0.16079373  0.58097603  0.17727148  1
  Ca2+  Ca4  1  0.17066872  0.57827024  0.50007386  1
  Ca2+  Ca5  1  0.17317684  0.58869526  0.83622154  1
  Ca2+  Ca6  1  0.66831326  0.08005959  0.17831269  1
  Ca2+  Ca7  1  0.66053646  0.07340473  0.50040376  1
  Ca2+  Ca8  1  0.66739753  0.07590179  0.83662235  1
  Ca2+  Ca9  1  0.67825028  0.57192849  0.17607039  1
  Ca2+  Ca10  1  0.66987510  0.58306848  0.50136397  1
  Ca2+  Ca11  1  0.66557306  0.57939660  0.83828182  1
  Ca2+  Ca12  1  0.07367214  0.33195996  0.16437114  1
  Ca2+  Ca13  1  0.08407669  0.32283198  0.48753913  1
  Ca2+  Ca14  1  0.08090398  0.32300268  0.82998220  1
  Ca2+  Ca15  1  0.08402528  0.82103393  0.16201391  1
  Ca2+  Ca16  1  0.08188372  0.83308199  0.49390564  1
  Ca2+  Ca17  1  0.07284583  0.83390879  0.82946075  1
  Ca2+  Ca18  1  0.58767916  0.33563237  0.16849231  1
  Ca2+  Ca19  1  0.57293507  0.33248332  0.48982167  1
  Ca2+  Ca20  1  0.58040615  0.33566357  0.82707119  1
  Ca2+  Ca21  1  0.57165478  0.84111155  0.16629765  1
  Ca2+  Ca22  1  0.58336450  0.83083425  0.49342182  1
  Ca2+  Ca23  1  0.57895900  0.82804618  0.82456639  1
  Ca2+  Ca24  1  0.32505213  0.41880554  0.17660071  1
  Ca2+  Ca25  1  0.33187291  0.41404343  0.50467503  1
  Ca2+  Ca26  1  0.33742941  0.42274547  0.83246985  1
  Ca2+  Ca27  1  0.33072134  0.91623623  0.17719903  1
  Ca2+  Ca28  1  0.32212437  0.91334610  0.50090164  1
  Ca2+  Ca29  1  0.32569077  0.91372263  0.83702935  1
  Ca2+  Ca30  1  0.83218519  0.41533193  0.17788378  1
  Ca2+  Ca31  1  0.83522190  0.41963384  0.49535618  1
  Ca2+  Ca32  1  0.82655171  0.41432178  0.84408211  1
  Ca2+  Ca33  1  0.82991580  0.91601064  0.17343661  1
  Ca2+  Ca34  1  0.82359781  0.91285559  0.50734882  1
  Ca2+  Ca35  1  0.83279243  0.90940988  0.83390663  1
  Ca2+  Ca36  1  0.42207396  0.17134905  0.17220866  1
  Ca2+  Ca37  1  0.41944600  0.17732128  0.49224470  1
  Ca2+  Ca38  1  0.41714414  0.17602358  0.82733604  1
  Ca2+  Ca39  1  0.41332816  0.68151487  0.16456621  1
  Ca2+  Ca40  1  0.41979218  0.66826634  0.49796562  1
  Ca2+  Ca41  1  0.42142791  0.66826621  0.82657341  1
  Ca2+  Ca42  1  0.92571415  0.17488737  0.16429108  1
  Ca2+  Ca43  1  0.92674286  0.17065597  0.49339333  1
  Ca2+  Ca44  1  0.92527415  0.16849404  0.83218230  1
  Ca2+  Ca45  1  0.92602176  0.66467271  0.16480929  1
  Ca2+  Ca46  1  0.91918463  0.67110721  0.49295814  1
  Ca2+  Ca47  1  0.92010169  0.67522461  0.83158215  1
  Al0+  Al48  1  -0.00078137  -0.00082231  -0.00390340  1
  Al0+  Al49  1  -0.00135178  -0.00047805  0.33410461  1
  Al0+  Al50  1  -0.00208877  -0.00012264  0.66373794  1
  Al0+  Al51  1  0.00094305  0.49983515  -0.01017571  1
  Al0+  Al52  1  0.00181915  0.50068246  0.33730586  1
  Al0+  Al53  1  -0.00032504  0.50023986  0.67005743  1
  Al0+  Al54  1  0.49749175  0.00148735  -0.00476611  1
  Al0+  Al55  1  0.49914241  0.00117703  0.33181426  1
  Al0+  Al56  1  0.49831708  -0.00002549  0.67315475  1
  Al0+  Al57  1  0.49944476  0.50084465  0.00771075  1
  Al0+  Al58  1  0.50115907  0.50219066  0.33069334  1
  Al0+  Al59  1  0.49951713  0.50121121  0.66274690  1
  Al0+  Al60  1  0.25245278  0.24999354  -0.00243149  1
  Al0+  Al61  1  0.25254786  0.24915213  0.32892765  1
  Al0+  Al62  1  0.24912047  0.24909233  0.66069509  1
  Al0+  Al63  1  0.25129681  0.75149911  -0.00697566  1
  Al0+  Al64  1  0.24987191  0.75105151  0.33069136  1
  Al0+  Al65  1  0.24982245  0.74933255  0.67642792  1
  Al0+  Al66  1  0.74917678  0.24713158  0.00021973  1
  Al0+  Al67  1  0.75005054  0.24965700  0.33381348  1
  Al0+  Al68  1  0.75081390  0.24897178  0.66739559  1
  Al0+  Al69  1  0.74852488  0.74798604  0.00088298  1
  Al0+  Al70  1  0.74984460  0.74929022  0.33925035  1
  Al0+  Al71  1  0.74942518  0.74900476  0.66479294  1
  Al0+  Al72  1  0.07055581  0.68117191  0.32339030  1
  Al0+  Al73  1  0.17761361  0.92987039  0.68211322  1
  Al0+  Al74  1  0.67802436  0.92784726  0.68216997  1
  Al0+  Al75  1  0.92658724  0.82045106  0.98678483  1
  Al0+  Al76  1  0.43068224  0.81931144  0.32289842  1
  Al0+  Al77  1  0.42997394  0.82330855  0.98375105  1
  Al0+  Al78  1  0.07264618  0.17552606  0.31794489  1
  Al0+  Al79  1  0.57001275  0.68017716  0.65272770  1
  Al0+  Al80  1  0.06857767  0.18062963  0.65107427  1
  Al0+  Al81  1  0.43120594  0.32048500  0.65404941  1
  Al0+  Al82  1  0.42904892  0.32514653  0.31594408  1
  Al0+  Al83  1  0.93022648  0.81876978  0.65102805  1
  Al0+  Al84  1  0.67814236  0.42721646  0.35090961  1
  Al0+  Al85  1  0.67790056  0.93040917  0.34598240  1
  Al0+  Al86  1  0.07316882  0.17917563  0.98439229  1
  Al0+  Al87  1  0.57084881  0.17964514  0.31976104  1
  Al0+  Al88  1  0.07251172  0.67747402  0.98294556  1
  Al0+  Al89  1  0.82306952  0.57042797  0.34967753  1
  Al0+  Al90  1  0.32117083  0.56884646  0.68000245  1
  Al0+  Al91  1  0.18094307  0.42787378  0.34519898  1
  Al0+  Al92  1  0.67947615  0.42780590  0.01391393  1
  Al0+  Al93  1  0.92671788  0.32042592  0.98446435  1
  Al0+  Al94  1  0.17836279  0.92884490  0.34469017  1
  Al0+  Al95  1  0.93092060  0.32168462  0.32076328  1
  Si0+  Si96  1  0.32194234  0.57404363  0.34771646  1
  Si0+  Si97  1  0.67689107  0.92843499  0.01449455  1
  Si0+  Si98  1  0.82072860  0.06897073  0.01547615  1
  Si0+  Si99  1  0.32253008  0.07262368  0.01608552  1
  Si0+  Si100  1  0.42618639  0.82320923  0.65077786  1
  Si0+  Si101  1  0.07438548  0.67718272  0.64955003  1
  Si0+  Si102  1  0.32067695  0.07384933  0.68411416  1
  Si0+  Si103  1  0.82369483  0.57166688  0.01534969  1
  Si0+  Si104  1  0.82260898  0.07205194  0.35078904  1
  Si0+  Si105  1  0.67996209  0.43003922  0.68035983  1
  Si0+  Si106  1  0.57570723  0.67819803  0.31463676  1
  Si0+  Si107  1  0.82198604  0.57165124  0.68412011  1
  Si0+  Si108  1  0.32034673  0.57279960  0.01655778  1
  Si0+  Si109  1  0.92559546  0.32458832  0.64953625  1
  Si0+  Si110  1  0.82075451  0.07164403  0.68493716  1
  Si0+  Si111  1  0.43048646  0.32263723  0.98525521  1
  Si0+  Si112  1  0.56899753  0.67771645  0.98570465  1
  Si0+  Si113  1  0.17781399  0.42574409  0.68410821  1
  Si0+  Si114  1  0.18020227  0.42911048  0.01244852  1
  Si0+  Si115  1  0.92541890  0.82194499  0.31847082  1
  Si0+  Si116  1  0.17962094  0.93049218  0.01478801  1
  Si0+  Si117  1  0.57088459  0.17878659  0.98391658  1
  Si0+  Si118  1  0.32197516  0.07130217  0.34986250  1
  Si0+  Si119  1  0.57358255  0.17595081  0.65188398  1
  O2-  O120  1  0.24972548  0.00269048  0.05710107  1
  O2-  O121  1  0.24829081  0.00743579  0.39298200  1
  O2-  O122  1  0.25372217  0.00385868  0.72946642  1
  O2-  O123  1  0.24563952  0.50489193  0.05651115  1
  O2-  O124  1  0.26029552  0.49869500  0.39126907  1
  O2-  O125  1  0.24478993  0.49621290  0.72898986  1
  O2-  O126  1  0.75054257  -0.00379846  0.05694325  1
  O2-  O127  1  0.75369335  0.00289287  0.39433537  1
  O2-  O128  1  0.75068280  0.00415551  0.73012470  1
  O2-  O129  1  0.75944336  0.49808065  0.05827873  1
  O2-  O130  1  0.74933711  0.50004463  0.40087736  1
  O2-  O131  1  0.75426910  0.49631956  0.72512283  1
  O2-  O132  1  0.00291636  0.25028181  0.26967002  1
  O2-  O133  1  -0.00264127  0.25918403  0.60656325  1
  O2-  O134  1  0.00130756  0.25136503  0.93414765  1
  O2-  O135  1  -0.00437391  0.75489874  0.27514036  1
  O2-  O136  1  0.00619732  0.74547605  0.60473261  1
  O2-  O137  1  -0.00116369  0.74923024  0.93563440  1
  O2-  O138  1  0.50496740  0.25619230  0.26685823  1
  O2-  O139  1  0.50491800  0.24448466  0.60901055  1
  O2-  O140  1  0.50375985  0.25400511  0.94252546  1
  O2-  O141  1  0.50600505  0.74694135  0.27213633  1
  O2-  O142  1  0.49773555  0.75792279  0.60691537  1
  O2-  O143  1  0.50496431  0.74880627  0.93833882  1
  O2-  O144  1  0.07255659  0.17914074  0.09722903  1
  O2-  O145  1  0.06929478  0.17519254  0.43158537  1
  O2-  O146  1  0.06729498  0.18207145  0.76442643  1
  O2-  O147  1  0.07387041  0.67793163  0.09668760  1
  O2-  O148  1  0.07245134  0.68321715  0.43633723  1
  O2-  O149  1  0.07200652  0.67801466  0.75524471  1
  O2-  O150  1  0.56971652  0.17470828  0.08825229  1
  O2-  O151  1  0.56525735  0.17625339  0.43338648  1
  O2-  O152  1  0.57386291  0.17818528  0.75824319  1
  O2-  O153  1  0.56631939  0.67884266  0.09081187  1
  O2-  O154  1  0.57507913  0.67932466  0.42040555  1
  O2-  O155  1  0.56843966  0.67885316  0.76653618  1
  O2-  O156  1  0.17948609  0.43142520  0.23136423  1
  O2-  O157  1  0.17876450  0.42566113  0.57878282  1
  O2-  O158  1  0.18593762  0.42732846  0.90727666  1
  O2-  O159  1  0.18169416  0.92692780  0.23118703  1
  O2-  O160  1  0.17962434  0.92928401  0.56905160  1
  O2-  O161  1  0.18099849  0.93222717  0.90953839  1
  O2-  O162  1  0.68123832  0.42978873  0.23696088  1
  O2-  O163  1  0.67982731  0.43085115  0.57614877  1
  O2-  O164  1  0.67637763  0.43109479  0.89977569  1
  O2-  O165  1  0.67841358  0.93225224  0.23206623  1
  O2-  O166  1  0.67789388  0.92935098  0.56937191  1
  O2-  O167  1  0.67631748  0.93046980  0.90932852  1
  O2-  O168  1  0.42868023  0.32134743  0.08950202  1
  O2-  O169  1  0.42802410  0.32180191  0.42964557  1
  O2-  O170  1  0.43434715  0.32075260  0.76821549  1
  O2-  O171  1  0.42957519  0.82414611  0.09691957  1
  O2-  O172  1  0.42962573  0.81699674  0.43584689  1
  O2-  O173  1  0.42806355  0.82114249  0.75676938  1
  O2-  O174  1  0.92714044  0.31944932  0.09748018  1
  O2-  O175  1  0.93351569  0.31999899  0.43462289  1
  O2-  O176  1  0.92310366  0.32292829  0.75524743  1
  O2-  O177  1  0.92685464  0.82070668  0.10026880  1
  O2-  O178  1  0.92564746  0.82101653  0.42412348  1
  O2-  O179  1  0.92987022  0.81648788  0.76426836  1
  O2-  O180  1  0.32492579  0.06778048  0.24377738  1
  O2-  O181  1  0.32200696  0.07408629  0.57903410  1
  O2-  O182  1  0.32519336  0.07320972  0.91099790  1
  O2-  O183  1  0.31734037  0.57674002  0.24167850  1
  O2-  O184  1  0.32076157  0.56809077  0.56721108  1
  O2-  O185  1  0.32445014  0.56954138  0.91138614  1
  O2-  O186  1  0.82276051  0.06925711  0.24467695  1
  O2-  O187  1  0.81926717  0.07256888  0.57975966  1
  O2-  O188  1  0.81797191  0.07029187  0.91027060  1
  O2-  O189  1  0.82277999  0.57109180  0.23565097  1
  O2-  O190  1  0.82273581  0.57202002  0.57961843  1
  O2-  O191  1  0.81862113  0.57377687  0.90941588  1
  O2-  O192  1  0.04042461  0.07800899  0.26437647  1
  O2-  O193  1  0.03472193  0.08519005  0.59810231  1
  O2-  O194  1  0.04213753  0.08153747  0.93154922  1
  O2-  O195  1  0.04017031  0.58507529  0.26914789  1
  O2-  O196  1  0.04944888  0.58166110  0.60709191  1
  O2-  O197  1  0.04878446  0.57990894  0.92611909  1
  O2-  O198  1  0.53670698  0.08409272  0.26313128  1
  O2-  O199  1  0.54718775  0.08142400  0.60881985  1
  O2-  O200  1  0.53829187  0.08989594  0.93304820  1
  O2-  O201  1  0.55169594  0.58497601  0.26813474  1
  O2-  O202  1  0.53651611  0.58609136  0.59679879  1
  O2-  O203  1  0.53880725  0.58493638  0.93939472  1
  O2-  O204  1  0.17273068  0.19780181  0.26753159  1
  O2-  O205  1  0.16611543  0.20635969  0.59747289  1
  O2-  O206  1  0.17221077  0.20728618  0.93103331  1
  O2-  O207  1  0.16496267  0.71266647  0.26531545  1
  O2-  O208  1  0.16960302  0.70209704  0.60788506  1
  O2-  O209  1  0.16980370  0.70805521  0.92931183  1
  O2-  O210  1  0.67097285  0.20083386  0.26765616  1
  O2-  O211  1  0.66757998  0.19979283  0.60689159  1
  O2-  O212  1  0.66302032  0.20209857  0.93539453  1
  O2-  O213  1  0.66909060  0.70491361  0.26922062  1
  O2-  O214  1  0.66632618  0.70853142  0.59846345  1
  O2-  O215  1  0.66407306  0.69850124  0.94063668  1
  O2-  O216  1  0.08521781  0.45244758  0.05511880  1
  O2-  O217  1  0.08797139  0.46160358  0.40306890  1
  O2-  O218  1  0.08301326  0.44867685  0.73012982  1
  O2-  O219  1  0.08648628  0.95569928  0.06045831  1
  O2-  O220  1  0.08040241  0.95461555  0.39874188  1
  O2-  O221  1  0.08079345  0.96327732  0.73463923  1
  O2-  O222  1  0.58448857  0.46120550  0.06974537  1
  O2-  O223  1  0.57799148  0.45672509  0.40050172  1
  O2-  O224  1  0.58931929  0.46179369  0.72812186  1
  O2-  O225  1  0.58517218  0.96137796  0.05942799  1
  O2-  O226  1  0.58204703  0.96298438  0.40055532  1
  O2-  O227  1  0.58087345  0.95672060  0.73820298  1
  O2-  O228  1  0.21311280  0.33892351  0.06006636  1
  O2-  O229  1  0.21011430  0.32996402  0.39777933  1
  O2-  O230  1  0.20698963  0.33279915  0.72994999  1
  O2-  O231  1  0.21018889  0.83784707  0.05904753  1
  O2-  O232  1  0.21458214  0.83454499  0.40014951  1
  O2-  O233  1  0.20745147  0.83430747  0.73912659  1
  O2-  O234  1  0.70372796  0.32815308  0.06455768  1
  O2-  O235  1  0.70365343  0.32779870  0.40302810  1
  O2-  O236  1  0.70336409  0.33599566  0.72761293  1
  O2-  O237  1  0.69956432  0.83488591  0.06078448  1
  O2-  O238  1  0.70556795  0.83369924  0.40060422  1
  O2-  O239  1  0.71076809  0.83119174  0.73552524  1
  O2-  O240  1  0.45198600  0.42522429  0.26355828  1
  O2-  O241  1  0.46251238  0.41512955  0.59895030  1
  O2-  O242  1  0.45743024  0.41599438  0.94005653  1
  O2-  O243  1  0.46052199  0.91521718  0.26694623  1
  O2-  O244  1  0.44730601  0.91947000  0.60917571  1
  O2-  O245  1  0.45897570  0.91950491  0.92810923  1
  O2-  O246  1  0.96007748  0.41975890  0.26830242  1
  O2-  O247  1  0.94769770  0.42047841  0.60729694  1
  O2-  O248  1  0.95074822  0.41873521  0.92949442  1
  O2-  O249  1  0.94794817  0.91613671  0.27347079  1
  O2-  O250  1  0.95678416  0.91630549  0.59827325  1
  O2-  O251  1  0.95445075  0.91791773  0.93166141  1
  O2-  O252  1  0.33331513  0.29178919  0.26045894  1
  O2-  O253  1  0.33480238  0.29115431  0.60024393  1
  O2-  O254  1  0.34096260  0.29207751  0.93493432  1
  O2-  O255  1  0.33628704  0.78702077  0.26489863  1
  O2-  O256  1  0.33261641  0.79332381  0.60802996  1
  O2-  O257  1  0.33516461  0.79153192  0.92840093  1
  O2-  O258  1  0.83192274  0.29443076  0.26946507  1
  O2-  O259  1  0.83263390  0.29616626  0.60358710  1
  O2-  O260  1  0.82895526  0.28779724  0.93092132  1
  O2-  O261  1  0.83191403  0.79571766  0.27271347  1
  O2-  O262  1  0.83387872  0.78658522  0.59837439  1
  O2-  O263  1  0.82717903  0.79236626  0.93365680  1
  O2-  O264  1  0.41378831  0.04219539  0.06372569  1
  O2-  O265  1  0.41259469  0.04031875  0.39837605  1
  O2-  O266  1  0.41475510  0.05196019  0.73266270  1
  O2-  O267  1  0.40979395  0.54295882  0.06700495  1
  O2-  O268  1  0.41877475  0.55721002  0.38962588  1
  O2-  O269  1  0.41712852  0.53497517  0.73581395  1
  O2-  O270  1  0.91297071  0.04196885  0.06231180  1
  O2-  O271  1  0.91524442  0.04593032  0.39843062  1
  O2-  O272  1  0.91306279  0.04308537  0.73146349  1
  O2-  O273  1  0.92065377  0.55083747  0.05598627  1
  O2-  O274  1  0.91970733  0.54169680  0.40593999  1
  O2-  O275  1  0.91510851  0.54838223  0.73239723  1
  O2-  O276  1  0.29779913  0.16563442  0.06283539  1
  O2-  O277  1  0.30266949  0.16688976  0.39342481  1
  O2-  O278  1  0.29255690  0.16711135  0.73107879  1
  O2-  O279  1  0.29532733  0.66713809  0.06030855  1
  O2-  O280  1  0.28938069  0.66401825  0.39652316  1
  O2-  O281  1  0.29360522  0.66449940  0.73866539  1
  O2-  O282  1  0.79029833  0.15927336  0.06391505  1
  O2-  O283  1  0.79817872  0.16512720  0.39745693  1
  O2-  O284  1  0.79609438  0.16576061  0.73283169  1
  O2-  O285  1  0.79395410  0.66319419  0.06413284  1
  O2-  O286  1  0.79422893  0.66839563  0.40413616  1
  O2-  O287  1  0.78860191  0.66108654  0.73238060  1
