# generated using pymatgen
data_Ca2Al2SiO7
_symmetry_space_group_name_H-M   'P 1'
_cell_length_a   15.45709589
_cell_length_b   15.45650557
_cell_length_c   15.28263409
_cell_angle_alpha   89.99986249
_cell_angle_beta   89.99917962
_cell_angle_gamma   90.01338806
_symmetry_Int_Tables_number   1
_chemical_formula_structural   Ca2Al2SiO7
_chemical_formula_sum   'Ca48 Al48 Si24 O168'
_cell_volume   3651.21510078
_cell_formula_units_Z   24
loop_
 _symmetry_equiv_pos_site_id
 _symmetry_equiv_pos_as_xyz
  1  'x, y, z'
loop_
 _atom_type_symbol
 _atom_type_oxidation_number
  Ca2+  2.0
  Al0+  0.0
  Si0+  0.0
  O2-  -2.0
loop_
 _atom_site_type_symbol
 _atom_site_label
 _atom_site_symmetry_multiplicity
 _atom_site_fract_x
 _atom_site_fract_y
 _atom_site_fract_z
 _atom_site_occupancy
  Ca2+  Ca0  1  0.16576646  0.08546996  0.16345374  1
  Ca2+  Ca1  1  0.16039677  0.08280333  0.50538021  1
  Ca2+  Ca2  1  0.16262851  0.07623173  0.84018705  1
  Ca2+  Ca3  1  0.16963191  0.58059125  0.16892435  1
  Ca2+  Ca4  1  0.17301202  0.57269597  0.50712575  1
  Ca2+  Ca5  1  0.17797433  0.58802952  0.84034479  1
  Ca2+  Ca6  1  0.66815099  0.07183602  0.16774687  1
  Ca2+  Ca7  1  0.67058927  0.07180329  0.50940503  1
  Ca2+  Ca8  1  0.67899654  0.07741450  0.84142938  1
  Ca2+  Ca9  1  0.66758798  0.58269466  0.16572071  1
  Ca2+  Ca10  1  0.67887171  0.58325947  0.50458130  1
  Ca2+  Ca11  1  0.67060521  0.57893061  0.83826307  1
  Ca2+  Ca12  1  0.08727617  0.32505492  0.16290186  1
  Ca2+  Ca13  1  0.08231949  0.32359313  0.49580877  1
  Ca2+  Ca14  1  0.07765110  0.31842246  0.82565221  1
  Ca2+  Ca15  1  0.08305475  0.82700087  0.15472432  1
  Ca2+  Ca16  1  0.07540413  0.83714749  0.50316205  1
  Ca2+  Ca17  1  0.08325012  0.83448187  0.82897796  1
  Ca2+  Ca18  1  0.57792274  0.33877480  0.16004487  1
  Ca2+  Ca19  1  0.57087907  0.33604010  0.49787367  1
  Ca2+  Ca20  1  0.58070872  0.33476613  0.82825265  1
  Ca2+  Ca21  1  0.58244910  0.83082356  0.15503815  1
  Ca2+  Ca22  1  0.58814101  0.83573711  0.49624237  1
  Ca2+  Ca23  1  0.58449740  0.83573298  0.83369778  1
  Ca2+  Ca24  1  0.32941185  0.42167838  0.17127620  1
  Ca2+  Ca25  1  0.33110422  0.41349912  0.50450917  1
  Ca2+  Ca26  1  0.33942633  0.42713199  0.83607956  1
  Ca2+  Ca27  1  0.33194560  0.91850283  0.16084272  1
  Ca2+  Ca28  1  0.32334977  0.92087883  0.50928523  1
  Ca2+  Ca29  1  0.32248285  0.91959693  0.84403358  1
  Ca2+  Ca30  1  0.82751329  0.42248311  0.16954778  1
  Ca2+  Ca31  1  0.84110858  0.42681817  0.50685434  1
  Ca2+  Ca32  1  0.83373689  0.41759416  0.83659399  1
  Ca2+  Ca33  1  0.82542393  0.91870068  0.16631908  1
  Ca2+  Ca34  1  0.82510041  0.91942616  0.51183832  1
  Ca2+  Ca35  1  0.83105089  0.92365866  0.83427092  1
  Ca2+  Ca36  1  0.41308142  0.17204391  0.16163057  1
  Ca2+  Ca37  1  0.41293380  0.17926726  0.49580724  1
  Ca2+  Ca38  1  0.41575095  0.16961491  0.82911259  1
  Ca2+  Ca39  1  0.42125893  0.67470733  0.15093991  1
  Ca2+  Ca40  1  0.41672901  0.66659106  0.49976788  1
  Ca2+  Ca41  1  0.41874352  0.66752417  0.83382017  1
  Ca2+  Ca42  1  0.92596341  0.16244789  0.15895537  1
  Ca2+  Ca43  1  0.92527871  0.16264558  0.50122557  1
  Ca2+  Ca44  1  0.92079590  0.16262405  0.82493182  1
  Ca2+  Ca45  1  0.92137456  0.66523462  0.16068880  1
  Ca2+  Ca46  1  0.90671707  0.67091282  0.49879937  1
  Ca2+  Ca47  1  0.92191450  0.67157586  0.82648685  1
  Al0+  Al48  1  0.00039804  -0.00081472  0.00460898  1
  Al0+  Al49  1  -0.00044640  -0.00097667  0.32737879  1
  Al0+  Al50  1  -0.00120092  -0.00358200  0.66472186  1
  Al0+  Al51  1  0.00111637  0.49972090  -0.00518255  1
  Al0+  Al52  1  0.00146128  0.49970461  0.34148303  1
  Al0+  Al53  1  0.00298294  0.49835954  0.66937781  1
  Al0+  Al54  1  0.49869431  0.00224476  0.00247829  1
  Al0+  Al55  1  0.49817685  0.00082043  0.33831387  1
  Al0+  Al56  1  0.49834526  -0.00181144  0.66787296  1
  Al0+  Al57  1  0.50033364  0.50253832  0.00425265  1
  Al0+  Al58  1  0.50102560  0.50190715  0.32899231  1
  Al0+  Al59  1  0.50010497  0.50106274  0.66345916  1
  Al0+  Al60  1  0.24827253  0.25029012  -0.00383834  1
  Al0+  Al61  1  0.24999333  0.25087806  0.32827283  1
  Al0+  Al62  1  0.25042724  0.25002643  0.65907706  1
  Al0+  Al63  1  0.25097267  0.75057926  0.00111107  1
  Al0+  Al64  1  0.24978103  0.75106107  0.33416586  1
  Al0+  Al65  1  0.25171515  0.74940943  0.67115452  1
  Al0+  Al66  1  0.74887709  0.25200110  0.01038581  1
  Al0+  Al67  1  0.74992200  0.24932184  0.33413961  1
  Al0+  Al68  1  0.74968622  0.24983339  0.66236439  1
  Al0+  Al69  1  0.75052109  0.74906364  -0.00169064  1
  Al0+  Al70  1  0.74923099  0.75089470  0.33816127  1
  Al0+  Al71  1  0.75010248  0.74684089  0.67096058  1
  Al0+  Al72  1  0.32161983  0.56898813  0.68033843  1
  Al0+  Al73  1  0.81984344  0.56896561  0.34632312  1
  Al0+  Al74  1  0.42999220  0.82390540  0.98375784  1
  Al0+  Al75  1  0.07167918  0.67761958  0.98671630  1
  Al0+  Al76  1  0.43127733  0.32117034  0.65381059  1
  Al0+  Al77  1  0.92686191  0.32295209  0.65115596  1
  Al0+  Al78  1  0.06869076  0.17948654  0.31605052  1
  Al0+  Al79  1  0.32068098  0.07454619  0.01447847  1
  Al0+  Al80  1  0.82240428  0.07239972  0.01685542  1
  Al0+  Al81  1  0.17916985  0.93022729  0.67899732  1
  Al0+  Al82  1  0.06940872  0.17912489  0.98510709  1
  Al0+  Al83  1  0.67911163  0.93130469  0.34805979  1
  Al0+  Al84  1  0.06936611  0.17686140  0.65113544  1
  Al0+  Al85  1  0.43092198  0.32145557  0.31632915  1
  Al0+  Al86  1  0.18158888  0.42828094  0.34725233  1
  Al0+  Al87  1  0.67641078  0.92662623  0.68368311  1
  Al0+  Al88  1  0.82013531  0.07162418  0.67971219  1
  Al0+  Al89  1  0.17881555  0.92876226  0.01643546  1
  Al0+  Al90  1  0.82377668  0.56919833  0.68223149  1
  Al0+  Al91  1  0.67869206  0.43033135  0.01293822  1
  Al0+  Al92  1  0.67900834  0.92805571  0.01469901  1
  Al0+  Al93  1  0.57235927  0.67831194  0.98312070  1
  Al0+  Al94  1  0.92891076  0.81662260  0.65333161  1
  Al0+  Al95  1  0.32036282  0.57095857  0.01472863  1
  Si0+  Si96  1  0.17752307  0.42846232  0.01451874  1
  Si0+  Si97  1  0.57012314  0.67942332  0.64981478  1
  Si0+  Si98  1  0.57203850  0.18039447  0.98707757  1
  Si0+  Si99  1  0.32142820  0.07409521  0.68093219  1
  Si0+  Si100  1  0.67565140  0.42667835  0.35097068  1
  Si0+  Si101  1  0.92820053  0.82142166  0.98366041  1
  Si0+  Si102  1  0.42923174  0.32188862  0.98532097  1
  Si0+  Si103  1  0.82454544  0.57137970  0.01483367  1
  Si0+  Si104  1  0.57181684  0.68244956  0.31897440  1
  Si0+  Si105  1  0.17962583  0.42489412  0.68492522  1
  Si0+  Si106  1  0.57162728  0.17637753  0.31669612  1
  Si0+  Si107  1  0.82470933  0.07162366  0.35070182  1
  Si0+  Si108  1  0.42764472  0.82119217  0.65061198  1
  Si0+  Si109  1  0.32297463  0.57365085  0.34946561  1
  Si0+  Si110  1  0.07183845  0.67829855  0.32091299  1
  Si0+  Si111  1  0.31874500  0.07086124  0.34891156  1
  Si0+  Si112  1  0.92735026  0.32546989  0.31628196  1
  Si0+  Si113  1  0.07596493  0.67774660  0.64942704  1
  Si0+  Si114  1  0.92533378  0.32177001  0.98556449  1
  Si0+  Si115  1  0.67768568  0.42898974  0.67962947  1
  Si0+  Si116  1  0.42691997  0.82203322  0.31966021  1
  Si0+  Si117  1  0.17763627  0.92717139  0.34871770  1
  Si0+  Si118  1  0.57208584  0.17507394  0.65042628  1
  Si0+  Si119  1  0.92814232  0.81873716  0.31798002  1
  O2-  O120  1  0.24986914  0.00217682  0.06653147  1
  O2-  O121  1  0.24701756  0.00005623  0.39051245  1
  O2-  O122  1  0.25193879  0.00696202  0.72431671  1
  O2-  O123  1  0.24412996  0.49803257  0.06097332  1
  O2-  O124  1  0.25731013  0.50282863  0.39391271  1
  O2-  O125  1  0.24686736  0.49526539  0.72829424  1
  O2-  O126  1  0.75040711  -0.00038223  0.06621796  1
  O2-  O127  1  0.75192921  0.00746197  0.39457476  1
  O2-  O128  1  0.74576852  0.00241452  0.73018785  1
  O2-  O129  1  0.75435039  0.50453870  0.05915771  1
  O2-  O130  1  0.74848262  0.49091183  0.39428463  1
  O2-  O131  1  0.75291625  0.48921844  0.72514908  1
  O2-  O132  1  -0.00847481  0.25338333  0.27079495  1
  O2-  O133  1  -0.00189364  0.25010983  0.60084191  1
  O2-  O134  1  -0.00959632  0.25034184  0.94112055  1
  O2-  O135  1  0.00070522  0.74847032  0.27725275  1
  O2-  O136  1  0.00250319  0.74075939  0.60373095  1
  O2-  O137  1  -0.00240134  0.75268918  0.94073749  1
  O2-  O138  1  0.50903450  0.24977873  0.27026959  1
  O2-  O139  1  0.50345336  0.24424549  0.60591985  1
  O2-  O140  1  0.50009032  0.25039526  0.94380018  1
  O2-  O141  1  0.49770387  0.75070906  0.27812058  1
  O2-  O142  1  0.50200274  0.75385777  0.60721269  1
  O2-  O143  1  0.50328178  0.75312435  0.93308024  1
  O2-  O144  1  0.07049156  0.18366572  0.09849078  1
  O2-  O145  1  0.06835834  0.17780873  0.42884653  1
  O2-  O146  1  0.07001927  0.17774895  0.76445894  1
  O2-  O147  1  0.06779636  0.67594792  0.10099853  1
  O2-  O148  1  0.07441361  0.68094618  0.42570832  1
  O2-  O149  1  0.07739420  0.68165844  0.75482622  1
  O2-  O150  1  0.57109625  0.18256875  0.09240220  1
  O2-  O151  1  0.56706982  0.17539324  0.42226026  1
  O2-  O152  1  0.57118394  0.17608792  0.75604848  1
  O2-  O153  1  0.57046371  0.67825392  0.09766116  1
  O2-  O154  1  0.57175712  0.68281222  0.42445326  1
  O2-  O155  1  0.56800744  0.67541861  0.75414690  1
  O2-  O156  1  0.18226048  0.43131381  0.23400179  1
  O2-  O157  1  0.18195474  0.42548562  0.57882086  1
  O2-  O158  1  0.17948319  0.42853516  0.90929679  1
  O2-  O159  1  0.17925674  0.92280361  0.24442967  1
  O2-  O160  1  0.18162033  0.92966480  0.56473204  1
  O2-  O161  1  0.17842444  0.92998912  0.90299151  1
  O2-  O162  1  0.67396283  0.42997457  0.24547503  1
  O2-  O163  1  0.67345164  0.43485458  0.57400272  1
  O2-  O164  1  0.67879530  0.42904786  0.89979136  1
  O2-  O165  1  0.67972834  0.92936697  0.23552786  1
  O2-  O166  1  0.67780928  0.92787221  0.56929156  1
  O2-  O167  1  0.68067786  0.93106322  0.90182655  1
  O2-  O168  1  0.42990472  0.32137753  0.09065893  1
  O2-  O169  1  0.43113549  0.32046003  0.42962953  1
  O2-  O170  1  0.43438156  0.32245720  0.76695464  1
  O2-  O171  1  0.43106317  0.82096537  0.09855093  1
  O2-  O172  1  0.42471452  0.82016086  0.42507361  1
  O2-  O173  1  0.42549600  0.82046063  0.75475587  1
  O2-  O174  1  0.92773004  0.32523361  0.09132884  1
  O2-  O175  1  0.93026623  0.32657280  0.42147425  1
  O2-  O176  1  0.92849924  0.32281408  0.76488663  1
  O2-  O177  1  0.92759495  0.81817276  0.09021975  1
  O2-  O178  1  0.92806246  0.81892608  0.42303934  1
  O2-  O179  1  0.93073816  0.81629049  0.76596425  1
  O2-  O180  1  0.32083775  0.06967444  0.24432403  1
  O2-  O181  1  0.32261625  0.07195204  0.57465375  1
  O2-  O182  1  0.31919082  0.07718790  0.90097062  1
  O2-  O183  1  0.32073071  0.57584473  0.24427704  1
  O2-  O184  1  0.32103677  0.56860795  0.56652338  1
  O2-  O185  1  0.32200811  0.56755019  0.90169207  1
  O2-  O186  1  0.82554287  0.06820897  0.24536709  1
  O2-  O187  1  0.81901082  0.06823050  0.56557772  1
  O2-  O188  1  0.82095516  0.07396493  0.90354204  1
  O2-  O189  1  0.81850303  0.56993156  0.23312494  1
  O2-  O190  1  0.81840141  0.57146853  0.56873713  1
  O2-  O191  1  0.82589019  0.56883576  0.90960360  1
  O2-  O192  1  0.04056046  0.08148528  0.26215593  1
  O2-  O193  1  0.04003358  0.07909222  0.59666407  1
  O2-  O194  1  0.04223425  0.07986618  0.93592696  1
  O2-  O195  1  0.04440373  0.58579182  0.27509887  1
  O2-  O196  1  0.05649322  0.58098693  0.60797634  1
  O2-  O197  1  0.04287724  0.58187489  0.92962404  1
  O2-  O198  1  0.53930034  0.08442084  0.27057588  1
  O2-  O199  1  0.54482231  0.08164311  0.60353859  1
  O2-  O200  1  0.54549392  0.08927157  0.93899967  1
  O2-  O201  1  0.54871829  0.58932852  0.27181097  1
  O2-  O202  1  0.53822889  0.59042420  0.59844339  1
  O2-  O203  1  0.53947288  0.58046351  0.93123310  1
  O2-  O204  1  0.16495153  0.21244455  0.26310086  1
  O2-  O205  1  0.16798568  0.20496099  0.59661454  1
  O2-  O206  1  0.16447738  0.21272244  0.92951842  1
  O2-  O207  1  0.16361291  0.70688545  0.27253235  1
  O2-  O208  1  0.16791425  0.70802843  0.60166750  1
  O2-  O209  1  0.16831995  0.70790864  0.93436056  1
  O2-  O210  1  0.66858592  0.19460384  0.27398261  1
  O2-  O211  1  0.66470486  0.19889576  0.60173648  1
  O2-  O212  1  0.66369580  0.21130691  0.94124934  1
  O2-  O213  1  0.66232226  0.71325536  0.27118445  1
  O2-  O214  1  0.66272188  0.70527411  0.60300678  1
  O2-  O215  1  0.67281559  0.70057508  0.93179837  1
  O2-  O216  1  0.08324266  0.45296596  0.06050409  1
  O2-  O217  1  0.08684888  0.45921339  0.40438038  1
  O2-  O218  1  0.08593047  0.44744964  0.73078502  1
  O2-  O219  1  0.08087410  0.95407970  0.07137718  1
  O2-  O220  1  0.08426355  0.95441737  0.39317483  1
  O2-  O221  1  0.08207298  0.95624597  0.73189664  1
  O2-  O222  1  0.58455728  0.46345375  0.07055815  1
  O2-  O223  1  0.58326164  0.45817173  0.39712668  1
  O2-  O224  1  0.58760668  0.46263992  0.72782141  1
  O2-  O225  1  0.58096892  0.95782551  0.06759011  1
  O2-  O226  1  0.58128771  0.95943340  0.40276163  1
  O2-  O227  1  0.57545649  0.95045907  0.73283356  1
  O2-  O228  1  0.20605524  0.33622765  0.06110805  1
  O2-  O229  1  0.21432699  0.33197615  0.40055201  1
  O2-  O230  1  0.20801841  0.33138647  0.72888949  1
  O2-  O231  1  0.20926322  0.83131420  0.07070782  1
  O2-  O232  1  0.20743615  0.83658519  0.39848400  1
  O2-  O233  1  0.21260848  0.83508126  0.73288893  1
  O2-  O234  1  0.70624800  0.33640661  0.07394251  1
  O2-  O235  1  0.69373724  0.33011131  0.39420405  1
  O2-  O236  1  0.69301547  0.33187537  0.72138358  1
  O2-  O237  1  0.70720743  0.82840118  0.06682216  1
  O2-  O238  1  0.71132901  0.83563950  0.40287106  1
  O2-  O239  1  0.70566626  0.82874477  0.73441397  1
  O2-  O240  1  0.45880248  0.41991782  0.26331596  1
  O2-  O241  1  0.46426153  0.41613694  0.59636576  1
  O2-  O242  1  0.46015758  0.41328661  0.93998549  1
  O2-  O243  1  0.45366629  0.91509802  0.27513983  1
  O2-  O244  1  0.45081709  0.91436586  0.60200497  1
  O2-  O245  1  0.45396925  0.92423466  0.93271840  1
  O2-  O246  1  0.95636568  0.41882949  0.27097147  1
  O2-  O247  1  0.95854909  0.42178957  0.59892420  1
  O2-  O248  1  0.95283436  0.41384705  0.93709855  1
  O2-  O249  1  0.95505886  0.90975293  0.26911707  1
  O2-  O250  1  0.96079749  0.91125965  0.59584138  1
  O2-  O251  1  0.95446078  0.91505114  0.93975622  1
  O2-  O252  1  0.33591164  0.28786149  0.26213882  1
  O2-  O253  1  0.33573945  0.29193035  0.59625576  1
  O2-  O254  1  0.33779288  0.29597808  0.93701917  1
  O2-  O255  1  0.33528577  0.79442294  0.27127020  1
  O2-  O256  1  0.33774769  0.78852175  0.60092220  1
  O2-  O257  1  0.33190549  0.79277847  0.93284755  1
  O2-  O258  1  0.83015660  0.30541288  0.27379170  1
  O2-  O259  1  0.82670422  0.30140274  0.59711497  1
  O2-  O260  1  0.82926538  0.30047527  0.94315621  1
  O2-  O261  1  0.83690906  0.78790263  0.27119309  1
  O2-  O262  1  0.83184013  0.78440819  0.59906310  1
  O2-  O263  1  0.83556115  0.79567896  0.93687719  1
  O2-  O264  1  0.41900821  0.04915077  0.06949327  1
  O2-  O265  1  0.40933801  0.04319042  0.39929690  1
  O2-  O266  1  0.41475975  0.04856406  0.72685110  1
  O2-  O267  1  0.41515603  0.53875887  0.07092450  1
  O2-  O268  1  0.41874795  0.55104703  0.39269514  1
  O2-  O269  1  0.41815302  0.53677356  0.73309524  1
  O2-  O270  1  0.91888489  0.04153933  0.07137978  1
  O2-  O271  1  0.91703414  0.04019031  0.39593219  1
  O2-  O272  1  0.91686501  0.03831815  0.73153462  1
  O2-  O273  1  0.91749142  0.54332734  0.06209457  1
  O2-  O274  1  0.91672946  0.54406344  0.40253884  1
  O2-  O275  1  0.92263355  0.54504061  0.73460324  1
  O2-  O276  1  0.29015723  0.17289261  0.06797688  1
  O2-  O277  1  0.29035203  0.16294196  0.39473853  1
  O2-  O278  1  0.29955766  0.16926343  0.72449020  1
  O2-  O279  1  0.29129050  0.66707995  0.06929964  1
  O2-  O280  1  0.29513646  0.66662605  0.39695504  1
  O2-  O281  1  0.29250858  0.66519209  0.73456330  1
  O2-  O282  1  0.79418701  0.16961486  0.07269502  1
  O2-  O283  1  0.80518237  0.16838022  0.39323965  1
  O2-  O284  1  0.79558598  0.17214575  0.73045539  1
  O2-  O285  1  0.80078645  0.66512710  0.06087541  1
  O2-  O286  1  0.78427153  0.66364322  0.40170786  1
  O2-  O287  1  0.78802192  0.66245859  0.73754187  1
