# generated using pymatgen
data_Ca2Al2SiO7
_symmetry_space_group_name_H-M   'P 1'
_cell_length_a   15.46493876
_cell_length_b   15.46343320
_cell_length_c   15.28825118
_cell_angle_alpha   90.00152258
_cell_angle_beta   90.00071438
_cell_angle_gamma   89.99947070
_symmetry_Int_Tables_number   1
_chemical_formula_structural   Ca2Al2SiO7
_chemical_formula_sum   'Ca48 Al48 Si24 O168'
_cell_volume   3656.04839708
_cell_formula_units_Z   24
loop_
 _symmetry_equiv_pos_site_id
 _symmetry_equiv_pos_as_xyz
  1  'x, y, z'
loop_
 _atom_type_symbol
 _atom_type_oxidation_number
  Ca2+  2.0
  Al0+  0.0
  Si0+  0.0
  O2-  -2.0
loop_
 _atom_site_type_symbol
 _atom_site_label
 _atom_site_symmetry_multiplicity
 _atom_site_fract_x
 _atom_site_fract_y
 _atom_site_fract_z
 _atom_site_occupancy
  Ca2+  Ca0  1  0.17477032  0.07609711  0.16997090  1
  Ca2+  Ca1  1  0.17190803  0.08578877  0.50404329  1
  Ca2+  Ca2  1  0.16419521  0.07940323  0.83781911  1
  Ca2+  Ca3  1  0.17152400  0.58338461  0.16088464  1
  Ca2+  Ca4  1  0.17729099  0.58144169  0.50720802  1
  Ca2+  Ca5  1  0.17820967  0.58176491  0.84497229  1
  Ca2+  Ca6  1  0.66767662  0.07951083  0.17440024  1
  Ca2+  Ca7  1  0.67177385  0.07247909  0.50942695  1
  Ca2+  Ca8  1  0.66341875  0.08525689  0.83368040  1
  Ca2+  Ca9  1  0.66033023  0.58042737  0.16841672  1
  Ca2+  Ca10  1  0.66647246  0.58253943  0.50423628  1
  Ca2+  Ca11  1  0.66304706  0.57089311  0.84035603  1
  Ca2+  Ca12  1  0.07568077  0.33588594  0.15603802  1
  Ca2+  Ca13  1  0.08437534  0.32485870  0.49867925  1
  Ca2+  Ca14  1  0.07796626  0.33521358  0.83043933  1
  Ca2+  Ca15  1  0.08258313  0.82807557  0.15616771  1
  Ca2+  Ca16  1  0.07420672  0.83533798  0.50032865  1
  Ca2+  Ca17  1  0.08230323  0.83061884  0.83103450  1
  Ca2+  Ca18  1  0.58051949  0.32531207  0.15193142  1
  Ca2+  Ca19  1  0.58565250  0.33137033  0.50575667  1
  Ca2+  Ca20  1  0.58153488  0.32974622  0.82860163  1
  Ca2+  Ca21  1  0.57823049  0.82703585  0.16245893  1
  Ca2+  Ca22  1  0.58521172  0.83115146  0.48975873  1
  Ca2+  Ca23  1  0.58177672  0.82810694  0.83287132  1
  Ca2+  Ca24  1  0.33533817  0.41888158  0.16192390  1
  Ca2+  Ca25  1  0.33875161  0.42411650  0.51123566  1
  Ca2+  Ca26  1  0.33692728  0.42353004  0.84185483  1
  Ca2+  Ca27  1  0.33560867  0.91438354  0.16879133  1
  Ca2+  Ca28  1  0.34142569  0.92367236  0.49951814  1
  Ca2+  Ca29  1  0.32794297  0.91617409  0.84495036  1
  Ca2+  Ca30  1  0.82817698  0.42014713  0.16697341  1
  Ca2+  Ca31  1  0.82577185  0.42508800  0.50432672  1
  Ca2+  Ca32  1  0.82201934  0.40729862  0.83882475  1
  Ca2+  Ca33  1  0.82383509  0.92417205  0.17668607  1
  Ca2+  Ca34  1  0.82197301  0.91953384  0.50862046  1
  Ca2+  Ca35  1  0.83180642  0.91962587  0.82993394  1
  Ca2+  Ca36  1  0.42235572  0.16890618  0.15823842  1
  Ca2+  Ca37  1  0.41996353  0.17053575  0.49733324  1
  Ca2+  Ca38  1  0.42695635  0.17938317  0.82871626  1
  Ca2+  Ca39  1  0.42446862  0.67532105  0.15854095  1
  Ca2+  Ca40  1  0.42364722  0.67304747  0.49271804  1
  Ca2+  Ca41  1  0.41472436  0.66466861  0.83453326  1
  Ca2+  Ca42  1  0.91264996  0.17253196  0.15939345  1
  Ca2+  Ca43  1  0.91679369  0.15707462  0.50075261  1
  Ca2+  Ca44  1  0.92071822  0.16886589  0.82724928  1
  Ca2+  Ca45  1  0.92123784  0.66260548  0.16068772  1
  Ca2+  Ca46  1  0.90983644  0.67253935  0.49608826  1
  Ca2+  Ca47  1  0.92464804  0.67110728  0.83015417  1
  Al0+  Al48  1  -0.00057012  0.00050005  0.00637573  1
  Al0+  Al49  1  0.00229243  -0.00059322  0.33336813  1
  Al0+  Al50  1  -0.00049187  -0.00085170  0.66134828  1
  Al0+  Al51  1  0.00018243  0.50048847  -0.00772729  1
  Al0+  Al52  1  -0.00150896  0.49817401  0.33927344  1
  Al0+  Al53  1  0.00204106  0.50054639  0.66337944  1
  Al0+  Al54  1  0.50097975  -0.00151343  -0.00672067  1
  Al0+  Al55  1  0.49777072  0.00138106  0.33750902  1
  Al0+  Al56  1  0.49991811  0.00081847  0.66912037  1
  Al0+  Al57  1  0.50070091  0.50035742  0.00485296  1
  Al0+  Al58  1  0.49779096  0.49923349  0.33085321  1
  Al0+  Al59  1  0.50075193  0.50203121  0.67033082  1
  Al0+  Al60  1  0.24998988  0.24870233  0.00131515  1
  Al0+  Al61  1  0.24777640  0.24804434  0.33500256  1
  Al0+  Al62  1  0.24872120  0.25120399  0.65973867  1
  Al0+  Al63  1  0.24818834  0.74996055  0.00210122  1
  Al0+  Al64  1  0.24826137  0.74822321  0.33190650  1
  Al0+  Al65  1  0.25095675  0.74994797  0.66792125  1
  Al0+  Al66  1  0.75200416  0.25040006  -0.00263074  1
  Al0+  Al67  1  0.75078610  0.25161452  0.33682421  1
  Al0+  Al68  1  0.75109407  0.25005184  0.66764425  1
  Al0+  Al69  1  0.75008391  0.75172334  -0.00365231  1
  Al0+  Al70  1  0.75106488  0.74797777  0.33371639  1
  Al0+  Al71  1  0.75061612  0.75106330  0.66793145  1
  Al0+  Al72  1  0.17809086  0.92955107  0.01319151  1
  Al0+  Al73  1  0.68170198  0.43131999  0.68052363  1
  Al0+  Al74  1  0.82131804  0.56908077  0.34580449  1
  Al0+  Al75  1  0.82218442  0.06953631  0.68347995  1
  Al0+  Al76  1  0.43068946  0.32303215  0.65130888  1
  Al0+  Al77  1  0.57278993  0.67840691  0.98329353  1
  Al0+  Al78  1  0.57331705  0.17798143  0.98573983  1
  Al0+  Al79  1  0.57290324  0.67756387  0.31842676  1
  Al0+  Al80  1  0.42830724  0.81966637  0.98394899  1
  Al0+  Al81  1  0.67629921  0.92739996  0.68539576  1
  Al0+  Al82  1  0.42814368  0.82285454  0.31914169  1
  Al0+  Al83  1  0.92963114  0.81864573  0.65245524  1
  Al0+  Al84  1  0.42709162  0.32124837  0.98685530  1
  Al0+  Al85  1  0.57233314  0.17803923  0.64868415  1
  Al0+  Al86  1  0.82266148  0.07339698  0.34820453  1
  Al0+  Al87  1  0.17721512  0.42717908  0.01363845  1
  Al0+  Al88  1  0.06962771  0.17928880  0.65270611  1
  Al0+  Al89  1  0.31927901  0.07082559  0.34736664  1
  Al0+  Al90  1  0.68011832  0.42865430  0.01410566  1
  Al0+  Al91  1  0.67893991  0.92955892  0.34635886  1
  Al0+  Al92  1  0.93054024  0.32134605  0.98647020  1
  Al0+  Al93  1  0.06981742  0.67974226  0.98663429  1
  Al0+  Al94  1  0.32215766  0.57131690  0.01815982  1
  Al0+  Al95  1  0.32029210  0.57135683  0.68021427  1
  Si0+  Si96  1  0.93019560  0.32083310  0.31912564  1
  Si0+  Si97  1  0.32382523  0.07051037  0.01472364  1
  Si0+  Si98  1  0.92994093  0.82084801  0.31746236  1
  Si0+  Si99  1  0.07187885  0.17819597  0.31578964  1
  Si0+  Si100  1  0.31994242  0.56993270  0.34883379  1
  Si0+  Si101  1  0.17802238  0.92470974  0.35185453  1
  Si0+  Si102  1  0.92779366  0.82534132  0.98429741  1
  Si0+  Si103  1  0.67494538  0.42815713  0.35000841  1
  Si0+  Si104  1  0.92727658  0.32402063  0.64686663  1
  Si0+  Si105  1  0.57017066  0.68090846  0.65294519  1
  Si0+  Si106  1  0.67824106  0.92795313  0.01539088  1
  Si0+  Si107  1  0.07129159  0.17610315  0.98631903  1
  Si0+  Si108  1  0.32071872  0.07386640  0.68237016  1
  Si0+  Si109  1  0.17771652  0.42667361  0.68227554  1
  Si0+  Si110  1  0.17797040  0.42873495  0.34914709  1
  Si0+  Si111  1  0.42631980  0.82169201  0.65238802  1
  Si0+  Si112  1  0.57079795  0.18173125  0.32068459  1
  Si0+  Si113  1  0.82172336  0.57386324  0.01345864  1
  Si0+  Si114  1  0.82037798  0.07045863  0.01480748  1
  Si0+  Si115  1  0.07418076  0.67847604  0.64820973  1
  Si0+  Si116  1  0.06956242  0.67638554  0.31906777  1
  Si0+  Si117  1  0.18034274  0.93067502  0.67990633  1
  Si0+  Si118  1  0.42556066  0.32068293  0.31815534  1
  Si0+  Si119  1  0.82487815  0.57347542  0.68432447  1
  O2-  O120  1  0.25523557  0.00160961  0.05959231  1
  O2-  O121  1  0.24792172  -0.00748277  0.39514881  1
  O2-  O122  1  0.25144382  0.00056560  0.72362804  1
  O2-  O123  1  0.25088296  0.49613709  0.06627239  1
  O2-  O124  1  0.25158689  0.49660847  0.39193250  1
  O2-  O125  1  0.24594106  0.49555103  0.72485424  1
  O2-  O126  1  0.74797740  0.00093554  0.05667726  1
  O2-  O127  1  0.75151953  0.00061703  0.39716709  1
  O2-  O128  1  0.74625007  0.00249271  0.73467261  1
  O2-  O129  1  0.75131308  0.50784916  0.05940376  1
  O2-  O130  1  0.74077384  0.50076458  0.39227293  1
  O2-  O131  1  0.76025771  0.50187648  0.72831030  1
  O2-  O132  1  -0.00399435  0.24495362  0.27595715  1
  O2-  O133  1  -0.00449444  0.25408769  0.60352444  1
  O2-  O134  1  0.00869025  0.24938410  0.94149525  1
  O2-  O135  1  0.00061377  0.74917111  0.27588172  1
  O2-  O136  1  0.00121697  0.74152823  0.60284956  1
  O2-  O137  1  -0.00392147  0.75587607  0.94103425  1
  O2-  O138  1  0.50048412  0.25310918  0.27745830  1
  O2-  O139  1  0.49944596  0.24951418  0.59820544  1
  O2-  O140  1  0.50193175  0.25188703  0.93811059  1
  O2-  O141  1  0.50209182  0.75210878  0.27078678  1
  O2-  O142  1  0.50245074  0.75560317  0.61111826  1
  O2-  O143  1  0.49824809  0.74702967  0.93208340  1
  O2-  O144  1  0.06672400  0.17391373  0.09212284  1
  O2-  O145  1  0.07485120  0.18058464  0.42079378  1
  O2-  O146  1  0.06965069  0.17942024  0.76579372  1
  O2-  O147  1  0.06640744  0.68002601  0.10052984  1
  O2-  O148  1  0.06985944  0.67715610  0.42424584  1
  O2-  O149  1  0.07520073  0.68087820  0.75334317  1
  O2-  O150  1  0.57274613  0.17704287  0.10059899  1
  O2-  O151  1  0.57026730  0.18366814  0.42528755  1
  O2-  O152  1  0.56939145  0.17960828  0.76180301  1
  O2-  O153  1  0.57497038  0.68308474  0.09678192  1
  O2-  O154  1  0.56927143  0.67518753  0.43276612  1
  O2-  O155  1  0.56923202  0.67987403  0.75752357  1
  O2-  O156  1  0.17527147  0.42953817  0.24459679  1
  O2-  O157  1  0.17730844  0.42851467  0.57580976  1
  O2-  O158  1  0.17567883  0.42968990  0.90035622  1
  O2-  O159  1  0.17511924  0.92593896  0.24649168  1
  O2-  O160  1  0.18204391  0.93006722  0.57458140  1
  O2-  O161  1  0.17515993  0.93346139  0.89968030  1
  O2-  O162  1  0.67730090  0.42441498  0.24469332  1
  O2-  O163  1  0.68177676  0.43602852  0.56675063  1
  O2-  O164  1  0.68335689  0.42684566  0.90131887  1
  O2-  O165  1  0.68084938  0.93238411  0.23220585  1
  O2-  O166  1  0.67816260  0.92429976  0.57163015  1
  O2-  O167  1  0.68016060  0.92637118  0.91075958  1
  O2-  O168  1  0.42824787  0.31600355  0.10146512  1
  O2-  O169  1  0.42402193  0.32147376  0.42307125  1
  O2-  O170  1  0.43013133  0.32246792  0.76414601  1
  O2-  O171  1  0.43152396  0.82211982  0.09748247  1
  O2-  O172  1  0.42675770  0.81921538  0.43346146  1
  O2-  O173  1  0.42079645  0.81891956  0.75676446  1
  O2-  O174  1  0.92926253  0.31905039  0.10044061  1
  O2-  O175  1  0.93366971  0.32350465  0.42388662  1
  O2-  O176  1  0.92995428  0.32574152  0.75225045  1
  O2-  O177  1  0.92827145  0.82600190  0.09021730  1
  O2-  O178  1  0.93179420  0.82054600  0.42252549  1
  O2-  O179  1  0.93421833  0.81837190  0.76550314  1
  O2-  O180  1  0.31589589  0.07469004  0.23460425  1
  O2-  O181  1  0.31915193  0.07250253  0.57686902  1
  O2-  O182  1  0.32094482  0.07003808  0.90911559  1
  O2-  O183  1  0.31817293  0.57013015  0.24453589  1
  O2-  O184  1  0.31849762  0.57207690  0.56601181  1
  O2-  O185  1  0.31871413  0.57167392  0.90455723  1
  O2-  O186  1  0.82056913  0.07399902  0.23399098  1
  O2-  O187  1  0.82260078  0.06414992  0.56996640  1
  O2-  O188  1  0.82529392  0.06837225  0.91041112  1
  O2-  O189  1  0.82964703  0.56351690  0.23344899  1
  O2-  O190  1  0.82267396  0.57314545  0.57823095  1
  O2-  O191  1  0.82155860  0.57372596  0.90805601  1
  O2-  O192  1  0.05046167  0.08387190  0.27028950  1
  O2-  O193  1  0.04053186  0.08358714  0.59565578  1
  O2-  O194  1  0.03924414  0.08474084  0.93908877  1
  O2-  O195  1  0.03860190  0.58466395  0.27378035  1
  O2-  O196  1  0.05483709  0.58280026  0.60296131  1
  O2-  O197  1  0.03930262  0.58612833  0.92792590  1
  O2-  O198  1  0.54192066  0.08984047  0.27469155  1
  O2-  O199  1  0.54282097  0.07829112  0.59817036  1
  O2-  O200  1  0.54574974  0.08090347  0.93144211  1
  O2-  O201  1  0.54163739  0.57924903  0.26607485  1
  O2-  O202  1  0.53900098  0.59110595  0.60409500  1
  O2-  O203  1  0.54729855  0.57794221  0.93521734  1
  O2-  O204  1  0.16142345  0.21086037  0.26703273  1
  O2-  O205  1  0.16450120  0.21061252  0.59407016  1
  O2-  O206  1  0.16709537  0.19336562  0.94294174  1
  O2-  O207  1  0.16145658  0.70209776  0.27130013  1
  O2-  O208  1  0.16555484  0.71038107  0.60022189  1
  O2-  O209  1  0.16506860  0.71159753  0.93255251  1
  O2-  O210  1  0.66359900  0.20851397  0.27371303  1
  O2-  O211  1  0.67148614  0.20766438  0.59762230  1
  O2-  O212  1  0.67108783  0.20595492  0.93302828  1
  O2-  O213  1  0.67311756  0.70074153  0.26656807  1
  O2-  O214  1  0.66356288  0.70490849  0.60641569  1
  O2-  O215  1  0.67058682  0.70875853  0.92935589  1
  O2-  O216  1  0.07849886  0.45992197  0.06553613  1
  O2-  O217  1  0.08868564  0.45878102  0.40017026  1
  O2-  O218  1  0.08287179  0.45132474  0.72617042  1
  O2-  O219  1  0.08337806  0.96194910  0.07176860  1
  O2-  O220  1  0.08540724  0.95370534  0.39850297  1
  O2-  O221  1  0.08875248  0.95908485  0.72584950  1
  O2-  O222  1  0.58384743  0.45460912  0.07036484  1
  O2-  O223  1  0.57996589  0.45048289  0.39504286  1
  O2-  O224  1  0.58693956  0.46534432  0.73455452  1
  O2-  O225  1  0.58569880  0.95523660  0.06102887  1
  O2-  O226  1  0.58079262  0.95638465  0.39968121  1
  O2-  O227  1  0.57638424  0.95242647  0.73690135  1
  O2-  O228  1  0.20048072  0.32699103  0.06747393  1
  O2-  O229  1  0.20343540  0.33585122  0.39551666  1
  O2-  O230  1  0.20046523  0.33200674  0.72602613  1
  O2-  O231  1  0.20471989  0.83321799  0.06851192  1
  O2-  O232  1  0.19956947  0.82991365  0.39759009  1
  O2-  O233  1  0.20725743  0.83859770  0.72707484  1
  O2-  O234  1  0.71642445  0.33320872  0.06864367  1
  O2-  O235  1  0.70586391  0.33733333  0.39856351  1
  O2-  O236  1  0.70986560  0.33379744  0.73297298  1
  O2-  O237  1  0.70913797  0.83726008  0.06355469  1
  O2-  O238  1  0.70720910  0.83039202  0.39750623  1
  O2-  O239  1  0.71017196  0.83013997  0.73783897  1
  O2-  O240  1  0.44891290  0.41365248  0.27166486  1
  O2-  O241  1  0.46277514  0.42142362  0.59840283  1
  O2-  O242  1  0.45212758  0.42150077  0.93926899  1
  O2-  O243  1  0.45183906  0.92355056  0.26862373  1
  O2-  O244  1  0.44907208  0.91591965  0.60804049  1
  O2-  O245  1  0.45604010  0.91720378  0.92926407  1
  O2-  O246  1  0.96413542  0.41066385  0.27149255  1
  O2-  O247  1  0.95445032  0.41771411  0.59968685  1
  O2-  O248  1  0.95689473  0.41647803  0.92866264  1
  O2-  O249  1  0.95866017  0.91273809  0.26994434  1
  O2-  O250  1  0.96464696  0.91216747  0.59552245  1
  O2-  O251  1  0.95678666  0.91812706  0.93889460  1
  O2-  O252  1  0.33433228  0.28954525  0.27176543  1
  O2-  O253  1  0.33120272  0.29753058  0.59783500  1
  O2-  O254  1  0.32862289  0.29287854  0.93369068  1
  O2-  O255  1  0.32880695  0.79273196  0.26806796  1
  O2-  O256  1  0.33679020  0.79000837  0.60185289  1
  O2-  O257  1  0.32803257  0.79451616  0.93422249  1
  O2-  O258  1  0.83624198  0.29818180  0.27296211  1
  O2-  O259  1  0.83378211  0.30023935  0.60118546  1
  O2-  O260  1  0.83752319  0.28534677  0.93066035  1
  O2-  O261  1  0.83855788  0.79367605  0.26994048  1
  O2-  O262  1  0.83281258  0.78846029  0.59773743  1
  O2-  O263  1  0.83527498  0.80086646  0.93677496  1
  O2-  O264  1  0.41752508  0.04370726  0.06022294  1
  O2-  O265  1  0.41510057  0.04394058  0.40462310  1
  O2-  O266  1  0.41261450  0.04888140  0.72911449  1
  O2-  O267  1  0.42013509  0.54563758  0.07281811  1
  O2-  O268  1  0.41227970  0.54301960  0.39611115  1
  O2-  O269  1  0.41622193  0.54267318  0.73431913  1
  O2-  O270  1  0.91042602  0.04227528  0.06642002  1
  O2-  O271  1  0.92347765  0.04662230  0.39678727  1
  O2-  O272  1  0.92046148  0.03591148  0.73471588  1
  O2-  O273  1  0.91476876  0.54461239  0.05826678  1
  O2-  O274  1  0.91437846  0.53389294  0.40586571  1
  O2-  O275  1  0.92178975  0.55227540  0.72555340  1
  O2-  O276  1  0.29845316  0.16322771  0.06273121  1
  O2-  O277  1  0.28334961  0.16544283  0.40362145  1
  O2-  O278  1  0.28857492  0.16516650  0.72720950  1
  O2-  O279  1  0.28728761  0.66770563  0.07145816  1
  O2-  O280  1  0.28878191  0.66085093  0.39688583  1
  O2-  O281  1  0.28724247  0.66706789  0.73447310  1
  O2-  O282  1  0.79363830  0.16239837  0.06214662  1
  O2-  O283  1  0.79788514  0.17264208  0.40079283  1
  O2-  O284  1  0.80185661  0.17122987  0.73191637  1
  O2-  O285  1  0.80073444  0.66923631  0.05912910  1
  O2-  O286  1  0.79656927  0.66694198  0.39988509  1
  O2-  O287  1  0.79859617  0.66614576  0.72996469  1
