# generated using pymatgen
data_Ca2Al2SiO7
_symmetry_space_group_name_H-M   'P 1'
_cell_length_a   15.46273138
_cell_length_b   15.46197298
_cell_length_c   15.28713625
_cell_angle_alpha   90.00664133
_cell_angle_beta   90.00913712
_cell_angle_gamma   90.00772047
_symmetry_Int_Tables_number   1
_chemical_formula_structural   Ca2Al2SiO7
_chemical_formula_sum   'Ca48 Al48 Si24 O168'
_cell_volume   3654.91469935
_cell_formula_units_Z   24
loop_
 _symmetry_equiv_pos_site_id
 _symmetry_equiv_pos_as_xyz
  1  'x, y, z'
loop_
 _atom_type_symbol
 _atom_type_oxidation_number
  Ca2+  2.0
  Al0+  0.0
  Si0+  0.0
  O2-  -2.0
loop_
 _atom_site_type_symbol
 _atom_site_label
 _atom_site_symmetry_multiplicity
 _atom_site_fract_x
 _atom_site_fract_y
 _atom_site_fract_z
 _atom_site_occupancy
  Ca2+  Ca0  1  0.17118822  0.07711466  0.16455225  1
  Ca2+  Ca1  1  0.16487071  0.07920128  0.51227919  1
  Ca2+  Ca2  1  0.16777488  0.07433698  0.83999101  1
  Ca2+  Ca3  1  0.17600198  0.59063140  0.16652531  1
  Ca2+  Ca4  1  0.17654659  0.57661475  0.50981549  1
  Ca2+  Ca5  1  0.17208841  0.58891658  0.83473737  1
  Ca2+  Ca6  1  0.66047777  0.08681675  0.16805393  1
  Ca2+  Ca7  1  0.66286288  0.08349948  0.50615929  1
  Ca2+  Ca8  1  0.66005483  0.08196251  0.83529230  1
  Ca2+  Ca9  1  0.66997304  0.57165071  0.16879407  1
  Ca2+  Ca10  1  0.66589511  0.56789015  0.50726671  1
  Ca2+  Ca11  1  0.67188410  0.57064313  0.83987675  1
  Ca2+  Ca12  1  0.07488408  0.33910036  0.16445717  1
  Ca2+  Ca13  1  0.08482618  0.33141395  0.49855130  1
  Ca2+  Ca14  1  0.08760982  0.32838751  0.82241307  1
  Ca2+  Ca15  1  0.07932602  0.82698668  0.15207358  1
  Ca2+  Ca16  1  0.08483402  0.82935894  0.50524937  1
  Ca2+  Ca17  1  0.08166523  0.82650691  0.82709993  1
  Ca2+  Ca18  1  0.58505543  0.32950658  0.16476721  1
  Ca2+  Ca19  1  0.57753205  0.33391147  0.49467643  1
  Ca2+  Ca20  1  0.58200243  0.32772489  0.82547615  1
  Ca2+  Ca21  1  0.57445100  0.82833707  0.15644311  1
  Ca2+  Ca22  1  0.58470407  0.83175864  0.49949098  1
  Ca2+  Ca23  1  0.57594868  0.83519120  0.82845139  1
  Ca2+  Ca24  1  0.33885823  0.42824441  0.17213425  1
  Ca2+  Ca25  1  0.33855881  0.42320809  0.50895318  1
  Ca2+  Ca26  1  0.33166589  0.42372720  0.83296385  1
  Ca2+  Ca27  1  0.33410396  0.91903927  0.16141359  1
  Ca2+  Ca28  1  0.32627833  0.92298563  0.50916251  1
  Ca2+  Ca29  1  0.32224602  0.91953604  0.84296510  1
  Ca2+  Ca30  1  0.82505328  0.41611023  0.16978556  1
  Ca2+  Ca31  1  0.82312281  0.40625006  0.50269728  1
  Ca2+  Ca32  1  0.82217827  0.41788922  0.84152933  1
  Ca2+  Ca33  1  0.83540263  0.91712005  0.16729264  1
  Ca2+  Ca34  1  0.82776840  0.91869330  0.51228808  1
  Ca2+  Ca35  1  0.83235395  0.91062055  0.83403899  1
  Ca2+  Ca36  1  0.42594738  0.17024837  0.15848733  1
  Ca2+  Ca37  1  0.42559065  0.18208377  0.49631568  1
  Ca2+  Ca38  1  0.42349737  0.16979796  0.82599879  1
  Ca2+  Ca39  1  0.41155451  0.66815454  0.15916338  1
  Ca2+  Ca40  1  0.41154819  0.66270213  0.49871279  1
  Ca2+  Ca41  1  0.40643800  0.66932821  0.83243519  1
  Ca2+  Ca42  1  0.91416941  0.17458363  0.16617445  1
  Ca2+  Ca43  1  0.92338474  0.17140531  0.50090039  1
  Ca2+  Ca44  1  0.92481922  0.16746110  0.82781458  1
  Ca2+  Ca45  1  0.92300413  0.66968896  0.15097879  1
  Ca2+  Ca46  1  0.92136084  0.66796055  0.50144023  1
  Ca2+  Ca47  1  0.92539357  0.67078871  0.82858499  1
  Al0+  Al48  1  -0.00207986  0.00067632  0.00289701  1
  Al0+  Al49  1  -0.00065095  -0.00117516  0.33427942  1
  Al0+  Al50  1  -0.00146979  0.00072165  0.66287444  1
  Al0+  Al51  1  -0.00161701  0.50068548  -0.00243604  1
  Al0+  Al52  1  0.00168060  0.50138158  0.32861619  1
  Al0+  Al53  1  0.00046928  0.50122657  0.66353372  1
  Al0+  Al54  1  0.49973275  -0.00002543  -0.00386910  1
  Al0+  Al55  1  0.49886602  -0.00104832  0.33204171  1
  Al0+  Al56  1  0.50058481  -0.00032415  0.66524657  1
  Al0+  Al57  1  0.49878751  0.49797884  0.00800416  1
  Al0+  Al58  1  0.50201420  0.50117791  0.33727922  1
  Al0+  Al59  1  0.50154366  0.50223802  0.67375458  1
  Al0+  Al60  1  0.25042404  0.25002053  0.00569689  1
  Al0+  Al61  1  0.25113201  0.24932584  0.32789023  1
  Al0+  Al62  1  0.25259010  0.25191833  0.66050175  1
  Al0+  Al63  1  0.24875416  0.75000470  0.00057238  1
  Al0+  Al64  1  0.24934086  0.75069029  0.33769219  1
  Al0+  Al65  1  0.24864428  0.75200954  0.66737839  1
  Al0+  Al66  1  0.74890579  0.24714641  -0.00055142  1
  Al0+  Al67  1  0.75252073  0.24797666  0.33117399  1
  Al0+  Al68  1  0.75134546  0.24677917  0.66901736  1
  Al0+  Al69  1  0.74892326  0.74910205  0.00093323  1
  Al0+  Al70  1  0.75028830  0.75004030  0.33256450  1
  Al0+  Al71  1  0.74841774  0.75157261  0.66686424  1
  Al0+  Al72  1  0.17776854  0.92946132  0.01539021  1
  Al0+  Al73  1  0.07098700  0.67824660  0.98360467  1
  Al0+  Al74  1  0.93161750  0.32002617  0.32021602  1
  Al0+  Al75  1  0.67789624  0.92889867  0.68076271  1
  Al0+  Al76  1  0.31810982  0.56986710  0.01427278  1
  Al0+  Al77  1  0.68102256  0.42703614  0.68075023  1
  Al0+  Al78  1  0.82138511  0.57137300  0.01413438  1
  Al0+  Al79  1  0.43160538  0.32438479  0.65286467  1
  Al0+  Al80  1  0.07237347  0.18036355  0.65563607  1
  Al0+  Al81  1  0.17763677  0.93173548  0.68028480  1
  Al0+  Al82  1  0.17780555  0.42724953  0.67928684  1
  Al0+  Al83  1  0.92610698  0.82363293  0.98465268  1
  Al0+  Al84  1  0.32094313  0.57173441  0.68333122  1
  Al0+  Al85  1  0.67930256  0.42589215  0.01689376  1
  Al0+  Al86  1  0.42996067  0.81920619  0.98598123  1
  Al0+  Al87  1  0.92775295  0.82038698  0.65001349  1
  Al0+  Al88  1  0.57019374  0.17830338  0.31724227  1
  Al0+  Al89  1  0.56998462  0.18045974  0.98394938  1
  Al0+  Al90  1  0.42896327  0.32466599  0.31599836  1
  Al0+  Al91  1  0.32026712  0.57052895  0.34799322  1
  Al0+  Al92  1  0.68287852  0.42871650  0.34871663  1
  Al0+  Al93  1  0.57242726  0.17767387  0.65098287  1
  Al0+  Al94  1  0.32316237  0.07198311  0.01479301  1
  Al0+  Al95  1  0.07302602  0.67814809  0.64802571  1
  Si0+  Si96  1  0.57099040  0.68048137  0.65276532  1
  Si0+  Si97  1  0.42813890  0.82114235  0.65103431  1
  Si0+  Si98  1  0.82423036  0.57375353  0.35038262  1
  Si0+  Si99  1  0.07298982  0.17418362  0.31506269  1
  Si0+  Si100  1  0.17642710  0.42735665  0.34788095  1
  Si0+  Si101  1  0.07148827  0.18010274  0.98745191  1
  Si0+  Si102  1  0.67845148  0.92792203  0.34697065  1
  Si0+  Si103  1  0.17885791  0.93112564  0.34970209  1
  Si0+  Si104  1  0.42814915  0.81964393  0.31937948  1
  Si0+  Si105  1  0.17594771  0.42541939  0.01701561  1
  Si0+  Si106  1  0.82194549  0.06923294  0.34957143  1
  Si0+  Si107  1  0.57251700  0.67974031  0.31913439  1
  Si0+  Si108  1  0.67769522  0.92866955  0.01482816  1
  Si0+  Si109  1  0.92877772  0.31977114  0.98505775  1
  Si0+  Si110  1  0.92797202  0.82113951  0.31773481  1
  Si0+  Si111  1  0.82078212  0.07027723  0.01627757  1
  Si0+  Si112  1  0.92755586  0.32296974  0.65267793  1
  Si0+  Si113  1  0.57136396  0.67522224  0.98408427  1
  Si0+  Si114  1  0.82203763  0.07071136  0.68477147  1
  Si0+  Si115  1  0.32246784  0.07124451  0.34895469  1
  Si0+  Si116  1  0.82192353  0.57343965  0.68136676  1
  Si0+  Si117  1  0.32229538  0.07274477  0.68076787  1
  Si0+  Si118  1  0.42583386  0.32373701  0.98332544  1
  Si0+  Si119  1  0.07126071  0.68170487  0.31757855  1
  O2-  O120  1  0.25090714  0.00020332  0.06617681  1
  O2-  O121  1  0.24642633  0.00550743  0.39179552  1
  O2-  O122  1  0.25067150  0.00797547  0.72574725  1
  O2-  O123  1  0.24401622  0.49459324  0.06149938  1
  O2-  O124  1  0.25022974  0.49034643  0.39168634  1
  O2-  O125  1  0.24663687  0.50079058  0.73113966  1
  O2-  O126  1  0.75128034  -0.00310909  0.05765170  1
  O2-  O127  1  0.74906026  -0.00101747  0.38960596  1
  O2-  O128  1  0.75153771  0.00370200  0.72825501  1
  O2-  O129  1  0.75054295  0.49957680  0.06617866  1
  O2-  O130  1  0.75844614  0.50331925  0.39584097  1
  O2-  O131  1  0.75980409  0.49866850  0.72512611  1
  O2-  O132  1  0.00896133  0.24782039  0.27179621  1
  O2-  O133  1  0.00190711  0.25954902  0.60919766  1
  O2-  O134  1  0.00480944  0.25417754  0.94376288  1
  O2-  O135  1  -0.00320767  0.74911208  0.27527861  1
  O2-  O136  1  -0.00098351  0.74891844  0.59789278  1
  O2-  O137  1  -0.00201409  0.75117167  0.93656359  1
  O2-  O138  1  0.49926366  0.25056045  0.26629246  1
  O2-  O139  1  0.50551575  0.25419874  0.60209408  1
  O2-  O140  1  0.49466476  0.25499324  0.93965932  1
  O2-  O141  1  0.49952350  0.74905301  0.27739068  1
  O2-  O142  1  0.49816809  0.74932991  0.60868001  1
  O2-  O143  1  0.50259556  0.74297567  0.93846489  1
  O2-  O144  1  0.06793890  0.17988679  0.09283578  1
  O2-  O145  1  0.07056531  0.17052944  0.42049614  1
  O2-  O146  1  0.06909560  0.17899842  0.76895441  1
  O2-  O147  1  0.07052770  0.68052272  0.09843320  1
  O2-  O148  1  0.07163553  0.68359606  0.42217837  1
  O2-  O149  1  0.07321837  0.68045724  0.76082706  1
  O2-  O150  1  0.57070572  0.18013048  0.09710066  1
  O2-  O151  1  0.56860239  0.17559387  0.43022059  1
  O2-  O152  1  0.56912786  0.17672108  0.76440247  1
  O2-  O153  1  0.57112055  0.67929203  0.09041239  1
  O2-  O154  1  0.57525936  0.68299266  0.42427230  1
  O2-  O155  1  0.57243774  0.68265706  0.75749189  1
  O2-  O156  1  0.17232611  0.43202827  0.24234390  1
  O2-  O157  1  0.17943681  0.42720743  0.56536070  1
  O2-  O158  1  0.17729432  0.42105835  0.91199676  1
  O2-  O159  1  0.17845920  0.92988141  0.24499751  1
  O2-  O160  1  0.18118858  0.93288660  0.56610088  1
  O2-  O161  1  0.17688218  0.93268367  0.90218536  1
  O2-  O162  1  0.68446032  0.43028882  0.23607207  1
  O2-  O163  1  0.68175642  0.42852369  0.56722218  1
  O2-  O164  1  0.68181216  0.42572751  0.90324752  1
  O2-  O165  1  0.67951988  0.92607160  0.24187869  1
  O2-  O166  1  0.67897947  0.92905902  0.56679177  1
  O2-  O167  1  0.67641220  0.93019502  0.91014401  1
  O2-  O168  1  0.42645868  0.32311273  0.08900609  1
  O2-  O169  1  0.43084493  0.32439355  0.42937197  1
  O2-  O170  1  0.43130500  0.32255680  0.76643759  1
  O2-  O171  1  0.43293881  0.81870921  0.10009168  1
  O2-  O172  1  0.42893681  0.82113983  0.42458960  1
  O2-  O173  1  0.42929083  0.82243690  0.75578405  1
  O2-  O174  1  0.92867925  0.31696396  0.09053355  1
  O2-  O175  1  0.93221680  0.31637584  0.43316212  1
  O2-  O176  1  0.92548568  0.31899110  0.75831276  1
  O2-  O177  1  0.92825829  0.82358543  0.09948332  1
  O2-  O178  1  0.92675552  0.82257729  0.42225374  1
  O2-  O179  1  0.92667384  0.81860613  0.76282413  1
  O2-  O180  1  0.32372743  0.06663572  0.24423982  1
  O2-  O181  1  0.32151568  0.06822771  0.57449047  1
  O2-  O182  1  0.32024587  0.07176254  0.90137151  1
  O2-  O183  1  0.31674978  0.57541317  0.23513400  1
  O2-  O184  1  0.32101134  0.57114658  0.56928807  1
  O2-  O185  1  0.31832763  0.56956549  0.90204799  1
  O2-  O186  1  0.82571818  0.06674712  0.24436380  1
  O2-  O187  1  0.82328958  0.07031797  0.57875238  1
  O2-  O188  1  0.82240040  0.07332180  0.91179776  1
  O2-  O189  1  0.82139267  0.57605723  0.24519158  1
  O2-  O190  1  0.81767531  0.57501309  0.57526845  1
  O2-  O191  1  0.82052555  0.56818254  0.90056452  1
  O2-  O192  1  0.03990600  0.08280855  0.26783960  1
  O2-  O193  1  0.03585646  0.08738445  0.59740772  1
  O2-  O194  1  0.03853964  0.08994645  0.94069909  1
  O2-  O195  1  0.04864709  0.58908515  0.26984766  1
  O2-  O196  1  0.04591767  0.57920475  0.59385394  1
  O2-  O197  1  0.04391278  0.57927874  0.93096794  1
  O2-  O198  1  0.54114316  0.07843871  0.26509700  1
  O2-  O199  1  0.54154381  0.07975306  0.59724329  1
  O2-  O200  1  0.54070393  0.08329211  0.93107477  1
  O2-  O201  1  0.54653488  0.58806891  0.27241522  1
  O2-  O202  1  0.54415522  0.58848668  0.60560458  1
  O2-  O203  1  0.54650134  0.58028652  0.94184014  1
  O2-  O204  1  0.16833671  0.19248109  0.27038082  1
  O2-  O205  1  0.16848736  0.20511808  0.59764257  1
  O2-  O206  1  0.16497209  0.20338008  0.94211224  1
  O2-  O207  1  0.16202894  0.71527075  0.27104757  1
  O2-  O208  1  0.16986115  0.71296241  0.59431859  1
  O2-  O209  1  0.16859190  0.70829459  0.93214611  1
  O2-  O210  1  0.67086368  0.20250459  0.26696861  1
  O2-  O211  1  0.67437995  0.19877227  0.60219560  1
  O2-  O212  1  0.66798506  0.20819242  0.93089325  1
  O2-  O213  1  0.66309945  0.70981484  0.26951505  1
  O2-  O214  1  0.66017940  0.71101761  0.60176628  1
  O2-  O215  1  0.66459066  0.70122687  0.93862370  1
  O2-  O216  1  0.08125983  0.45098310  0.06089644  1
  O2-  O217  1  0.08454638  0.45766843  0.39540393  1
  O2-  O218  1  0.07614866  0.44888671  0.72928443  1
  O2-  O219  1  0.08036589  0.96134490  0.07037092  1
  O2-  O220  1  0.08572443  0.95626008  0.39644378  1
  O2-  O221  1  0.08020672  0.96143938  0.73125708  1
  O2-  O222  1  0.58139169  0.45309604  0.07076576  1
  O2-  O223  1  0.58757716  0.46314335  0.40268618  1
  O2-  O224  1  0.58791607  0.46286417  0.73665602  1
  O2-  O225  1  0.58760522  0.95943143  0.06380186  1
  O2-  O226  1  0.58578161  0.95356056  0.39405240  1
  O2-  O227  1  0.58077253  0.95817480  0.73437554  1
  O2-  O228  1  0.19883237  0.33270833  0.06689031  1
  O2-  O229  1  0.19387226  0.32918681  0.38789526  1
  O2-  O230  1  0.20740175  0.32844035  0.73162622  1
  O2-  O231  1  0.20715976  0.83207456  0.06914473  1
  O2-  O232  1  0.21068396  0.84115439  0.39816301  1
  O2-  O233  1  0.21057200  0.83651037  0.73292718  1
  O2-  O234  1  0.71307936  0.32846950  0.06908780  1
  O2-  O235  1  0.71564990  0.33120670  0.40009451  1
  O2-  O236  1  0.70992350  0.32969345  0.73381133  1
  O2-  O237  1  0.70127040  0.83614501  0.06345406  1
  O2-  O238  1  0.70669974  0.83625071  0.39525754  1
  O2-  O239  1  0.70731248  0.83262028  0.73546234  1
  O2-  O240  1  0.45995836  0.42376762  0.26566968  1
  O2-  O241  1  0.46102756  0.42394073  0.60228458  1
  O2-  O242  1  0.45165017  0.41801897  0.93969174  1
  O2-  O243  1  0.45666759  0.91048250  0.27086161  1
  O2-  O244  1  0.45802341  0.91153893  0.60138153  1
  O2-  O245  1  0.46243583  0.91412835  0.93106953  1
  O2-  O246  1  0.95923680  0.41742354  0.26459101  1
  O2-  O247  1  0.94342235  0.41795186  0.60638826  1
  O2-  O248  1  0.94960735  0.41284708  0.93867762  1
  O2-  O249  1  0.95714210  0.91310967  0.27086974  1
  O2-  O250  1  0.95565556  0.91889698  0.59620443  1
  O2-  O251  1  0.95148467  0.92408969  0.93492692  1
  O2-  O252  1  0.32849112  0.30045708  0.26441862  1
  O2-  O253  1  0.33491358  0.29570817  0.59604120  1
  O2-  O254  1  0.33094080  0.29839977  0.93986498  1
  O2-  O255  1  0.33610917  0.79126879  0.27285383  1
  O2-  O256  1  0.33692617  0.79494988  0.60192636  1
  O2-  O257  1  0.33275427  0.79088128  0.93387418  1
  O2-  O258  1  0.83818298  0.28381319  0.26360954  1
  O2-  O259  1  0.83774866  0.28809934  0.60406958  1
  O2-  O260  1  0.83989225  0.28469159  0.93741699  1
  O2-  O261  1  0.83474229  0.79703641  0.27059375  1
  O2-  O262  1  0.82830875  0.79221390  0.59692378  1
  O2-  O263  1  0.82576562  0.79805092  0.93492882  1
  O2-  O264  1  0.42035574  0.03849366  0.06826586  1
  O2-  O265  1  0.41144935  0.03665434  0.39786902  1
  O2-  O266  1  0.41414735  0.04263192  0.72660792  1
  O2-  O267  1  0.41484149  0.54221331  0.07076121  1
  O2-  O268  1  0.41920418  0.54729293  0.40051208  1
  O2-  O269  1  0.41914360  0.54660616  0.73755718  1
  O2-  O270  1  0.91130575  0.04496908  0.06815956  1
  O2-  O271  1  0.91294924  0.03939134  0.39847679  1
  O2-  O272  1  0.91458044  0.04300844  0.73122694  1
  O2-  O273  1  0.91997693  0.54305318  0.06767667  1
  O2-  O274  1  0.91980368  0.55060831  0.39310949  1
  O2-  O275  1  0.91838388  0.55559003  0.72307785  1
  O2-  O276  1  0.29447788  0.16911210  0.07106147  1
  O2-  O277  1  0.29986762  0.16587600  0.39286511  1
  O2-  O278  1  0.30162233  0.16792978  0.72328774  1
  O2-  O279  1  0.28751748  0.66631874  0.06950353  1
  O2-  O280  1  0.28632376  0.66649228  0.40277216  1
  O2-  O281  1  0.29252655  0.67128499  0.73310195  1
  O2-  O282  1  0.78968180  0.16009453  0.06600428  1
  O2-  O283  1  0.79621225  0.16081375  0.39700806  1
  O2-  O284  1  0.79983914  0.16388471  0.73298515  1
  O2-  O285  1  0.79359903  0.67014874  0.06852690  1
  O2-  O286  1  0.79640078  0.66741345  0.39643409  1
  O2-  O287  1  0.78907992  0.66382300  0.72836263  1
