# generated using pymatgen
data_Ca2Al2SiO7
_symmetry_space_group_name_H-M   'P 1'
_cell_length_a   15.45267372
_cell_length_b   15.45231951
_cell_length_c   15.27965766
_cell_angle_alpha   90.00066993
_cell_angle_beta   90.00721300
_cell_angle_gamma   90.00363001
_symmetry_Int_Tables_number   1
_chemical_formula_structural   Ca2Al2SiO7
_chemical_formula_sum   'Ca48 Al48 Si24 O168'
_cell_volume   3648.47129454
_cell_formula_units_Z   24
loop_
 _symmetry_equiv_pos_site_id
 _symmetry_equiv_pos_as_xyz
  1  'x, y, z'
loop_
 _atom_type_symbol
 _atom_type_oxidation_number
  Ca2+  2.0
  Al0+  0.0
  Si0+  0.0
  O2-  -2.0
loop_
 _atom_site_type_symbol
 _atom_site_label
 _atom_site_symmetry_multiplicity
 _atom_site_fract_x
 _atom_site_fract_y
 _atom_site_fract_z
 _atom_site_occupancy
  Ca2+  Ca0  1  0.16527692  0.07241565  0.17794667  1
  Ca2+  Ca1  1  0.17196960  0.08051538  0.50400748  1
  Ca2+  Ca2  1  0.16786017  0.07354263  0.83720993  1
  Ca2+  Ca3  1  0.16927269  0.58782244  0.17493089  1
  Ca2+  Ca4  1  0.17124001  0.58952958  0.49761926  1
  Ca2+  Ca5  1  0.16612644  0.58751406  0.83780393  1
  Ca2+  Ca6  1  0.66374128  0.07298524  0.16697741  1
  Ca2+  Ca7  1  0.66071989  0.07749017  0.50310460  1
  Ca2+  Ca8  1  0.66440198  0.08131274  0.84176098  1
  Ca2+  Ca9  1  0.67091623  0.58412579  0.17370943  1
  Ca2+  Ca10  1  0.67735170  0.58063518  0.50470249  1
  Ca2+  Ca11  1  0.67163999  0.57256572  0.83903785  1
  Ca2+  Ca12  1  0.07891610  0.32554057  0.16300342  1
  Ca2+  Ca13  1  0.07999681  0.32805008  0.49385697  1
  Ca2+  Ca14  1  0.06755677  0.33650109  0.82850598  1
  Ca2+  Ca15  1  0.08578206  0.82621876  0.15942669  1
  Ca2+  Ca16  1  0.07936140  0.83648364  0.49459529  1
  Ca2+  Ca17  1  0.07751302  0.83641864  0.83101831  1
  Ca2+  Ca18  1  0.57800297  0.33078212  0.15960366  1
  Ca2+  Ca19  1  0.58162344  0.32907777  0.49777703  1
  Ca2+  Ca20  1  0.59448292  0.32278551  0.82864993  1
  Ca2+  Ca21  1  0.59043520  0.82441353  0.16181254  1
  Ca2+  Ca22  1  0.58260922  0.82792448  0.49009176  1
  Ca2+  Ca23  1  0.59147756  0.82692317  0.83275660  1
  Ca2+  Ca24  1  0.33507636  0.42149891  0.17520493  1
  Ca2+  Ca25  1  0.33775729  0.41929852  0.49644423  1
  Ca2+  Ca26  1  0.33019376  0.41796531  0.83581281  1
  Ca2+  Ca27  1  0.32216453  0.92167879  0.17558571  1
  Ca2+  Ca28  1  0.32037251  0.92543060  0.50526853  1
  Ca2+  Ca29  1  0.32236459  0.91892531  0.83651258  1
  Ca2+  Ca30  1  0.82940828  0.41969583  0.16918896  1
  Ca2+  Ca31  1  0.83374306  0.42909041  0.50927855  1
  Ca2+  Ca32  1  0.82846209  0.41581322  0.83814357  1
  Ca2+  Ca33  1  0.82333438  0.90454575  0.16657015  1
  Ca2+  Ca34  1  0.82919355  0.91385953  0.50207352  1
  Ca2+  Ca35  1  0.83420995  0.91560807  0.83979650  1
  Ca2+  Ca36  1  0.41691127  0.16834443  0.16618628  1
  Ca2+  Ca37  1  0.41331190  0.16797418  0.49529012  1
  Ca2+  Ca38  1  0.42860324  0.15906960  0.82831211  1
  Ca2+  Ca39  1  0.42841383  0.66262408  0.16391810  1
  Ca2+  Ca40  1  0.42373675  0.66566763  0.48889926  1
  Ca2+  Ca41  1  0.42443086  0.66730708  0.83381625  1
  Ca2+  Ca42  1  0.92065116  0.17003266  0.16387613  1
  Ca2+  Ca43  1  0.92108358  0.17462363  0.49655926  1
  Ca2+  Ca44  1  0.90858924  0.18075050  0.82941746  1
  Ca2+  Ca45  1  0.92612814  0.66908758  0.16163442  1
  Ca2+  Ca46  1  0.91700738  0.66792788  0.49487764  1
  Ca2+  Ca47  1  0.91589031  0.67868363  0.82920090  1
  Al0+  Al48  1  0.00119405  0.00046294  0.00223558  1
  Al0+  Al49  1  -0.00436712  0.00131106  0.33230301  1
  Al0+  Al50  1  -0.00178061  -0.00057587  0.66615162  1
  Al0+  Al51  1  0.00144721  0.49945561  -0.00650303  1
  Al0+  Al52  1  -0.00114747  0.50190336  0.33343043  1
  Al0+  Al53  1  0.00093514  0.50310796  0.66582488  1
  Al0+  Al54  1  0.49951165  0.00012355  0.00163382  1
  Al0+  Al55  1  0.49910322  -0.00022820  0.34045403  1
  Al0+  Al56  1  0.49891515  -0.00148305  0.66557931  1
  Al0+  Al57  1  0.50043038  0.49948187  -0.00206657  1
  Al0+  Al58  1  0.49988596  0.49827833  0.32953681  1
  Al0+  Al59  1  0.50081432  0.49790782  0.67095306  1
  Al0+  Al60  1  0.25048253  0.25147620  -0.00063553  1
  Al0+  Al61  1  0.24902757  0.25036748  0.32685493  1
  Al0+  Al62  1  0.25266011  0.25099262  0.67294477  1
  Al0+  Al63  1  0.25206170  0.75022428  0.00039148  1
  Al0+  Al64  1  0.24989638  0.75030738  0.33898143  1
  Al0+  Al65  1  0.25096846  0.75039675  0.67099284  1
  Al0+  Al66  1  0.74888267  0.25045346  0.00031212  1
  Al0+  Al67  1  0.74831541  0.24879188  0.33222485  1
  Al0+  Al68  1  0.74903930  0.24908889  0.65643028  1
  Al0+  Al69  1  0.75152838  0.74860197  -0.00512280  1
  Al0+  Al70  1  0.74948691  0.74857696  0.33846801  1
  Al0+  Al71  1  0.75225914  0.74867609  0.66547822  1
  Al0+  Al72  1  0.17561223  0.92809745  0.34907444  1
  Al0+  Al73  1  0.17870866  0.92965387  0.01608228  1
  Al0+  Al74  1  0.57113253  0.68014948  0.32101043  1
  Al0+  Al75  1  0.82111962  0.56911214  0.34593318  1
  Al0+  Al76  1  0.32224043  0.57008551  0.34526014  1
  Al0+  Al77  1  0.07425368  0.67924100  0.98433548  1
  Al0+  Al78  1  0.92875779  0.32302835  0.65091402  1
  Al0+  Al79  1  0.17673029  0.92926642  0.68379336  1
  Al0+  Al80  1  0.68025404  0.42782180  0.68123247  1
  Al0+  Al81  1  0.57213689  0.67800157  0.98494853  1
  Al0+  Al82  1  0.56973169  0.17739892  0.65106870  1
  Al0+  Al83  1  0.07158830  0.68073690  0.32110690  1
  Al0+  Al84  1  0.06967338  0.17890395  0.32068678  1
  Al0+  Al85  1  0.68034331  0.92927460  0.34721797  1
  Al0+  Al86  1  0.31941173  0.07369114  0.34826312  1
  Al0+  Al87  1  0.68005255  0.92784640  0.01164907  1
  Al0+  Al88  1  0.67939575  0.42799650  0.01574231  1
  Al0+  Al89  1  0.92956109  0.31915551  0.98766663  1
  Al0+  Al90  1  0.92909774  0.82170917  0.65021465  1
  Al0+  Al91  1  0.92986730  0.82134434  0.98574994  1
  Al0+  Al92  1  0.43016465  0.31942371  0.31942566  1
  Al0+  Al93  1  0.56793116  0.17934905  0.98817398  1
  Al0+  Al94  1  0.32213147  0.07248766  0.68435013  1
  Al0+  Al95  1  0.82332301  0.57248684  0.68493363  1
  Si0+  Si96  1  0.67705237  0.42616402  0.34921718  1
  Si0+  Si97  1  0.17922359  0.42923482  0.68084549  1
  Si0+  Si98  1  0.92671518  0.82195730  0.31699561  1
  Si0+  Si99  1  0.17736392  0.42862746  0.34815798  1
  Si0+  Si100  1  0.07466516  0.67943364  0.64819048  1
  Si0+  Si101  1  0.82277468  0.57091903  0.01655997  1
  Si0+  Si102  1  0.92696653  0.32347612  0.31706613  1
  Si0+  Si103  1  0.82181317  0.07375974  0.01620476  1
  Si0+  Si104  1  0.17749417  0.42891566  0.01503948  1
  Si0+  Si105  1  0.67890803  0.92842386  0.68087916  1
  Si0+  Si106  1  0.42858556  0.81905669  0.65135515  1
  Si0+  Si107  1  0.42914551  0.82180055  0.98390968  1
  Si0+  Si108  1  0.57259478  0.17505818  0.31501978  1
  Si0+  Si109  1  0.07373369  0.17774143  0.98259866  1
  Si0+  Si110  1  0.07269772  0.18003828  0.65285732  1
  Si0+  Si111  1  0.82091010  0.07508053  0.35151299  1
  Si0+  Si112  1  0.56997672  0.67763799  0.65184978  1
  Si0+  Si113  1  0.42686473  0.32320911  0.98094019  1
  Si0+  Si114  1  0.32244239  0.57128104  0.68248359  1
  Si0+  Si115  1  0.42809035  0.82299803  0.31847756  1
  Si0+  Si116  1  0.81962266  0.07089322  0.67962658  1
  Si0+  Si117  1  0.32098663  0.56996956  0.01498239  1
  Si0+  Si118  1  0.42637154  0.32322002  0.64989013  1
  Si0+  Si119  1  0.32211396  0.07291945  0.01801751  1
  O2-  O120  1  0.25043404  0.00770009  0.06187339  1
  O2-  O121  1  0.24660432  0.00215379  0.39757629  1
  O2-  O122  1  0.24792642  0.00262402  0.73356577  1
  O2-  O123  1  0.24829628  0.50025058  0.05677325  1
  O2-  O124  1  0.24559509  0.49770365  0.39321163  1
  O2-  O125  1  0.24964758  0.50137371  0.72333550  1
  O2-  O126  1  0.75708348  0.00020069  0.05892393  1
  O2-  O127  1  0.75187695  0.00638138  0.39516826  1
  O2-  O128  1  0.74888718  0.00017139  0.72303478  1
  O2-  O129  1  0.75280530  0.50392400  0.06215651  1
  O2-  O130  1  0.74856295  0.49188286  0.39249338  1
  O2-  O131  1  0.75318262  0.49774674  0.73334051  1
  O2-  O132  1  -0.00568853  0.25329713  0.27353118  1
  O2-  O133  1  0.00634295  0.25003696  0.60657402  1
  O2-  O134  1  0.00366645  0.24469279  0.93822956  1
  O2-  O135  1  0.00084222  0.75874200  0.27390945  1
  O2-  O136  1  0.00564178  0.74801475  0.60512249  1
  O2-  O137  1  0.00336979  0.75166368  0.93410510  1
  O2-  O138  1  0.50402108  0.24427798  0.27195840  1
  O2-  O139  1  0.49383849  0.25273000  0.60739565  1
  O2-  O140  1  0.49427037  0.25344090  0.93790052  1
  O2-  O141  1  0.49679704  0.75487986  0.27292547  1
  O2-  O142  1  0.49949690  0.74828731  0.60846455  1
  O2-  O143  1  0.50064374  0.75618038  0.93805707  1
  O2-  O144  1  0.07394382  0.18051870  0.08822795  1
  O2-  O145  1  0.06898306  0.18274415  0.43413232  1
  O2-  O146  1  0.07030371  0.18238800  0.75859359  1
  O2-  O147  1  0.07467213  0.67838846  0.09804822  1
  O2-  O148  1  0.06975846  0.67889145  0.43402605  1
  O2-  O149  1  0.07653124  0.67972120  0.75364612  1
  O2-  O150  1  0.56549768  0.17921327  0.10113660  1
  O2-  O151  1  0.57378813  0.17663555  0.42052514  1
  O2-  O152  1  0.57086195  0.17674748  0.76437898  1
  O2-  O153  1  0.57068001  0.67743754  0.09807652  1
  O2-  O154  1  0.56974393  0.68078985  0.43467101  1
  O2-  O155  1  0.56775368  0.67865339  0.75716224  1
  O2-  O156  1  0.17732670  0.42960247  0.24234486  1
  O2-  O157  1  0.18051856  0.42745719  0.57590959  1
  O2-  O158  1  0.17923346  0.42786348  0.90960811  1
  O2-  O159  1  0.17842280  0.92799790  0.23524004  1
  O2-  O160  1  0.17825898  0.92927163  0.57057707  1
  O2-  O161  1  0.18034606  0.93091855  0.90305481  1
  O2-  O162  1  0.67785929  0.42613594  0.24346523  1
  O2-  O163  1  0.67793967  0.43179131  0.56749119  1
  O2-  O164  1  0.68161763  0.42647676  0.90288950  1
  O2-  O165  1  0.68203620  0.92818126  0.23398199  1
  O2-  O166  1  0.67925103  0.92855948  0.57572971  1
  O2-  O167  1  0.68001117  0.93052481  0.89820393  1
  O2-  O168  1  0.42584793  0.32418192  0.08645745  1
  O2-  O169  1  0.43206162  0.32097212  0.43263049  1
  O2-  O170  1  0.42466427  0.32611196  0.75523766  1
  O2-  O171  1  0.42837440  0.81901455  0.08934057  1
  O2-  O172  1  0.43075833  0.82028614  0.42446691  1
  O2-  O173  1  0.42922297  0.81696624  0.75670563  1
  O2-  O174  1  0.93220846  0.31840439  0.10089563  1
  O2-  O175  1  0.92882103  0.32320524  0.42265703  1
  O2-  O176  1  0.92872421  0.32030222  0.76425360  1
  O2-  O177  1  0.92805354  0.81715966  0.09929360  1
  O2-  O178  1  0.92577701  0.81994490  0.42277751  1
  O2-  O179  1  0.92790114  0.82258595  0.76301863  1
  O2-  O180  1  0.31886729  0.07155383  0.23434642  1
  O2-  O181  1  0.31977041  0.07260130  0.57104783  1
  O2-  O182  1  0.32259263  0.07151850  0.91249482  1
  O2-  O183  1  0.32296907  0.56760182  0.23213965  1
  O2-  O184  1  0.32447325  0.57149541  0.57759947  1
  O2-  O185  1  0.32127047  0.56806941  0.90924043  1
  O2-  O186  1  0.82054472  0.07854577  0.24610344  1
  O2-  O187  1  0.81957451  0.06965799  0.57455480  1
  O2-  O188  1  0.81891087  0.07683364  0.91022908  1
  O2-  O189  1  0.82102547  0.56856921  0.23266676  1
  O2-  O190  1  0.82065981  0.57268406  0.57095960  1
  O2-  O191  1  0.82109285  0.56925589  0.91111777  1
  O2-  O192  1  0.03650655  0.08359460  0.26470791  1
  O2-  O193  1  0.04483439  0.08738741  0.60711235  1
  O2-  O194  1  0.05022526  0.08350642  0.93833356  1
  O2-  O195  1  0.04019512  0.58387028  0.26666201  1
  O2-  O196  1  0.05116073  0.58526149  0.60239847  1
  O2-  O197  1  0.04875962  0.58030617  0.93084923  1
  O2-  O198  1  0.54599333  0.08062978  0.27138967  1
  O2-  O199  1  0.53929260  0.08008330  0.59756135  1
  O2-  O200  1  0.53811586  0.08245177  0.93299215  1
  O2-  O201  1  0.54024449  0.58413926  0.26647031  1
  O2-  O202  1  0.54047721  0.58543971  0.60645081  1
  O2-  O203  1  0.53596170  0.58345748  0.92952657  1
  O2-  O204  1  0.16349041  0.21057825  0.26240007  1
  O2-  O205  1  0.16754283  0.20641227  0.60953909  1
  O2-  O206  1  0.16717949  0.20510737  0.93658328  1
  O2-  O207  1  0.17076343  0.70669210  0.26913751  1
  O2-  O208  1  0.17003842  0.70394681  0.60415400  1
  O2-  O209  1  0.17386048  0.70562445  0.93200842  1
  O2-  O210  1  0.66665016  0.19957924  0.26874004  1
  O2-  O211  1  0.66424536  0.20713090  0.59258138  1
  O2-  O212  1  0.66493854  0.20946051  0.93466202  1
  O2-  O213  1  0.66742929  0.71234063  0.26749485  1
  O2-  O214  1  0.66192283  0.70582600  0.60602524  1
  O2-  O215  1  0.66765218  0.70693877  0.92899457  1
  O2-  O216  1  0.08535046  0.45472220  0.06211374  1
  O2-  O217  1  0.08427113  0.45369361  0.39521028  1
  O2-  O218  1  0.08809974  0.45776992  0.72895466  1
  O2-  O219  1  0.08133089  0.95746764  0.07026636  1
  O2-  O220  1  0.07524483  0.95571757  0.39796925  1
  O2-  O221  1  0.07767939  0.95807726  0.73553141  1
  O2-  O222  1  0.58066498  0.45757988  0.06628837  1
  O2-  O223  1  0.58459552  0.45438497  0.39489465  1
  O2-  O224  1  0.58166441  0.45523417  0.73584187  1
  O2-  O225  1  0.58364459  0.95891240  0.06625532  1
  O2-  O226  1  0.58358906  0.95656093  0.40329237  1
  O2-  O227  1  0.58644157  0.95368983  0.72747485  1
  O2-  O228  1  0.20581898  0.33686490  0.06292792  1
  O2-  O229  1  0.20504991  0.33581174  0.39369975  1
  O2-  O230  1  0.20743711  0.33969131  0.73279476  1
  O2-  O231  1  0.21375254  0.83302510  0.06770040  1
  O2-  O232  1  0.20542996  0.83140994  0.40436926  1
  O2-  O233  1  0.20958239  0.83150140  0.73674565  1
  O2-  O234  1  0.71118910  0.33230426  0.07091959  1
  O2-  O235  1  0.69873915  0.33072480  0.39385268  1
  O2-  O236  1  0.70909815  0.32701517  0.72894071  1
  O2-  O237  1  0.71041333  0.83007003  0.06455132  1
  O2-  O238  1  0.71247318  0.83458722  0.40422841  1
  O2-  O239  1  0.70754629  0.83645739  0.72695635  1
  O2-  O240  1  0.46155159  0.41448824  0.26212756  1
  O2-  O241  1  0.45391212  0.41692459  0.60374791  1
  O2-  O242  1  0.45191549  0.41635163  0.93426553  1
  O2-  O243  1  0.45275143  0.91734323  0.27390815  1
  O2-  O244  1  0.45640557  0.91018712  0.60361674  1
  O2-  O245  1  0.45100944  0.91631740  0.93872495  1
  O2-  O246  1  0.95395613  0.41582398  0.27020975  1
  O2-  O247  1  0.96067410  0.42017199  0.59894133  1
  O2-  O248  1  0.96143182  0.41377422  0.93064931  1
  O2-  O249  1  0.94173654  0.91835608  0.27304249  1
  O2-  O250  1  0.95629858  0.91966995  0.59609054  1
  O2-  O251  1  0.95450937  0.92240840  0.93525414  1
  O2-  O252  1  0.33352191  0.29300104  0.26264257  1
  O2-  O253  1  0.33193555  0.29937237  0.60392005  1
  O2-  O254  1  0.33186717  0.29995866  0.93526147  1
  O2-  O255  1  0.33421329  0.79710005  0.27421617  1
  O2-  O256  1  0.33686812  0.78997203  0.60453377  1
  O2-  O257  1  0.33848910  0.79057619  0.93481159  1
  O2-  O258  1  0.83257841  0.29770959  0.27200073  1
  O2-  O259  1  0.83549800  0.28921940  0.59335151  1
  O2-  O260  1  0.83382120  0.28703807  0.93303988  1
  O2-  O261  1  0.83532544  0.78834330  0.27165126  1
  O2-  O262  1  0.83240072  0.78939500  0.59586681  1
  O2-  O263  1  0.83300206  0.79227676  0.92947754  1
  O2-  O264  1  0.41424442  0.04492538  0.06532238  1
  O2-  O265  1  0.41778460  0.04721361  0.40205321  1
  O2-  O266  1  0.41957071  0.03748093  0.73621711  1
  O2-  O267  1  0.41218509  0.53980069  0.06195593  1
  O2-  O268  1  0.41742085  0.53541326  0.40061246  1
  O2-  O269  1  0.41242637  0.54154310  0.73280893  1
  O2-  O270  1  0.91719709  0.05376982  0.06078790  1
  O2-  O271  1  0.91368308  0.04946233  0.39877153  1
  O2-  O272  1  0.91100678  0.04527048  0.72869999  1
  O2-  O273  1  0.91727197  0.54280738  0.05985510  1
  O2-  O274  1  0.91727760  0.53992893  0.40232838  1
  O2-  O275  1  0.92404843  0.54867061  0.73466864  1
  O2-  O276  1  0.30011211  0.16937727  0.06068572  1
  O2-  O277  1  0.29038728  0.17304590  0.39907700  1
  O2-  O278  1  0.29979017  0.17230559  0.73822879  1
  O2-  O279  1  0.29704322  0.66236781  0.06192624  1
  O2-  O280  1  0.29455317  0.66569281  0.40251845  1
  O2-  O281  1  0.29594760  0.66230245  0.73216744  1
  O2-  O282  1  0.79127196  0.16408213  0.06573042  1
  O2-  O283  1  0.79573123  0.16882542  0.39890878  1
  O2-  O284  1  0.79030062  0.16306556  0.72502423  1
  O2-  O285  1  0.79741921  0.66490357  0.06090933  1
  O2-  O286  1  0.78749762  0.66309130  0.40286718  1
  O2-  O287  1  0.79072331  0.67019280  0.73684408  1
