# generated using pymatgen
data_Ca2Al2SiO7
_symmetry_space_group_name_H-M   'P 1'
_cell_length_a   15.45335502
_cell_length_b   15.45374320
_cell_length_c   15.28037435
_cell_angle_alpha   90.00488649
_cell_angle_beta   89.99418809
_cell_angle_gamma   90.00645427
_symmetry_Int_Tables_number   1
_chemical_formula_structural   Ca2Al2SiO7
_chemical_formula_sum   'Ca48 Al48 Si24 O168'
_cell_volume   3649.13945545
_cell_formula_units_Z   24
loop_
 _symmetry_equiv_pos_site_id
 _symmetry_equiv_pos_as_xyz
  1  'x, y, z'
loop_
 _atom_type_symbol
 _atom_type_oxidation_number
  Ca2+  2.0
  Al0+  0.0
  Si0+  0.0
  O2-  -2.0
loop_
 _atom_site_type_symbol
 _atom_site_label
 _atom_site_symmetry_multiplicity
 _atom_site_fract_x
 _atom_site_fract_y
 _atom_site_fract_z
 _atom_site_occupancy
  Ca2+  Ca0  1  0.17569739  0.07985379  0.17539244  1
  Ca2+  Ca1  1  0.17365825  0.07949874  0.50524013  1
  Ca2+  Ca2  1  0.16710350  0.07604220  0.83465881  1
  Ca2+  Ca3  1  0.17667954  0.58893852  0.17089936  1
  Ca2+  Ca4  1  0.16762188  0.58282154  0.50446433  1
  Ca2+  Ca5  1  0.16803553  0.58074316  0.83198000  1
  Ca2+  Ca6  1  0.67178671  0.09106867  0.17056279  1
  Ca2+  Ca7  1  0.66694585  0.08404178  0.49930666  1
  Ca2+  Ca8  1  0.66925276  0.08174516  0.83734971  1
  Ca2+  Ca9  1  0.66864507  0.57145418  0.17062481  1
  Ca2+  Ca10  1  0.67339333  0.56968213  0.50877440  1
  Ca2+  Ca11  1  0.67432214  0.57237319  0.83852546  1
  Ca2+  Ca12  1  0.07642892  0.33193778  0.16747060  1
  Ca2+  Ca13  1  0.07001970  0.34476436  0.49821502  1
  Ca2+  Ca14  1  0.07799469  0.33623080  0.82180201  1
  Ca2+  Ca15  1  0.07876601  0.82777913  0.16283909  1
  Ca2+  Ca16  1  0.08994655  0.82195669  0.49866393  1
  Ca2+  Ca17  1  0.07637730  0.82712136  0.82563083  1
  Ca2+  Ca18  1  0.58848010  0.32752136  0.16623028  1
  Ca2+  Ca19  1  0.57709878  0.33603153  0.49159210  1
  Ca2+  Ca20  1  0.58762538  0.33276046  0.82980239  1
  Ca2+  Ca21  1  0.57530168  0.83008924  0.15833176  1
  Ca2+  Ca22  1  0.58255629  0.83472549  0.50150184  1
  Ca2+  Ca23  1  0.57322670  0.83626599  0.82509062  1
  Ca2+  Ca24  1  0.33735199  0.42741135  0.17488081  1
  Ca2+  Ca25  1  0.33406108  0.41944213  0.50599034  1
  Ca2+  Ca26  1  0.32956469  0.41795063  0.83620285  1
  Ca2+  Ca27  1  0.33640298  0.92095600  0.17206555  1
  Ca2+  Ca28  1  0.33291184  0.92352373  0.50660790  1
  Ca2+  Ca29  1  0.32866696  0.90513721  0.83382350  1
  Ca2+  Ca30  1  0.82165705  0.41248858  0.17062164  1
  Ca2+  Ca31  1  0.82494181  0.41202904  0.50759562  1
  Ca2+  Ca32  1  0.82949024  0.42463393  0.83549094  1
  Ca2+  Ca33  1  0.83903529  0.92752698  0.16926753  1
  Ca2+  Ca34  1  0.82745762  0.92465886  0.50601923  1
  Ca2+  Ca35  1  0.82725834  0.91821471  0.84121894  1
  Ca2+  Ca36  1  0.42830248  0.16797091  0.16397328  1
  Ca2+  Ca37  1  0.42027983  0.17894076  0.49090539  1
  Ca2+  Ca38  1  0.42633667  0.17410644  0.82611395  1
  Ca2+  Ca39  1  0.41345612  0.66694949  0.15998983  1
  Ca2+  Ca40  1  0.41175332  0.67254584  0.49634695  1
  Ca2+  Ca41  1  0.41391338  0.67243349  0.83151423  1
  Ca2+  Ca42  1  0.90484810  0.17030338  0.16555939  1
  Ca2+  Ca43  1  0.91175809  0.17752218  0.49472664  1
  Ca2+  Ca44  1  0.91464467  0.17201424  0.83027388  1
  Ca2+  Ca45  1  0.92106339  0.66913444  0.15945704  1
  Ca2+  Ca46  1  0.92903705  0.65611863  0.49808427  1
  Ca2+  Ca47  1  0.91476704  0.66430438  0.82619826  1
  Al0+  Al48  1  -0.00017561  -0.00167925  0.00002607  1
  Al0+  Al49  1  -0.00043232  -0.00027690  0.34045198  1
  Al0+  Al50  1  0.00244055  -0.00031940  0.66986549  1
  Al0+  Al51  1  0.00088169  0.49899382  0.00348544  1
  Al0+  Al52  1  0.00131480  0.50096241  0.31862911  1
  Al0+  Al53  1  0.00200595  0.50018277  0.66643072  1
  Al0+  Al54  1  0.49905513  0.00091634  -0.01015740  1
  Al0+  Al55  1  0.49943548  0.00088015  0.33443046  1
  Al0+  Al56  1  0.50120855  0.00122011  0.66536592  1
  Al0+  Al57  1  0.49812794  0.49959568  0.00676632  1
  Al0+  Al58  1  0.49941042  0.50261736  0.33937793  1
  Al0+  Al59  1  0.50146178  0.50109690  0.66794720  1
  Al0+  Al60  1  0.24947084  0.24797314  0.00047116  1
  Al0+  Al61  1  0.24832755  0.25155873  0.33338217  1
  Al0+  Al62  1  0.25192421  0.25024033  0.66775142  1
  Al0+  Al63  1  0.24797271  0.74873209  0.00017399  1
  Al0+  Al64  1  0.24917422  0.74891631  0.33193256  1
  Al0+  Al65  1  0.24981432  0.75228573  0.66239565  1
  Al0+  Al66  1  0.74992650  0.24852663  0.00005000  1
  Al0+  Al67  1  0.74927509  0.24951224  0.33545312  1
  Al0+  Al68  1  0.75055752  0.24896648  0.66661492  1
  Al0+  Al69  1  0.74897223  0.74933254  0.00025490  1
  Al0+  Al70  1  0.75016922  0.75034632  0.33213209  1
  Al0+  Al71  1  0.74914100  0.75261694  0.67269234  1
  Al0+  Al72  1  0.18087254  0.92854878  0.68099524  1
  Al0+  Al73  1  0.82302050  0.57015592  0.67902470  1
  Al0+  Al74  1  0.68112197  0.43025218  0.34883255  1
  Al0+  Al75  1  0.31721173  0.56964058  0.01237441  1
  Al0+  Al76  1  0.67725627  0.42687595  0.68212171  1
  Al0+  Al77  1  0.82014162  0.06778082  0.01304239  1
  Al0+  Al78  1  0.32221887  0.07258311  0.34624536  1
  Al0+  Al79  1  0.32007095  0.57134993  0.34907663  1
  Al0+  Al80  1  0.42648209  0.32483514  0.31772777  1
  Al0+  Al81  1  0.93084130  0.31912951  0.65488985  1
  Al0+  Al82  1  0.92834900  0.82095767  0.98634104  1
  Al0+  Al83  1  0.07098365  0.68038832  0.31671832  1
  Al0+  Al84  1  0.18052132  0.42920159  0.67793710  1
  Al0+  Al85  1  0.42882188  0.81984155  0.98620371  1
  Al0+  Al86  1  0.56923088  0.17952395  0.31829213  1
  Al0+  Al87  1  0.92876934  0.31897667  0.31815238  1
  Al0+  Al88  1  0.06856123  0.68059038  0.65350926  1
  Al0+  Al89  1  0.57162095  0.18131902  0.98374346  1
  Al0+  Al90  1  0.82030211  0.07047470  0.34866761  1
  Al0+  Al91  1  0.82294425  0.57352830  0.01722092  1
  Al0+  Al92  1  0.42927934  0.32309626  0.65390912  1
  Al0+  Al93  1  0.42987642  0.82008290  0.65085849  1
  Al0+  Al94  1  0.67989778  0.42841966  0.01667877  1
  Al0+  Al95  1  0.67862815  0.93046396  0.68094960  1
  Si0+  Si96  1  0.67424253  0.92833245  0.01567324  1
  Si0+  Si97  1  0.32197713  0.07121593  0.01352392  1
  Si0+  Si98  1  0.07369891  0.17751345  0.98521468  1
  Si0+  Si99  1  0.07095912  0.67797027  0.98169605  1
  Si0+  Si100  1  0.57238423  0.67917894  0.31950130  1
  Si0+  Si101  1  0.57416399  0.67860151  0.65024222  1
  Si0+  Si102  1  0.17982666  0.92941471  0.01538766  1
  Si0+  Si103  1  0.57134827  0.67529835  0.98373193  1
  Si0+  Si104  1  0.32262302  0.07241838  0.68515570  1
  Si0+  Si105  1  0.82315211  0.07180054  0.68408764  1
  Si0+  Si106  1  0.17573626  0.42886830  0.34834019  1
  Si0+  Si107  1  0.93073976  0.31922875  0.98478826  1
  Si0+  Si108  1  0.32234347  0.57370537  0.68234463  1
  Si0+  Si109  1  0.17905821  0.92820632  0.35011431  1
  Si0+  Si110  1  0.92657665  0.82401424  0.31827701  1
  Si0+  Si111  1  0.07189089  0.17451318  0.31774269  1
  Si0+  Si112  1  0.42615023  0.32321941  0.98400331  1
  Si0+  Si113  1  0.07379780  0.17549308  0.65036449  1
  Si0+  Si114  1  0.42996684  0.82030496  0.31919923  1
  Si0+  Si115  1  0.67664233  0.92512676  0.34878047  1
  Si0+  Si116  1  0.82428759  0.57360294  0.34775813  1
  Si0+  Si117  1  0.92549734  0.82458923  0.64988975  1
  Si0+  Si118  1  0.57227751  0.17890535  0.64848710  1
  Si0+  Si119  1  0.17694388  0.42351985  0.01843624  1
  O2-  O120  1  0.25221531  -0.00075625  0.05697843  1
  O2-  O121  1  0.24568325  -0.00050094  0.39288850  1
  O2-  O122  1  0.25479066  0.00288072  0.73027752  1
  O2-  O123  1  0.24584389  0.49252829  0.06093790  1
  O2-  O124  1  0.24809383  0.49320570  0.39318278  1
  O2-  O125  1  0.25772221  0.50076225  0.72578031  1
  O2-  O126  1  0.74571259  -0.00696324  0.06127555  1
  O2-  O127  1  0.74620172  -0.00634658  0.39192789  1
  O2-  O128  1  0.75635912  0.00144929  0.72792586  1
  O2-  O129  1  0.75122729  0.50145540  0.06710505  1
  O2-  O130  1  0.75777446  0.50437284  0.39338170  1
  O2-  O131  1  0.74973588  0.49973686  0.72945465  1
  O2-  O132  1  0.00234070  0.24158979  0.27208684  1
  O2-  O133  1  0.00521983  0.24403882  0.60665482  1
  O2-  O134  1  0.00560296  0.25130479  0.94324341  1
  O2-  O135  1  -0.00623165  0.75422055  0.27337472  1
  O2-  O136  1  -0.00809659  0.75375782  0.60562749  1
  O2-  O137  1  -0.00377718  0.74039371  0.93850316  1
  O2-  O138  1  0.49722271  0.25161207  0.26731573  1
  O2-  O139  1  0.50671048  0.25151343  0.60678216  1
  O2-  O140  1  0.49710464  0.25741188  0.93910053  1
  O2-  O141  1  0.50159696  0.75068295  0.27664831  1
  O2-  O142  1  0.50404895  0.74538062  0.60372080  1
  O2-  O143  1  0.50513377  0.74686520  0.93949136  1
  O2-  O144  1  0.07697746  0.17704822  0.09009582  1
  O2-  O145  1  0.07168648  0.17298238  0.42303980  1
  O2-  O146  1  0.07252032  0.17455144  0.75654714  1
  O2-  O147  1  0.07438770  0.68342762  0.08728798  1
  O2-  O148  1  0.07212755  0.68096283  0.42984089  1
  O2-  O149  1  0.06943873  0.68209750  0.76659529  1
  O2-  O150  1  0.57003327  0.17891229  0.09648395  1
  O2-  O151  1  0.56768945  0.17854757  0.43175357  1
  O2-  O152  1  0.57098462  0.17747737  0.75442942  1
  O2-  O153  1  0.56858761  0.67688893  0.08991876  1
  O2-  O154  1  0.57383158  0.68179855  0.42438459  1
  O2-  O155  1  0.57248890  0.67986889  0.75580216  1
  O2-  O156  1  0.17565237  0.43053815  0.24243529  1
  O2-  O157  1  0.17860238  0.43191251  0.56516604  1
  O2-  O158  1  0.17647920  0.42187029  0.91268818  1
  O2-  O159  1  0.17953936  0.92844815  0.24387785  1
  O2-  O160  1  0.18314641  0.93001475  0.56790907  1
  O2-  O161  1  0.17998283  0.92990153  0.91038622  1
  O2-  O162  1  0.68168802  0.43084109  0.23580302  1
  O2-  O163  1  0.67802154  0.42714245  0.56845592  1
  O2-  O164  1  0.68198120  0.42855821  0.90324092  1
  O2-  O165  1  0.67508842  0.92174155  0.24337033  1
  O2-  O166  1  0.67921836  0.93221905  0.56748120  1
  O2-  O167  1  0.67424524  0.93186628  0.91013554  1
  O2-  O168  1  0.42300899  0.32037048  0.08915826  1
  O2-  O169  1  0.42834658  0.32356069  0.43149966  1
  O2-  O170  1  0.42685821  0.31943956  0.76732557  1
  O2-  O171  1  0.42917352  0.82061896  0.09994793  1
  O2-  O172  1  0.42999859  0.82010250  0.42418390  1
  O2-  O173  1  0.42891426  0.81677171  0.76404501  1
  O2-  O174  1  0.93100413  0.31620955  0.08997789  1
  O2-  O175  1  0.93027242  0.32009950  0.43127847  1
  O2-  O176  1  0.93279042  0.31727146  0.76848120  1
  O2-  O177  1  0.93568422  0.82531893  0.09949592  1
  O2-  O178  1  0.92580327  0.82479393  0.42364940  1
  O2-  O179  1  0.92818800  0.82580849  0.75560399  1
  O2-  O180  1  0.32191960  0.06690840  0.23236074  1
  O2-  O181  1  0.32073782  0.07160580  0.57943340  1
  O2-  O182  1  0.31845000  0.07353494  0.90876801  1
  O2-  O183  1  0.31782416  0.57507623  0.23574486  1
  O2-  O184  1  0.31995572  0.57466591  0.57673871  1
  O2-  O185  1  0.31457214  0.57075716  0.89924033  1
  O2-  O186  1  0.82039944  0.06827456  0.23540620  1
  O2-  O187  1  0.82249125  0.07173420  0.57844226  1
  O2-  O188  1  0.82074251  0.06753561  0.90009586  1
  O2-  O189  1  0.82010665  0.57529004  0.24237472  1
  O2-  O190  1  0.82313881  0.56733145  0.56503028  1
  O2-  O191  1  0.82355670  0.57016597  0.90373859  1
  O2-  O192  1  0.04858060  0.07944689  0.27259880  1
  O2-  O193  1  0.04950818  0.08143266  0.60404439  1
  O2-  O194  1  0.04282243  0.08679050  0.93741509  1
  O2-  O195  1  0.04453515  0.58606350  0.25678812  1
  O2-  O196  1  0.04014083  0.58428202  0.59779027  1
  O2-  O197  1  0.05361249  0.58025970  0.94077420  1
  O2-  O198  1  0.54136187  0.07994215  0.26525943  1
  O2-  O199  1  0.54324384  0.08692024  0.60130722  1
  O2-  O200  1  0.53887799  0.08646303  0.92700459  1
  O2-  O201  1  0.54217195  0.58875392  0.27207395  1
  O2-  O202  1  0.55063224  0.58445164  0.60467333  1
  O2-  O203  1  0.54118533  0.58278263  0.93819959  1
  O2-  O204  1  0.16459500  0.20139366  0.26961449  1
  O2-  O205  1  0.16820203  0.19961848  0.60638461  1
  O2-  O206  1  0.16600902  0.20149702  0.93569274  1
  O2-  O207  1  0.16609518  0.71631813  0.26136274  1
  O2-  O208  1  0.16373086  0.71442298  0.59812876  1
  O2-  O209  1  0.16155941  0.71063591  0.93410090  1
  O2-  O210  1  0.66780124  0.20864143  0.26660935  1
  O2-  O211  1  0.66774849  0.19898246  0.60449815  1
  O2-  O212  1  0.66844306  0.21078471  0.92913515  1
  O2-  O213  1  0.66378408  0.70595985  0.26956966  1
  O2-  O214  1  0.66689136  0.70783470  0.60386656  1
  O2-  O215  1  0.66610529  0.69689844  0.93915872  1
  O2-  O216  1  0.08366753  0.44841785  0.06497922  1
  O2-  O217  1  0.08256989  0.46151766  0.39143599  1
  O2-  O218  1  0.08676013  0.46304720  0.73530542  1
  O2-  O219  1  0.08977909  0.95995845  0.06411465  1
  O2-  O220  1  0.08551468  0.94976565  0.39773033  1
  O2-  O221  1  0.08427627  0.95818299  0.73684010  1
  O2-  O222  1  0.58052808  0.45419652  0.06908636  1
  O2-  O223  1  0.58558608  0.46380859  0.40254788  1
  O2-  O224  1  0.57931139  0.45581847  0.73638851  1
  O2-  O225  1  0.58036801  0.95677676  0.06002726  1
  O2-  O226  1  0.58392067  0.95211981  0.39588832  1
  O2-  O227  1  0.58254535  0.96334836  0.73518475  1
  O2-  O228  1  0.20110013  0.32923432  0.06452914  1
  O2-  O229  1  0.19221369  0.33301026  0.39288579  1
  O2-  O230  1  0.20685950  0.33155182  0.73358203  1
  O2-  O231  1  0.20723229  0.83791942  0.06328330  1
  O2-  O232  1  0.20941585  0.83620628  0.39555258  1
  O2-  O233  1  0.21345662  0.83283456  0.73574162  1
  O2-  O234  1  0.71270354  0.33083596  0.06866268  1
  O2-  O235  1  0.71135323  0.33394022  0.40221136  1
  O2-  O236  1  0.70634161  0.32808148  0.73346228  1
  O2-  O237  1  0.69378170  0.83253056  0.05918452  1
  O2-  O238  1  0.70254734  0.83212290  0.39708932  1
  O2-  O239  1  0.70365571  0.83404161  0.73779685  1
  O2-  O240  1  0.45567650  0.42497028  0.26866400  1
  O2-  O241  1  0.45493161  0.42187162  0.60156332  1
  O2-  O242  1  0.44795668  0.41871980  0.94062060  1
  O2-  O243  1  0.45676412  0.91217659  0.27147268  1
  O2-  O244  1  0.46108970  0.91773074  0.59872563  1
  O2-  O245  1  0.45520050  0.91578703  0.92895029  1
  O2-  O246  1  0.96032247  0.41293341  0.25934227  1
  O2-  O247  1  0.96387671  0.41436959  0.60043560  1
  O2-  O248  1  0.95676304  0.41268766  0.93971133  1
  O2-  O249  1  0.95589479  0.91728044  0.27267834  1
  O2-  O250  1  0.95447191  0.91803722  0.60459940  1
  O2-  O251  1  0.96487103  0.91539305  0.93061524  1
  O2-  O252  1  0.32588950  0.30014522  0.26687330  1
  O2-  O253  1  0.33303138  0.29024968  0.59958582  1
  O2-  O254  1  0.33276923  0.29412250  0.93746916  1
  O2-  O255  1  0.33842578  0.79220346  0.27151169  1
  O2-  O256  1  0.33408628  0.79073447  0.59506537  1
  O2-  O257  1  0.33195729  0.78632190  0.93368738  1
  O2-  O258  1  0.83327953  0.28524366  0.26458083  1
  O2-  O259  1  0.83457044  0.28741530  0.60040816  1
  O2-  O260  1  0.84092264  0.28723205  0.93726290  1
  O2-  O261  1  0.83245780  0.80183258  0.27088732  1
  O2-  O262  1  0.82984957  0.80409028  0.60648398  1
  O2-  O263  1  0.82818364  0.79865881  0.93520981  1
  O2-  O264  1  0.41417225  0.04190469  0.05856531  1
  O2-  O265  1  0.41644059  0.03872263  0.40245469  1
  O2-  O266  1  0.41668983  0.04728467  0.72925486  1
  O2-  O267  1  0.41398286  0.54433644  0.06877672  1
  O2-  O268  1  0.41707033  0.54757327  0.40478590  1
  O2-  O269  1  0.41728551  0.55372431  0.72737884  1
  O2-  O270  1  0.91746375  0.03801620  0.06759783  1
  O2-  O271  1  0.91684368  0.04221469  0.40482816  1
  O2-  O272  1  0.91814488  0.05004618  0.72901109  1
  O2-  O273  1  0.92309413  0.54700982  0.06829999  1
  O2-  O274  1  0.92066520  0.54812468  0.38676846  1
  O2-  O275  1  0.91989706  0.54035932  0.73393106  1
  O2-  O276  1  0.29314429  0.16189397  0.06294077  1
  O2-  O277  1  0.29178834  0.16947780  0.39971038  1
  O2-  O278  1  0.29583559  0.16481102  0.73285740  1
  O2-  O279  1  0.28368766  0.66545980  0.06833981  1
  O2-  O280  1  0.28562180  0.66762548  0.40224754  1
  O2-  O281  1  0.29095507  0.66565532  0.72782057  1
  O2-  O282  1  0.78861231  0.16394205  0.06652004  1
  O2-  O283  1  0.78745236  0.16516157  0.40388738  1
  O2-  O284  1  0.79507893  0.16397881  0.73124161  1
  O2-  O285  1  0.79669724  0.67344574  0.06934223  1
  O2-  O286  1  0.80000701  0.66787500  0.39362650  1
  O2-  O287  1  0.79773584  0.66982403  0.73097815  1
