# generated using pymatgen
data_Ca2Al2SiO7
_symmetry_space_group_name_H-M   'P 1'
_cell_length_a   15.46313178
_cell_length_b   15.46280216
_cell_length_c   15.28759219
_cell_angle_alpha   89.99653296
_cell_angle_beta   89.99478733
_cell_angle_gamma   90.01414566
_symmetry_Int_Tables_number   1
_chemical_formula_structural   Ca2Al2SiO7
_chemical_formula_sum   'Ca48 Al48 Si24 O168'
_cell_volume   3655.31433337
_cell_formula_units_Z   24
loop_
 _symmetry_equiv_pos_site_id
 _symmetry_equiv_pos_as_xyz
  1  'x, y, z'
loop_
 _atom_type_symbol
 _atom_type_oxidation_number
  Ca2+  2.0
  Al0+  0.0
  Si0+  0.0
  O2-  -2.0
loop_
 _atom_site_type_symbol
 _atom_site_label
 _atom_site_symmetry_multiplicity
 _atom_site_fract_x
 _atom_site_fract_y
 _atom_site_fract_z
 _atom_site_occupancy
  Ca2+  Ca0  1  0.18196301  0.08773714  0.16953274  1
  Ca2+  Ca1  1  0.17370699  0.07935957  0.50400253  1
  Ca2+  Ca2  1  0.17163081  0.07786627  0.83577620  1
  Ca2+  Ca3  1  0.17609756  0.57307912  0.17724855  1
  Ca2+  Ca4  1  0.17787059  0.58246165  0.50466038  1
  Ca2+  Ca5  1  0.17456475  0.59159058  0.83282122  1
  Ca2+  Ca6  1  0.66879965  0.09220945  0.16495312  1
  Ca2+  Ca7  1  0.67222839  0.07386518  0.51195682  1
  Ca2+  Ca8  1  0.67100950  0.08008835  0.83790812  1
  Ca2+  Ca9  1  0.66653715  0.57455421  0.17133204  1
  Ca2+  Ca10  1  0.65727872  0.57565563  0.50285563  1
  Ca2+  Ca11  1  0.66353174  0.57609248  0.83884412  1
  Ca2+  Ca12  1  0.07702793  0.33937183  0.16100474  1
  Ca2+  Ca13  1  0.08263918  0.33609476  0.49473316  1
  Ca2+  Ca14  1  0.07244082  0.33280995  0.83166372  1
  Ca2+  Ca15  1  0.08068303  0.82964792  0.16355139  1
  Ca2+  Ca16  1  0.08372017  0.83140448  0.50488174  1
  Ca2+  Ca17  1  0.07811608  0.83005872  0.81978330  1
  Ca2+  Ca18  1  0.57511604  0.33627042  0.15911413  1
  Ca2+  Ca19  1  0.57530042  0.34174997  0.49773734  1
  Ca2+  Ca20  1  0.57719672  0.33741191  0.82990129  1
  Ca2+  Ca21  1  0.58585136  0.81822814  0.16245904  1
  Ca2+  Ca22  1  0.59360563  0.82003007  0.49823629  1
  Ca2+  Ca23  1  0.59056086  0.82114285  0.82749437  1
  Ca2+  Ca24  1  0.33317251  0.41440493  0.17660111  1
  Ca2+  Ca25  1  0.34022591  0.42486819  0.50167960  1
  Ca2+  Ca26  1  0.33855953  0.41611306  0.83202219  1
  Ca2+  Ca27  1  0.34334130  0.93190818  0.16835890  1
  Ca2+  Ca28  1  0.33221957  0.92343863  0.50676456  1
  Ca2+  Ca29  1  0.32580383  0.91660086  0.83821475  1
  Ca2+  Ca30  1  0.82264065  0.42303801  0.16971046  1
  Ca2+  Ca31  1  0.81860043  0.42333676  0.50363024  1
  Ca2+  Ca32  1  0.82007911  0.41990643  0.84427203  1
  Ca2+  Ca33  1  0.83177874  0.92352030  0.16575646  1
  Ca2+  Ca34  1  0.83070961  0.92095546  0.51190204  1
  Ca2+  Ca35  1  0.83412685  0.92330431  0.83157117  1
  Ca2+  Ca36  1  0.41850822  0.17527349  0.15716409  1
  Ca2+  Ca37  1  0.41351109  0.17802079  0.49297434  1
  Ca2+  Ca38  1  0.41877932  0.17575312  0.83318351  1
  Ca2+  Ca39  1  0.42945920  0.65602129  0.16608836  1
  Ca2+  Ca40  1  0.42421997  0.65930287  0.49730526  1
  Ca2+  Ca41  1  0.42870172  0.66097265  0.82613060  1
  Ca2+  Ca42  1  0.91759521  0.17552101  0.15628590  1
  Ca2+  Ca43  1  0.91662841  0.16454829  0.49887572  1
  Ca2+  Ca44  1  0.90477659  0.16931510  0.83215742  1
  Ca2+  Ca45  1  0.91283622  0.65909973  0.16172441  1
  Ca2+  Ca46  1  0.91482229  0.67090290  0.49691933  1
  Ca2+  Ca47  1  0.92136402  0.66982738  0.82378418  1
  Al0+  Al48  1  -0.00048905  -0.00187042  0.00528324  1
  Al0+  Al49  1  0.00052665  -0.00029007  0.32986033  1
  Al0+  Al50  1  0.00231775  0.00118587  0.66972394  1
  Al0+  Al51  1  0.00070817  0.49976647  -0.00389050  1
  Al0+  Al52  1  -0.00096575  0.50109613  0.33972416  1
  Al0+  Al53  1  0.00189806  0.49825084  0.66065375  1
  Al0+  Al54  1  0.49828471  -0.00135275  0.00003424  1
  Al0+  Al55  1  0.50167894  0.00009007  0.33886532  1
  Al0+  Al56  1  0.50180819  0.00109693  0.67280718  1
  Al0+  Al57  1  0.49887470  0.50044675  -0.00441017  1
  Al0+  Al58  1  0.49941767  0.49908345  0.33059332  1
  Al0+  Al59  1  0.49828806  0.50025004  0.66762216  1
  Al0+  Al60  1  0.24863475  0.24849370  -0.00200261  1
  Al0+  Al61  1  0.24868534  0.24758140  0.33723645  1
  Al0+  Al62  1  0.24872613  0.25266795  0.66259150  1
  Al0+  Al63  1  0.24893493  0.74890277  0.00384232  1
  Al0+  Al64  1  0.24836711  0.75188792  0.33265383  1
  Al0+  Al65  1  0.25126841  0.75049404  0.67092783  1
  Al0+  Al66  1  0.74893315  0.24925512  0.00147093  1
  Al0+  Al67  1  0.75121020  0.25089106  0.33783289  1
  Al0+  Al68  1  0.74816509  0.25126012  0.67124553  1
  Al0+  Al69  1  0.75207921  0.75110087  -0.00197117  1
  Al0+  Al70  1  0.75154827  0.75202308  0.32851659  1
  Al0+  Al71  1  0.75173527  0.74992262  0.66114820  1
  Al0+  Al72  1  0.42977898  0.31821014  0.32001739  1
  Al0+  Al73  1  0.82152802  0.07139769  0.68154473  1
  Al0+  Al74  1  0.57002578  0.68038663  0.65266200  1
  Al0+  Al75  1  0.32026273  0.07027025  0.01221937  1
  Al0+  Al76  1  0.67847651  0.92540062  0.68243724  1
  Al0+  Al77  1  0.56978610  0.68023818  0.31850677  1
  Al0+  Al78  1  0.42701705  0.32105167  0.98361124  1
  Al0+  Al79  1  0.17778590  0.42752561  0.34818043  1
  Al0+  Al80  1  0.18236313  0.93044545  0.67971248  1
  Al0+  Al81  1  0.67812469  0.43211015  0.68212733  1
  Al0+  Al82  1  0.57168864  0.17649991  0.98471095  1
  Al0+  Al83  1  0.92919131  0.32099521  0.98714264  1
  Al0+  Al84  1  0.82057385  0.57409069  0.34953031  1
  Al0+  Al85  1  0.67608947  0.42954946  0.01537971  1
  Al0+  Al86  1  0.82266713  0.57190368  0.01197385  1
  Al0+  Al87  1  0.42975881  0.31885650  0.65037564  1
  Al0+  Al88  1  0.31909610  0.56942875  0.68177222  1
  Al0+  Al89  1  0.57102862  0.68036178  0.98566304  1
  Al0+  Al90  1  0.07441976  0.67745862  0.64974954  1
  Al0+  Al91  1  0.67825026  0.42898634  0.34916306  1
  Al0+  Al92  1  0.32152894  0.57161096  0.34734905  1
  Al0+  Al93  1  0.32229650  0.06985240  0.34801148  1
  Al0+  Al94  1  0.81991788  0.07060765  0.01564970  1
  Al0+  Al95  1  0.93105670  0.82145646  0.65075334  1
  Si0+  Si96  1  0.07092219  0.17614644  0.98343376  1
  Si0+  Si97  1  0.82249094  0.07088516  0.34703619  1
  Si0+  Si98  1  0.92983562  0.82233762  0.31475880  1
  Si0+  Si99  1  0.32005478  0.57114352  0.01513577  1
  Si0+  Si100  1  0.07067176  0.18041900  0.65102082  1
  Si0+  Si101  1  0.93055115  0.82264109  0.98444958  1
  Si0+  Si102  1  0.42608242  0.82138530  0.98429669  1
  Si0+  Si103  1  0.57338295  0.17698572  0.64975907  1
  Si0+  Si104  1  0.17544689  0.92911857  0.34972863  1
  Si0+  Si105  1  0.17867045  0.42877506  0.01185325  1
  Si0+  Si106  1  0.57416346  0.17541939  0.31927763  1
  Si0+  Si107  1  0.68079697  0.92922621  0.34668243  1
  Si0+  Si108  1  0.17571313  0.42627468  0.68547464  1
  Si0+  Si109  1  0.17788591  0.92589954  0.01931653  1
  Si0+  Si110  1  0.67739630  0.92666792  0.01781937  1
  Si0+  Si111  1  0.07165287  0.67898700  0.98600667  1
  Si0+  Si112  1  0.92887640  0.32134009  0.31945493  1
  Si0+  Si113  1  0.42587549  0.82523119  0.31757246  1
  Si0+  Si114  1  0.82481479  0.57114453  0.68148272  1
  Si0+  Si115  1  0.07099220  0.67860191  0.31687636  1
  Si0+  Si116  1  0.06933671  0.17731203  0.31754055  1
  Si0+  Si117  1  0.42778600  0.82492041  0.65249986  1
  Si0+  Si118  1  0.32255529  0.07611048  0.68360746  1
  Si0+  Si119  1  0.92595853  0.32061546  0.65022739  1
  O2-  O120  1  0.24720093  -0.00555993  0.06185353  1
  O2-  O121  1  0.24933719  -0.00761371  0.39288862  1
  O2-  O122  1  0.25922140  0.00224447  0.72736780  1
  O2-  O123  1  0.25234607  0.49609591  0.05513610  1
  O2-  O124  1  0.25067429  0.49848321  0.39771291  1
  O2-  O125  1  0.24140510  0.49754917  0.72951864  1
  O2-  O126  1  0.74167563  -0.00040033  0.06326949  1
  O2-  O127  1  0.74912340  0.00309132  0.38830481  1
  O2-  O128  1  0.74912122  -0.00046951  0.73086133  1
  O2-  O129  1  0.74896764  0.50254980  0.06304843  1
  O2-  O130  1  0.74639852  0.50498671  0.39938011  1
  O2-  O131  1  0.75574226  0.50461146  0.72720687  1
  O2-  O132  1  0.00133592  0.25153672  0.27621667  1
  O2-  O133  1  -0.00209028  0.24968308  0.60840249  1
  O2-  O134  1  -0.00047947  0.24173870  0.93908002  1
  O2-  O135  1  -0.00149937  0.74825789  0.27335603  1
  O2-  O136  1  -0.00014605  0.74687806  0.59907595  1
  O2-  O137  1  -0.00011177  0.74916133  0.94459487  1
  O2-  O138  1  0.50526511  0.24348921  0.27499376  1
  O2-  O139  1  0.50262977  0.24209970  0.60381849  1
  O2-  O140  1  0.50238753  0.25139813  0.93493433  1
  O2-  O141  1  0.49100900  0.75299599  0.27331465  1
  O2-  O142  1  0.49937183  0.76026877  0.60703033  1
  O2-  O143  1  0.49581713  0.75508050  0.93932051  1
  O2-  O144  1  0.07198576  0.17858525  0.08936485  1
  O2-  O145  1  0.06552144  0.17247274  0.42259298  1
  O2-  O146  1  0.07368001  0.18229735  0.75595638  1
  O2-  O147  1  0.07348023  0.68004130  0.09136032  1
  O2-  O148  1  0.07256653  0.68149007  0.42117963  1
  O2-  O149  1  0.07268620  0.68037429  0.76419236  1
  O2-  O150  1  0.56773274  0.17673896  0.09898390  1
  O2-  O151  1  0.57421988  0.17231187  0.42465421  1
  O2-  O152  1  0.57361676  0.17775937  0.75495474  1
  O2-  O153  1  0.56958962  0.68057239  0.09906307  1
  O2-  O154  1  0.57047995  0.68290144  0.43135650  1
  O2-  O155  1  0.56843455  0.67961662  0.76579048  1
  O2-  O156  1  0.17601598  0.42957709  0.23371617  1
  O2-  O157  1  0.17650480  0.42355676  0.58028207  1
  O2-  O158  1  0.17631301  0.43085154  0.90704254  1
  O2-  O159  1  0.17086887  0.93200812  0.24417079  1
  O2-  O160  1  0.18309845  0.93385821  0.56638248  1
  O2-  O161  1  0.17759063  0.92413522  0.91396161  1
  O2-  O162  1  0.68021171  0.42619593  0.23596044  1
  O2-  O163  1  0.67849581  0.43237292  0.56905172  1
  O2-  O164  1  0.67659717  0.43252943  0.90171448  1
  O2-  O165  1  0.68248524  0.92849944  0.24154115  1
  O2-  O166  1  0.68032365  0.92777373  0.56799017  1
  O2-  O167  1  0.68111281  0.92416821  0.91282599  1
  O2-  O168  1  0.42309696  0.31967781  0.09729600  1
  O2-  O169  1  0.43031997  0.31746352  0.43301712  1
  O2-  O170  1  0.42859675  0.31696483  0.76315907  1
  O2-  O171  1  0.42562479  0.82048392  0.09009370  1
  O2-  O172  1  0.42673542  0.82863803  0.42279922  1
  O2-  O173  1  0.42599851  0.82213984  0.75813134  1
  O2-  O174  1  0.93409451  0.32145700  0.10066804  1
  O2-  O175  1  0.92871357  0.31672159  0.42461703  1
  O2-  O176  1  0.92748209  0.32077211  0.75532301  1
  O2-  O177  1  0.93288821  0.82522699  0.09001411  1
  O2-  O178  1  0.93138793  0.82760790  0.41904206  1
  O2-  O179  1  0.93378547  0.82172936  0.76468191  1
  O2-  O180  1  0.32085044  0.06988291  0.23476345  1
  O2-  O181  1  0.31906502  0.07573082  0.57771307  1
  O2-  O182  1  0.31512049  0.06851745  0.89943172  1
  O2-  O183  1  0.31914720  0.57008688  0.23306432  1
  O2-  O184  1  0.32025750  0.56810833  0.56901860  1
  O2-  O185  1  0.31690534  0.57598100  0.91036896  1
  O2-  O186  1  0.82417257  0.07025758  0.24206339  1
  O2-  O187  1  0.82125857  0.07035620  0.56690277  1
  O2-  O188  1  0.82435632  0.06529382  0.90361818  1
  O2-  O189  1  0.82162750  0.57063295  0.23594791  1
  O2-  O190  1  0.82475840  0.56832408  0.57595571  1
  O2-  O191  1  0.82590840  0.57085017  0.89862209  1
  O2-  O192  1  0.03889496  0.08768459  0.26665635  1
  O2-  O193  1  0.04393301  0.08878444  0.60305304  1
  O2-  O194  1  0.04810769  0.08024125  0.94130932  1
  O2-  O195  1  0.04353850  0.58568162  0.27099345  1
  O2-  O196  1  0.05285346  0.57684956  0.59837816  1
  O2-  O197  1  0.04713058  0.58788099  0.93665312  1
  O2-  O198  1  0.55057392  0.08097371  0.27330352  1
  O2-  O199  1  0.55167697  0.08085130  0.60600389  1
  O2-  O200  1  0.54178506  0.07765524  0.93246742  1
  O2-  O201  1  0.53956797  0.58392042  0.26389072  1
  O2-  O202  1  0.53225635  0.58612725  0.59932115  1
  O2-  O203  1  0.53775761  0.58566487  0.93090005  1
  O2-  O204  1  0.16234018  0.20216666  0.27174990  1
  O2-  O205  1  0.16057132  0.20984358  0.60025101  1
  O2-  O206  1  0.16212710  0.20422847  0.93470163  1
  O2-  O207  1  0.16176599  0.70812103  0.26661028  1
  O2-  O208  1  0.17187793  0.71193949  0.59848213  1
  O2-  O209  1  0.16321512  0.70908378  0.93872861  1
  O2-  O210  1  0.66918563  0.20114143  0.27497721  1
  O2-  O211  1  0.66682670  0.20419789  0.60361327  1
  O2-  O212  1  0.67263226  0.19760182  0.93505444  1
  O2-  O213  1  0.66533326  0.71566563  0.26396600  1
  O2-  O214  1  0.66726150  0.70666177  0.59756183  1
  O2-  O215  1  0.66804350  0.71176920  0.93280576  1
  O2-  O216  1  0.08894067  0.46048319  0.06108916  1
  O2-  O217  1  0.08073588  0.45635501  0.40281288  1
  O2-  O218  1  0.08006846  0.44804854  0.72937505  1
  O2-  O219  1  0.08504275  0.95139991  0.06664598  1
  O2-  O220  1  0.08425822  0.96147262  0.39724575  1
  O2-  O221  1  0.08809813  0.96444569  0.73581567  1
  O2-  O222  1  0.57721533  0.45992709  0.06680482  1
  O2-  O223  1  0.57945365  0.45715003  0.39985174  1
  O2-  O224  1  0.58300287  0.46526748  0.73576173  1
  O2-  O225  1  0.58142093  0.94535448  0.06145510  1
  O2-  O226  1  0.58924049  0.95218595  0.39614727  1
  O2-  O227  1  0.57957477  0.95028610  0.73663382  1
  O2-  O228  1  0.20057592  0.33516971  0.05828711  1
  O2-  O229  1  0.19949427  0.32748824  0.39976957  1
  O2-  O230  1  0.20423894  0.33349587  0.73191431  1
  O2-  O231  1  0.20317543  0.83259063  0.06731444  1
  O2-  O232  1  0.19471657  0.83362025  0.39307964  1
  O2-  O233  1  0.20990827  0.83476540  0.73674031  1
  O2-  O234  1  0.70333605  0.33064773  0.06655152  1
  O2-  O235  1  0.71031573  0.33170594  0.40408907  1
  O2-  O236  1  0.70725685  0.33497653  0.73468400  1
  O2-  O237  1  0.71086155  0.83616399  0.06619772  1
  O2-  O238  1  0.71347327  0.83954090  0.39405200  1
  O2-  O239  1  0.71021845  0.82739039  0.73377703  1
  O2-  O240  1  0.45740781  0.41500955  0.26517186  1
  O2-  O241  1  0.46353236  0.41526076  0.59886568  1
  O2-  O242  1  0.45212150  0.42015399  0.93098122  1
  O2-  O243  1  0.45810667  0.91739093  0.27065513  1
  O2-  O244  1  0.44807158  0.92146958  0.60922748  1
  O2-  O245  1  0.44631109  0.91572089  0.93854605  1
  O2-  O246  1  0.95636959  0.41403825  0.27407248  1
  O2-  O247  1  0.95437905  0.41108090  0.60082445  1
  O2-  O248  1  0.96546800  0.41432113  0.92968499  1
  O2-  O249  1  0.96215133  0.91253078  0.26467881  1
  O2-  O250  1  0.96377250  0.92011253  0.59903747  1
  O2-  O251  1  0.96198670  0.91322572  0.93704644  1
  O2-  O252  1  0.33108102  0.28687399  0.26921112  1
  O2-  O253  1  0.33176351  0.29101821  0.59661488  1
  O2-  O254  1  0.32884516  0.28973858  0.93030536  1
  O2-  O255  1  0.32997913  0.80699669  0.27207623  1
  O2-  O256  1  0.33525126  0.79757751  0.60577740  1
  O2-  O257  1  0.33161240  0.79388813  0.93996070  1
  O2-  O258  1  0.83791807  0.29084576  0.27177850  1
  O2-  O259  1  0.83475325  0.29120791  0.60268008  1
  O2-  O260  1  0.83230480  0.29210856  0.93453956  1
  O2-  O261  1  0.83833493  0.79837098  0.26501728  1
  O2-  O262  1  0.83291990  0.79627101  0.59568859  1
  O2-  O263  1  0.83848134  0.79885891  0.93709898  1
  O2-  O264  1  0.41621177  0.03985347  0.06836506  1
  O2-  O265  1  0.41877739  0.04207579  0.40375711  1
  O2-  O266  1  0.41801564  0.05792054  0.72730923  1
  O2-  O267  1  0.41254835  0.54529012  0.06029897  1
  O2-  O268  1  0.41946267  0.54307465  0.39921198  1
  O2-  O269  1  0.41316939  0.53453313  0.73713960  1
  O2-  O270  1  0.91589170  0.03652832  0.07166555  1
  O2-  O271  1  0.91363046  0.03914538  0.39358503  1
  O2-  O272  1  0.92026501  0.04528260  0.73405885  1
  O2-  O273  1  0.92161623  0.54154856  0.06483188  1
  O2-  O274  1  0.91796249  0.54568632  0.40331923  1
  O2-  O275  1  0.91971797  0.54541878  0.72508151  1
  O2-  O276  1  0.28536880  0.16567042  0.06720774  1
  O2-  O277  1  0.28567199  0.16273303  0.40413437  1
  O2-  O278  1  0.28784458  0.16695575  0.72882220  1
  O2-  O279  1  0.28907800  0.66095265  0.06530038  1
  O2-  O280  1  0.29340051  0.67172866  0.39716050  1
  O2-  O281  1  0.29096382  0.66611566  0.73725034  1
  O2-  O282  1  0.79376267  0.16768448  0.07083680  1
  O2-  O283  1  0.80005312  0.16309748  0.39540684  1
  O2-  O284  1  0.79300371  0.16929818  0.73423580  1
  O2-  O285  1  0.80029687  0.67275535  0.06316751  1
  O2-  O286  1  0.79803180  0.67608975  0.39704251  1
  O2-  O287  1  0.80278614  0.66682057  0.72321087  1
