# generated using pymatgen
data_Ca2Al2SiO7
_symmetry_space_group_name_H-M   'P 1'
_cell_length_a   15.46504611
_cell_length_b   15.46395437
_cell_length_c   15.28739531
_cell_angle_alpha   89.98648049
_cell_angle_beta   89.99232496
_cell_angle_gamma   90.00295209
_symmetry_Int_Tables_number   1
_chemical_formula_structural   Ca2Al2SiO7
_chemical_formula_sum   'Ca48 Al48 Si24 O168'
_cell_volume   3655.99218217
_cell_formula_units_Z   24
loop_
 _symmetry_equiv_pos_site_id
 _symmetry_equiv_pos_as_xyz
  1  'x, y, z'
loop_
 _atom_type_symbol
 _atom_type_oxidation_number
  Ca2+  2.0
  Al0+  0.0
  Si0+  0.0
  O2-  -2.0
loop_
 _atom_site_type_symbol
 _atom_site_label
 _atom_site_symmetry_multiplicity
 _atom_site_fract_x
 _atom_site_fract_y
 _atom_site_fract_z
 _atom_site_occupancy
  Ca2+  Ca0  1  0.17972601  0.08094786  0.17262636  1
  Ca2+  Ca1  1  0.17776300  0.08038170  0.50404988  1
  Ca2+  Ca2  1  0.17860344  0.07891268  0.83928614  1
  Ca2+  Ca3  1  0.17033497  0.58214405  0.16962144  1
  Ca2+  Ca4  1  0.16328120  0.58773775  0.49759661  1
  Ca2+  Ca5  1  0.16478679  0.58046007  0.84432652  1
  Ca2+  Ca6  1  0.66671157  0.07697840  0.16941392  1
  Ca2+  Ca7  1  0.67196066  0.07141221  0.50259129  1
  Ca2+  Ca8  1  0.67516010  0.08443852  0.83992967  1
  Ca2+  Ca9  1  0.67097632  0.58331277  0.17694739  1
  Ca2+  Ca10  1  0.65801028  0.58112952  0.50131513  1
  Ca2+  Ca11  1  0.67253497  0.58617016  0.83847018  1
  Ca2+  Ca12  1  0.08396892  0.34157233  0.16667761  1
  Ca2+  Ca13  1  0.07250242  0.33476075  0.49125689  1
  Ca2+  Ca14  1  0.07860425  0.33442648  0.82850346  1
  Ca2+  Ca15  1  0.08494658  0.82061550  0.16529465  1
  Ca2+  Ca16  1  0.07909084  0.82405422  0.49202214  1
  Ca2+  Ca17  1  0.08654327  0.81897954  0.83023484  1
  Ca2+  Ca18  1  0.58499302  0.32788419  0.16355730  1
  Ca2+  Ca19  1  0.58373139  0.33037708  0.49236700  1
  Ca2+  Ca20  1  0.58357903  0.32563229  0.83333681  1
  Ca2+  Ca21  1  0.57647223  0.83242921  0.16867189  1
  Ca2+  Ca22  1  0.57912657  0.82526636  0.49294309  1
  Ca2+  Ca23  1  0.57263449  0.82689636  0.82859655  1
  Ca2+  Ca24  1  0.32347185  0.42967264  0.17464269  1
  Ca2+  Ca25  1  0.32787701  0.42750093  0.49746002  1
  Ca2+  Ca26  1  0.32294989  0.42789764  0.84541550  1
  Ca2+  Ca27  1  0.34709318  0.92418322  0.16986255  1
  Ca2+  Ca28  1  0.34558015  0.92313005  0.50113580  1
  Ca2+  Ca29  1  0.34267740  0.92021671  0.83645245  1
  Ca2+  Ca30  1  0.82954420  0.42213009  0.17210804  1
  Ca2+  Ca31  1  0.83154871  0.41163741  0.49948521  1
  Ca2+  Ca32  1  0.83430236  0.42119236  0.83843863  1
  Ca2+  Ca33  1  0.83100050  0.92091348  0.17700751  1
  Ca2+  Ca34  1  0.82893201  0.91102762  0.50289306  1
  Ca2+  Ca35  1  0.83459643  0.92879059  0.84098457  1
  Ca2+  Ca36  1  0.42040836  0.16298171  0.15780523  1
  Ca2+  Ca37  1  0.41252065  0.16466358  0.49392015  1
  Ca2+  Ca38  1  0.41987618  0.15993225  0.83232395  1
  Ca2+  Ca39  1  0.41086148  0.67365349  0.16237151  1
  Ca2+  Ca40  1  0.42205497  0.67767790  0.48883693  1
  Ca2+  Ca41  1  0.41377048  0.67736710  0.82663676  1
  Ca2+  Ca42  1  0.91228908  0.17430262  0.16235661  1
  Ca2+  Ca43  1  0.90933998  0.17586886  0.49694698  1
  Ca2+  Ca44  1  0.91318764  0.17086734  0.82598337  1
  Ca2+  Ca45  1  0.92521321  0.66497110  0.16366808  1
  Ca2+  Ca46  1  0.92878206  0.66943344  0.49046797  1
  Ca2+  Ca47  1  0.92696164  0.65834718  0.83151823  1
  Al0+  Al48  1  0.00046479  0.00235719  0.00486983  1
  Al0+  Al49  1  0.00319125  0.00429042  0.33164821  1
  Al0+  Al50  1  0.00227650  0.00011110  0.67196689  1
  Al0+  Al51  1  -0.00340127  0.49972151  0.00346138  1
  Al0+  Al52  1  -0.00144375  0.49839806  0.32845173  1
  Al0+  Al53  1  -0.00207762  0.49807140  0.65801545  1
  Al0+  Al54  1  0.50256390  -0.00018374  -0.00695416  1
  Al0+  Al55  1  0.50514922  -0.00063436  0.33971020  1
  Al0+  Al56  1  0.50259986  0.00035193  0.66834163  1
  Al0+  Al57  1  0.49945336  0.49868631  0.00145503  1
  Al0+  Al58  1  0.50007210  0.49846480  0.33816600  1
  Al0+  Al59  1  0.49879990  0.49662479  0.66792429  1
  Al0+  Al60  1  0.24838898  0.24924217  0.00551469  1
  Al0+  Al61  1  0.24974449  0.25222811  0.34131306  1
  Al0+  Al62  1  0.24974410  0.24953181  0.67187679  1
  Al0+  Al63  1  0.24835526  0.75056836  -0.00719151  1
  Al0+  Al64  1  0.25027679  0.75372394  0.32848979  1
  Al0+  Al65  1  0.25029872  0.75118215  0.65704546  1
  Al0+  Al66  1  0.74955995  0.24913477  -0.00168932  1
  Al0+  Al67  1  0.75018968  0.25160352  0.33174740  1
  Al0+  Al68  1  0.74855807  0.24983564  0.66674517  1
  Al0+  Al69  1  0.74952455  0.75168925  0.00328532  1
  Al0+  Al70  1  0.75024590  0.75120644  0.33243099  1
  Al0+  Al71  1  0.74926550  0.74750764  0.66780416  1
  Al0+  Al72  1  0.06660602  0.67953756  0.98537700  1
  Al0+  Al73  1  0.92800897  0.82461484  0.31950857  1
  Al0+  Al74  1  0.06956113  0.67834037  0.65235802  1
  Al0+  Al75  1  0.43107452  0.82297068  0.31687202  1
  Al0+  Al76  1  0.43068346  0.82225938  0.64913515  1
  Al0+  Al77  1  0.32234442  0.06759386  0.01283722  1
  Al0+  Al78  1  0.82064589  0.07078547  0.67974744  1
  Al0+  Al79  1  0.92890774  0.31788941  0.65298916  1
  Al0+  Al80  1  0.17678319  0.42875373  0.01409615  1
  Al0+  Al81  1  0.81869080  0.57178155  0.01331619  1
  Al0+  Al82  1  0.17678451  0.43120098  0.35132801  1
  Al0+  Al83  1  0.92826759  0.31838135  0.31629637  1
  Al0+  Al84  1  0.56986790  0.18058930  0.98589460  1
  Al0+  Al85  1  0.57194506  0.67566581  0.65281771  1
  Al0+  Al86  1  0.43032024  0.81902239  0.98506676  1
  Al0+  Al87  1  0.32163922  0.07033275  0.68272161  1
  Al0+  Al88  1  0.68260374  0.92799501  0.34782865  1
  Al0+  Al89  1  0.32245231  0.06959650  0.34631466  1
  Al0+  Al90  1  0.07096771  0.67927130  0.31505281  1
  Al0+  Al91  1  0.32156099  0.57421624  0.01248390  1
  Al0+  Al92  1  0.32031905  0.57526447  0.34903534  1
  Al0+  Al93  1  0.67931526  0.42902737  0.34696732  1
  Al0+  Al94  1  0.82193557  0.07219798  0.01526896  1
  Al0+  Al95  1  0.57039425  0.67573538  0.31744388  1
  Si0+  Si96  1  0.17612858  0.92940807  0.35009695  1
  Si0+  Si97  1  0.17694527  0.43123950  0.68066430  1
  Si0+  Si98  1  0.92803554  0.82435498  0.65436969  1
  Si0+  Si99  1  0.17804543  0.92573683  0.68406747  1
  Si0+  Si100  1  0.42505531  0.32247957  0.98408125  1
  Si0+  Si101  1  0.67712075  0.42743749  0.68338854  1
  Si0+  Si102  1  0.07593905  0.18045832  0.31576563  1
  Si0+  Si103  1  0.17723636  0.92748760  0.01659922  1
  Si0+  Si104  1  0.67972017  0.92600536  0.68628149  1
  Si0+  Si105  1  0.67785854  0.42718179  0.01489297  1
  Si0+  Si106  1  0.07317461  0.17711358  0.98469761  1
  Si0+  Si107  1  0.82143635  0.56880131  0.67971803  1
  Si0+  Si108  1  0.57009072  0.17990412  0.31992671  1
  Si0+  Si109  1  0.07420338  0.17695933  0.65132562  1
  Si0+  Si110  1  0.32047390  0.57122135  0.68004195  1
  Si0+  Si111  1  0.92599640  0.82516315  0.98389502  1
  Si0+  Si112  1  0.42653968  0.31969443  0.65203769  1
  Si0+  Si113  1  0.57060372  0.18092798  0.65035553  1
  Si0+  Si114  1  0.92983219  0.31851996  0.98434595  1
  Si0+  Si115  1  0.67898875  0.92957337  0.01630942  1
  Si0+  Si116  1  0.42740479  0.32042850  0.31975350  1
  Si0+  Si117  1  0.57450635  0.67494590  0.98467858  1
  Si0+  Si118  1  0.82362866  0.07348408  0.34884958  1
  Si0+  Si119  1  0.82129888  0.57171910  0.35093242  1
  O2-  O120  1  0.24884916  -0.00672869  0.06084482  1
  O2-  O121  1  0.24874463  -0.00538989  0.39396836  1
  O2-  O122  1  0.24870795  -0.00681637  0.72795323  1
  O2-  O123  1  0.25132500  0.49961505  0.06085292  1
  O2-  O124  1  0.24478766  0.50714622  0.40103612  1
  O2-  O125  1  0.24600952  0.50375697  0.72347157  1
  O2-  O126  1  0.75202850  -0.00637966  0.06084359  1
  O2-  O127  1  0.76346622  -0.00218357  0.39339517  1
  O2-  O128  1  0.75111508  -0.00719633  0.72934960  1
  O2-  O129  1  0.73837979  0.50256252  0.05860676  1
  O2-  O130  1  0.75007026  0.50598282  0.39635360  1
  O2-  O131  1  0.74616032  0.50170970  0.72280299  1
  O2-  O132  1  0.00466871  0.24556260  0.26989000  1
  O2-  O133  1  0.00197606  0.24136965  0.60660331  1
  O2-  O134  1  0.00151992  0.24804037  0.94219811  1
  O2-  O135  1  -0.00198842  0.75223832  0.26746039  1
  O2-  O136  1  -0.00414748  0.75574843  0.60964093  1
  O2-  O137  1  -0.00817867  0.75463901  0.93778379  1
  O2-  O138  1  0.49690074  0.24807644  0.27707830  1
  O2-  O139  1  0.49578806  0.24746740  0.60810413  1
  O2-  O140  1  0.49377720  0.25409936  0.93820345  1
  O2-  O141  1  0.49611560  0.74465998  0.26657190  1
  O2-  O142  1  0.50092559  0.74736395  0.60203505  1
  O2-  O143  1  0.50096891  0.73851131  0.94072592  1
  O2-  O144  1  0.07357851  0.17599783  0.08926564  1
  O2-  O145  1  0.07593325  0.18140037  0.42162059  1
  O2-  O146  1  0.07540325  0.18085950  0.75720598  1
  O2-  O147  1  0.06621021  0.67946553  0.09738117  1
  O2-  O148  1  0.06779347  0.68057302  0.42914410  1
  O2-  O149  1  0.06759249  0.67496802  0.76570912  1
  O2-  O150  1  0.56972600  0.18148904  0.09913835  1
  O2-  O151  1  0.57065926  0.18186900  0.42544719  1
  O2-  O152  1  0.57242368  0.18389688  0.75552961  1
  O2-  O153  1  0.57773837  0.67620944  0.08946153  1
  O2-  O154  1  0.56908866  0.67744466  0.43111865  1
  O2-  O155  1  0.57159605  0.67611858  0.76690751  1
  O2-  O156  1  0.18119295  0.42888595  0.23819442  1
  O2-  O157  1  0.17787515  0.43039568  0.57629700  1
  O2-  O158  1  0.17561441  0.42981780  0.89924988  1
  O2-  O159  1  0.17270348  0.93312928  0.24474715  1
  O2-  O160  1  0.17364267  0.92891723  0.57899301  1
  O2-  O161  1  0.17528331  0.93030274  0.91068696  1
  O2-  O162  1  0.68283171  0.42485566  0.23401021  1
  O2-  O163  1  0.67707168  0.42367658  0.57879154  1
  O2-  O164  1  0.68123270  0.42466865  0.90872706  1
  O2-  O165  1  0.67889368  0.93452757  0.23489172  1
  O2-  O166  1  0.68041851  0.92729239  0.58079926  1
  O2-  O167  1  0.68066222  0.93153329  0.91035925  1
  O2-  O168  1  0.42694592  0.32136752  0.08943131  1
  O2-  O169  1  0.42906386  0.31796702  0.42549689  1
  O2-  O170  1  0.42854065  0.32075845  0.75714885  1
  O2-  O171  1  0.43403707  0.82329732  0.09733213  1
  O2-  O172  1  0.43636830  0.82602907  0.43009966  1
  O2-  O173  1  0.43171584  0.82080744  0.76319079  1
  O2-  O174  1  0.92769030  0.31665623  0.08891634  1
  O2-  O175  1  0.92583506  0.31451216  0.42965404  1
  O2-  O176  1  0.93045155  0.31968916  0.76654832  1
  O2-  O177  1  0.92768036  0.82546864  0.08884013  1
  O2-  O178  1  0.93073441  0.82242321  0.43400984  1
  O2-  O179  1  0.92907225  0.82436368  0.76010653  1
  O2-  O180  1  0.32321590  0.07013575  0.23315616  1
  O2-  O181  1  0.31977133  0.07295650  0.56977897  1
  O2-  O182  1  0.32077913  0.06678735  0.89962946  1
  O2-  O183  1  0.32118952  0.57118436  0.23564028  1
  O2-  O184  1  0.32178907  0.56742107  0.57566108  1
  O2-  O185  1  0.31881553  0.57274423  0.89771599  1
  O2-  O186  1  0.81870668  0.07563633  0.24331301  1
  O2-  O187  1  0.81616835  0.07234569  0.56697174  1
  O2-  O188  1  0.82008602  0.07354196  0.90173297  1
  O2-  O189  1  0.82015729  0.56861257  0.24514072  1
  O2-  O190  1  0.82337296  0.56710761  0.57532565  1
  O2-  O191  1  0.82020281  0.56708342  0.89919935  1
  O2-  O192  1  0.05546204  0.08597935  0.26994948  1
  O2-  O193  1  0.05334620  0.08125706  0.60818405  1
  O2-  O194  1  0.04541605  0.08536537  0.93653258  1
  O2-  O195  1  0.04124846  0.58096930  0.26397537  1
  O2-  O196  1  0.03542441  0.58443173  0.59613292  1
  O2-  O197  1  0.03222382  0.58251686  0.93229126  1
  O2-  O198  1  0.54437827  0.08784988  0.27372180  1
  O2-  O199  1  0.54776968  0.08723344  0.60548144  1
  O2-  O200  1  0.54128141  0.08576672  0.92767063  1
  O2-  O201  1  0.54894704  0.57371754  0.26875518  1
  O2-  O202  1  0.54598380  0.57482730  0.60373410  1
  O2-  O203  1  0.55664655  0.57824633  0.94074868  1
  O2-  O204  1  0.16874638  0.20998508  0.27015556  1
  O2-  O205  1  0.16665642  0.20638104  0.60508741  1
  O2-  O206  1  0.16467011  0.20543732  0.93601314  1
  O2-  O207  1  0.16884456  0.70894462  0.26254829  1
  O2-  O208  1  0.16526155  0.70714805  0.59693538  1
  O2-  O209  1  0.16219490  0.70999811  0.92838139  1
  O2-  O210  1  0.66013496  0.21085778  0.27137667  1
  O2-  O211  1  0.65975590  0.21374863  0.60158947  1
  O2-  O212  1  0.66532034  0.21472644  0.92949282  1
  O2-  O213  1  0.66910287  0.70613559  0.26717433  1
  O2-  O214  1  0.67216949  0.70064450  0.60127536  1
  O2-  O215  1  0.66672331  0.70594940  0.93648954  1
  O2-  O216  1  0.07940626  0.45764764  0.06685130  1
  O2-  O217  1  0.07549315  0.45491471  0.40052583  1
  O2-  O218  1  0.08356558  0.45780986  0.72613628  1
  O2-  O219  1  0.08574339  0.95581294  0.06489848  1
  O2-  O220  1  0.08484654  0.95959107  0.40008504  1
  O2-  O221  1  0.08602712  0.95142152  0.73446619  1
  O2-  O222  1  0.58115948  0.44126122  0.05797922  1
  O2-  O223  1  0.58233869  0.45235681  0.40391978  1
  O2-  O224  1  0.58450640  0.45050002  0.73242290  1
  O2-  O225  1  0.58826834  0.96362652  0.06159447  1
  O2-  O226  1  0.59145001  0.96681025  0.40705764  1
  O2-  O227  1  0.58818133  0.95724576  0.73276739  1
  O2-  O228  1  0.20115531  0.32992030  0.06731158  1
  O2-  O229  1  0.20880285  0.33472100  0.40706663  1
  O2-  O230  1  0.20532078  0.33973374  0.72908672  1
  O2-  O231  1  0.20029174  0.83262432  0.05873710  1
  O2-  O232  1  0.19741654  0.83451996  0.39378672  1
  O2-  O233  1  0.20377136  0.83081203  0.72791217  1
  O2-  O234  1  0.71114083  0.33665965  0.06187116  1
  O2-  O235  1  0.71416916  0.33328043  0.40254036  1
  O2-  O236  1  0.70927960  0.33762408  0.73251149  1
  O2-  O237  1  0.69730213  0.83474226  0.06187900  1
  O2-  O238  1  0.70923868  0.83121614  0.40400334  1
  O2-  O239  1  0.70151715  0.83111515  0.73206304  1
  O2-  O240  1  0.45744299  0.41087371  0.27274530  1
  O2-  O241  1  0.45619732  0.41030223  0.60396156  1
  O2-  O242  1  0.45060775  0.41594559  0.93601871  1
  O2-  O243  1  0.46951123  0.92023029  0.26627913  1
  O2-  O244  1  0.46244248  0.92132269  0.59956629  1
  O2-  O245  1  0.46729350  0.91283975  0.92850076  1
  O2-  O246  1  0.95546312  0.41531962  0.26269356  1
  O2-  O247  1  0.95945574  0.41203420  0.59552172  1
  O2-  O248  1  0.95699702  0.41060445  0.93721725  1
  O2-  O249  1  0.95375679  0.92532920  0.26909065  1
  O2-  O250  1  0.95235907  0.91842445  0.60850207  1
  O2-  O251  1  0.95404252  0.91943946  0.93906225  1
  O2-  O252  1  0.33504359  0.29376777  0.27419456  1
  O2-  O253  1  0.33424512  0.29243420  0.60579035  1
  O2-  O254  1  0.33098201  0.29663468  0.93873789  1
  O2-  O255  1  0.32966484  0.80632604  0.26638092  1
  O2-  O256  1  0.33148939  0.79956835  0.59626502  1
  O2-  O257  1  0.33266952  0.79440090  0.92911621  1
  O2-  O258  1  0.83271925  0.28518093  0.26112873  1
  O2-  O259  1  0.83159574  0.28755372  0.59970472  1
  O2-  O260  1  0.83867406  0.28993636  0.93546987  1
  O2-  O261  1  0.82884584  0.80047085  0.26731586  1
  O2-  O262  1  0.83376441  0.79885405  0.61026028  1
  O2-  O263  1  0.83072679  0.80324064  0.93899991  1
  O2-  O264  1  0.42082828  0.03827800  0.06325357  1
  O2-  O265  1  0.41886788  0.04097197  0.40195413  1
  O2-  O266  1  0.42051922  0.04286144  0.73451579  1
  O2-  O267  1  0.42131191  0.54867758  0.06395382  1
  O2-  O268  1  0.41613989  0.53913904  0.40323909  1
  O2-  O269  1  0.41044744  0.53910224  0.72927541  1
  O2-  O270  1  0.91987355  0.04846621  0.06934785  1
  O2-  O271  1  0.92105410  0.06002791  0.39101570  1
  O2-  O272  1  0.91968844  0.04743368  0.73378849  1
  O2-  O273  1  0.91082024  0.53435179  0.06956470  1
  O2-  O274  1  0.91353807  0.54100037  0.39596381  1
  O2-  O275  1  0.91135831  0.53422685  0.72792479  1
  O2-  O276  1  0.29309612  0.16456104  0.06609642  1
  O2-  O277  1  0.29105607  0.16535325  0.40200389  1
  O2-  O278  1  0.28977557  0.16670896  0.73812138  1
  O2-  O279  1  0.29088331  0.67238721  0.06275089  1
  O2-  O280  1  0.29631240  0.67624551  0.39857154  1
  O2-  O281  1  0.29596721  0.66594587  0.72249607  1
  O2-  O282  1  0.78620637  0.16758474  0.06792008  1
  O2-  O283  1  0.78780970  0.16329453  0.39606541  1
  O2-  O284  1  0.78457351  0.16617437  0.73436021  1
  O2-  O285  1  0.79576588  0.67037024  0.06634978  1
  O2-  O286  1  0.80108109  0.66689908  0.39487915  1
  O2-  O287  1  0.79878353  0.66151028  0.72878319  1
