# generated using pymatgen
data_Ca2Al2SiO7
_symmetry_space_group_name_H-M   'P 1'
_cell_length_a   15.46094357
_cell_length_b   15.46107343
_cell_length_c   15.28632590
_cell_angle_alpha   90.00591020
_cell_angle_beta   89.99931358
_cell_angle_gamma   90.00697570
_symmetry_Int_Tables_number   1
_chemical_formula_structural   Ca2Al2SiO7
_chemical_formula_sum   'Ca48 Al48 Si24 O168'
_cell_volume   3654.08585143
_cell_formula_units_Z   24
loop_
 _symmetry_equiv_pos_site_id
 _symmetry_equiv_pos_as_xyz
  1  'x, y, z'
loop_
 _atom_type_symbol
 _atom_type_oxidation_number
  Ca2+  2.0
  Al0+  0.0
  Si0+  0.0
  O2-  -2.0
loop_
 _atom_site_type_symbol
 _atom_site_label
 _atom_site_symmetry_multiplicity
 _atom_site_fract_x
 _atom_site_fract_y
 _atom_site_fract_z
 _atom_site_occupancy
  Ca2+  Ca0  1  0.17376959  0.07496985  0.16989886  1
  Ca2+  Ca1  1  0.16899015  0.07233350  0.51227307  1
  Ca2+  Ca2  1  0.17337165  0.07806742  0.83805010  1
  Ca2+  Ca3  1  0.16965492  0.58215700  0.16848234  1
  Ca2+  Ca4  1  0.16886206  0.58228500  0.51330133  1
  Ca2+  Ca5  1  0.16905750  0.58174844  0.82472634  1
  Ca2+  Ca6  1  0.66460704  0.08636456  0.16664897  1
  Ca2+  Ca7  1  0.67243179  0.08414209  0.51110394  1
  Ca2+  Ca8  1  0.66936794  0.09327669  0.83138645  1
  Ca2+  Ca9  1  0.66544330  0.57400834  0.17397556  1
  Ca2+  Ca10  1  0.67932369  0.57242386  0.50784885  1
  Ca2+  Ca11  1  0.66421996  0.57289981  0.83778305  1
  Ca2+  Ca12  1  0.07263266  0.33705351  0.16344675  1
  Ca2+  Ca13  1  0.07158747  0.33839331  0.50077341  1
  Ca2+  Ca14  1  0.07807012  0.32825948  0.81693827  1
  Ca2+  Ca15  1  0.08218082  0.84051769  0.16766085  1
  Ca2+  Ca16  1  0.08498117  0.83064256  0.49713161  1
  Ca2+  Ca17  1  0.09122230  0.83104898  0.82526946  1
  Ca2+  Ca18  1  0.58126257  0.33342408  0.15643590  1
  Ca2+  Ca19  1  0.59413256  0.33023266  0.50186964  1
  Ca2+  Ca20  1  0.58262446  0.32889449  0.83085658  1
  Ca2+  Ca21  1  0.57785160  0.82586801  0.16012731  1
  Ca2+  Ca22  1  0.56831287  0.83442917  0.49602470  1
  Ca2+  Ca23  1  0.57678475  0.82576427  0.82489999  1
  Ca2+  Ca24  1  0.33700299  0.41555596  0.16777993  1
  Ca2+  Ca25  1  0.32437220  0.42542399  0.51180552  1
  Ca2+  Ca26  1  0.33220783  0.41487016  0.83369190  1
  Ca2+  Ca27  1  0.32729644  0.91816275  0.17120552  1
  Ca2+  Ca28  1  0.32677725  0.91536437  0.51061873  1
  Ca2+  Ca29  1  0.32857105  0.92523832  0.83185519  1
  Ca2+  Ca30  1  0.82049040  0.41985396  0.17705472  1
  Ca2+  Ca31  1  0.83005398  0.41723501  0.50791433  1
  Ca2+  Ca32  1  0.82461507  0.41577833  0.83039169  1
  Ca2+  Ca33  1  0.83236862  0.91689745  0.17365308  1
  Ca2+  Ca34  1  0.83654164  0.92241680  0.50538288  1
  Ca2+  Ca35  1  0.83764927  0.92673275  0.83370253  1
  Ca2+  Ca36  1  0.42279162  0.17368639  0.15360900  1
  Ca2+  Ca37  1  0.42111826  0.16163393  0.50270627  1
  Ca2+  Ca38  1  0.42377471  0.16112058  0.82771601  1
  Ca2+  Ca39  1  0.42200613  0.67193258  0.16120203  1
  Ca2+  Ca40  1  0.40801902  0.67735823  0.49979970  1
  Ca2+  Ca41  1  0.41736198  0.66994409  0.82581313  1
  Ca2+  Ca42  1  0.91659728  0.17352857  0.16643892  1
  Ca2+  Ca43  1  0.91862777  0.17542968  0.50390664  1
  Ca2+  Ca44  1  0.92244883  0.17191771  0.81942445  1
  Ca2+  Ca45  1  0.91160705  0.67066229  0.16812133  1
  Ca2+  Ca46  1  0.91971412  0.66306049  0.49651702  1
  Ca2+  Ca47  1  0.92281094  0.66731148  0.82235924  1
  Al0+  Al48  1  -0.00098827  0.00118670  0.00564999  1
  Al0+  Al49  1  0.00163680  -0.00149969  0.33247008  1
  Al0+  Al50  1  -0.00121386  0.00017258  0.67155392  1
  Al0+  Al51  1  -0.00052169  0.50357706  -0.00005347  1
  Al0+  Al52  1  -0.00009497  0.49970026  0.32752227  1
  Al0+  Al53  1  -0.00056370  0.50163343  0.66624738  1
  Al0+  Al54  1  0.50111977  0.00058583  0.00002660  1
  Al0+  Al55  1  0.49980263  0.00010391  0.32647504  1
  Al0+  Al56  1  0.49939221  -0.00143894  0.66090959  1
  Al0+  Al57  1  0.49986506  0.50009808  -0.00295954  1
  Al0+  Al58  1  0.50006590  0.49818409  0.33955734  1
  Al0+  Al59  1  0.50081124  0.49972809  0.67156878  1
  Al0+  Al60  1  0.24814155  0.25044252  0.00354999  1
  Al0+  Al61  1  0.25232669  0.24845518  0.33311742  1
  Al0+  Al62  1  0.25210232  0.24791255  0.66793674  1
  Al0+  Al63  1  0.24792920  0.74914807  0.00472222  1
  Al0+  Al64  1  0.24957647  0.75072378  0.32956934  1
  Al0+  Al65  1  0.24900119  0.74946605  0.66665323  1
  Al0+  Al66  1  0.74957432  0.25239137  0.00210194  1
  Al0+  Al67  1  0.75138076  0.24881012  0.33100133  1
  Al0+  Al68  1  0.75001084  0.24886250  0.66700915  1
  Al0+  Al69  1  0.75145580  0.75143979  -0.00531676  1
  Al0+  Al70  1  0.75028522  0.74935932  0.33347494  1
  Al0+  Al71  1  0.74920879  0.74918088  0.66838943  1
  Al0+  Al72  1  0.57158373  0.67962458  0.98645640  1
  Al0+  Al73  1  0.32383796  0.07114530  0.68043148  1
  Al0+  Al74  1  0.43042470  0.81794901  0.65408402  1
  Al0+  Al75  1  0.67834949  0.42664347  0.35014663  1
  Al0+  Al76  1  0.17901221  0.92854419  0.01810787  1
  Al0+  Al77  1  0.82229352  0.57287347  0.68317359  1
  Al0+  Al78  1  0.32327831  0.07254058  0.01671216  1
  Al0+  Al79  1  0.67987600  0.42759057  0.68431641  1
  Al0+  Al80  1  0.92977033  0.32080995  0.31763766  1
  Al0+  Al81  1  0.06883977  0.68157979  0.65357573  1
  Al0+  Al82  1  0.07500319  0.17581374  0.65310102  1
  Al0+  Al83  1  0.17828878  0.42759862  0.67940002  1
  Al0+  Al84  1  0.18036264  0.92973323  0.34952019  1
  Al0+  Al85  1  0.57187595  0.17839655  0.98380989  1
  Al0+  Al86  1  0.82183490  0.57215759  0.34817304  1
  Al0+  Al87  1  0.17815206  0.92899274  0.68122212  1
  Al0+  Al88  1  0.81987385  0.06931162  0.67933922  1
  Al0+  Al89  1  0.92881625  0.82131864  0.32032975  1
  Al0+  Al90  1  0.42628369  0.32157259  0.98439846  1
  Al0+  Al91  1  0.56927352  0.18064546  0.65168313  1
  Al0+  Al92  1  0.32092773  0.57176451  0.68129877  1
  Al0+  Al93  1  0.42775037  0.82105526  0.31699185  1
  Al0+  Al94  1  0.93005923  0.32066377  0.65274151  1
  Al0+  Al95  1  0.67949979  0.43138319  0.01530188  1
  Si0+  Si96  1  0.92966547  0.32262924  0.98549441  1
  Si0+  Si97  1  0.92512107  0.82353581  0.65143655  1
  Si0+  Si98  1  0.32023488  0.56972869  0.01562519  1
  Si0+  Si99  1  0.68046281  0.92688120  0.01416696  1
  Si0+  Si100  1  0.07330887  0.17775076  0.31601547  1
  Si0+  Si101  1  0.57048050  0.67785560  0.31888634  1
  Si0+  Si102  1  0.42746144  0.32429187  0.64847805  1
  Si0+  Si103  1  0.82301034  0.57425890  0.01760499  1
  Si0+  Si104  1  0.32014880  0.57037961  0.34637724  1
  Si0+  Si105  1  0.17887636  0.42775633  0.34531697  1
  Si0+  Si106  1  0.32429050  0.07193904  0.35068300  1
  Si0+  Si107  1  0.82072945  0.06957393  0.34737605  1
  Si0+  Si108  1  0.17617798  0.42890406  0.01546321  1
  Si0+  Si109  1  0.92988648  0.82294087  0.98477927  1
  Si0+  Si110  1  0.06840960  0.17937513  0.98734865  1
  Si0+  Si111  1  0.57406339  0.67482410  0.64826022  1
  Si0+  Si112  1  0.67614929  0.92776635  0.68181042  1
  Si0+  Si113  1  0.07139161  0.67948322  0.98403980  1
  Si0+  Si114  1  0.07216714  0.67747081  0.31409960  1
  Si0+  Si115  1  0.42846974  0.32153502  0.31988307  1
  Si0+  Si116  1  0.82010086  0.07160586  0.01706425  1
  Si0+  Si117  1  0.67729540  0.92850420  0.34614897  1
  Si0+  Si118  1  0.57166438  0.17960878  0.31773426  1
  Si0+  Si119  1  0.42658193  0.82097342  0.98325339  1
  O2-  O120  1  0.25361710  -0.00166487  0.06756886  1
  O2-  O121  1  0.25595850  0.00351628  0.39463519  1
  O2-  O122  1  0.24599565  0.00534778  0.72974992  1
  O2-  O123  1  0.25094336  0.49637023  0.05807056  1
  O2-  O124  1  0.24804499  0.50014012  0.38708917  1
  O2-  O125  1  0.25381865  0.49508109  0.73142345  1
  O2-  O126  1  0.74789116  0.00101535  0.05835680  1
  O2-  O127  1  0.74927233  -0.00170599  0.38851063  1
  O2-  O128  1  0.74752277  -0.00718642  0.72733729  1
  O2-  O129  1  0.75333794  0.50719888  0.06208507  1
  O2-  O130  1  0.75283965  0.49728812  0.39729111  1
  O2-  O131  1  0.74823136  0.50371211  0.73367231  1
  O2-  O132  1  0.00688371  0.24833252  0.26986709  1
  O2-  O133  1  0.00618190  0.25154213  0.60356181  1
  O2-  O134  1  0.00228222  0.25378802  0.94399212  1
  O2-  O135  1  0.00173422  0.74555918  0.27121840  1
  O2-  O136  1  -0.00756268  0.75422477  0.60690505  1
  O2-  O137  1  0.00216626  0.75322585  0.94394982  1
  O2-  O138  1  0.50093284  0.25184829  0.27776049  1
  O2-  O139  1  0.49610809  0.25589784  0.60286664  1
  O2-  O140  1  0.49492560  0.24589142  0.93555391  1
  O2-  O141  1  0.50291195  0.74619137  0.27141384  1
  O2-  O142  1  0.50420589  0.74274233  0.60476362  1
  O2-  O143  1  0.49721986  0.75444277  0.93946083  1
  O2-  O144  1  0.06481779  0.18022987  0.09296143  1
  O2-  O145  1  0.07246475  0.17840382  0.42082791  1
  O2-  O146  1  0.06976987  0.17622382  0.76751078  1
  O2-  O147  1  0.07073698  0.67576512  0.08923877  1
  O2-  O148  1  0.07504990  0.67651946  0.41908304  1
  O2-  O149  1  0.06939022  0.68331914  0.76718346  1
  O2-  O150  1  0.57397561  0.18169097  0.09831363  1
  O2-  O151  1  0.57211892  0.17655797  0.42241844  1
  O2-  O152  1  0.56961638  0.18036202  0.76411736  1
  O2-  O153  1  0.56953635  0.68141707  0.10032987  1
  O2-  O154  1  0.56849450  0.68031852  0.42391942  1
  O2-  O155  1  0.57418739  0.67832563  0.75415991  1
  O2-  O156  1  0.18073721  0.42887053  0.23945918  1
  O2-  O157  1  0.17865605  0.43202747  0.56500860  1
  O2-  O158  1  0.17204055  0.43058718  0.91134760  1
  O2-  O159  1  0.18098973  0.93229723  0.23633833  1
  O2-  O160  1  0.18022228  0.92720197  0.56747578  1
  O2-  O161  1  0.17660649  0.92890361  0.90548248  1
  O2-  O162  1  0.67610602  0.42826348  0.23607400  1
  O2-  O163  1  0.68303449  0.42734768  0.57064232  1
  O2-  O164  1  0.68202521  0.42966546  0.90323748  1
  O2-  O165  1  0.67811219  0.93020548  0.24052362  1
  O2-  O166  1  0.67645150  0.93019952  0.57567514  1
  O2-  O167  1  0.68474210  0.92328014  0.90971836  1
  O2-  O168  1  0.42957921  0.32277493  0.09928200  1
  O2-  O169  1  0.42406024  0.32124391  0.42412478  1
  O2-  O170  1  0.42830744  0.32429428  0.75372794  1
  O2-  O171  1  0.42806954  0.81774393  0.08942665  1
  O2-  O172  1  0.42823240  0.82046162  0.42974855  1
  O2-  O173  1  0.43296369  0.81724212  0.76733152  1
  O2-  O174  1  0.93086070  0.32123432  0.09110926  1
  O2-  O175  1  0.92975547  0.31986302  0.42973382  1
  O2-  O176  1  0.92971183  0.31809686  0.76694815  1
  O2-  O177  1  0.92794839  0.82208799  0.09008439  1
  O2-  O178  1  0.93002632  0.82407547  0.43250247  1
  O2-  O179  1  0.92553057  0.82328460  0.75746878  1
  O2-  O180  1  0.32371450  0.07299856  0.24508739  1
  O2-  O181  1  0.32622560  0.06564705  0.56651200  1
  O2-  O182  1  0.32119505  0.07118778  0.90387646  1
  O2-  O183  1  0.32128886  0.56829104  0.24064714  1
  O2-  O184  1  0.31720738  0.57265709  0.56692767  1
  O2-  O185  1  0.31779737  0.57286116  0.91138121  1
  O2-  O186  1  0.81886926  0.06981800  0.24156452  1
  O2-  O187  1  0.81848094  0.06840394  0.56569540  1
  O2-  O188  1  0.82313525  0.07051473  0.91248889  1
  O2-  O189  1  0.81791760  0.57234387  0.23392016  1
  O2-  O190  1  0.82165165  0.57308034  0.56970214  1
  O2-  O191  1  0.82587216  0.57316242  0.91274701  1
  O2-  O192  1  0.04336491  0.08590983  0.26849631  1
  O2-  O193  1  0.03944080  0.07909767  0.60056072  1
  O2-  O194  1  0.03601976  0.08855443  0.94140594  1
  O2-  O195  1  0.04878168  0.58433103  0.26488911  1
  O2-  O196  1  0.04072485  0.58512995  0.59845855  1
  O2-  O197  1  0.04155834  0.58872671  0.93562792  1
  O2-  O198  1  0.54438753  0.08858652  0.26751356  1
  O2-  O199  1  0.53949513  0.08420743  0.59561490  1
  O2-  O200  1  0.55188979  0.07662381  0.93369822  1
  O2-  O201  1  0.54210335  0.58360673  0.27427870  1
  O2-  O202  1  0.54994154  0.58046246  0.60423093  1
  O2-  O203  1  0.53952619  0.58468584  0.93236114  1
  O2-  O204  1  0.16817364  0.20182362  0.27036194  1
  O2-  O205  1  0.17548865  0.19623853  0.60144690  1
  O2-  O206  1  0.16207506  0.20246863  0.94353002  1
  O2-  O207  1  0.16450355  0.70510732  0.26549254  1
  O2-  O208  1  0.16432417  0.71268386  0.59784956  1
  O2-  O209  1  0.16419594  0.70551440  0.93838587  1
  O2-  O210  1  0.66356787  0.20496785  0.26907240  1
  O2-  O211  1  0.66613883  0.21036936  0.59729666  1
  O2-  O212  1  0.67065396  0.21053772  0.93345037  1
  O2-  O213  1  0.66374849  0.70309783  0.27192586  1
  O2-  O214  1  0.66735620  0.70223236  0.60241087  1
  O2-  O215  1  0.66778557  0.71040195  0.93169354  1
  O2-  O216  1  0.08652540  0.46358019  0.06536803  1
  O2-  O217  1  0.08594438  0.45360425  0.38942597  1
  O2-  O218  1  0.08241207  0.46034978  0.73374848  1
  O2-  O219  1  0.08062766  0.96082504  0.07149436  1
  O2-  O220  1  0.08257311  0.95944492  0.40094769  1
  O2-  O221  1  0.07877240  0.95111774  0.73428729  1
  O2-  O222  1  0.58155127  0.46185339  0.06779679  1
  O2-  O223  1  0.58007514  0.45352476  0.40405104  1
  O2-  O224  1  0.58037181  0.45243227  0.73585123  1
  O2-  O225  1  0.58759619  0.95065634  0.06171122  1
  O2-  O226  1  0.58553333  0.95858884  0.39215434  1
  O2-  O227  1  0.58470623  0.95697430  0.72842028  1
  O2-  O228  1  0.19796915  0.33692375  0.06552091  1
  O2-  O229  1  0.20753660  0.33624867  0.39174761  1
  O2-  O230  1  0.20209369  0.32806608  0.73133704  1
  O2-  O231  1  0.20396223  0.82859792  0.07134621  1
  O2-  O232  1  0.20915867  0.83047043  0.39853722  1
  O2-  O233  1  0.21214943  0.83301163  0.73457407  1
  O2-  O234  1  0.71261663  0.33532037  0.07045470  1
  O2-  O235  1  0.70778185  0.32682581  0.39894449  1
  O2-  O236  1  0.71249914  0.33075233  0.73678031  1
  O2-  O237  1  0.71248535  0.83692643  0.06415709  1
  O2-  O238  1  0.70168263  0.83648170  0.39315894  1
  O2-  O239  1  0.69701991  0.83300684  0.72707341  1
  O2-  O240  1  0.45499463  0.41440333  0.27272513  1
  O2-  O241  1  0.45213175  0.41911411  0.60347926  1
  O2-  O242  1  0.45549139  0.41911743  0.93198036  1
  O2-  O243  1  0.45985450  0.91675153  0.26121239  1
  O2-  O244  1  0.46345483  0.91171413  0.59581818  1
  O2-  O245  1  0.45093795  0.91552886  0.94053565  1
  O2-  O246  1  0.95997059  0.41649899  0.26003121  1
  O2-  O247  1  0.95714968  0.41895315  0.59960442  1
  O2-  O248  1  0.95591115  0.41589654  0.94113140  1
  O2-  O249  1  0.96041903  0.91720061  0.26310077  1
  O2-  O250  1  0.95051246  0.91722208  0.60653244  1
  O2-  O251  1  0.95581056  0.91661657  0.94011499  1
  O2-  O252  1  0.33736980  0.29385002  0.26923244  1
  O2-  O253  1  0.33380991  0.29957339  0.60201374  1
  O2-  O254  1  0.32364748  0.30093105  0.93723833  1
  O2-  O255  1  0.33275222  0.78787963  0.26120685  1
  O2-  O256  1  0.33483303  0.78546949  0.59930824  1
  O2-  O257  1  0.33307934  0.79104376  0.94055672  1
  O2-  O258  1  0.83476969  0.28515494  0.26181217  1
  O2-  O259  1  0.83443021  0.28528432  0.59918609  1
  O2-  O260  1  0.83867638  0.29218291  0.94023289  1
  O2-  O261  1  0.83092095  0.79319389  0.26462880  1
  O2-  O262  1  0.83002810  0.80191247  0.60596145  1
  O2-  O263  1  0.83931704  0.79653665  0.93507196  1
  O2-  O264  1  0.42380934  0.04723134  0.06855778  1
  O2-  O265  1  0.41935449  0.04621598  0.39322870  1
  O2-  O266  1  0.41975380  0.03406391  0.73335300  1
  O2-  O267  1  0.41191445  0.54323005  0.06382298  1
  O2-  O268  1  0.41039703  0.54317719  0.39593159  1
  O2-  O269  1  0.42065862  0.55024651  0.73330443  1
  O2-  O270  1  0.90983069  0.04197137  0.06811061  1
  O2-  O271  1  0.91241724  0.04124248  0.39290673  1
  O2-  O272  1  0.91422016  0.03958439  0.73833228  1
  O2-  O273  1  0.91673145  0.54857182  0.06481806  1
  O2-  O274  1  0.92369327  0.54719407  0.39455348  1
  O2-  O275  1  0.91980522  0.54384840  0.73635589  1
  O2-  O276  1  0.29181727  0.17052668  0.07140264  1
  O2-  O277  1  0.30069683  0.16651476  0.39584184  1
  O2-  O278  1  0.30617621  0.17176491  0.73164937  1
  O2-  O279  1  0.28896846  0.65934779  0.06655401  1
  O2-  O280  1  0.29170371  0.66252159  0.39140824  1
  O2-  O281  1  0.28575256  0.66639940  0.73653679  1
  O2-  O282  1  0.79254381  0.16320915  0.06537752  1
  O2-  O283  1  0.79194687  0.16067423  0.39396162  1
  O2-  O284  1  0.78686963  0.16351487  0.73518221  1
  O2-  O285  1  0.79869323  0.66990390  0.06072858  1
  O2-  O286  1  0.79413425  0.67078122  0.40084957  1
  O2-  O287  1  0.79791351  0.67330779  0.73532659  1
