# generated using pymatgen
data_Ca2Al2SiO7
_symmetry_space_group_name_H-M   'P 1'
_cell_length_a   15.46401165
_cell_length_b   15.46315031
_cell_length_c   15.28780279
_cell_angle_alpha   90.01606563
_cell_angle_beta   89.99198908
_cell_angle_gamma   90.01477792
_symmetry_Int_Tables_number   1
_chemical_formula_structural   Ca2Al2SiO7
_chemical_formula_sum   'Ca48 Al48 Si24 O168'
_cell_volume   3655.65482381
_cell_formula_units_Z   24
loop_
 _symmetry_equiv_pos_site_id
 _symmetry_equiv_pos_as_xyz
  1  'x, y, z'
loop_
 _atom_type_symbol
 _atom_type_oxidation_number
  Ca2+  2.0
  Al0+  0.0
  Si0+  0.0
  O2-  -2.0
loop_
 _atom_site_type_symbol
 _atom_site_label
 _atom_site_symmetry_multiplicity
 _atom_site_fract_x
 _atom_site_fract_y
 _atom_site_fract_z
 _atom_site_occupancy
  Ca2+  Ca0  1  0.16129172  0.08015114  0.16264917  1
  Ca2+  Ca1  1  0.16540621  0.08098423  0.50801376  1
  Ca2+  Ca2  1  0.15342942  0.07573989  0.83746610  1
  Ca2+  Ca3  1  0.17930622  0.57828102  0.16450743  1
  Ca2+  Ca4  1  0.17456119  0.58660889  0.50054421  1
  Ca2+  Ca5  1  0.17116307  0.57543960  0.84578036  1
  Ca2+  Ca6  1  0.66673610  0.07374629  0.16618438  1
  Ca2+  Ca7  1  0.66563415  0.06994933  0.50586709  1
  Ca2+  Ca8  1  0.67383231  0.07263589  0.84099915  1
  Ca2+  Ca9  1  0.67507140  0.58360147  0.16785226  1
  Ca2+  Ca10  1  0.67700031  0.57333815  0.50079861  1
  Ca2+  Ca11  1  0.67803491  0.58133758  0.83581689  1
  Ca2+  Ca12  1  0.07944072  0.32750993  0.15206032  1
  Ca2+  Ca13  1  0.07702172  0.33104977  0.50160066  1
  Ca2+  Ca14  1  0.07476705  0.32733373  0.83170251  1
  Ca2+  Ca15  1  0.07802928  0.83172352  0.16157472  1
  Ca2+  Ca16  1  0.06969269  0.83642601  0.49797459  1
  Ca2+  Ca17  1  0.07951891  0.83498998  0.82587533  1
  Ca2+  Ca18  1  0.57394366  0.34673093  0.16331992  1
  Ca2+  Ca19  1  0.58282566  0.34134425  0.49278305  1
  Ca2+  Ca20  1  0.57763654  0.34200156  0.83073318  1
  Ca2+  Ca21  1  0.58199124  0.82824268  0.15391728  1
  Ca2+  Ca22  1  0.58924765  0.83257909  0.49375674  1
  Ca2+  Ca23  1  0.58996015  0.82882245  0.83343230  1
  Ca2+  Ca24  1  0.33774717  0.42169687  0.16974784  1
  Ca2+  Ca25  1  0.33843145  0.42172889  0.49904325  1
  Ca2+  Ca26  1  0.32616824  0.41979710  0.84597166  1
  Ca2+  Ca27  1  0.32849107  0.91024157  0.16372258  1
  Ca2+  Ca28  1  0.32395113  0.92061631  0.50906066  1
  Ca2+  Ca29  1  0.32067863  0.91482876  0.84316190  1
  Ca2+  Ca30  1  0.83445553  0.42797169  0.17247839  1
  Ca2+  Ca31  1  0.82785572  0.42287579  0.51192842  1
  Ca2+  Ca32  1  0.84027576  0.42286659  0.84021789  1
  Ca2+  Ca33  1  0.82427541  0.91917057  0.16935342  1
  Ca2+  Ca34  1  0.82635300  0.90862236  0.50513610  1
  Ca2+  Ca35  1  0.82771630  0.91886585  0.84086713  1
  Ca2+  Ca36  1  0.41986964  0.17898445  0.15970086  1
  Ca2+  Ca37  1  0.42148958  0.17419599  0.49249419  1
  Ca2+  Ca38  1  0.41630543  0.17165021  0.83425183  1
  Ca2+  Ca39  1  0.42340817  0.66564774  0.15361387  1
  Ca2+  Ca40  1  0.41920827  0.66712707  0.49287480  1
  Ca2+  Ca41  1  0.42151235  0.66753985  0.83797848  1
  Ca2+  Ca42  1  0.91876767  0.17342069  0.15365088  1
  Ca2+  Ca43  1  0.91956484  0.16840625  0.50193657  1
  Ca2+  Ca44  1  0.92055428  0.17258704  0.83184511  1
  Ca2+  Ca45  1  0.90694328  0.67030932  0.16369932  1
  Ca2+  Ca46  1  0.90414945  0.67408244  0.49843126  1
  Ca2+  Ca47  1  0.91050779  0.67028947  0.82729450  1
  Al0+  Al48  1  -0.00155682  -0.00039065  0.00634994  1
  Al0+  Al49  1  -0.00122537  -0.00117850  0.32846262  1
  Al0+  Al50  1  -0.00053147  -0.00059224  0.66081158  1
  Al0+  Al51  1  0.00166910  0.50106160  0.00719947  1
  Al0+  Al52  1  0.00420527  0.50172170  0.33736527  1
  Al0+  Al53  1  0.00345355  0.50076444  0.66433292  1
  Al0+  Al54  1  0.49607070  -0.00008087  -0.00073746  1
  Al0+  Al55  1  0.49832159  0.00116596  0.33687334  1
  Al0+  Al56  1  0.49811503  0.00099769  0.67043664  1
  Al0+  Al57  1  0.50183097  0.50265044  -0.00906677  1
  Al0+  Al58  1  0.50000078  0.50229002  0.33676925  1
  Al0+  Al59  1  0.50167797  0.50282661  0.66799095  1
  Al0+  Al60  1  0.24912404  0.24651942  -0.00568240  1
  Al0+  Al61  1  0.25113319  0.24999605  0.33006875  1
  Al0+  Al62  1  0.25223524  0.25161219  0.66126015  1
  Al0+  Al63  1  0.24961551  0.74971140  0.00440287  1
  Al0+  Al64  1  0.24802075  0.74990324  0.33823955  1
  Al0+  Al65  1  0.25107469  0.75203414  0.66899406  1
  Al0+  Al66  1  0.74862524  0.25006053  0.00006411  1
  Al0+  Al67  1  0.75047428  0.24639686  0.33474338  1
  Al0+  Al68  1  0.74626484  0.24871474  0.66557373  1
  Al0+  Al69  1  0.74847728  0.74794250  0.00210784  1
  Al0+  Al70  1  0.74892591  0.75029526  0.33447856  1
  Al0+  Al71  1  0.74815732  0.74688248  0.66846377  1
  Al0+  Al72  1  0.82396216  0.57121524  0.34907342  1
  Al0+  Al73  1  0.82300752  0.56801337  0.68250425  1
  Al0+  Al74  1  0.92827952  0.81806525  0.31727100  1
  Al0+  Al75  1  0.82070434  0.07258712  0.01480151  1
  Al0+  Al76  1  0.43058943  0.32106535  0.98524570  1
  Al0+  Al77  1  0.32052229  0.57077268  0.34737131  1
  Al0+  Al78  1  0.92822439  0.81812726  0.65499704  1
  Al0+  Al79  1  0.07091287  0.17912119  0.65019756  1
  Al0+  Al80  1  0.67875263  0.93112002  0.34684504  1
  Al0+  Al81  1  0.68046426  0.42822462  0.34554414  1
  Al0+  Al82  1  0.82237177  0.56972921  0.01408169  1
  Al0+  Al83  1  0.57334385  0.67993052  0.98191104  1
  Al0+  Al84  1  0.17776453  0.92860757  0.01496781  1
  Al0+  Al85  1  0.92731813  0.32427643  0.98776010  1
  Al0+  Al86  1  0.17832496  0.93160090  0.67921552  1
  Al0+  Al87  1  0.67764879  0.92856705  0.01433923  1
  Al0+  Al88  1  0.32270996  0.56900604  0.01344458  1
  Al0+  Al89  1  0.06983582  0.17626879  0.98510895  1
  Al0+  Al90  1  0.43267078  0.32141198  0.31962169  1
  Al0+  Al91  1  0.92729795  0.32290231  0.65133809  1
  Al0+  Al92  1  0.42642336  0.82181662  0.98480523  1
  Al0+  Al93  1  0.17960688  0.42563158  0.01394692  1
  Al0+  Al94  1  0.67815113  0.42668827  0.68285155  1
  Al0+  Al95  1  0.67831892  0.92792578  0.68113947  1
  Si0+  Si96  1  0.17989226  0.42476930  0.35207603  1
  Si0+  Si97  1  0.42770312  0.82211805  0.65077130  1
  Si0+  Si98  1  0.32190991  0.57246862  0.68224390  1
  Si0+  Si99  1  0.18170965  0.42865255  0.68045721  1
  Si0+  Si100  1  0.57270929  0.17481105  0.31635028  1
  Si0+  Si101  1  0.82450402  0.07093529  0.35194774  1
  Si0+  Si102  1  0.92906502  0.81918638  0.98663375  1
  Si0+  Si103  1  0.56905152  0.68053496  0.64781533  1
  Si0+  Si104  1  0.57196434  0.17589838  0.98219192  1
  Si0+  Si105  1  0.82179905  0.07197104  0.68188923  1
  Si0+  Si106  1  0.07158413  0.68003694  0.98722019  1
  Si0+  Si107  1  0.07611375  0.67783124  0.31484847  1
  Si0+  Si108  1  0.56807921  0.68203940  0.31926705  1
  Si0+  Si109  1  0.32230201  0.07240078  0.01798073  1
  Si0+  Si110  1  0.07655270  0.67806755  0.65015048  1
  Si0+  Si111  1  0.07107559  0.17962648  0.31730217  1
  Si0+  Si112  1  0.56943016  0.17601130  0.65121459  1
  Si0+  Si113  1  0.43163962  0.32267278  0.65005916  1
  Si0+  Si114  1  0.32127138  0.07450956  0.68364421  1
  Si0+  Si115  1  0.92866693  0.32191428  0.32029045  1
  Si0+  Si116  1  0.67736032  0.42767397  0.01434108  1
  Si0+  Si117  1  0.31937229  0.07221757  0.34830879  1
  Si0+  Si118  1  0.17791340  0.92990544  0.34934798  1
  Si0+  Si119  1  0.42599790  0.82332403  0.32085933  1
  O2-  O120  1  0.25361384  0.00280287  0.06145024  1
  O2-  O121  1  0.24870540  0.00130337  0.39137667  1
  O2-  O122  1  0.25008849  0.00838491  0.72672997  1
  O2-  O123  1  0.25668647  0.49209757  0.06428203  1
  O2-  O124  1  0.24707901  0.49568968  0.39621195  1
  O2-  O125  1  0.24970074  0.50258174  0.72250219  1
  O2-  O126  1  0.74770102  0.00157295  0.06509105  1
  O2-  O127  1  0.75395480  0.00395716  0.39603829  1
  O2-  O128  1  0.75478598  0.00123379  0.72544682  1
  O2-  O129  1  0.75092738  0.49077626  0.05838145  1
  O2-  O130  1  0.75927437  0.49154041  0.39720650  1
  O2-  O131  1  0.75765094  0.48998769  0.73247808  1
  O2-  O132  1  0.00049397  0.25171263  0.27729799  1
  O2-  O133  1  -0.00177138  0.25004039  0.59938796  1
  O2-  O134  1  -0.00175740  0.25036796  0.93858797  1
  O2-  O135  1  0.00145177  0.74073699  0.27149353  1
  O2-  O136  1  0.00359688  0.74327452  0.60740638  1
  O2-  O137  1  -0.00000523  0.74909486  0.94328883  1
  O2-  O138  1  0.51090711  0.25023193  0.27291593  1
  O2-  O139  1  0.50394032  0.25265562  0.60840203  1
  O2-  O140  1  0.50639330  0.24780446  0.93743761  1
  O2-  O141  1  0.49763476  0.75424371  0.27828125  1
  O2-  O142  1  0.49969161  0.75395595  0.60539704  1
  O2-  O143  1  0.50193863  0.75448746  0.93342218  1
  O2-  O144  1  0.06832640  0.17720333  0.09957173  1
  O2-  O145  1  0.07235034  0.17874853  0.42232555  1
  O2-  O146  1  0.07085998  0.17983116  0.76275543  1
  O2-  O147  1  0.07234589  0.68271266  0.09236892  1
  O2-  O148  1  0.08328011  0.68329691  0.42024777  1
  O2-  O149  1  0.08151100  0.67979441  0.75552931  1
  O2-  O150  1  0.56839949  0.17384205  0.08789175  1
  O2-  O151  1  0.56691065  0.17017590  0.42205715  1
  O2-  O152  1  0.56493701  0.17183908  0.75555739  1
  O2-  O153  1  0.57314509  0.67980128  0.09623814  1
  O2-  O154  1  0.56620879  0.68328491  0.42485719  1
  O2-  O155  1  0.56771130  0.67993572  0.75213893  1
  O2-  O156  1  0.18120075  0.42199540  0.24730810  1
  O2-  O157  1  0.18490640  0.42811671  0.57499121  1
  O2-  O158  1  0.17961295  0.43013274  0.89979072  1
  O2-  O159  1  0.17917403  0.92954513  0.24451533  1
  O2-  O160  1  0.18180290  0.93162554  0.56543485  1
  O2-  O161  1  0.17673283  0.92865557  0.90185860  1
  O2-  O162  1  0.67807525  0.43310847  0.23233555  1
  O2-  O163  1  0.67422236  0.43195140  0.56923368  1
  O2-  O164  1  0.67670075  0.42997366  0.90892502  1
  O2-  O165  1  0.67633095  0.93215049  0.23456558  1
  O2-  O166  1  0.67738690  0.92955435  0.56752010  1
  O2-  O167  1  0.68207842  0.92911866  0.90069473  1
  O2-  O168  1  0.43262934  0.32135026  0.09863488  1
  O2-  O169  1  0.43190609  0.31888509  0.43322706  1
  O2-  O170  1  0.42953024  0.32187898  0.75475641  1
  O2-  O171  1  0.42661254  0.81821470  0.09930418  1
  O2-  O172  1  0.42596237  0.82241546  0.42651731  1
  O2-  O173  1  0.42492383  0.81987213  0.75475490  1
  O2-  O174  1  0.92996240  0.32409957  0.10217576  1
  O2-  O175  1  0.92988207  0.31920851  0.42526978  1
  O2-  O176  1  0.93119207  0.32384780  0.76422798  1
  O2-  O177  1  0.92989741  0.81749570  0.09189785  1
  O2-  O178  1  0.92998330  0.81942161  0.43066941  1
  O2-  O179  1  0.93005358  0.81840872  0.76816462  1
  O2-  O180  1  0.31951648  0.07287123  0.24390136  1
  O2-  O181  1  0.32280486  0.07252576  0.57727160  1
  O2-  O182  1  0.32394778  0.07278143  0.91255163  1
  O2-  O183  1  0.32135096  0.57101730  0.23527820  1
  O2-  O184  1  0.32242775  0.57186466  0.57657509  1
  O2-  O185  1  0.31808208  0.56905509  0.89940871  1
  O2-  O186  1  0.82527879  0.07014066  0.24693962  1
  O2-  O187  1  0.81932792  0.07128958  0.57577640  1
  O2-  O188  1  0.82133251  0.06912255  0.90089637  1
  O2-  O189  1  0.82010904  0.57176167  0.23565102  1
  O2-  O190  1  0.81791244  0.57044059  0.56905737  1
  O2-  O191  1  0.82285627  0.57211673  0.90133576  1
  O2-  O192  1  0.04377452  0.08750354  0.27036379  1
  O2-  O193  1  0.04313540  0.08136230  0.59430596  1
  O2-  O194  1  0.03791275  0.07771578  0.93416111  1
  O2-  O195  1  0.05955788  0.58049564  0.27344294  1
  O2-  O196  1  0.05774190  0.58340119  0.60354489  1
  O2-  O197  1  0.04627941  0.58722976  0.94150743  1
  O2-  O198  1  0.53739414  0.08477452  0.26829286  1
  O2-  O199  1  0.53483131  0.08672631  0.60062145  1
  O2-  O200  1  0.54169782  0.08436116  0.93439029  1
  O2-  O201  1  0.53788101  0.59128770  0.27265268  1
  O2-  O202  1  0.53649205  0.59001441  0.59967914  1
  O2-  O203  1  0.54311229  0.58464523  0.92419064  1
  O2-  O204  1  0.16333175  0.20593532  0.27016927  1
  O2-  O205  1  0.17019734  0.20892548  0.59640135  1
  O2-  O206  1  0.16877165  0.19807887  0.93107469  1
  O2-  O207  1  0.16682204  0.71134110  0.26661544  1
  O2-  O208  1  0.16854931  0.70879631  0.60151905  1
  O2-  O209  1  0.16219964  0.70871968  0.93862716  1
  O2-  O210  1  0.66972369  0.19008274  0.27416036  1
  O2-  O211  1  0.66257697  0.19547996  0.60308881  1
  O2-  O212  1  0.66660077  0.19715867  0.93734393  1
  O2-  O213  1  0.65967627  0.70929372  0.27232141  1
  O2-  O214  1  0.66067462  0.70759781  0.60019010  1
  O2-  O215  1  0.67101890  0.71022562  0.92774764  1
  O2-  O216  1  0.08587211  0.46009843  0.07176240  1
  O2-  O217  1  0.08685274  0.45028059  0.39964970  1
  O2-  O218  1  0.08933041  0.45356069  0.72660560  1
  O2-  O219  1  0.08334379  0.95976609  0.07256401  1
  O2-  O220  1  0.08573299  0.95942355  0.39479140  1
  O2-  O221  1  0.08020852  0.95894390  0.73098982  1
  O2-  O222  1  0.58559127  0.46091748  0.05921402  1
  O2-  O223  1  0.58502214  0.46399762  0.40108693  1
  O2-  O224  1  0.58211343  0.46436658  0.73560786  1
  O2-  O225  1  0.57711361  0.95468515  0.06403051  1
  O2-  O226  1  0.58146881  0.96116069  0.40239810  1
  O2-  O227  1  0.58137246  0.95953592  0.73338796  1
  O2-  O228  1  0.20237413  0.32443083  0.06244011  1
  O2-  O229  1  0.20876973  0.33212796  0.39919337  1
  O2-  O230  1  0.21380352  0.33796045  0.72673221  1
  O2-  O231  1  0.20962404  0.83367521  0.07158850  1
  O2-  O232  1  0.20564043  0.83921193  0.39841057  1
  O2-  O233  1  0.21111540  0.83554854  0.73300882  1
  O2-  O234  1  0.69194809  0.33167063  0.05892001  1
  O2-  O235  1  0.69677507  0.32498158  0.39456507  1
  O2-  O236  1  0.69085537  0.32317239  0.72995828  1
  O2-  O237  1  0.70801884  0.83138421  0.06743893  1
  O2-  O238  1  0.70915358  0.83449353  0.40059514  1
  O2-  O239  1  0.70714718  0.83084259  0.73276993  1
  O2-  O240  1  0.46131494  0.41964742  0.26790897  1
  O2-  O241  1  0.45912871  0.41565583  0.60374862  1
  O2-  O242  1  0.45960838  0.41647617  0.92836767  1
  O2-  O243  1  0.45063317  0.91650183  0.27535512  1
  O2-  O244  1  0.45178481  0.91631447  0.60527459  1
  O2-  O245  1  0.44531530  0.92294341  0.93392435  1
  O2-  O246  1  0.95567142  0.41581483  0.27674549  1
  O2-  O247  1  0.96043566  0.42020744  0.59661282  1
  O2-  O248  1  0.96036698  0.42230689  0.93656654  1
  O2-  O249  1  0.96142273  0.91431212  0.26333375  1
  O2-  O250  1  0.95812887  0.91353842  0.59769148  1
  O2-  O251  1  0.95678504  0.91151146  0.94194106  1
  O2-  O252  1  0.33645765  0.28782914  0.26648748  1
  O2-  O253  1  0.34117691  0.29440730  0.59989445  1
  O2-  O254  1  0.33497312  0.28824143  0.93037489  1
  O2-  O255  1  0.33342726  0.79540786  0.27579484  1
  O2-  O256  1  0.33673175  0.79229543  0.60103635  1
  O2-  O257  1  0.32859593  0.78881013  0.93236593  1
  O2-  O258  1  0.83644932  0.29438516  0.27354656  1
  O2-  O259  1  0.82706065  0.29516797  0.60034255  1
  O2-  O260  1  0.82767284  0.29923033  0.93583804  1
  O2-  O261  1  0.83074752  0.78873944  0.26431513  1
  O2-  O262  1  0.83159876  0.78569029  0.60022686  1
  O2-  O263  1  0.83770727  0.79049624  0.94003587  1
  O2-  O264  1  0.41488113  0.04817383  0.06684489  1
  O2-  O265  1  0.41017936  0.04487284  0.39863643  1
  O2-  O266  1  0.41295314  0.04704160  0.73136212  1
  O2-  O267  1  0.42371265  0.54495084  0.06196684  1
  O2-  O268  1  0.41541553  0.53977787  0.40491755  1
  O2-  O269  1  0.41291622  0.54326592  0.72859996  1
  O2-  O270  1  0.91635760  0.04213886  0.07150437  1
  O2-  O271  1  0.91799399  0.04279465  0.39747943  1
  O2-  O272  1  0.91637363  0.04751169  0.72449306  1
  O2-  O273  1  0.91853699  0.54503948  0.07153959  1
  O2-  O274  1  0.92667542  0.55547349  0.39850533  1
  O2-  O275  1  0.92613783  0.55021028  0.73025214  1
  O2-  O276  1  0.29506359  0.16523365  0.06453181  1
  O2-  O277  1  0.29114819  0.16360980  0.39717132  1
  O2-  O278  1  0.29971774  0.17015548  0.72649096  1
  O2-  O279  1  0.28935672  0.66466360  0.06817819  1
  O2-  O280  1  0.28869845  0.66687394  0.40429558  1
  O2-  O281  1  0.29640071  0.66491991  0.72809247  1
  O2-  O282  1  0.79325353  0.17139241  0.06864333  1
  O2-  O283  1  0.80165791  0.16505080  0.39831055  1
  O2-  O284  1  0.79414075  0.16440666  0.72799358  1
  O2-  O285  1  0.78609994  0.66396114  0.06918614  1
  O2-  O286  1  0.78562874  0.66655165  0.40171059  1
  O2-  O287  1  0.78667295  0.66394706  0.73520563  1
