# generated using pymatgen
data_Ca2Al2SiO7
_symmetry_space_group_name_H-M   'P 1'
_cell_length_a   15.45455096
_cell_length_b   15.45478837
_cell_length_c   15.28126978
_cell_angle_alpha   89.98819101
_cell_angle_beta   89.99477648
_cell_angle_gamma   89.99042235
_symmetry_Int_Tables_number   1
_chemical_formula_structural   Ca2Al2SiO7
_chemical_formula_sum   'Ca48 Al48 Si24 O168'
_cell_volume   3649.88246495
_cell_formula_units_Z   24
loop_
 _symmetry_equiv_pos_site_id
 _symmetry_equiv_pos_as_xyz
  1  'x, y, z'
loop_
 _atom_type_symbol
 _atom_type_oxidation_number
  Ca2+  2.0
  Al0+  0.0
  Si0+  0.0
  O2-  -2.0
loop_
 _atom_site_type_symbol
 _atom_site_label
 _atom_site_symmetry_multiplicity
 _atom_site_fract_x
 _atom_site_fract_y
 _atom_site_fract_z
 _atom_site_occupancy
  Ca2+  Ca0  1  0.17042734  0.07766901  0.17477204  1
  Ca2+  Ca1  1  0.15892983  0.07854354  0.50406391  1
  Ca2+  Ca2  1  0.17429296  0.08457683  0.83870936  1
  Ca2+  Ca3  1  0.16977817  0.59043667  0.16576079  1
  Ca2+  Ca4  1  0.17380893  0.57330201  0.51065061  1
  Ca2+  Ca5  1  0.17461678  0.58406049  0.83730085  1
  Ca2+  Ca6  1  0.66858523  0.08551519  0.17272351  1
  Ca2+  Ca7  1  0.67615187  0.09416263  0.50328559  1
  Ca2+  Ca8  1  0.66862022  0.08823818  0.83792253  1
  Ca2+  Ca9  1  0.67749713  0.58243405  0.17327803  1
  Ca2+  Ca10  1  0.66713486  0.58961804  0.50191542  1
  Ca2+  Ca11  1  0.66694752  0.57676451  0.84395441  1
  Ca2+  Ca12  1  0.07022673  0.33273504  0.16363818  1
  Ca2+  Ca13  1  0.08362545  0.32187605  0.49332533  1
  Ca2+  Ca14  1  0.07961846  0.33286744  0.82829950  1
  Ca2+  Ca15  1  0.07751683  0.83115875  0.15973181  1
  Ca2+  Ca16  1  0.08477135  0.83333489  0.49446002  1
  Ca2+  Ca17  1  0.08025651  0.82752756  0.83783635  1
  Ca2+  Ca18  1  0.59246073  0.32209138  0.16265589  1
  Ca2+  Ca19  1  0.58467022  0.32524861  0.49810450  1
  Ca2+  Ca20  1  0.58936881  0.32529943  0.83260475  1
  Ca2+  Ca21  1  0.57470660  0.82972498  0.16333790  1
  Ca2+  Ca22  1  0.57178561  0.82382924  0.49470210  1
  Ca2+  Ca23  1  0.57133698  0.82505438  0.82552490  1
  Ca2+  Ca24  1  0.33459299  0.42424369  0.16783955  1
  Ca2+  Ca25  1  0.32787089  0.42101741  0.51122273  1
  Ca2+  Ca26  1  0.32973771  0.42704722  0.83846145  1
  Ca2+  Ca27  1  0.33199219  0.91530657  0.16937231  1
  Ca2+  Ca28  1  0.33248120  0.91011830  0.49869523  1
  Ca2+  Ca29  1  0.33953443  0.91857253  0.84102295  1
  Ca2+  Ca30  1  0.83588417  0.42078973  0.16767022  1
  Ca2+  Ca31  1  0.83685538  0.41932609  0.49792954  1
  Ca2+  Ca32  1  0.82763035  0.42042820  0.84527610  1
  Ca2+  Ca33  1  0.83381665  0.92118106  0.17504958  1
  Ca2+  Ca34  1  0.83214492  0.93254783  0.50508292  1
  Ca2+  Ca35  1  0.83330293  0.92229829  0.83725218  1
  Ca2+  Ca36  1  0.42704558  0.16132340  0.15949376  1
  Ca2+  Ca37  1  0.42973495  0.16416498  0.49513415  1
  Ca2+  Ca38  1  0.42823486  0.16129218  0.83046777  1
  Ca2+  Ca39  1  0.41514606  0.67679144  0.16089349  1
  Ca2+  Ca40  1  0.42261910  0.66943857  0.49607160  1
  Ca2+  Ca41  1  0.41248581  0.67229063  0.82573729  1
  Ca2+  Ca42  1  0.91555047  0.17456500  0.16574965  1
  Ca2+  Ca43  1  0.92230453  0.16878842  0.49184637  1
  Ca2+  Ca44  1  0.91937520  0.17421925  0.82640617  1
  Ca2+  Ca45  1  0.92044410  0.66636773  0.15508251  1
  Ca2+  Ca46  1  0.91655975  0.66696984  0.49294067  1
  Ca2+  Ca47  1  0.91508713  0.66765082  0.83686176  1
  Al0+  Al48  1  0.00056202  -0.00020829  -0.00354439  1
  Al0+  Al49  1  0.00124135  -0.00025529  0.33822154  1
  Al0+  Al50  1  -0.00077968  0.00157656  0.67078205  1
  Al0+  Al51  1  0.00078987  0.49905647  -0.00635612  1
  Al0+  Al52  1  0.00035887  0.49950536  0.33533817  1
  Al0+  Al53  1  -0.00134314  0.50062339  0.67067618  1
  Al0+  Al54  1  0.50139650  -0.00030345  -0.00393168  1
  Al0+  Al55  1  0.49859827  -0.00132979  0.32737828  1
  Al0+  Al56  1  0.50074577  -0.00199109  0.65630411  1
  Al0+  Al57  1  0.49893043  0.49678174  0.01161774  1
  Al0+  Al58  1  0.50233860  0.50000496  0.33150418  1
  Al0+  Al59  1  0.50126896  0.50010838  0.66773373  1
  Al0+  Al60  1  0.25250996  0.25019838  0.00675642  1
  Al0+  Al61  1  0.25154279  0.24903188  0.33027689  1
  Al0+  Al62  1  0.24836562  0.24808487  0.66760420  1
  Al0+  Al63  1  0.24810355  0.75064016  -0.00388077  1
  Al0+  Al64  1  0.24982419  0.75074707  0.33568200  1
  Al0+  Al65  1  0.24697050  0.75079087  0.66636490  1
  Al0+  Al66  1  0.75158793  0.24944754  -0.00479695  1
  Al0+  Al67  1  0.75010050  0.25228194  0.33125977  1
  Al0+  Al68  1  0.75228362  0.25222402  0.66710763  1
  Al0+  Al69  1  0.74897610  0.75160457  -0.00076536  1
  Al0+  Al70  1  0.74916550  0.75023134  0.33623100  1
  Al0+  Al71  1  0.74922169  0.75295749  0.66361681  1
  Al0+  Al72  1  0.43017002  0.81894818  0.98564176  1
  Al0+  Al73  1  0.82173308  0.57150566  0.34792933  1
  Al0+  Al74  1  0.81871001  0.07161711  0.34575376  1
  Al0+  Al75  1  0.57348595  0.67753120  0.31518802  1
  Al0+  Al76  1  0.82067559  0.57194548  0.01395795  1
  Al0+  Al77  1  0.57226214  0.17997421  0.65247584  1
  Al0+  Al78  1  0.67932417  0.42585540  0.01679151  1
  Al0+  Al79  1  0.57018502  0.18061793  0.31946718  1
  Al0+  Al80  1  0.32317476  0.07034145  0.01291088  1
  Al0+  Al81  1  0.93054307  0.31919559  0.98423550  1
  Al0+  Al82  1  0.07223610  0.17538221  0.31698617  1
  Al0+  Al83  1  0.32114403  0.57089474  0.68104368  1
  Al0+  Al84  1  0.56968539  0.18063572  0.98523933  1
  Al0+  Al85  1  0.57206215  0.67644501  0.65277537  1
  Al0+  Al86  1  0.81989955  0.07215147  0.68251524  1
  Al0+  Al87  1  0.93071023  0.32191932  0.31820314  1
  Al0+  Al88  1  0.07041544  0.67862812  0.98414204  1
  Al0+  Al89  1  0.17763180  0.42581631  0.68237992  1
  Al0+  Al90  1  0.18026940  0.93001983  0.34712177  1
  Al0+  Al91  1  0.07117358  0.17919576  0.65409826  1
  Al0+  Al92  1  0.42708231  0.81822217  0.31505009  1
  Al0+  Al93  1  0.31928549  0.57274400  0.01536547  1
  Al0+  Al94  1  0.92518743  0.82352757  0.98531104  1
  Al0+  Al95  1  0.42552283  0.82052769  0.64943315  1
  Si0+  Si96  1  0.68045980  0.42974156  0.68107762  1
  Si0+  Si97  1  0.92951155  0.82131091  0.32285694  1
  Si0+  Si98  1  0.17759273  0.92967299  0.01598316  1
  Si0+  Si99  1  0.67776302  0.92898889  0.68292869  1
  Si0+  Si100  1  0.57111272  0.67526180  0.98622051  1
  Si0+  Si101  1  0.32120507  0.57060754  0.34841066  1
  Si0+  Si102  1  0.06990764  0.67870587  0.32168113  1
  Si0+  Si103  1  0.67886440  0.93003743  0.01372084  1
  Si0+  Si104  1  0.17729193  0.92899328  0.68410468  1
  Si0+  Si105  1  0.07504225  0.17782201  0.98424821  1
  Si0+  Si106  1  0.82221593  0.07010973  0.01417348  1
  Si0+  Si107  1  0.92874420  0.32372014  0.64906509  1
  Si0+  Si108  1  0.67536787  0.92780458  0.35084450  1
  Si0+  Si109  1  0.17952917  0.42832951  0.34735822  1
  Si0+  Si110  1  0.82079941  0.57479240  0.68193492  1
  Si0+  Si111  1  0.67798455  0.42862807  0.35249071  1
  Si0+  Si112  1  0.06832653  0.67914944  0.65050300  1
  Si0+  Si113  1  0.42572801  0.32388430  0.98381844  1
  Si0+  Si114  1  0.92896968  0.82213601  0.65038365  1
  Si0+  Si115  1  0.42778827  0.32145472  0.65302033  1
  Si0+  Si116  1  0.42662215  0.32343955  0.31649306  1
  Si0+  Si117  1  0.32356209  0.07288397  0.35086009  1
  Si0+  Si118  1  0.17749126  0.42711396  0.01890554  1
  Si0+  Si119  1  0.32315183  0.06903482  0.67921389  1
  O2-  O120  1  0.24568099  -0.00124501  0.05980134  1
  O2-  O121  1  0.25248613  0.00676703  0.39556019  1
  O2-  O122  1  0.25281907  -0.00278725  0.72289811  1
  O2-  O123  1  0.24499976  0.49746741  0.06319936  1
  O2-  O124  1  0.25394012  0.49570108  0.39004915  1
  O2-  O125  1  0.24994972  0.49798659  0.73135886  1
  O2-  O126  1  0.75438804  -0.00359824  0.05643214  1
  O2-  O127  1  0.74194966  -0.00063890  0.39450506  1
  O2-  O128  1  0.74257425  0.00025331  0.72965112  1
  O2-  O129  1  0.74837798  0.50148131  0.06576661  1
  O2-  O130  1  0.74487255  0.49968094  0.39653414  1
  O2-  O131  1  0.74752382  0.50538639  0.72172384  1
  O2-  O132  1  0.00078112  0.24791052  0.26786603  1
  O2-  O133  1  -0.00048463  0.25637864  0.60665054  1
  O2-  O134  1  0.00733036  0.24621335  0.93837571  1
  O2-  O135  1  -0.00348773  0.74721340  0.28009718  1
  O2-  O136  1  -0.00267561  0.74923062  0.60657852  1
  O2-  O137  1  -0.00566806  0.74816003  0.93567771  1
  O2-  O138  1  0.49387452  0.25322599  0.27263249  1
  O2-  O139  1  0.49509863  0.25253094  0.60660161  1
  O2-  O140  1  0.49498957  0.25591083  0.93904139  1
  O2-  O141  1  0.50003037  0.74746289  0.26509568  1
  O2-  O142  1  0.49638667  0.74520920  0.60351731  1
  O2-  O143  1  0.49938227  0.73908707  0.93950118  1
  O2-  O144  1  0.07260055  0.17694015  0.08962171  1
  O2-  O145  1  0.07052647  0.17686992  0.43093078  1
  O2-  O146  1  0.06997032  0.17853010  0.76723058  1
  O2-  O147  1  0.07117684  0.68234432  0.09857543  1
  O2-  O148  1  0.06962098  0.67901172  0.42722535  1
  O2-  O149  1  0.06780445  0.68049467  0.75502668  1
  O2-  O150  1  0.57000202  0.17918331  0.09820137  1
  O2-  O151  1  0.57039309  0.18374788  0.43287918  1
  O2-  O152  1  0.57149709  0.18065738  0.76542369  1
  O2-  O153  1  0.57218960  0.68068730  0.09136763  1
  O2-  O154  1  0.57099272  0.67854024  0.42889254  1
  O2-  O155  1  0.57461022  0.67786142  0.76645655  1
  O2-  O156  1  0.17845990  0.43153244  0.24244724  1
  O2-  O157  1  0.17887288  0.42773412  0.56790175  1
  O2-  O158  1  0.18014858  0.42503507  0.91353546  1
  O2-  O159  1  0.17977176  0.92841155  0.23430656  1
  O2-  O160  1  0.17416134  0.92923581  0.57906453  1
  O2-  O161  1  0.17687426  0.93116468  0.91001883  1
  O2-  O162  1  0.67917170  0.42713485  0.24748734  1
  O2-  O163  1  0.68220756  0.42658398  0.57611423  1
  O2-  O164  1  0.68106848  0.42623075  0.90226483  1
  O2-  O165  1  0.67849548  0.92736596  0.24478875  1
  O2-  O166  1  0.68244167  0.92817766  0.57754558  1
  O2-  O167  1  0.67776843  0.93265857  0.90862626  1
  O2-  O168  1  0.42421162  0.32165477  0.08943187  1
  O2-  O169  1  0.42604054  0.32355475  0.42253092  1
  O2-  O170  1  0.42936772  0.32101577  0.75830693  1
  O2-  O171  1  0.43130920  0.82007385  0.09831685  1
  O2-  O172  1  0.42563256  0.81439322  0.42842938  1
  O2-  O173  1  0.42773834  0.82183935  0.76324507  1
  O2-  O174  1  0.93035086  0.31776238  0.09711104  1
  O2-  O175  1  0.93409710  0.32320917  0.43210584  1
  O2-  O176  1  0.92754220  0.32223452  0.75461244  1
  O2-  O177  1  0.92849782  0.82731897  0.09928214  1
  O2-  O178  1  0.93249509  0.82072940  0.42832890  1
  O2-  O179  1  0.92940095  0.82127320  0.75517478  1
  O2-  O180  1  0.32391354  0.07142375  0.24533755  1
  O2-  O181  1  0.32231113  0.06984986  0.57429407  1
  O2-  O182  1  0.32298016  0.06818029  0.89902063  1
  O2-  O183  1  0.31770807  0.57196836  0.24332866  1
  O2-  O184  1  0.31848620  0.56826807  0.56669824  1
  O2-  O185  1  0.31867940  0.57202076  0.90247461  1
  O2-  O186  1  0.81844971  0.06835699  0.23225252  1
  O2-  O187  1  0.82049242  0.07150841  0.56927807  1
  O2-  O188  1  0.82080934  0.07003254  0.90892928  1
  O2-  O189  1  0.82510387  0.57139922  0.23560925  1
  O2-  O190  1  0.82353269  0.57371542  0.57680538  1
  O2-  O191  1  0.81686150  0.57095925  0.89965019  1
  O2-  O192  1  0.04299633  0.07660254  0.26593397  1
  O2-  O193  1  0.03725910  0.08263814  0.60133962  1
  O2-  O194  1  0.05064421  0.08427923  0.93763881  1
  O2-  O195  1  0.04484859  0.58704778  0.27385426  1
  O2-  O196  1  0.04072555  0.58644065  0.60413023  1
  O2-  O197  1  0.04788202  0.58014458  0.92951670  1
  O2-  O198  1  0.54274853  0.08321301  0.26589891  1
  O2-  O199  1  0.54468071  0.08398981  0.59649632  1
  O2-  O200  1  0.53802619  0.08517605  0.92941934  1
  O2-  O201  1  0.54988497  0.57701050  0.26533972  1
  O2-  O202  1  0.54847038  0.57673908  0.59932097  1
  O2-  O203  1  0.54965562  0.57808917  0.94660993  1
  O2-  O204  1  0.17235107  0.20108945  0.26664561  1
  O2-  O205  1  0.16876178  0.20503629  0.59869508  1
  O2-  O206  1  0.17009987  0.20326816  0.94103029  1
  O2-  O207  1  0.16058087  0.70901170  0.27452997  1
  O2-  O208  1  0.15932244  0.70775149  0.60208889  1
  O2-  O209  1  0.16512489  0.71346890  0.92752435  1
  O2-  O210  1  0.66592432  0.21245361  0.26522306  1
  O2-  O211  1  0.66793901  0.21605870  0.59988584  1
  O2-  O212  1  0.66580449  0.21115829  0.93018850  1
  O2-  O213  1  0.67259096  0.70823876  0.26478943  1
  O2-  O214  1  0.66944888  0.70901339  0.59813680  1
  O2-  O215  1  0.66325063  0.70375204  0.93885329  1
  O2-  O216  1  0.08322168  0.45338850  0.06242460  1
  O2-  O217  1  0.09021715  0.45939619  0.39745185  1
  O2-  O218  1  0.07935078  0.45635401  0.73474610  1
  O2-  O219  1  0.08345403  0.95473520  0.06222850  1
  O2-  O220  1  0.08427705  0.95803574  0.40512324  1
  O2-  O221  1  0.08775233  0.96026740  0.73367244  1
  O2-  O222  1  0.57950838  0.44418360  0.07044734  1
  O2-  O223  1  0.58305522  0.45118273  0.39872136  1
  O2-  O224  1  0.58749156  0.45167215  0.72884573  1
  O2-  O225  1  0.58988683  0.96322959  0.06297373  1
  O2-  O226  1  0.58021402  0.95124938  0.39398941  1
  O2-  O227  1  0.58172782  0.95160316  0.72498970  1
  O2-  O228  1  0.20376019  0.33486749  0.06785114  1
  O2-  O229  1  0.20509432  0.33481519  0.39326258  1
  O2-  O230  1  0.20408448  0.32704076  0.73566076  1
  O2-  O231  1  0.20308797  0.83604240  0.06091505  1
  O2-  O232  1  0.21134534  0.83364217  0.40397277  1
  O2-  O233  1  0.20064940  0.83583496  0.73055641  1
  O2-  O234  1  0.71447614  0.32831335  0.06782407  1
  O2-  O235  1  0.70693505  0.33636404  0.40005115  1
  O2-  O236  1  0.71329399  0.34060525  0.73095057  1
  O2-  O237  1  0.70169428  0.83739079  0.06173693  1
  O2-  O238  1  0.70324979  0.83582307  0.39877094  1
  O2-  O239  1  0.70711252  0.83669321  0.73054472  1
  O2-  O240  1  0.45276530  0.41662937  0.27047732  1
  O2-  O241  1  0.45450650  0.41415366  0.60541515  1
  O2-  O242  1  0.45035739  0.41876992  0.93999964  1
  O2-  O243  1  0.45278485  0.91774475  0.26371520  1
  O2-  O244  1  0.45598750  0.91653313  0.59254201  1
  O2-  O245  1  0.46613710  0.91323798  0.93066248  1
  O2-  O246  1  0.96368109  0.41925902  0.26497231  1
  O2-  O247  1  0.95132445  0.41912778  0.60504537  1
  O2-  O248  1  0.95861627  0.41532780  0.92853802  1
  O2-  O249  1  0.96059373  0.91109357  0.27452289  1
  O2-  O250  1  0.96061133  0.91343417  0.60459389  1
  O2-  O251  1  0.95805618  0.91989434  0.92890057  1
  O2-  O252  1  0.33303012  0.30123205  0.26907793  1
  O2-  O253  1  0.33389954  0.29678923  0.60688860  1
  O2-  O254  1  0.33186931  0.29835341  0.93825966  1
  O2-  O255  1  0.32834572  0.78744223  0.26330989  1
  O2-  O256  1  0.32514736  0.79521379  0.59860097  1
  O2-  O257  1  0.33194315  0.79432772  0.93290940  1
  O2-  O258  1  0.83176994  0.29628288  0.26660317  1
  O2-  O259  1  0.83652205  0.29596685  0.60189391  1
  O2-  O260  1  0.83637724  0.28529418  0.92771276  1
  O2-  O261  1  0.83591396  0.79944661  0.27757667  1
  O2-  O262  1  0.83691169  0.79777311  0.60219339  1
  O2-  O263  1  0.82634204  0.79887861  0.93053656  1
  O2-  O264  1  0.41889315  0.03598847  0.06627437  1
  O2-  O265  1  0.41672983  0.04371017  0.39670736  1
  O2-  O266  1  0.41617348  0.04103083  0.72469456  1
  O2-  O267  1  0.41434139  0.54273336  0.07292063  1
  O2-  O268  1  0.41485844  0.54535127  0.39325530  1
  O2-  O269  1  0.42052256  0.54486989  0.73328526  1
  O2-  O270  1  0.91556520  0.04546414  0.06005325  1
  O2-  O271  1  0.91390652  0.03789012  0.40121645  1
  O2-  O272  1  0.91477700  0.03761026  0.73776265  1
  O2-  O273  1  0.92131421  0.54342131  0.06208208  1
  O2-  O274  1  0.91794271  0.53894784  0.40408188  1
  O2-  O275  1  0.91153567  0.54607683  0.73069326  1
  O2-  O276  1  0.29796650  0.16739303  0.06891846  1
  O2-  O277  1  0.30322161  0.16866759  0.39538935  1
  O2-  O278  1  0.29553532  0.16029119  0.72777851  1
  O2-  O279  1  0.28438230  0.66894674  0.06841439  1
  O2-  O280  1  0.28886753  0.66007777  0.39700224  1
  O2-  O281  1  0.28799112  0.66899004  0.73225790  1
  O2-  O282  1  0.79075680  0.16073587  0.06036664  1
  O2-  O283  1  0.78956702  0.16912424  0.39940757  1
  O2-  O284  1  0.79124783  0.16996384  0.73529083  1
  O2-  O285  1  0.79643799  0.67270126  0.06506201  1
  O2-  O286  1  0.79379381  0.66912120  0.40316301  1
  O2-  O287  1  0.79633069  0.66853786  0.72695829  1
