# generated using pymatgen
data_Ca2Al2SiO7
_symmetry_space_group_name_H-M   'P 1'
_cell_length_a   15.46192880
_cell_length_b   15.46131377
_cell_length_c   15.28676564
_cell_angle_alpha   90.00408610
_cell_angle_beta   90.00787892
_cell_angle_gamma   90.00014616
_symmetry_Int_Tables_number   1
_chemical_formula_structural   Ca2Al2SiO7
_chemical_formula_sum   'Ca48 Al48 Si24 O168'
_cell_volume   3654.48063779
_cell_formula_units_Z   24
loop_
 _symmetry_equiv_pos_site_id
 _symmetry_equiv_pos_as_xyz
  1  'x, y, z'
loop_
 _atom_type_symbol
 _atom_type_oxidation_number
  Ca2+  2.0
  Al0+  0.0
  Si0+  0.0
  O2-  -2.0
loop_
 _atom_site_type_symbol
 _atom_site_label
 _atom_site_symmetry_multiplicity
 _atom_site_fract_x
 _atom_site_fract_y
 _atom_site_fract_z
 _atom_site_occupancy
  Ca2+  Ca0  1  0.17555017  0.08882299  0.16678588  1
  Ca2+  Ca1  1  0.17454890  0.07975231  0.50934569  1
  Ca2+  Ca2  1  0.17456672  0.08070610  0.83597685  1
  Ca2+  Ca3  1  0.16118294  0.57133267  0.17309526  1
  Ca2+  Ca4  1  0.15942940  0.57164122  0.50366175  1
  Ca2+  Ca5  1  0.16825050  0.57003989  0.84027953  1
  Ca2+  Ca6  1  0.66776355  0.07399578  0.17435258  1
  Ca2+  Ca7  1  0.68000833  0.08143372  0.50172893  1
  Ca2+  Ca8  1  0.66899085  0.08170353  0.84222008  1
  Ca2+  Ca9  1  0.66363138  0.58684512  0.17118490  1
  Ca2+  Ca10  1  0.66093213  0.58857094  0.50189916  1
  Ca2+  Ca11  1  0.66235813  0.58656151  0.83709840  1
  Ca2+  Ca12  1  0.08108816  0.33021169  0.15763019  1
  Ca2+  Ca13  1  0.09274068  0.32730311  0.49890736  1
  Ca2+  Ca14  1  0.08989005  0.32232408  0.83207809  1
  Ca2+  Ca15  1  0.07919142  0.83703610  0.16334196  1
  Ca2+  Ca16  1  0.08059590  0.83233173  0.49099866  1
  Ca2+  Ca17  1  0.08786196  0.84067291  0.82689199  1
  Ca2+  Ca18  1  0.57420642  0.32353408  0.16117059  1
  Ca2+  Ca19  1  0.56720228  0.33112785  0.49538597  1
  Ca2+  Ca20  1  0.57569527  0.32303021  0.82828711  1
  Ca2+  Ca21  1  0.59158206  0.82939805  0.16118583  1
  Ca2+  Ca22  1  0.58300213  0.82862829  0.49661188  1
  Ca2+  Ca23  1  0.57953878  0.82870788  0.82862948  1
  Ca2+  Ca24  1  0.32178235  0.41149207  0.17341287  1
  Ca2+  Ca25  1  0.32756640  0.41293796  0.50453558  1
  Ca2+  Ca26  1  0.32442435  0.40797256  0.83289077  1
  Ca2+  Ca27  1  0.33246347  0.93117049  0.16939398  1
  Ca2+  Ca28  1  0.33117456  0.92535999  0.50966838  1
  Ca2+  Ca29  1  0.32763258  0.92166729  0.83977493  1
  Ca2+  Ca30  1  0.83359276  0.41512226  0.16953910  1
  Ca2+  Ca31  1  0.82913607  0.42072202  0.50486137  1
  Ca2+  Ca32  1  0.83535075  0.41874779  0.83930163  1
  Ca2+  Ca33  1  0.82413993  0.91930977  0.17508953  1
  Ca2+  Ca34  1  0.83345143  0.92173600  0.49897494  1
  Ca2+  Ca35  1  0.82775829  0.92506873  0.83596267  1
  Ca2+  Ca36  1  0.41346427  0.16596990  0.16309870  1
  Ca2+  Ca37  1  0.40116729  0.17458457  0.49778272  1
  Ca2+  Ca38  1  0.41518231  0.16254448  0.82961370  1
  Ca2+  Ca39  1  0.42780457  0.66947362  0.16200765  1
  Ca2+  Ca40  1  0.42326912  0.67460771  0.49699397  1
  Ca2+  Ca41  1  0.42509384  0.67473022  0.82429470  1
  Ca2+  Ca42  1  0.92210760  0.16977173  0.15651935  1
  Ca2+  Ca43  1  0.92226058  0.15704495  0.49839940  1
  Ca2+  Ca44  1  0.92928850  0.16476754  0.82842592  1
  Ca2+  Ca45  1  0.92103424  0.67355619  0.16987326  1
  Ca2+  Ca46  1  0.92380175  0.67661329  0.48970762  1
  Ca2+  Ca47  1  0.92001002  0.67118278  0.83079571  1
  Al0+  Al48  1  -0.00079034  0.00037097  -0.00213838  1
  Al0+  Al49  1  0.00047933  0.00035153  0.32915436  1
  Al0+  Al50  1  -0.00120236  0.00108479  0.66900066  1
  Al0+  Al51  1  -0.00142269  0.50280346  0.00135418  1
  Al0+  Al52  1  -0.00122057  0.49885966  0.33577194  1
  Al0+  Al53  1  -0.00218421  0.49934274  0.67227197  1
  Al0+  Al54  1  0.49997851  -0.00095999  0.00417992  1
  Al0+  Al55  1  0.50080057  0.00080651  0.34477933  1
  Al0+  Al56  1  0.50329083  -0.00077993  0.66432569  1
  Al0+  Al57  1  0.50091519  0.50045161  -0.00385675  1
  Al0+  Al58  1  0.49691896  0.49946993  0.32429945  1
  Al0+  Al59  1  0.50058673  0.49768892  0.66038005  1
  Al0+  Al60  1  0.24794112  0.25128418  0.00429216  1
  Al0+  Al61  1  0.24788573  0.25134770  0.33565435  1
  Al0+  Al62  1  0.24849274  0.24848842  0.66687043  1
  Al0+  Al63  1  0.25014809  0.74936528  0.00464171  1
  Al0+  Al64  1  0.25301178  0.74712146  0.32663523  1
  Al0+  Al65  1  0.25111725  0.74705408  0.66389272  1
  Al0+  Al66  1  0.74808804  0.25347304  -0.00678600  1
  Al0+  Al67  1  0.74885436  0.25076838  0.33879807  1
  Al0+  Al68  1  0.75099038  0.25213129  0.67073297  1
  Al0+  Al69  1  0.75209460  0.74969996  -0.00144555  1
  Al0+  Al70  1  0.75133104  0.74975020  0.33030569  1
  Al0+  Al71  1  0.75292135  0.74927996  0.66388435  1
  Al0+  Al72  1  0.68066045  0.92919544  0.01190390  1
  Al0+  Al73  1  0.32294907  0.07045862  0.68174351  1
  Al0+  Al74  1  0.17922599  0.92591010  0.67809785  1
  Al0+  Al75  1  0.82037848  0.07222794  0.68279315  1
  Al0+  Al76  1  0.17877051  0.42976284  0.68210115  1
  Al0+  Al77  1  0.56935553  0.68154100  0.31785121  1
  Al0+  Al78  1  0.07297175  0.67618552  0.31851669  1
  Al0+  Al79  1  0.42922888  0.31627322  0.65337016  1
  Al0+  Al80  1  0.56921252  0.17678465  0.98857067  1
  Al0+  Al81  1  0.82315024  0.07326336  0.34654401  1
  Al0+  Al82  1  0.93133894  0.82263753  0.31675213  1
  Al0+  Al83  1  0.31911533  0.07092913  0.34896583  1
  Al0+  Al84  1  0.57207816  0.67978644  0.98504124  1
  Al0+  Al85  1  0.57217631  0.67974772  0.65071505  1
  Al0+  Al86  1  0.17839871  0.43166887  0.34874197  1
  Al0+  Al87  1  0.32045782  0.07085109  0.01547791  1
  Al0+  Al88  1  0.07117324  0.17867069  0.98373991  1
  Al0+  Al89  1  0.42737828  0.82332427  0.65134881  1
  Al0+  Al90  1  0.17982364  0.43149154  0.01484217  1
  Al0+  Al91  1  0.06849222  0.17994200  0.65130921  1
  Al0+  Al92  1  0.92808061  0.32415626  0.98486249  1
  Al0+  Al93  1  0.42717545  0.31827091  0.31810748  1
  Al0+  Al94  1  0.17595092  0.92684854  0.01658251  1
  Al0+  Al95  1  0.67965966  0.92624142  0.35072711  1
  Si0+  Si96  1  0.57392817  0.17850144  0.31951213  1
  Si0+  Si97  1  0.92991799  0.82032446  0.98324154  1
  Si0+  Si98  1  0.82031049  0.07483770  0.01461709  1
  Si0+  Si99  1  0.07083473  0.67547724  0.65465709  1
  Si0+  Si100  1  0.57673451  0.17677631  0.64913140  1
  Si0+  Si101  1  0.42825178  0.82647109  0.31501710  1
  Si0+  Si102  1  0.06956376  0.18058652  0.31896103  1
  Si0+  Si103  1  0.67581199  0.42935998  0.34735967  1
  Si0+  Si104  1  0.32443502  0.57254733  0.01704786  1
  Si0+  Si105  1  0.42735320  0.32144162  0.98381681  1
  Si0+  Si106  1  0.07194793  0.67953372  0.98478273  1
  Si0+  Si107  1  0.32463764  0.57053659  0.68229661  1
  Si0+  Si108  1  0.81946608  0.56923161  0.34833508  1
  Si0+  Si109  1  0.92581802  0.32131295  0.32149118  1
  Si0+  Si110  1  0.67746739  0.42914544  0.01507221  1
  Si0+  Si111  1  0.17897991  0.92554293  0.34687732  1
  Si0+  Si112  1  0.67730453  0.43016914  0.68221125  1
  Si0+  Si113  1  0.82009330  0.57154319  0.01680089  1
  Si0+  Si114  1  0.42714157  0.82145716  0.98488590  1
  Si0+  Si115  1  0.92705557  0.32411232  0.64867472  1
  Si0+  Si116  1  0.82004536  0.57133660  0.68262526  1
  Si0+  Si117  1  0.93149387  0.82044503  0.65255438  1
  Si0+  Si118  1  0.68095970  0.92589338  0.68350902  1
  Si0+  Si119  1  0.32474562  0.57171574  0.34968190  1
  O2-  O120  1  0.24651969  0.00030498  0.06577213  1
  O2-  O121  1  0.24872361  -0.00903862  0.39316273  1
  O2-  O122  1  0.25511953  -0.00697895  0.72907376  1
  O2-  O123  1  0.25569698  0.50452397  0.06223792  1
  O2-  O124  1  0.25086121  0.50905056  0.39471731  1
  O2-  O125  1  0.25414163  0.50444439  0.72803934  1
  O2-  O126  1  0.75110054  0.00765952  0.05941784  1
  O2-  O127  1  0.75227173  0.00003137  0.39705771  1
  O2-  O128  1  0.74206756  0.00090431  0.72864233  1
  O2-  O129  1  0.74940451  0.49938579  0.05784416  1
  O2-  O130  1  0.74584080  0.50114978  0.39083164  1
  O2-  O131  1  0.74760665  0.50215395  0.72475165  1
  O2-  O132  1  -0.00723614  0.24720645  0.27962181  1
  O2-  O133  1  -0.00602579  0.25535555  0.60317870  1
  O2-  O134  1  -0.00192732  0.25108415  0.93452763  1
  O2-  O135  1  0.00711445  0.75345642  0.26726659  1
  O2-  O136  1  0.00725399  0.75313353  0.61261743  1
  O2-  O137  1  0.00747658  0.75588322  0.94086200  1
  O2-  O138  1  0.50130667  0.24203034  0.27370599  1
  O2-  O139  1  0.50147989  0.23877168  0.60570040  1
  O2-  O140  1  0.49313542  0.24966480  0.94055959  1
  O2-  O141  1  0.49894927  0.75950395  0.27020352  1
  O2-  O142  1  0.50118518  0.75224323  0.60138661  1
  O2-  O143  1  0.49592621  0.75262119  0.94013917  1
  O2-  O144  1  0.06963340  0.18144735  0.09811249  1
  O2-  O145  1  0.07031269  0.18122458  0.42413081  1
  O2-  O146  1  0.06878631  0.18087083  0.76380268  1
  O2-  O147  1  0.06662826  0.67627410  0.08939154  1
  O2-  O148  1  0.06686425  0.67487369  0.43262709  1
  O2-  O149  1  0.06579191  0.67262913  0.75991699  1
  O2-  O150  1  0.57110042  0.18022699  0.10174467  1
  O2-  O151  1  0.57873594  0.18480374  0.42468556  1
  O2-  O152  1  0.57956432  0.18118533  0.75487428  1
  O2-  O153  1  0.57240143  0.68029109  0.09802808  1
  O2-  O154  1  0.56761981  0.67964270  0.43055145  1
  O2-  O155  1  0.57271428  0.68110174  0.76442288  1
  O2-  O156  1  0.17740879  0.43081848  0.23568498  1
  O2-  O157  1  0.17720444  0.43250848  0.56903376  1
  O2-  O158  1  0.18120289  0.43232825  0.90173970  1
  O2-  O159  1  0.17902438  0.92920268  0.24157103  1
  O2-  O160  1  0.17628944  0.92723896  0.56423301  1
  O2-  O161  1  0.17970784  0.92448504  0.90326744  1
  O2-  O162  1  0.67923157  0.42807263  0.24217642  1
  O2-  O163  1  0.67929903  0.43020408  0.57679597  1
  O2-  O164  1  0.67655244  0.43121567  0.90995031  1
  O2-  O165  1  0.68154605  0.92687627  0.23671101  1
  O2-  O166  1  0.68649031  0.92217326  0.57839161  1
  O2-  O167  1  0.68401369  0.92794050  0.89870913  1
  O2-  O168  1  0.43019061  0.32320218  0.08950663  1
  O2-  O169  1  0.42841739  0.31901794  0.43124374  1
  O2-  O170  1  0.43263946  0.31823860  0.76654200  1
  O2-  O171  1  0.42807678  0.81992276  0.09045062  1
  O2-  O172  1  0.42666051  0.82288575  0.42030584  1
  O2-  O173  1  0.42802632  0.82022138  0.76532657  1
  O2-  O174  1  0.92795486  0.32385976  0.09933190  1
  O2-  O175  1  0.92500999  0.32476724  0.42634558  1
  O2-  O176  1  0.92736980  0.32630415  0.75380167  1
  O2-  O177  1  0.92693402  0.81664384  0.08784940  1
  O2-  O178  1  0.93194677  0.82011984  0.43098037  1
  O2-  O179  1  0.92779472  0.81683635  0.75790578  1
  O2-  O180  1  0.31730192  0.07282686  0.23604341  1
  O2-  O181  1  0.31572932  0.07205638  0.56815794  1
  O2-  O182  1  0.32206541  0.06897212  0.90234469  1
  O2-  O183  1  0.32742061  0.56734429  0.24417954  1
  O2-  O184  1  0.32426050  0.56915651  0.57678272  1
  O2-  O185  1  0.32264286  0.57308797  0.91139603  1
  O2-  O186  1  0.82012645  0.07703993  0.23298666  1
  O2-  O187  1  0.82119513  0.06901069  0.56985399  1
  O2-  O188  1  0.81927074  0.07156345  0.90888906  1
  O2-  O189  1  0.82061450  0.56650702  0.24313790  1
  O2-  O190  1  0.82233768  0.57036108  0.57750114  1
  O2-  O191  1  0.82056786  0.57295209  0.91139592  1
  O2-  O192  1  0.04773750  0.08821294  0.27049756  1
  O2-  O193  1  0.03518385  0.08341982  0.59794037  1
  O2-  O194  1  0.04316487  0.07990228  0.93073161  1
  O2-  O195  1  0.03379931  0.58047009  0.26546190  1
  O2-  O196  1  0.03341119  0.58709468  0.60617958  1
  O2-  O197  1  0.03640199  0.59113786  0.93523721  1
  O2-  O198  1  0.55258430  0.08175845  0.27948743  1
  O2-  O199  1  0.56285452  0.08001591  0.60671464  1
  O2-  O200  1  0.54257946  0.07940249  0.93429372  1
  O2-  O201  1  0.53757355  0.58553988  0.26215606  1
  O2-  O202  1  0.54569912  0.58066934  0.59845307  1
  O2-  O203  1  0.54381788  0.58219241  0.93108857  1
  O2-  O204  1  0.15794449  0.21601110  0.27072652  1
  O2-  O205  1  0.16408022  0.21260011  0.59712407  1
  O2-  O206  1  0.16937312  0.21099779  0.93272241  1
  O2-  O207  1  0.17429257  0.69210328  0.26714911  1
  O2-  O208  1  0.16490834  0.69146501  0.60828780  1
  O2-  O209  1  0.16694669  0.69852458  0.94038493  1
  O2-  O210  1  0.66546084  0.20952055  0.27131389  1
  O2-  O211  1  0.66764120  0.21170599  0.60249958  1
  O2-  O212  1  0.66325435  0.21116574  0.93124516  1
  O2-  O213  1  0.66836670  0.70604633  0.26557414  1
  O2-  O214  1  0.67227664  0.70614208  0.59882643  1
  O2-  O215  1  0.66943083  0.70981128  0.93188236  1
  O2-  O216  1  0.08287891  0.46536020  0.06714793  1
  O2-  O217  1  0.08108119  0.46026812  0.40362464  1
  O2-  O218  1  0.08223919  0.46136013  0.73627178  1
  O2-  O219  1  0.07506858  0.95245646  0.06605251  1
  O2-  O220  1  0.08469071  0.95166256  0.39095761  1
  O2-  O221  1  0.08174660  0.95672884  0.73163231  1
  O2-  O222  1  0.58601738  0.45787040  0.06297784  1
  O2-  O223  1  0.58356177  0.45869133  0.39216234  1
  O2-  O224  1  0.58580779  0.45749208  0.72982948  1
  O2-  O225  1  0.58371067  0.95361076  0.06707277  1
  O2-  O226  1  0.58244255  0.95240333  0.40618414  1
  O2-  O227  1  0.58459301  0.94378697  0.72570117  1
  O2-  O228  1  0.20775824  0.33551379  0.07042310  1
  O2-  O229  1  0.21245120  0.33663229  0.40274756  1
  O2-  O230  1  0.21177299  0.33393897  0.73461422  1
  O2-  O231  1  0.20133928  0.82709346  0.06938485  1
  O2-  O232  1  0.19991924  0.82860138  0.38852214  1
  O2-  O233  1  0.19911041  0.82358698  0.72838114  1
  O2-  O234  1  0.70473742  0.33740098  0.06308309  1
  O2-  O235  1  0.70419424  0.33984757  0.39858091  1
  O2-  O236  1  0.70594654  0.33977802  0.73163576  1
  O2-  O237  1  0.71753719  0.83389369  0.06545992  1
  O2-  O238  1  0.71164735  0.82792970  0.40218542  1
  O2-  O239  1  0.71480411  0.83459328  0.73056633  1
  O2-  O240  1  0.45916267  0.41284366  0.26141602  1
  O2-  O241  1  0.46290770  0.41133300  0.59727289  1
  O2-  O242  1  0.45639404  0.41354490  0.93653494  1
  O2-  O243  1  0.45317018  0.92207292  0.27344837  1
  O2-  O244  1  0.45504689  0.92169158  0.59762656  1
  O2-  O245  1  0.45387357  0.91436599  0.93955737  1
  O2-  O246  1  0.95581377  0.41174809  0.27280171  1
  O2-  O247  1  0.95208193  0.41896088  0.60377301  1
  O2-  O248  1  0.95494388  0.42420983  0.93364989  1
  O2-  O249  1  0.95497831  0.92126556  0.26159454  1
  O2-  O250  1  0.95484306  0.91275288  0.60570884  1
  O2-  O251  1  0.94980244  0.91394022  0.93627428  1
  O2-  O252  1  0.33036767  0.28713925  0.26500584  1
  O2-  O253  1  0.33208965  0.28895264  0.59910218  1
  O2-  O254  1  0.33247749  0.29897376  0.94069711  1
  O2-  O255  1  0.33598253  0.79970236  0.26641858  1
  O2-  O256  1  0.32994109  0.79226140  0.59617460  1
  O2-  O257  1  0.33335618  0.79460288  0.93937350  1
  O2-  O258  1  0.83221956  0.29859358  0.27439991  1
  O2-  O259  1  0.83165363  0.30140212  0.60445927  1
  O2-  O260  1  0.82825964  0.30276993  0.93161549  1
  O2-  O261  1  0.83549603  0.78690408  0.26319621  1
  O2-  O262  1  0.84308629  0.78622432  0.60257720  1
  O2-  O263  1  0.84245671  0.78322768  0.93304765  1
  O2-  O264  1  0.41786177  0.04121638  0.07066614  1
  O2-  O265  1  0.41729791  0.04945911  0.40355048  1
  O2-  O266  1  0.42632497  0.05117984  0.72866524  1
  O2-  O267  1  0.41881428  0.54608782  0.06169951  1
  O2-  O268  1  0.41599099  0.53934092  0.39669999  1
  O2-  O269  1  0.41797135  0.54227306  0.72776127  1
  O2-  O270  1  0.91397888  0.04841605  0.05893198  1
  O2-  O271  1  0.92220723  0.04377972  0.39853083  1
  O2-  O272  1  0.91431419  0.03630199  0.73791944  1
  O2-  O273  1  0.91118131  0.54502843  0.06594448  1
  O2-  O274  1  0.90864321  0.53805839  0.39885206  1
  O2-  O275  1  0.90948301  0.54205825  0.73429784  1
  O2-  O276  1  0.29279951  0.16963344  0.06873202  1
  O2-  O277  1  0.28099519  0.16534432  0.40194529  1
  O2-  O278  1  0.28955565  0.16697714  0.73483439  1
  O2-  O279  1  0.30107198  0.66568962  0.06466299  1
  O2-  O280  1  0.30634240  0.66851500  0.39224696  1
  O2-  O281  1  0.30132547  0.66463953  0.72801899  1
  O2-  O282  1  0.79711371  0.17066024  0.05669352  1
  O2-  O283  1  0.79445090  0.17079679  0.40336522  1
  O2-  O284  1  0.79485000  0.17092448  0.73540527  1
  O2-  O285  1  0.79043691  0.66200411  0.06509387  1
  O2-  O286  1  0.79442761  0.66155466  0.39507169  1
  O2-  O287  1  0.79435324  0.66349813  0.73084609  1
