# generated using pymatgen
data_Ca2Al2SiO7
_symmetry_space_group_name_H-M   'P 1'
_cell_length_a   15.45477508
_cell_length_b   15.45496776
_cell_length_c   15.28136224
_cell_angle_alpha   90.00289502
_cell_angle_beta   89.99735472
_cell_angle_gamma   89.98540849
_symmetry_Int_Tables_number   1
_chemical_formula_structural   Ca2Al2SiO7
_chemical_formula_sum   'Ca48 Al48 Si24 O168'
_cell_volume   3649.99986255
_cell_formula_units_Z   24
loop_
 _symmetry_equiv_pos_site_id
 _symmetry_equiv_pos_as_xyz
  1  'x, y, z'
loop_
 _atom_type_symbol
 _atom_type_oxidation_number
  Ca2+  2.0
  Al0+  0.0
  Si0+  0.0
  O2-  -2.0
loop_
 _atom_site_type_symbol
 _atom_site_label
 _atom_site_symmetry_multiplicity
 _atom_site_fract_x
 _atom_site_fract_y
 _atom_site_fract_z
 _atom_site_occupancy
  Ca2+  Ca0  1  0.16947562  0.08627448  0.16821676  1
  Ca2+  Ca1  1  0.16808118  0.08413125  0.50467123  1
  Ca2+  Ca2  1  0.16370683  0.07372893  0.83952039  1
  Ca2+  Ca3  1  0.16831854  0.58262136  0.16773919  1
  Ca2+  Ca4  1  0.16140344  0.57252465  0.50066890  1
  Ca2+  Ca5  1  0.16922100  0.58528240  0.84421750  1
  Ca2+  Ca6  1  0.67032793  0.07897712  0.17012029  1
  Ca2+  Ca7  1  0.67709249  0.08868169  0.50929781  1
  Ca2+  Ca8  1  0.67439669  0.08797724  0.83344307  1
  Ca2+  Ca9  1  0.67286507  0.58102467  0.17377757  1
  Ca2+  Ca10  1  0.66180735  0.57397713  0.50073572  1
  Ca2+  Ca11  1  0.67321591  0.57816322  0.83847628  1
  Ca2+  Ca12  1  0.08331827  0.32733107  0.16200152  1
  Ca2+  Ca13  1  0.08063556  0.32196468  0.48791784  1
  Ca2+  Ca14  1  0.07962590  0.32177054  0.83177223  1
  Ca2+  Ca15  1  0.07533964  0.83173179  0.15720870  1
  Ca2+  Ca16  1  0.07343530  0.84094154  0.49997141  1
  Ca2+  Ca17  1  0.08181710  0.83454809  0.83096729  1
  Ca2+  Ca18  1  0.57883926  0.33754490  0.16950023  1
  Ca2+  Ca19  1  0.58232229  0.33377818  0.49536786  1
  Ca2+  Ca20  1  0.58317013  0.32966660  0.82617921  1
  Ca2+  Ca21  1  0.57799314  0.82563378  0.16192127  1
  Ca2+  Ca22  1  0.57797615  0.82788456  0.49500159  1
  Ca2+  Ca23  1  0.56673439  0.83662239  0.82891783  1
  Ca2+  Ca24  1  0.32739983  0.41921555  0.17517599  1
  Ca2+  Ca25  1  0.32991230  0.41188648  0.49683991  1
  Ca2+  Ca26  1  0.33135120  0.42567443  0.84078663  1
  Ca2+  Ca27  1  0.32860977  0.92529206  0.16713803  1
  Ca2+  Ca28  1  0.32723516  0.92137112  0.50703929  1
  Ca2+  Ca29  1  0.32408102  0.91681465  0.84448645  1
  Ca2+  Ca30  1  0.83732705  0.41931015  0.17288428  1
  Ca2+  Ca31  1  0.82241366  0.40727836  0.50345204  1
  Ca2+  Ca32  1  0.82925936  0.41735282  0.84142075  1
  Ca2+  Ca33  1  0.83862215  0.91218822  0.17032268  1
  Ca2+  Ca34  1  0.83779907  0.92052518  0.50781291  1
  Ca2+  Ca35  1  0.84074685  0.91829342  0.83456750  1
  Ca2+  Ca36  1  0.40651378  0.16944428  0.16531353  1
  Ca2+  Ca37  1  0.42246493  0.16856307  0.49267802  1
  Ca2+  Ca38  1  0.42312086  0.16137385  0.82972536  1
  Ca2+  Ca39  1  0.42162274  0.66571660  0.15959308  1
  Ca2+  Ca40  1  0.42117244  0.67258378  0.49648322  1
  Ca2+  Ca41  1  0.40385669  0.68040792  0.83338623  1
  Ca2+  Ca42  1  0.92994374  0.17860038  0.16173004  1
  Ca2+  Ca43  1  0.92794055  0.16469166  0.49500130  1
  Ca2+  Ca44  1  0.92801561  0.16208003  0.82949889  1
  Ca2+  Ca45  1  0.92052151  0.67327205  0.15622170  1
  Ca2+  Ca46  1  0.91150717  0.68071278  0.49599336  1
  Ca2+  Ca47  1  0.91807873  0.67377968  0.83595000  1
  Al0+  Al48  1  -0.00103157  0.00119031  -0.00015612  1
  Al0+  Al49  1  0.00055004  0.00014537  0.32470931  1
  Al0+  Al50  1  0.00122859  0.00021182  0.66667242  1
  Al0+  Al51  1  -0.00222633  0.50046345  -0.00383344  1
  Al0+  Al52  1  -0.00001168  0.50297295  0.33887352  1
  Al0+  Al53  1  -0.00118583  0.49985342  0.66826828  1
  Al0+  Al54  1  0.50059783  -0.00036044  0.00103500  1
  Al0+  Al55  1  0.50032387  -0.00052595  0.33819671  1
  Al0+  Al56  1  0.50112318  0.00081367  0.65576748  1
  Al0+  Al57  1  0.50046800  0.49864023  0.00255583  1
  Al0+  Al58  1  0.50211423  0.50027965  0.32988411  1
  Al0+  Al59  1  0.49967414  0.50032240  0.67284791  1
  Al0+  Al60  1  0.25096591  0.25025039  -0.00454491  1
  Al0+  Al61  1  0.25295887  0.24993865  0.33525566  1
  Al0+  Al62  1  0.25065961  0.25075001  0.66555883  1
  Al0+  Al63  1  0.24997528  0.75024226  0.00475787  1
  Al0+  Al64  1  0.24960109  0.75240000  0.33653398  1
  Al0+  Al65  1  0.24869797  0.74958621  0.66180761  1
  Al0+  Al66  1  0.74786065  0.24913534  -0.00006434  1
  Al0+  Al67  1  0.75045141  0.24933859  0.33321433  1
  Al0+  Al68  1  0.74934472  0.24970220  0.67395199  1
  Al0+  Al69  1  0.74921294  0.74753968  -0.00050483  1
  Al0+  Al70  1  0.74797876  0.74979831  0.32689905  1
  Al0+  Al71  1  0.74882038  0.74932233  0.66384415  1
  Al0+  Al72  1  0.07090236  0.17962768  0.65196422  1
  Al0+  Al73  1  0.82034880  0.56990019  0.01431272  1
  Al0+  Al74  1  0.07334233  0.17985330  0.31740199  1
  Al0+  Al75  1  0.17647676  0.92939446  0.01680334  1
  Al0+  Al76  1  0.32105540  0.57175454  0.01422342  1
  Al0+  Al77  1  0.56807417  0.67966651  0.31899925  1
  Al0+  Al78  1  0.07211747  0.67948222  0.98623839  1
  Al0+  Al79  1  0.92712922  0.32264168  0.32119071  1
  Al0+  Al80  1  0.07286737  0.18006455  0.98262973  1
  Al0+  Al81  1  0.43067668  0.82017349  0.98919442  1
  Al0+  Al82  1  0.43138924  0.31923124  0.32013809  1
  Al0+  Al83  1  0.17881549  0.43011024  0.34619208  1
  Al0+  Al84  1  0.67922112  0.42991404  0.68201029  1
  Al0+  Al85  1  0.93016269  0.81977261  0.31926111  1
  Al0+  Al86  1  0.68068601  0.42939766  0.34709301  1
  Al0+  Al87  1  0.82094596  0.06862603  0.68037824  1
  Al0+  Al88  1  0.32310768  0.07147005  0.01385797  1
  Al0+  Al89  1  0.92663014  0.32186784  0.98403668  1
  Al0+  Al90  1  0.57193404  0.18070726  0.65311181  1
  Al0+  Al91  1  0.92689916  0.82151284  0.98347245  1
  Al0+  Al92  1  0.93021489  0.81937234  0.65346444  1
  Al0+  Al93  1  0.32106534  0.07091133  0.34966904  1
  Al0+  Al94  1  0.42658915  0.82134793  0.65135372  1
  Al0+  Al95  1  0.18089951  0.93018723  0.67970728  1
  Si0+  Si96  1  0.82246910  0.57478413  0.68380983  1
  Si0+  Si97  1  0.17639118  0.92852700  0.35140707  1
  Si0+  Si98  1  0.92810141  0.32306503  0.65115422  1
  Si0+  Si99  1  0.82039155  0.06871821  0.34627016  1
  Si0+  Si100  1  0.67911585  0.92685854  0.34860330  1
  Si0+  Si101  1  0.82051370  0.07175015  0.01657027  1
  Si0+  Si102  1  0.42890591  0.32462840  0.65079719  1
  Si0+  Si103  1  0.57055961  0.17789657  0.98592218  1
  Si0+  Si104  1  0.67623547  0.92596252  0.68178348  1
  Si0+  Si105  1  0.57347915  0.17585989  0.31616647  1
  Si0+  Si106  1  0.67796828  0.42567568  0.01944195  1
  Si0+  Si107  1  0.31930738  0.56994525  0.68050531  1
  Si0+  Si108  1  0.42959734  0.32213538  0.98472524  1
  Si0+  Si109  1  0.67873185  0.92904900  0.01380638  1
  Si0+  Si110  1  0.17843821  0.42836242  0.01431358  1
  Si0+  Si111  1  0.82160125  0.57466236  0.35131130  1
  Si0+  Si112  1  0.07291998  0.67498723  0.64803690  1
  Si0+  Si113  1  0.42641769  0.82404009  0.31615036  1
  Si0+  Si114  1  0.32455818  0.07279198  0.68197894  1
  Si0+  Si115  1  0.57108179  0.67732651  0.65131718  1
  Si0+  Si116  1  0.32355576  0.57309891  0.35057188  1
  Si0+  Si117  1  0.17764094  0.42714098  0.68230078  1
  Si0+  Si118  1  0.07413284  0.67716573  0.31844327  1
  Si0+  Si119  1  0.57136827  0.67543588  0.98163266  1
  O2-  O120  1  0.24786750  0.00361516  0.06470736  1
  O2-  O121  1  0.24618144  -0.00383874  0.39569236  1
  O2-  O122  1  0.25755735  0.00330329  0.72644366  1
  O2-  O123  1  0.24571419  0.49774850  0.05991720  1
  O2-  O124  1  0.25225597  0.50687514  0.39472275  1
  O2-  O125  1  0.24690313  0.50046537  0.72336927  1
  O2-  O126  1  0.75367107  -0.00443701  0.05754994  1
  O2-  O127  1  0.74997939  -0.00221458  0.39062835  1
  O2-  O128  1  0.74542854  -0.00657244  0.72706309  1
  O2-  O129  1  0.74846160  0.49279116  0.06202561  1
  O2-  O130  1  0.75845930  0.50054005  0.39556455  1
  O2-  O131  1  0.75556949  0.50342241  0.72688720  1
  O2-  O132  1  0.00375837  0.25629184  0.27070463  1
  O2-  O133  1  -0.00126336  0.25734200  0.60601904  1
  O2-  O134  1  -0.00234221  0.24956253  0.93333369  1
  O2-  O135  1  0.00515219  0.74518132  0.27472737  1
  O2-  O136  1  0.00248529  0.74282207  0.60524882  1
  O2-  O137  1  0.00253986  0.75294313  0.93437845  1
  O2-  O138  1  0.50349868  0.24256761  0.27144884  1
  O2-  O139  1  0.49612074  0.25430005  0.60732669  1
  O2-  O140  1  0.49960525  0.24946330  0.94416664  1
  O2-  O141  1  0.49155977  0.75218247  0.27206630  1
  O2-  O142  1  0.50423081  0.74793402  0.60712459  1
  O2-  O143  1  0.50103794  0.74269013  0.93816524  1
  O2-  O144  1  0.07379223  0.18366655  0.09599570  1
  O2-  O145  1  0.07010423  0.17747770  0.43145229  1
  O2-  O146  1  0.07068934  0.18009629  0.76463455  1
  O2-  O147  1  0.06996848  0.67869819  0.10007004  1
  O2-  O148  1  0.07355468  0.67728954  0.42434238  1
  O2-  O149  1  0.07570418  0.67383431  0.75312493  1
  O2-  O150  1  0.57323578  0.17725616  0.09085253  1
  O2-  O151  1  0.57486463  0.17735043  0.42172811  1
  O2-  O152  1  0.57024319  0.18121967  0.76676490  1
  O2-  O153  1  0.57105250  0.67679526  0.08740045  1
  O2-  O154  1  0.56701407  0.68134262  0.43261522  1
  O2-  O155  1  0.57093605  0.67708369  0.75671307  1
  O2-  O156  1  0.18102029  0.43146808  0.23320707  1
  O2-  O157  1  0.17852148  0.42705794  0.57719192  1
  O2-  O158  1  0.18313522  0.42862582  0.90812375  1
  O2-  O159  1  0.17709611  0.92592024  0.24641380  1
  O2-  O160  1  0.18094460  0.93218880  0.56629872  1
  O2-  O161  1  0.17921083  0.92895539  0.90275494  1
  O2-  O162  1  0.67975302  0.43202628  0.23438304  1
  O2-  O163  1  0.67749463  0.43133317  0.56881755  1
  O2-  O164  1  0.67595906  0.42637487  0.91358301  1
  O2-  O165  1  0.67811140  0.92798022  0.24316859  1
  O2-  O166  1  0.67804032  0.92578200  0.57589063  1
  O2-  O167  1  0.67493701  0.93296937  0.90888330  1
  O2-  O168  1  0.43019170  0.32411152  0.08961396  1
  O2-  O169  1  0.43389378  0.31933355  0.43350451  1
  O2-  O170  1  0.42948710  0.32649173  0.75671701  1
  O2-  O171  1  0.43605223  0.82053772  0.10198008  1
  O2-  O172  1  0.42888517  0.82262180  0.42210453  1
  O2-  O173  1  0.42605360  0.82019459  0.76464392  1
  O2-  O174  1  0.92713688  0.32029314  0.09756364  1
  O2-  O175  1  0.92504875  0.31609768  0.43506802  1
  O2-  O176  1  0.93039130  0.32360210  0.75655461  1
  O2-  O177  1  0.92562201  0.81773245  0.09712336  1
  O2-  O178  1  0.92939756  0.82166453  0.43276729  1
  O2-  O179  1  0.93066451  0.81801098  0.76568779  1
  O2-  O180  1  0.32232398  0.06873915  0.23693865  1
  O2-  O181  1  0.32292298  0.07292123  0.57628753  1
  O2-  O182  1  0.32850218  0.06803376  0.90030920  1
  O2-  O183  1  0.32365768  0.57193302  0.24512897  1
  O2-  O184  1  0.32121287  0.56786383  0.57539672  1
  O2-  O185  1  0.32135138  0.56907800  0.90042119  1
  O2-  O186  1  0.81679969  0.06748412  0.24109261  1
  O2-  O187  1  0.82037707  0.06805074  0.56669180  1
  O2-  O188  1  0.81749478  0.07354247  0.91139585  1
  O2-  O189  1  0.81898643  0.57648887  0.24590805  1
  O2-  O190  1  0.82160206  0.57685488  0.57824913  1
  O2-  O191  1  0.81560770  0.57069803  0.90096306  1
  O2-  O192  1  0.04141483  0.08406158  0.26231157  1
  O2-  O193  1  0.03693544  0.08470541  0.59752896  1
  O2-  O194  1  0.04202142  0.08155232  0.93229255  1
  O2-  O195  1  0.05085535  0.58304340  0.27333317  1
  O2-  O196  1  0.04689961  0.58052843  0.60259469  1
  O2-  O197  1  0.04368310  0.58192756  0.93122607  1
  O2-  O198  1  0.55002895  0.08039195  0.27280265  1
  O2-  O199  1  0.54674694  0.08487362  0.59476206  1
  O2-  O200  1  0.54289286  0.08710365  0.93685415  1
  O2-  O201  1  0.53989741  0.58419578  0.26268637  1
  O2-  O202  1  0.54036792  0.58457704  0.60575325  1
  O2-  O203  1  0.54766489  0.58054554  0.93742432  1
  O2-  O204  1  0.17251982  0.20697587  0.26760278  1
  O2-  O205  1  0.16906550  0.20921693  0.59974343  1
  O2-  O206  1  0.17053562  0.20921685  0.92750267  1
  O2-  O207  1  0.16894526  0.70175379  0.27413761  1
  O2-  O208  1  0.16527111  0.69986461  0.59935582  1
  O2-  O209  1  0.17208939  0.70447801  0.93465728  1
  O2-  O210  1  0.66589257  0.20270462  0.26872992  1
  O2-  O211  1  0.66898690  0.21306926  0.60072249  1
  O2-  O212  1  0.66122980  0.20621487  0.93648499  1
  O2-  O213  1  0.66241037  0.71290272  0.26222572  1
  O2-  O214  1  0.66436004  0.69982866  0.60311712  1
  O2-  O215  1  0.66371737  0.70294823  0.93537470  1
  O2-  O216  1  0.08383249  0.45162115  0.05766844  1
  O2-  O217  1  0.08313873  0.45969477  0.40494660  1
  O2-  O218  1  0.08481991  0.45243607  0.72889102  1
  O2-  O219  1  0.07712550  0.95665153  0.06882723  1
  O2-  O220  1  0.08209163  0.95713116  0.39515344  1
  O2-  O221  1  0.08547607  0.96228983  0.73378746  1
  O2-  O222  1  0.58488212  0.45349012  0.06533480  1
  O2-  O223  1  0.58464371  0.46423532  0.40095742  1
  O2-  O224  1  0.58313344  0.46103478  0.73855857  1
  O2-  O225  1  0.59057201  0.96201020  0.06550445  1
  O2-  O226  1  0.58757034  0.95251878  0.39764368  1
  O2-  O227  1  0.58192612  0.95431094  0.72519142  1
  O2-  O228  1  0.20789310  0.33581605  0.05965287  1
  O2-  O229  1  0.21365377  0.33564223  0.40206153  1
  O2-  O230  1  0.20848866  0.33688525  0.73117171  1
  O2-  O231  1  0.20651613  0.83220043  0.07069501  1
  O2-  O232  1  0.20007099  0.83458034  0.39954889  1
  O2-  O233  1  0.20890767  0.83075742  0.72984651  1
  O2-  O234  1  0.69899313  0.33057797  0.06454218  1
  O2-  O235  1  0.70729183  0.33057927  0.40078077  1
  O2-  O236  1  0.70816746  0.33433834  0.73870945  1
  O2-  O237  1  0.70173253  0.83545796  0.05998719  1
  O2-  O238  1  0.70686754  0.83480390  0.39534665  1
  O2-  O239  1  0.69818106  0.83134939  0.72722664  1
  O2-  O240  1  0.46321158  0.41476282  0.26505462  1
  O2-  O241  1  0.45668549  0.41776480  0.60502458  1
  O2-  O242  1  0.46030174  0.41281711  0.93563109  1
  O2-  O243  1  0.45744170  0.91643236  0.27156826  1
  O2-  O244  1  0.45669682  0.91641230  0.59451038  1
  O2-  O245  1  0.46619462  0.91480188  0.93358765  1
  O2-  O246  1  0.94884240  0.42548320  0.27542051  1
  O2-  O247  1  0.94872850  0.41841653  0.60589106  1
  O2-  O248  1  0.95242935  0.41983527  0.92995642  1
  O2-  O249  1  0.95892569  0.91512731  0.26281528  1
  O2-  O250  1  0.96335038  0.91491204  0.59884172  1
  O2-  O251  1  0.94979684  0.92239504  0.93475918  1
  O2-  O252  1  0.33520968  0.29056987  0.26561145  1
  O2-  O253  1  0.33469898  0.30110135  0.60535380  1
  O2-  O254  1  0.33863893  0.29776370  0.93440139  1
  O2-  O255  1  0.33062977  0.80304401  0.27377397  1
  O2-  O256  1  0.33286353  0.78637120  0.59422493  1
  O2-  O257  1  0.33382379  0.79036543  0.93623522  1
  O2-  O258  1  0.83050230  0.29110789  0.26618737  1
  O2-  O259  1  0.83378630  0.29474538  0.60929487  1
  O2-  O260  1  0.82649804  0.29341016  0.93363466  1
  O2-  O261  1  0.83318352  0.79096883  0.26551230  1
  O2-  O262  1  0.83171835  0.79191944  0.59917391  1
  O2-  O263  1  0.82835680  0.79071862  0.93118140  1
  O2-  O264  1  0.42083338  0.04161937  0.06900492  1
  O2-  O265  1  0.41881023  0.04086191  0.40427827  1
  O2-  O266  1  0.42057648  0.04847007  0.72337703  1
  O2-  O267  1  0.41772292  0.53896002  0.06756645  1
  O2-  O268  1  0.41596442  0.54355879  0.39661473  1
  O2-  O269  1  0.40949799  0.54225786  0.73123334  1
  O2-  O270  1  0.91281914  0.04887299  0.06403095  1
  O2-  O271  1  0.91308240  0.04012731  0.39138437  1
  O2-  O272  1  0.91595368  0.03599421  0.73520718  1
  O2-  O273  1  0.91824533  0.54258891  0.06750707  1
  O2-  O274  1  0.91706756  0.55947198  0.39725742  1
  O2-  O275  1  0.91719629  0.55172206  0.72913451  1
  O2-  O276  1  0.29767919  0.17275141  0.06292091  1
  O2-  O277  1  0.29447875  0.16804658  0.40441133  1
  O2-  O278  1  0.30146027  0.16786004  0.72674996  1
  O2-  O279  1  0.29421135  0.66711613  0.07114610  1
  O2-  O280  1  0.30126174  0.66823858  0.39618377  1
  O2-  O281  1  0.29125334  0.66237564  0.72617123  1
  O2-  O282  1  0.78536635  0.16081687  0.06499922  1
  O2-  O283  1  0.79190425  0.15963358  0.39486875  1
  O2-  O284  1  0.78844618  0.16326332  0.73728795  1
  O2-  O285  1  0.78647016  0.66569137  0.06935029  1
  O2-  O286  1  0.78658039  0.66617352  0.39733820  1
  O2-  O287  1  0.79289460  0.66695905  0.73090080  1
