# generated using pymatgen
data_Ca2Al2SiO7
_symmetry_space_group_name_H-M   'P 1'
_cell_length_a   15.45860448
_cell_length_b   15.45960746
_cell_length_c   15.28510341
_cell_angle_alpha   89.99649955
_cell_angle_beta   90.00032315
_cell_angle_gamma   89.99807456
_symmetry_Int_Tables_number   1
_chemical_formula_structural   Ca2Al2SiO7
_chemical_formula_sum   'Ca48 Al48 Si24 O168'
_cell_volume   3652.89449113
_cell_formula_units_Z   24
loop_
 _symmetry_equiv_pos_site_id
 _symmetry_equiv_pos_as_xyz
  1  'x, y, z'
loop_
 _atom_type_symbol
 _atom_type_oxidation_number
  Ca2+  2.0
  Al0+  0.0
  Si0+  0.0
  O2-  -2.0
loop_
 _atom_site_type_symbol
 _atom_site_label
 _atom_site_symmetry_multiplicity
 _atom_site_fract_x
 _atom_site_fract_y
 _atom_site_fract_z
 _atom_site_occupancy
  Ca2+  Ca0  1  0.17527569  0.07867857  0.17177012  1
  Ca2+  Ca1  1  0.16709121  0.07932220  0.50360916  1
  Ca2+  Ca2  1  0.16787392  0.06759643  0.84084406  1
  Ca2+  Ca3  1  0.15855414  0.57725734  0.16455676  1
  Ca2+  Ca4  1  0.17532801  0.59098483  0.50857568  1
  Ca2+  Ca5  1  0.16640996  0.58813257  0.83898817  1
  Ca2+  Ca6  1  0.66684891  0.07414923  0.17366421  1
  Ca2+  Ca7  1  0.66896893  0.07147208  0.50531158  1
  Ca2+  Ca8  1  0.67446980  0.08328537  0.83303865  1
  Ca2+  Ca9  1  0.67471811  0.58827009  0.17384047  1
  Ca2+  Ca10  1  0.67197501  0.58150622  0.50755468  1
  Ca2+  Ca11  1  0.67678420  0.59077292  0.83377988  1
  Ca2+  Ca12  1  0.08028514  0.33004903  0.15770071  1
  Ca2+  Ca13  1  0.07381951  0.32880040  0.49506283  1
  Ca2+  Ca14  1  0.07169270  0.33919980  0.83099597  1
  Ca2+  Ca15  1  0.08258622  0.82598226  0.15906171  1
  Ca2+  Ca16  1  0.07958548  0.83368460  0.50531459  1
  Ca2+  Ca17  1  0.08504028  0.82753608  0.82590137  1
  Ca2+  Ca18  1  0.58540943  0.33391868  0.16561539  1
  Ca2+  Ca19  1  0.58847715  0.33727501  0.49731807  1
  Ca2+  Ca20  1  0.58493286  0.33435067  0.82580309  1
  Ca2+  Ca21  1  0.57838050  0.82882671  0.16328450  1
  Ca2+  Ca22  1  0.58345817  0.82113617  0.49057435  1
  Ca2+  Ca23  1  0.57709565  0.82171988  0.83151878  1
  Ca2+  Ca24  1  0.32512914  0.41597792  0.16719513  1
  Ca2+  Ca25  1  0.33058532  0.42500503  0.50753604  1
  Ca2+  Ca26  1  0.32534468  0.42670572  0.83567262  1
  Ca2+  Ca27  1  0.33741115  0.91859842  0.16868208  1
  Ca2+  Ca28  1  0.33049797  0.91608797  0.50273168  1
  Ca2+  Ca29  1  0.32325103  0.91490024  0.84198908  1
  Ca2+  Ca30  1  0.83127657  0.42784174  0.17014174  1
  Ca2+  Ca31  1  0.82416420  0.42569054  0.50645761  1
  Ca2+  Ca32  1  0.83730368  0.42595268  0.83684466  1
  Ca2+  Ca33  1  0.82402347  0.91335356  0.17403619  1
  Ca2+  Ca34  1  0.83201201  0.91795368  0.50692065  1
  Ca2+  Ca35  1  0.84210657  0.92063789  0.83210559  1
  Ca2+  Ca36  1  0.41317381  0.16119373  0.16292854  1
  Ca2+  Ca37  1  0.41443263  0.16836961  0.49312798  1
  Ca2+  Ca38  1  0.41370957  0.16578884  0.83473898  1
  Ca2+  Ca39  1  0.43035838  0.67721422  0.15915505  1
  Ca2+  Ca40  1  0.42795961  0.66700222  0.49423380  1
  Ca2+  Ca41  1  0.42446367  0.66371363  0.82696292  1
  Ca2+  Ca42  1  0.92343901  0.17458471  0.16070857  1
  Ca2+  Ca43  1  0.91681414  0.16983100  0.49803576  1
  Ca2+  Ca44  1  0.91169884  0.17931520  0.82352080  1
  Ca2+  Ca45  1  0.91575181  0.66263459  0.15989869  1
  Ca2+  Ca46  1  0.91561939  0.66308091  0.50272004  1
  Ca2+  Ca47  1  0.92641014  0.66508833  0.82632308  1
  Al0+  Al48  1  0.00194787  0.00154710  0.00651469  1
  Al0+  Al49  1  0.00199337  -0.00044244  0.32702361  1
  Al0+  Al50  1  0.00073170  0.00014376  0.67152477  1
  Al0+  Al51  1  -0.00119216  0.50041084  0.00103264  1
  Al0+  Al52  1  -0.00121090  0.49896737  0.33756026  1
  Al0+  Al53  1  -0.00079829  0.49825226  0.65767734  1
  Al0+  Al54  1  0.50137817  0.00035770  -0.00308666  1
  Al0+  Al55  1  0.49916230  0.00122058  0.34008667  1
  Al0+  Al56  1  0.50012037  0.00103256  0.66792181  1
  Al0+  Al57  1  0.50128689  0.49764850  -0.00377133  1
  Al0+  Al58  1  0.49863777  0.49889586  0.32938938  1
  Al0+  Al59  1  0.49781105  0.49870713  0.66973777  1
  Al0+  Al60  1  0.25033282  0.24974324  0.00448726  1
  Al0+  Al61  1  0.24929792  0.24783077  0.33356035  1
  Al0+  Al62  1  0.25081768  0.25023675  0.66670174  1
  Al0+  Al63  1  0.25089934  0.75022123  0.00033493  1
  Al0+  Al64  1  0.24863949  0.75072886  0.32845602  1
  Al0+  Al65  1  0.25119545  0.75124664  0.67100990  1
  Al0+  Al66  1  0.74998338  0.25146075  -0.00221816  1
  Al0+  Al67  1  0.75055954  0.25197131  0.33313686  1
  Al0+  Al68  1  0.74856514  0.24799145  0.66642766  1
  Al0+  Al69  1  0.75061000  0.75164928  -0.00048848  1
  Al0+  Al70  1  0.75168877  0.75044763  0.33848209  1
  Al0+  Al71  1  0.74892523  0.74945599  0.66413613  1
  Al0+  Al72  1  0.07145576  0.17873268  0.31831154  1
  Al0+  Al73  1  0.32148772  0.06903871  0.01541908  1
  Al0+  Al74  1  0.82185433  0.57210309  0.35058279  1
  Al0+  Al75  1  0.56923525  0.67791408  0.65188315  1
  Al0+  Al76  1  0.42867229  0.82250619  0.31892931  1
  Al0+  Al77  1  0.92652052  0.32104519  0.65011347  1
  Al0+  Al78  1  0.18048192  0.93071719  0.67988217  1
  Al0+  Al79  1  0.43019198  0.82241239  0.98353619  1
  Al0+  Al80  1  0.57307973  0.67736517  0.31793902  1
  Al0+  Al81  1  0.82214204  0.57148373  0.68404946  1
  Al0+  Al82  1  0.82025093  0.06874784  0.67886829  1
  Al0+  Al83  1  0.92952113  0.82258599  0.65265143  1
  Al0+  Al84  1  0.07288491  0.67869169  0.65121388  1
  Al0+  Al85  1  0.17798349  0.92528919  0.01895411  1
  Al0+  Al86  1  0.81919046  0.57137400  0.01261815  1
  Al0+  Al87  1  0.67661234  0.42868962  0.34720284  1
  Al0+  Al88  1  0.17909165  0.43189230  0.01206319  1
  Al0+  Al89  1  0.06907195  0.67978275  0.98891949  1
  Al0+  Al90  1  0.67856966  0.42882938  0.68284860  1
  Al0+  Al91  1  0.67874465  0.93030977  0.34715890  1
  Al0+  Al92  1  0.31944090  0.57122095  0.67891418  1
  Al0+  Al93  1  0.93012253  0.31954684  0.98627956  1
  Al0+  Al94  1  0.57328029  0.67720224  0.98324992  1
  Al0+  Al95  1  0.31951696  0.06989147  0.34930581  1
  Si0+  Si96  1  0.07197580  0.17869819  0.65185071  1
  Si0+  Si97  1  0.57066333  0.17808786  0.65017441  1
  Si0+  Si98  1  0.17755675  0.42611063  0.68057885  1
  Si0+  Si99  1  0.07094629  0.67758093  0.31822926  1
  Si0+  Si100  1  0.42716600  0.32078558  0.31766404  1
  Si0+  Si101  1  0.67725682  0.42587858  0.01688934  1
  Si0+  Si102  1  0.31833337  0.57093677  0.34483088  1
  Si0+  Si103  1  0.17905669  0.42753140  0.34862740  1
  Si0+  Si104  1  0.42834296  0.31938416  0.65150819  1
  Si0+  Si105  1  0.07370814  0.17810769  0.98232494  1
  Si0+  Si106  1  0.82133139  0.07534029  0.01562893  1
  Si0+  Si107  1  0.17650457  0.92615254  0.35144346  1
  Si0+  Si108  1  0.82387704  0.07151412  0.34718178  1
  Si0+  Si109  1  0.32558025  0.57184204  0.01789964  1
  Si0+  Si110  1  0.67595709  0.92673298  0.68519003  1
  Si0+  Si111  1  0.32351740  0.07432896  0.68433914  1
  Si0+  Si112  1  0.42843090  0.82359271  0.65018763  1
  Si0+  Si113  1  0.42678503  0.32063725  0.98423457  1
  Si0+  Si114  1  0.57098874  0.17962576  0.32003984  1
  Si0+  Si115  1  0.92815275  0.32187780  0.31449494  1
  Si0+  Si116  1  0.92970691  0.82122325  0.31874606  1
  Si0+  Si117  1  0.68187019  0.93172670  0.01342730  1
  Si0+  Si118  1  0.57114386  0.17966180  0.98490438  1
  Si0+  Si119  1  0.92751556  0.82539017  0.98573761  1
  O2-  O120  1  0.25148108  -0.00315230  0.06747159  1
  O2-  O121  1  0.24634206  -0.00599251  0.39545440  1
  O2-  O122  1  0.25620857  0.00470709  0.72659083  1
  O2-  O123  1  0.25386391  0.50553614  0.06192809  1
  O2-  O124  1  0.24730476  0.50101030  0.39006754  1
  O2-  O125  1  0.23921357  0.50120560  0.72408107  1
  O2-  O126  1  0.75524280  0.00010049  0.05761461  1
  O2-  O127  1  0.75483054  0.00453544  0.39255861  1
  O2-  O128  1  0.74861435  -0.00783117  0.72859050  1
  O2-  O129  1  0.74044929  0.50000908  0.05900703  1
  O2-  O130  1  0.74505018  0.50319680  0.39721649  1
  O2-  O131  1  0.75046778  0.49908121  0.73482476  1
  O2-  O132  1  -0.00318925  0.25294489  0.27063416  1
  O2-  O133  1  0.00414954  0.24723187  0.60583686  1
  O2-  O134  1  0.00258676  0.24335098  0.93735351  1
  O2-  O135  1  -0.00184634  0.74738549  0.27731476  1
  O2-  O136  1  -0.00196447  0.74784463  0.60067564  1
  O2-  O137  1  -0.00063481  0.75956013  0.94358366  1
  O2-  O138  1  0.50134189  0.25176295  0.27687985  1
  O2-  O139  1  0.49893400  0.24850441  0.60839416  1
  O2-  O140  1  0.50036889  0.25133143  0.94317880  1
  O2-  O141  1  0.50201020  0.75142219  0.26967020  1
  O2-  O142  1  0.49752266  0.75610101  0.60554949  1
  O2-  O143  1  0.49573910  0.74416724  0.93413005  1
  O2-  O144  1  0.07247253  0.18058776  0.08819574  1
  O2-  O145  1  0.07013772  0.18070846  0.43171004  1
  O2-  O146  1  0.07280854  0.18068964  0.75725739  1
  O2-  O147  1  0.06389910  0.67770284  0.10273526  1
  O2-  O148  1  0.07497157  0.67872688  0.42278014  1
  O2-  O149  1  0.07378730  0.68050312  0.76469881  1
  O2-  O150  1  0.57277052  0.17958262  0.09020790  1
  O2-  O151  1  0.56978641  0.17988024  0.42505048  1
  O2-  O152  1  0.56979107  0.17715810  0.75556797  1
  O2-  O153  1  0.57481393  0.68061331  0.09690319  1
  O2-  O154  1  0.56907250  0.67659667  0.43149220  1
  O2-  O155  1  0.56702768  0.67911384  0.76479853  1
  O2-  O156  1  0.17910934  0.42785448  0.24335053  1
  O2-  O157  1  0.18419922  0.42043458  0.57480085  1
  O2-  O158  1  0.18077465  0.43193286  0.89914795  1
  O2-  O159  1  0.17506696  0.92665281  0.24634495  1
  O2-  O160  1  0.18133623  0.93334617  0.56636566  1
  O2-  O161  1  0.17578645  0.92910654  0.90538005  1
  O2-  O162  1  0.67946835  0.42435407  0.23356821  1
  O2-  O163  1  0.67792452  0.42953330  0.56934667  1
  O2-  O164  1  0.67915810  0.41903010  0.91210528  1
  O2-  O165  1  0.68021052  0.93316224  0.23332206  1
  O2-  O166  1  0.67300486  0.93145012  0.57962453  1
  O2-  O167  1  0.68246793  0.93453588  0.90853719  1
  O2-  O168  1  0.42662519  0.32082824  0.08951900  1
  O2-  O169  1  0.42404078  0.31992894  0.42279902  1
  O2-  O170  1  0.42620613  0.31670959  0.75658692  1
  O2-  O171  1  0.43643018  0.82513319  0.09707555  1
  O2-  O172  1  0.42678541  0.81901782  0.43264112  1
  O2-  O173  1  0.43012774  0.82471458  0.75558245  1
  O2-  O174  1  0.93141077  0.31695944  0.09955776  1
  O2-  O175  1  0.92851230  0.31983895  0.41991241  1
  O2-  O176  1  0.92832493  0.31954437  0.76344830  1
  O2-  O177  1  0.92422079  0.82411394  0.09182267  1
  O2-  O178  1  0.93211211  0.82643560  0.42313869  1
  O2-  O179  1  0.93401682  0.82547861  0.76616508  1
  O2-  O180  1  0.31946049  0.07186570  0.23686638  1
  O2-  O181  1  0.32346213  0.07686899  0.57880319  1
  O2-  O182  1  0.31974992  0.07055484  0.90175604  1
  O2-  O183  1  0.31628931  0.56759169  0.23996943  1
  O2-  O184  1  0.32021901  0.56787178  0.56497959  1
  O2-  O185  1  0.32611033  0.56783489  0.91224743  1
  O2-  O186  1  0.82125555  0.07025862  0.24104373  1
  O2-  O187  1  0.81740852  0.06836609  0.56554122  1
  O2-  O188  1  0.81857272  0.07706615  0.91065335  1
  O2-  O189  1  0.82463968  0.56944518  0.23649134  1
  O2-  O190  1  0.81997388  0.56957821  0.57072257  1
  O2-  O191  1  0.82192854  0.57014769  0.90029983  1
  O2-  O192  1  0.04258924  0.08261249  0.26190886  1
  O2-  O193  1  0.04504738  0.08588355  0.60590432  1
  O2-  O194  1  0.04948841  0.08255344  0.94020880  1
  O2-  O195  1  0.04393032  0.58393062  0.27328124  1
  O2-  O196  1  0.05145196  0.57909277  0.59705034  1
  O2-  O197  1  0.03613938  0.58493362  0.93397946  1
  O2-  O198  1  0.54150116  0.08858420  0.27250435  1
  O2-  O199  1  0.54246717  0.08613174  0.60230366  1
  O2-  O200  1  0.54350835  0.08978400  0.93420072  1
  O2-  O201  1  0.54316090  0.57938555  0.26414323  1
  O2-  O202  1  0.53319541  0.58166242  0.60013916  1
  O2-  O203  1  0.55020627  0.57613086  0.93294096  1
  O2-  O204  1  0.16735227  0.21171886  0.26433435  1
  O2-  O205  1  0.16636435  0.20402210  0.60535800  1
  O2-  O206  1  0.16704902  0.20558390  0.93779398  1
  O2-  O207  1  0.16098627  0.70557592  0.26752983  1
  O2-  O208  1  0.17134430  0.71186682  0.59927969  1
  O2-  O209  1  0.16877210  0.70236030  0.93811033  1
  O2-  O210  1  0.66337641  0.20489909  0.27113807  1
  O2-  O211  1  0.66123261  0.20453657  0.60084593  1
  O2-  O212  1  0.66233439  0.20768766  0.93613698  1
  O2-  O213  1  0.67299932  0.70717947  0.26909453  1
  O2-  O214  1  0.66610997  0.70667784  0.59846320  1
  O2-  O215  1  0.66956315  0.71354322  0.93054430  1
  O2-  O216  1  0.08441910  0.46318153  0.06956424  1
  O2-  O217  1  0.08654671  0.45154661  0.39566750  1
  O2-  O218  1  0.08093508  0.44431213  0.72064048  1
  O2-  O219  1  0.07949966  0.95489316  0.07324522  1
  O2-  O220  1  0.08310870  0.95561710  0.39611302  1
  O2-  O221  1  0.08611261  0.96269968  0.73657504  1
  O2-  O222  1  0.58058084  0.44415807  0.06002438  1
  O2-  O223  1  0.57413585  0.44857107  0.39625256  1
  O2-  O224  1  0.57840149  0.45264635  0.73432226  1
  O2-  O225  1  0.59195265  0.96477105  0.06084243  1
  O2-  O226  1  0.58533604  0.96383893  0.40462815  1
  O2-  O227  1  0.58474546  0.95967726  0.73285736  1
  O2-  O228  1  0.21113495  0.33600120  0.06783331  1
  O2-  O229  1  0.21047911  0.33747062  0.39634454  1
  O2-  O230  1  0.21038781  0.33589085  0.73022730  1
  O2-  O231  1  0.20416225  0.82608516  0.07137609  1
  O2-  O232  1  0.20152201  0.83171633  0.39616849  1
  O2-  O233  1  0.21077802  0.83547544  0.73550128  1
  O2-  O234  1  0.70749050  0.33386107  0.06539584  1
  O2-  O235  1  0.70646704  0.32982989  0.40056783  1
  O2-  O236  1  0.70270234  0.32763997  0.73220067  1
  O2-  O237  1  0.70826107  0.84056242  0.06247802  1
  O2-  O238  1  0.70982638  0.83528377  0.40201960  1
  O2-  O239  1  0.69701101  0.83217200  0.72883869  1
  O2-  O240  1  0.45096999  0.41191307  0.26706129  1
  O2-  O241  1  0.45510721  0.41070841  0.60335428  1
  O2-  O242  1  0.45229036  0.41190925  0.93500934  1
  O2-  O243  1  0.45810519  0.92257549  0.26986343  1
  O2-  O244  1  0.45231247  0.91894677  0.60546677  1
  O2-  O245  1  0.46402930  0.91873531  0.92863667  1
  O2-  O246  1  0.95702213  0.41543754  0.27011116  1
  O2-  O247  1  0.95643250  0.41504626  0.59175235  1
  O2-  O248  1  0.96437375  0.41464554  0.93308682  1
  O2-  O249  1  0.95733152  0.91141474  0.26709055  1
  O2-  O250  1  0.96179010  0.92073090  0.59918243  1
  O2-  O251  1  0.95000220  0.92165937  0.94316534  1
  O2-  O252  1  0.33702878  0.28930207  0.26901040  1
  O2-  O253  1  0.33714457  0.29129154  0.60140746  1
  O2-  O254  1  0.33638110  0.28981354  0.93580721  1
  O2-  O255  1  0.33025706  0.79426421  0.26498419  1
  O2-  O256  1  0.33483433  0.79797386  0.60549685  1
  O2-  O257  1  0.32885004  0.80031461  0.93549146  1
  O2-  O258  1  0.83457512  0.29646348  0.26791325  1
  O2-  O259  1  0.83152644  0.28415075  0.59691739  1
  O2-  O260  1  0.83339492  0.28881948  0.93235044  1
  O2-  O261  1  0.83719595  0.79539553  0.27176298  1
  O2-  O262  1  0.82898953  0.80050447  0.60140501  1
  O2-  O263  1  0.83503181  0.80045523  0.93824609  1
  O2-  O264  1  0.42272072  0.04399768  0.06567861  1
  O2-  O265  1  0.41622080  0.04450872  0.40538233  1
  O2-  O266  1  0.41818439  0.05130363  0.72963868  1
  O2-  O267  1  0.41795711  0.54055616  0.06380232  1
  O2-  O268  1  0.40993533  0.54158740  0.39143883  1
  O2-  O269  1  0.41104504  0.53225549  0.73617138  1
  O2-  O270  1  0.91487892  0.05419680  0.06209278  1
  O2-  O271  1  0.91764163  0.04451006  0.39142150  1
  O2-  O272  1  0.91632283  0.04309185  0.73599977  1
  O2-  O273  1  0.91312213  0.53552611  0.06866211  1
  O2-  O274  1  0.91935776  0.54006619  0.40431590  1
  O2-  O275  1  0.92340608  0.54172887  0.73080325  1
  O2-  O276  1  0.29448120  0.16806062  0.06860062  1
  O2-  O277  1  0.28738911  0.16678974  0.40348775  1
  O2-  O278  1  0.29782049  0.16806912  0.73055978  1
  O2-  O279  1  0.30395100  0.66647087  0.06171598  1
  O2-  O280  1  0.28957219  0.66261564  0.39178660  1
  O2-  O281  1  0.29535711  0.66778834  0.73473589  1
  O2-  O282  1  0.78759378  0.16441630  0.06500853  1
  O2-  O283  1  0.80003181  0.16617419  0.39102837  1
  O2-  O284  1  0.78374241  0.16265601  0.73450611  1
  O2-  O285  1  0.79244559  0.66982272  0.06653639  1
  O2-  O286  1  0.80060095  0.67182025  0.40260853  1
  O2-  O287  1  0.79411029  0.67157868  0.73402785  1
