# generated using pymatgen
data_Ca2Al2SiO7
_symmetry_space_group_name_H-M   'P 1'
_cell_length_a   15.45992311
_cell_length_b   15.46115402
_cell_length_c   15.28457298
_cell_angle_alpha   89.99917224
_cell_angle_beta   89.98773509
_cell_angle_gamma   90.01295671
_symmetry_Int_Tables_number   1
_chemical_formula_structural   Ca2Al2SiO7
_chemical_formula_sum   'Ca48 Al48 Si24 O168'
_cell_volume   3653.44458938
_cell_formula_units_Z   24
loop_
 _symmetry_equiv_pos_site_id
 _symmetry_equiv_pos_as_xyz
  1  'x, y, z'
loop_
 _atom_type_symbol
 _atom_type_oxidation_number
  Ca2+  2.0
  Al0+  0.0
  Si0+  0.0
  O2-  -2.0
loop_
 _atom_site_type_symbol
 _atom_site_label
 _atom_site_symmetry_multiplicity
 _atom_site_fract_x
 _atom_site_fract_y
 _atom_site_fract_z
 _atom_site_occupancy
  Ca2+  Ca0  1  0.17511471  0.08209974  0.17788671  1
  Ca2+  Ca1  1  0.17165131  0.08717169  0.49818109  1
  Ca2+  Ca2  1  0.17926379  0.08609832  0.83739764  1
  Ca2+  Ca3  1  0.17981390  0.58361832  0.17104256  1
  Ca2+  Ca4  1  0.17601100  0.57961701  0.50720379  1
  Ca2+  Ca5  1  0.16895317  0.58246924  0.83311740  1
  Ca2+  Ca6  1  0.67028761  0.07990954  0.17394532  1
  Ca2+  Ca7  1  0.66043769  0.07940385  0.49668394  1
  Ca2+  Ca8  1  0.67437296  0.08299986  0.84082934  1
  Ca2+  Ca9  1  0.66685629  0.57289693  0.17343488  1
  Ca2+  Ca10  1  0.66462106  0.57108188  0.50045460  1
  Ca2+  Ca11  1  0.67464090  0.56910656  0.84099541  1
  Ca2+  Ca12  1  0.07456041  0.32978599  0.16495292  1
  Ca2+  Ca13  1  0.07542309  0.33539071  0.49245441  1
  Ca2+  Ca14  1  0.07071989  0.34189491  0.82645320  1
  Ca2+  Ca15  1  0.08251350  0.83838605  0.16876365  1
  Ca2+  Ca16  1  0.08353544  0.82984974  0.49291381  1
  Ca2+  Ca17  1  0.08222622  0.82459931  0.82741816  1
  Ca2+  Ca18  1  0.58236614  0.33465043  0.17045514  1
  Ca2+  Ca19  1  0.57948162  0.33070381  0.48813492  1
  Ca2+  Ca20  1  0.58709768  0.33652241  0.83102798  1
  Ca2+  Ca21  1  0.58092720  0.82837594  0.16509866  1
  Ca2+  Ca22  1  0.58288967  0.82401182  0.48793712  1
  Ca2+  Ca23  1  0.57501999  0.83197120  0.83261057  1
  Ca2+  Ca24  1  0.34149954  0.42664332  0.17475151  1
  Ca2+  Ca25  1  0.33369990  0.42469919  0.50437536  1
  Ca2+  Ca26  1  0.32596930  0.42831024  0.83609832  1
  Ca2+  Ca27  1  0.33154992  0.92401655  0.17380568  1
  Ca2+  Ca28  1  0.33170383  0.93072704  0.49875943  1
  Ca2+  Ca29  1  0.33613957  0.92533888  0.84071933  1
  Ca2+  Ca30  1  0.82656220  0.41268488  0.16843382  1
  Ca2+  Ca31  1  0.82356986  0.40182366  0.50162772  1
  Ca2+  Ca32  1  0.82728529  0.41313874  0.84184135  1
  Ca2+  Ca33  1  0.83256196  0.92168642  0.17738083  1
  Ca2+  Ca34  1  0.83003076  0.91146991  0.49610505  1
  Ca2+  Ca35  1  0.83223204  0.92469538  0.84091590  1
  Ca2+  Ca36  1  0.41955258  0.16313224  0.16567328  1
  Ca2+  Ca37  1  0.41629592  0.17359108  0.48834662  1
  Ca2+  Ca38  1  0.41619265  0.16433591  0.82931227  1
  Ca2+  Ca39  1  0.42030903  0.66591505  0.16177411  1
  Ca2+  Ca40  1  0.42039858  0.66002968  0.49070649  1
  Ca2+  Ca41  1  0.40707974  0.66988708  0.83200578  1
  Ca2+  Ca42  1  0.91713280  0.17395544  0.16345421  1
  Ca2+  Ca43  1  0.92494606  0.17814016  0.48972658  1
  Ca2+  Ca44  1  0.91275380  0.17718906  0.83054755  1
  Ca2+  Ca45  1  0.91188035  0.67235591  0.16307437  1
  Ca2+  Ca46  1  0.92618287  0.66946039  0.49318834  1
  Ca2+  Ca47  1  0.92285850  0.65965336  0.82823003  1
  Al0+  Al48  1  0.00131330  0.00041697  0.00037935  1
  Al0+  Al49  1  0.00113981  -0.00047132  0.33167419  1
  Al0+  Al50  1  -0.00091604  0.00109597  0.66716322  1
  Al0+  Al51  1  -0.00113064  0.50010134  0.00016206  1
  Al0+  Al52  1  0.00110853  0.50270300  0.32671412  1
  Al0+  Al53  1  -0.00126211  0.50193669  0.65685564  1
  Al0+  Al54  1  0.49974666  -0.00071517  -0.00235383  1
  Al0+  Al55  1  0.50100591  -0.00069951  0.33817169  1
  Al0+  Al56  1  0.50029679  -0.00137243  0.67015048  1
  Al0+  Al57  1  0.50035416  0.49845837  0.00350542  1
  Al0+  Al58  1  0.50355221  0.49977468  0.33335329  1
  Al0+  Al59  1  0.50088659  0.50027587  0.67628840  1
  Al0+  Al60  1  0.25078709  0.24970127  0.00234522  1
  Al0+  Al61  1  0.24901458  0.25397227  0.32832725  1
  Al0+  Al62  1  0.24970272  0.25100952  0.67583022  1
  Al0+  Al63  1  0.24989157  0.75013923  -0.00139258  1
  Al0+  Al64  1  0.25081057  0.75126643  0.34127709  1
  Al0+  Al65  1  0.24925348  0.75331093  0.66346116  1
  Al0+  Al66  1  0.74991860  0.24741988  0.00391388  1
  Al0+  Al67  1  0.74910166  0.24912337  0.33038153  1
  Al0+  Al68  1  0.74892953  0.24740807  0.66584614  1
  Al0+  Al69  1  0.74877457  0.74861838  -0.00267583  1
  Al0+  Al70  1  0.75105513  0.74938925  0.32935864  1
  Al0+  Al71  1  0.74692310  0.75001632  0.66850566  1
  Al0+  Al72  1  0.92992188  0.31852786  0.98484800  1
  Al0+  Al73  1  0.82320014  0.57201169  0.01476957  1
  Al0+  Al74  1  0.57120098  0.67825522  0.32006927  1
  Al0+  Al75  1  0.67943325  0.42742589  0.01783169  1
  Al0+  Al76  1  0.32142164  0.07441529  0.34774608  1
  Al0+  Al77  1  0.32109227  0.07062205  0.68144326  1
  Al0+  Al78  1  0.43000230  0.81943546  0.98687908  1
  Al0+  Al79  1  0.93051065  0.81924460  0.31996297  1
  Al0+  Al80  1  0.92794226  0.32021166  0.65235556  1
  Al0+  Al81  1  0.31863563  0.57110490  0.01407284  1
  Al0+  Al82  1  0.92771839  0.32287575  0.31584453  1
  Al0+  Al83  1  0.17556272  0.42980266  0.68031002  1
  Al0+  Al84  1  0.32227845  0.56973210  0.34636588  1
  Al0+  Al85  1  0.68081848  0.42698119  0.68014610  1
  Al0+  Al86  1  0.17730054  0.92982227  0.34963623  1
  Al0+  Al87  1  0.42890664  0.32242477  0.31989463  1
  Al0+  Al88  1  0.68280695  0.42867908  0.34831082  1
  Al0+  Al89  1  0.07234707  0.17897881  0.31817822  1
  Al0+  Al90  1  0.32152596  0.57316149  0.68248019  1
  Al0+  Al91  1  0.07101454  0.68031480  0.65124893  1
  Al0+  Al92  1  0.32193448  0.07126922  0.01513078  1
  Al0+  Al93  1  0.56942080  0.17601866  0.31828475  1
  Al0+  Al94  1  0.68003102  0.92729387  0.34611658  1
  Al0+  Al95  1  0.82204925  0.06878893  0.01401582  1
  Si0+  Si96  1  0.82368413  0.57312185  0.35001595  1
  Si0+  Si97  1  0.56908719  0.67904355  0.65288513  1
  Si0+  Si98  1  0.42935691  0.32114608  0.65621041  1
  Si0+  Si99  1  0.42765781  0.32275876  0.98280005  1
  Si0+  Si100  1  0.17598145  0.92934351  0.68441022  1
  Si0+  Si101  1  0.57018524  0.17740865  0.65303208  1
  Si0+  Si102  1  0.07408961  0.17684284  0.98099850  1
  Si0+  Si103  1  0.82197741  0.07159605  0.35125033  1
  Si0+  Si104  1  0.07380244  0.17785780  0.65187196  1
  Si0+  Si105  1  0.67797888  0.92761908  0.01512172  1
  Si0+  Si106  1  0.92578400  0.82408760  0.65143866  1
  Si0+  Si107  1  0.17896786  0.92752271  0.01523699  1
  Si0+  Si108  1  0.17562235  0.43000179  0.34781738  1
  Si0+  Si109  1  0.07010200  0.68052702  0.98548282  1
  Si0+  Si110  1  0.42942576  0.82315359  0.64984674  1
  Si0+  Si111  1  0.17662152  0.42797826  0.01727329  1
  Si0+  Si112  1  0.57225364  0.67499811  0.98043197  1
  Si0+  Si113  1  0.42787661  0.82137363  0.31906908  1
  Si0+  Si114  1  0.92720634  0.82303942  0.98447794  1
  Si0+  Si115  1  0.67868276  0.92670801  0.68352322  1
  Si0+  Si116  1  0.07562302  0.67941092  0.31435197  1
  Si0+  Si117  1  0.82032038  0.57428068  0.68000713  1
  Si0+  Si118  1  0.56907040  0.17911472  0.98398857  1
  Si0+  Si119  1  0.82008763  0.06948204  0.68034492  1
  O2-  O120  1  0.24462765  -0.00117452  0.05878878  1
  O2-  O121  1  0.24718203  0.00468600  0.39824354  1
  O2-  O122  1  0.24482463  -0.00255359  0.72903868  1
  O2-  O123  1  0.24853102  0.49310554  0.06157696  1
  O2-  O124  1  0.24691455  0.49576426  0.39241119  1
  O2-  O125  1  0.24671728  0.50296805  0.73097457  1
  O2-  O126  1  0.75230872  -0.01081671  0.05929010  1
  O2-  O127  1  0.75266753  0.00302344  0.39577107  1
  O2-  O128  1  0.75194201  -0.00410623  0.72401661  1
  O2-  O129  1  0.75040576  0.50188234  0.06533954  1
  O2-  O130  1  0.76119713  0.49959861  0.39583422  1
  O2-  O131  1  0.75765806  0.50042873  0.72469554  1
  O2-  O132  1  -0.00052110  0.24967580  0.26753718  1
  O2-  O133  1  0.00748280  0.24908459  0.60846156  1
  O2-  O134  1  0.00591884  0.24565045  0.93577597  1
  O2-  O135  1  0.00581475  0.74694237  0.27012037  1
  O2-  O136  1  -0.00512455  0.75599218  0.60801537  1
  O2-  O137  1  -0.00462979  0.74895515  0.94290124  1
  O2-  O138  1  0.49525103  0.24553491  0.26813906  1
  O2-  O139  1  0.49856165  0.24849352  0.61335141  1
  O2-  O140  1  0.49862003  0.25062489  0.94082851  1
  O2-  O141  1  0.49513014  0.75198866  0.27412986  1
  O2-  O142  1  0.49529596  0.74671962  0.60929728  1
  O2-  O143  1  0.50249465  0.74346480  0.93655201  1
  O2-  O144  1  0.07318014  0.17615880  0.08595050  1
  O2-  O145  1  0.07052575  0.18088755  0.43255283  1
  O2-  O146  1  0.07057898  0.17434794  0.75749177  1
  O2-  O147  1  0.07269626  0.68370601  0.09007654  1
  O2-  O148  1  0.07406991  0.67971025  0.41998081  1
  O2-  O149  1  0.06898107  0.68212784  0.76523974  1
  O2-  O150  1  0.56782472  0.17549385  0.08823612  1
  O2-  O151  1  0.56912475  0.17778596  0.43281962  1
  O2-  O152  1  0.57166151  0.17590048  0.75856457  1
  O2-  O153  1  0.57274301  0.67671533  0.08570252  1
  O2-  O154  1  0.57004330  0.67850140  0.43408891  1
  O2-  O155  1  0.57143306  0.68298433  0.75779903  1
  O2-  O156  1  0.17400901  0.43398761  0.24215995  1
  O2-  O157  1  0.17869350  0.42937594  0.56694286  1
  O2-  O158  1  0.17572843  0.43086961  0.91141565  1
  O2-  O159  1  0.18041523  0.92795691  0.23569470  1
  O2-  O160  1  0.17495463  0.93056881  0.57952314  1
  O2-  O161  1  0.17952917  0.92658474  0.90918114  1
  O2-  O162  1  0.68142286  0.43079284  0.23596921  1
  O2-  O163  1  0.67874695  0.42672533  0.56749855  1
  O2-  O164  1  0.68151106  0.42735954  0.90332111  1
  O2-  O165  1  0.68253332  0.92726453  0.23307441  1
  O2-  O166  1  0.67734262  0.92464785  0.57892054  1
  O2-  O167  1  0.67828776  0.93073803  0.90851083  1
  O2-  O168  1  0.42751462  0.32348372  0.08726264  1
  O2-  O169  1  0.43175746  0.32359609  0.43448043  1
  O2-  O170  1  0.43172471  0.31966101  0.76162033  1
  O2-  O171  1  0.43208854  0.81944574  0.09950644  1
  O2-  O172  1  0.43077983  0.82060167  0.42519928  1
  O2-  O173  1  0.43263947  0.82572022  0.75525615  1
  O2-  O174  1  0.93102231  0.31676843  0.09702065  1
  O2-  O175  1  0.92873413  0.32010091  0.42997636  1
  O2-  O176  1  0.92562364  0.31720073  0.76579019  1
  O2-  O177  1  0.92811675  0.82468132  0.08899076  1
  O2-  O178  1  0.92932097  0.81545438  0.43346602  1
  O2-  O179  1  0.92594502  0.82517622  0.75747236  1
  O2-  O180  1  0.32271140  0.06858458  0.23429636  1
  O2-  O181  1  0.32380767  0.07069528  0.56924832  1
  O2-  O182  1  0.32236892  0.06876985  0.90140923  1
  O2-  O183  1  0.32063257  0.57097340  0.23306692  1
  O2-  O184  1  0.32496968  0.56931432  0.56921506  1
  O2-  O185  1  0.31408225  0.57220645  0.90104098  1
  O2-  O186  1  0.82105170  0.06921663  0.24554550  1
  O2-  O187  1  0.81891511  0.06895616  0.57588288  1
  O2-  O188  1  0.81883658  0.06824576  0.89981650  1
  O2-  O189  1  0.82013106  0.57512057  0.24463920  1
  O2-  O190  1  0.81494981  0.58177623  0.57520718  1
  O2-  O191  1  0.82354596  0.57051799  0.90037049  1
  O2-  O192  1  0.04617384  0.07988948  0.26600650  1
  O2-  O193  1  0.04529337  0.08491637  0.60514802  1
  O2-  O194  1  0.04921113  0.08233277  0.93489706  1
  O2-  O195  1  0.05257237  0.58644114  0.26665149  1
  O2-  O196  1  0.04119417  0.58632052  0.59244122  1
  O2-  O197  1  0.04412402  0.58834186  0.93750543  1
  O2-  O198  1  0.54498470  0.07588977  0.26645092  1
  O2-  O199  1  0.54356724  0.08435382  0.60728751  1
  O2-  O200  1  0.54141922  0.08798082  0.93349197  1
  O2-  O201  1  0.54041835  0.58360955  0.26443273  1
  O2-  O202  1  0.54366891  0.58511394  0.60856960  1
  O2-  O203  1  0.54683772  0.58072893  0.93575573  1
  O2-  O204  1  0.16927548  0.20709397  0.26252303  1
  O2-  O205  1  0.16937231  0.20097033  0.60934125  1
  O2-  O206  1  0.16880384  0.20236256  0.93611349  1
  O2-  O207  1  0.16919109  0.70844795  0.27014942  1
  O2-  O208  1  0.16712331  0.71238287  0.59672134  1
  O2-  O209  1  0.15939622  0.71240043  0.93498297  1
  O2-  O210  1  0.66754571  0.20394120  0.26581743  1
  O2-  O211  1  0.66130771  0.20387828  0.60455717  1
  O2-  O212  1  0.66137868  0.20675340  0.93660704  1
  O2-  O213  1  0.66579528  0.71090289  0.26449017  1
  O2-  O214  1  0.65984870  0.71043443  0.60494376  1
  O2-  O215  1  0.66537278  0.70190066  0.93217494  1
  O2-  O216  1  0.08484665  0.45717248  0.06355750  1
  O2-  O217  1  0.08292678  0.45906387  0.39471239  1
  O2-  O218  1  0.07584206  0.46069970  0.73041500  1
  O2-  O219  1  0.08416790  0.94956566  0.05984365  1
  O2-  O220  1  0.07786767  0.95439898  0.40277678  1
  O2-  O221  1  0.08137660  0.95275790  0.73114277  1
  O2-  O222  1  0.58022726  0.45397650  0.06865208  1
  O2-  O223  1  0.58792203  0.46391616  0.40291730  1
  O2-  O224  1  0.58689271  0.45969751  0.73809069  1
  O2-  O225  1  0.58695994  0.95930943  0.06074793  1
  O2-  O226  1  0.58452845  0.95553894  0.40389318  1
  O2-  O227  1  0.58872799  0.95773634  0.73289536  1
  O2-  O228  1  0.19871290  0.33293301  0.06056815  1
  O2-  O229  1  0.19606366  0.33512433  0.39205346  1
  O2-  O230  1  0.20238236  0.33299119  0.73764984  1
  O2-  O231  1  0.20670088  0.83553998  0.06211927  1
  O2-  O232  1  0.20752278  0.83328509  0.40571980  1
  O2-  O233  1  0.20239815  0.83583426  0.73004290  1
  O2-  O234  1  0.70792108  0.32929811  0.06901651  1
  O2-  O235  1  0.70940729  0.33000184  0.40136673  1
  O2-  O236  1  0.70932672  0.32912894  0.73377074  1
  O2-  O237  1  0.69549448  0.83086601  0.05609247  1
  O2-  O238  1  0.71434714  0.83174923  0.40135636  1
  O2-  O239  1  0.70443507  0.83553238  0.73391796  1
  O2-  O240  1  0.46599654  0.41699966  0.26478464  1
  O2-  O241  1  0.45879706  0.41359332  0.61117072  1
  O2-  O242  1  0.45657019  0.41429478  0.93468000  1
  O2-  O243  1  0.45550128  0.91425623  0.27398120  1
  O2-  O244  1  0.46455777  0.91264821  0.60233959  1
  O2-  O245  1  0.46424324  0.91459223  0.92936592  1
  O2-  O246  1  0.95511665  0.42187929  0.26359465  1
  O2-  O247  1  0.95053757  0.41782014  0.59747707  1
  O2-  O248  1  0.95923792  0.41706385  0.93213179  1
  O2-  O249  1  0.95835478  0.91622440  0.26570800  1
  O2-  O250  1  0.94955813  0.91816915  0.60545942  1
  O2-  O251  1  0.95798190  0.91357075  0.93470915  1
  O2-  O252  1  0.32850625  0.30650746  0.26707504  1
  O2-  O253  1  0.33612764  0.29516977  0.61128087  1
  O2-  O254  1  0.33505389  0.29523918  0.93588605  1
  O2-  O255  1  0.33336359  0.79745270  0.27508042  1
  O2-  O256  1  0.33527696  0.80411895  0.60473959  1
  O2-  O257  1  0.33301012  0.79023327  0.93100815  1
  O2-  O258  1  0.83010432  0.29231966  0.26423036  1
  O2-  O259  1  0.83335204  0.28141903  0.59879595  1
  O2-  O260  1  0.83278546  0.28350811  0.93268803  1
  O2-  O261  1  0.83561481  0.78825849  0.26301588  1
  O2-  O262  1  0.83090904  0.79843943  0.60763349  1
  O2-  O263  1  0.83380888  0.80033453  0.93646662  1
  O2-  O264  1  0.41836241  0.03723163  0.06599026  1
  O2-  O265  1  0.41815075  0.04275105  0.40279231  1
  O2-  O266  1  0.41712337  0.03626886  0.73648249  1
  O2-  O267  1  0.41696802  0.54396919  0.06484349  1
  O2-  O268  1  0.41827537  0.53772648  0.40013367  1
  O2-  O269  1  0.41784529  0.54382162  0.73929946  1
  O2-  O270  1  0.91995793  0.04186497  0.06629310  1
  O2-  O271  1  0.91492239  0.04443348  0.39679745  1
  O2-  O272  1  0.91239112  0.04516784  0.72938765  1
  O2-  O273  1  0.92201329  0.54743053  0.06774747  1
  O2-  O274  1  0.92091585  0.55427016  0.39135107  1
  O2-  O275  1  0.91660671  0.55343023  0.72070659  1
  O2-  O276  1  0.29593147  0.16939692  0.06712226  1
  O2-  O277  1  0.29476017  0.17506247  0.39732162  1
  O2-  O278  1  0.29328971  0.16647530  0.73880857  1
  O2-  O279  1  0.28554862  0.66710739  0.06723954  1
  O2-  O280  1  0.29391029  0.66589518  0.40192781  1
  O2-  O281  1  0.29416033  0.67423843  0.73078940  1
  O2-  O282  1  0.78661961  0.16174043  0.06919235  1
  O2-  O283  1  0.79535407  0.16472404  0.39683089  1
  O2-  O284  1  0.78695330  0.15842834  0.73030328  1
  O2-  O285  1  0.79740120  0.67314295  0.06389771  1
  O2-  O286  1  0.79350376  0.66465416  0.39710694  1
  O2-  O287  1  0.79126456  0.66556897  0.73104874  1
