# generated using pymatgen
data_Ca2Al2SiO7
_symmetry_space_group_name_H-M   'P 1'
_cell_length_a   15.46441137
_cell_length_b   15.46273976
_cell_length_c   15.28839390
_cell_angle_alpha   90.00169280
_cell_angle_beta   90.00490852
_cell_angle_gamma   89.98479700
_symmetry_Int_Tables_number   1
_chemical_formula_structural   Ca2Al2SiO7
_chemical_formula_sum   'Ca48 Al48 Si24 O168'
_cell_volume   3655.79375860
_cell_formula_units_Z   24
loop_
 _symmetry_equiv_pos_site_id
 _symmetry_equiv_pos_as_xyz
  1  'x, y, z'
loop_
 _atom_type_symbol
 _atom_type_oxidation_number
  Ca2+  2.0
  Al0+  0.0
  Si0+  0.0
  O2-  -2.0
loop_
 _atom_site_type_symbol
 _atom_site_label
 _atom_site_symmetry_multiplicity
 _atom_site_fract_x
 _atom_site_fract_y
 _atom_site_fract_z
 _atom_site_occupancy
  Ca2+  Ca0  1  0.17380703  0.07598200  0.18065802  1
  Ca2+  Ca1  1  0.17206401  0.07921023  0.50290774  1
  Ca2+  Ca2  1  0.16997102  0.08452521  0.82946486  1
  Ca2+  Ca3  1  0.16708246  0.57970370  0.17111777  1
  Ca2+  Ca4  1  0.18395567  0.58559424  0.50483733  1
  Ca2+  Ca5  1  0.16922311  0.57797915  0.83964386  1
  Ca2+  Ca6  1  0.66947974  0.07659851  0.17916287  1
  Ca2+  Ca7  1  0.65599586  0.07993811  0.50177131  1
  Ca2+  Ca8  1  0.66695557  0.08706929  0.83401983  1
  Ca2+  Ca9  1  0.66402262  0.58048322  0.17843097  1
  Ca2+  Ca10  1  0.65494159  0.57263396  0.50425325  1
  Ca2+  Ca11  1  0.66241211  0.57939365  0.82933840  1
  Ca2+  Ca12  1  0.09392147  0.32636106  0.16468208  1
  Ca2+  Ca13  1  0.08618720  0.32041263  0.49651471  1
  Ca2+  Ca14  1  0.08047709  0.33070199  0.82283685  1
  Ca2+  Ca15  1  0.07564081  0.83333633  0.16276477  1
  Ca2+  Ca16  1  0.08107403  0.84391353  0.49326958  1
  Ca2+  Ca17  1  0.08252894  0.83296378  0.83108380  1
  Ca2+  Ca18  1  0.57782697  0.33459452  0.17376707  1
  Ca2+  Ca19  1  0.57728221  0.32687689  0.49531192  1
  Ca2+  Ca20  1  0.57816150  0.32882109  0.81762282  1
  Ca2+  Ca21  1  0.56980756  0.83909548  0.16941218  1
  Ca2+  Ca22  1  0.57887432  0.82194981  0.48863589  1
  Ca2+  Ca23  1  0.57458285  0.82645625  0.82821926  1
  Ca2+  Ca24  1  0.33178175  0.42339959  0.17501814  1
  Ca2+  Ca25  1  0.34846503  0.42541422  0.50290020  1
  Ca2+  Ca26  1  0.33503061  0.42276716  0.83295359  1
  Ca2+  Ca27  1  0.33077218  0.91703245  0.18092906  1
  Ca2+  Ca28  1  0.33026136  0.92742762  0.50467815  1
  Ca2+  Ca29  1  0.33254210  0.92132927  0.83298856  1
  Ca2+  Ca30  1  0.82515205  0.42235729  0.17644927  1
  Ca2+  Ca31  1  0.82086176  0.40831297  0.50460708  1
  Ca2+  Ca32  1  0.82704711  0.40936885  0.83315853  1
  Ca2+  Ca33  1  0.83000220  0.91034117  0.17632663  1
  Ca2+  Ca34  1  0.82736752  0.91303342  0.49871654  1
  Ca2+  Ca35  1  0.83209510  0.91634701  0.83694933  1
  Ca2+  Ca36  1  0.41937245  0.16389367  0.17102077  1
  Ca2+  Ca37  1  0.41538559  0.17399673  0.49278068  1
  Ca2+  Ca38  1  0.42018432  0.17471084  0.81975688  1
  Ca2+  Ca39  1  0.41366816  0.67570412  0.17150936  1
  Ca2+  Ca40  1  0.42201441  0.66535160  0.49232630  1
  Ca2+  Ca41  1  0.41589660  0.67082553  0.82621212  1
  Ca2+  Ca42  1  0.92490204  0.16485061  0.16881302  1
  Ca2+  Ca43  1  0.92830431  0.16729186  0.50008752  1
  Ca2+  Ca44  1  0.92494760  0.17421320  0.82020708  1
  Ca2+  Ca45  1  0.92093300  0.67868117  0.16240169  1
  Ca2+  Ca46  1  0.92163658  0.67312344  0.49343228  1
  Ca2+  Ca47  1  0.92344501  0.66891856  0.83430044  1
  Al0+  Al48  1  0.00066525  0.00200692  -0.00400609  1
  Al0+  Al49  1  -0.00106492  0.00124201  0.32739943  1
  Al0+  Al50  1  -0.00207229  -0.00006465  0.66867704  1
  Al0+  Al51  1  -0.00161086  0.49882585  0.00265171  1
  Al0+  Al52  1  -0.00097022  0.49938040  0.33498321  1
  Al0+  Al53  1  -0.00250736  0.50372284  0.66120554  1
  Al0+  Al54  1  0.50183904  0.00010901  -0.00536298  1
  Al0+  Al55  1  0.50131952  0.00003831  0.33515903  1
  Al0+  Al56  1  0.49862702  -0.00177857  0.67141227  1
  Al0+  Al57  1  0.49935660  0.49950389  0.00175886  1
  Al0+  Al58  1  0.50065212  0.49846801  0.33142293  1
  Al0+  Al59  1  0.50155177  0.50031122  0.67233226  1
  Al0+  Al60  1  0.25262876  0.25053716  0.00282316  1
  Al0+  Al61  1  0.24968872  0.25018460  0.32670721  1
  Al0+  Al62  1  0.24966502  0.25057419  0.66232092  1
  Al0+  Al63  1  0.25066132  0.75094568  -0.00781999  1
  Al0+  Al64  1  0.24877728  0.74740991  0.33801833  1
  Al0+  Al65  1  0.24844232  0.75009403  0.67626449  1
  Al0+  Al66  1  0.75091782  0.24850187  0.00406439  1
  Al0+  Al67  1  0.75137964  0.24999120  0.33292543  1
  Al0+  Al68  1  0.74974638  0.24897516  0.66501578  1
  Al0+  Al69  1  0.74922137  0.74957110  -0.00360985  1
  Al0+  Al70  1  0.75221792  0.74944301  0.33096417  1
  Al0+  Al71  1  0.75023748  0.74862204  0.66590818  1
  Al0+  Al72  1  0.31948827  0.56918486  0.34591732  1
  Al0+  Al73  1  0.68018697  0.42927782  0.34782681  1
  Al0+  Al74  1  0.57117739  0.17583185  0.65266110  1
  Al0+  Al75  1  0.42863930  0.32184472  0.65272459  1
  Al0+  Al76  1  0.92796583  0.82272483  0.98280138  1
  Al0+  Al77  1  0.57281813  0.17761916  0.31746151  1
  Al0+  Al78  1  0.93094814  0.82032386  0.32131815  1
  Al0+  Al79  1  0.07052222  0.18031547  0.31762082  1
  Al0+  Al80  1  0.32246920  0.07189517  0.34737095  1
  Al0+  Al81  1  0.57010950  0.68102480  0.65386814  1
  Al0+  Al82  1  0.67987455  0.92827398  0.34661468  1
  Al0+  Al83  1  0.07050500  0.67741758  0.98516656  1
  Al0+  Al84  1  0.17643306  0.93032518  0.68458540  1
  Al0+  Al85  1  0.42935995  0.82249755  0.98461644  1
  Al0+  Al86  1  0.42885864  0.32123295  0.31603831  1
  Al0+  Al87  1  0.92774209  0.32400924  0.65147116  1
  Al0+  Al88  1  0.17875454  0.42923689  0.01268635  1
  Al0+  Al89  1  0.57113131  0.67780874  0.31869140  1
  Al0+  Al90  1  0.32186386  0.56950779  0.68207384  1
  Al0+  Al91  1  0.17697950  0.92808495  0.34541008  1
  Al0+  Al92  1  0.42723167  0.82098438  0.32299304  1
  Al0+  Al93  1  0.32185043  0.07334759  0.68277425  1
  Al0+  Al94  1  0.07143614  0.17842084  0.65135422  1
  Al0+  Al95  1  0.68236064  0.42934572  0.68109565  1
  Si0+  Si96  1  0.81904219  0.06898965  0.68177749  1
  Si0+  Si97  1  0.92721242  0.31921885  0.98682948  1
  Si0+  Si98  1  0.82221501  0.07147138  0.01521215  1
  Si0+  Si99  1  0.82273957  0.07210168  0.35072206  1
  Si0+  Si100  1  0.81995285  0.57108982  0.01534085  1
  Si0+  Si101  1  0.07238525  0.67967132  0.65123613  1
  Si0+  Si102  1  0.92832419  0.32320376  0.31474318  1
  Si0+  Si103  1  0.07319829  0.18092798  0.98442310  1
  Si0+  Si104  1  0.17596919  0.42682035  0.35056006  1
  Si0+  Si105  1  0.32231030  0.57394352  0.01762246  1
  Si0+  Si106  1  0.57222905  0.18039391  0.98522253  1
  Si0+  Si107  1  0.32244433  0.07017978  0.01494823  1
  Si0+  Si108  1  0.42522019  0.82104906  0.65038262  1
  Si0+  Si109  1  0.67865231  0.92551317  0.68276733  1
  Si0+  Si110  1  0.92924347  0.82075075  0.65165604  1
  Si0+  Si111  1  0.17888807  0.92975332  0.01467677  1
  Si0+  Si112  1  0.68016737  0.92946944  0.01376269  1
  Si0+  Si113  1  0.82371659  0.57526833  0.68540566  1
  Si0+  Si114  1  0.82324142  0.57262337  0.35102525  1
  Si0+  Si115  1  0.57155870  0.67571200  0.98279953  1
  Si0+  Si116  1  0.43008314  0.32130143  0.98437496  1
  Si0+  Si117  1  0.67867936  0.42774187  0.01604448  1
  Si0+  Si118  1  0.07294925  0.67518942  0.31854427  1
  Si0+  Si119  1  0.17463750  0.42979762  0.67962303  1
  O2-  O120  1  0.25226324  -0.00185292  0.05695317  1
  O2-  O121  1  0.25154603  -0.00259491  0.39481250  1
  O2-  O122  1  0.24954602  0.00177763  0.73450562  1
  O2-  O123  1  0.25082872  0.50673162  0.05956997  1
  O2-  O124  1  0.24556137  0.49411830  0.39418597  1
  O2-  O125  1  0.24557194  0.49472460  0.72649477  1
  O2-  O126  1  0.75512553  -0.00353865  0.05621676  1
  O2-  O127  1  0.75103569  0.00630067  0.39434576  1
  O2-  O128  1  0.74559986  0.00071157  0.72546473  1
  O2-  O129  1  0.74622075  0.50243445  0.05743522  1
  O2-  O130  1  0.75439764  0.50453367  0.39465218  1
  O2-  O131  1  0.75886396  0.50226768  0.72942295  1
  O2-  O132  1  -0.00070751  0.25806757  0.26869259  1
  O2-  O133  1  0.00350728  0.25553821  0.60298395  1
  O2-  O134  1  0.00174660  0.25243680  0.94363388  1
  O2-  O135  1  0.00652771  0.74650928  0.27512305  1
  O2-  O136  1  0.00321432  0.75307794  0.61001872  1
  O2-  O137  1  0.00164152  0.75233525  0.93323063  1
  O2-  O138  1  0.49902911  0.24684082  0.26555376  1
  O2-  O139  1  0.49588071  0.24456199  0.60455343  1
  O2-  O140  1  0.50352155  0.25277383  0.94271279  1
  O2-  O141  1  0.50063205  0.75165133  0.26953532  1
  O2-  O142  1  0.49493299  0.75391155  0.60681590  1
  O2-  O143  1  0.50121920  0.74348181  0.93998008  1
  O2-  O144  1  0.07186031  0.17987517  0.08918482  1
  O2-  O145  1  0.06778006  0.17966551  0.43003063  1
  O2-  O146  1  0.06785328  0.17967868  0.76609438  1
  O2-  O147  1  0.06766509  0.67834690  0.09873983  1
  O2-  O148  1  0.07014107  0.67256554  0.42403814  1
  O2-  O149  1  0.06952787  0.67734509  0.75627100  1
  O2-  O150  1  0.57303512  0.17862771  0.08964466  1
  O2-  O151  1  0.57399325  0.17985166  0.43016741  1
  O2-  O152  1  0.57317606  0.18041986  0.76764769  1
  O2-  O153  1  0.57364279  0.67449602  0.08767133  1
  O2-  O154  1  0.56946181  0.67785838  0.43217849  1
  O2-  O155  1  0.57022935  0.68372938  0.76776414  1
  O2-  O156  1  0.17488685  0.43023077  0.24434370  1
  O2-  O157  1  0.17175346  0.43454204  0.57459837  1
  O2-  O158  1  0.17999985  0.42738179  0.89953187  1
  O2-  O159  1  0.17645267  0.92949276  0.23084390  1
  O2-  O160  1  0.17479018  0.93098600  0.57159598  1
  O2-  O161  1  0.17707183  0.93372510  0.90992566  1
  O2-  O162  1  0.68329730  0.43123068  0.23355298  1
  O2-  O163  1  0.68236993  0.43037244  0.56884481  1
  O2-  O164  1  0.68038200  0.42477114  0.91119837  1
  O2-  O165  1  0.68263786  0.92894181  0.23262782  1
  O2-  O166  1  0.68199726  0.92233484  0.57830380  1
  O2-  O167  1  0.68009776  0.93253642  0.90836757  1
  O2-  O168  1  0.43055253  0.32197810  0.08885090  1
  O2-  O169  1  0.43158330  0.32301412  0.42892678  1
  O2-  O170  1  0.43179874  0.32227761  0.76772666  1
  O2-  O171  1  0.43042864  0.82641029  0.09721787  1
  O2-  O172  1  0.42805333  0.81925866  0.43600607  1
  O2-  O173  1  0.42878237  0.81978251  0.75688771  1
  O2-  O174  1  0.92322596  0.31552694  0.09141203  1
  O2-  O175  1  0.92853681  0.32232427  0.41976433  1
  O2-  O176  1  0.92853763  0.32038513  0.76641702  1
  O2-  O177  1  0.92709650  0.82165130  0.09601395  1
  O2-  O178  1  0.93037617  0.81920189  0.43471457  1
  O2-  O179  1  0.92751527  0.81924358  0.75681847  1
  O2-  O180  1  0.31989166  0.06964526  0.23245240  1
  O2-  O181  1  0.32306127  0.07132611  0.57007521  1
  O2-  O182  1  0.32083326  0.07228195  0.91019996  1
  O2-  O183  1  0.31606181  0.56977259  0.23230842  1
  O2-  O184  1  0.32185700  0.57081243  0.56932645  1
  O2-  O185  1  0.32508924  0.57025084  0.91202643  1
  O2-  O186  1  0.82309018  0.07046344  0.24421079  1
  O2-  O187  1  0.82240755  0.06539567  0.57743935  1
  O2-  O188  1  0.81936750  0.07579165  0.91025542  1
  O2-  O189  1  0.82444431  0.57045380  0.24473254  1
  O2-  O190  1  0.82340110  0.58108726  0.58071007  1
  O2-  O191  1  0.82070632  0.56940689  0.91040685  1
  O2-  O192  1  0.03489762  0.08681003  0.26001442  1
  O2-  O193  1  0.03377538  0.08225219  0.60058251  1
  O2-  O194  1  0.04455954  0.09008126  0.93615950  1
  O2-  O195  1  0.04420491  0.58261573  0.27082364  1
  O2-  O196  1  0.04316035  0.59054386  0.60034243  1
  O2-  O197  1  0.03706528  0.57938937  0.93263508  1
  O2-  O198  1  0.54703865  0.07841859  0.26415736  1
  O2-  O199  1  0.54951501  0.07370831  0.60604645  1
  O2-  O200  1  0.54535737  0.08935740  0.93595498  1
  O2-  O201  1  0.54139602  0.58121315  0.26383843  1
  O2-  O202  1  0.54019520  0.58341183  0.60441234  1
  O2-  O203  1  0.54678167  0.58100792  0.93719898  1
  O2-  O204  1  0.16564454  0.20933058  0.25974403  1
  O2-  O205  1  0.16966447  0.20204580  0.59801957  1
  O2-  O206  1  0.16549840  0.20932192  0.93851409  1
  O2-  O207  1  0.16667696  0.69704793  0.27262332  1
  O2-  O208  1  0.16559666  0.70623734  0.60719227  1
  O2-  O209  1  0.16933976  0.70127238  0.93148961  1
  O2-  O210  1  0.67189596  0.20710242  0.26408684  1
  O2-  O211  1  0.66907594  0.20366059  0.60108791  1
  O2-  O212  1  0.66566329  0.20732727  0.93958176  1
  O2-  O213  1  0.67094656  0.70293400  0.26740980  1
  O2-  O214  1  0.66711798  0.71072939  0.60085832  1
  O2-  O215  1  0.66436681  0.70227314  0.93532586  1
  O2-  O216  1  0.08057100  0.45441543  0.06762801  1
  O2-  O217  1  0.08183446  0.45078979  0.39616995  1
  O2-  O218  1  0.08142880  0.45884402  0.72669496  1
  O2-  O219  1  0.08641480  0.95963990  0.06053653  1
  O2-  O220  1  0.07913462  0.96147188  0.39643165  1
  O2-  O221  1  0.07740257  0.95920927  0.73834814  1
  O2-  O222  1  0.58557237  0.45279053  0.06217150  1
  O2-  O223  1  0.58379627  0.45959088  0.40009425  1
  O2-  O224  1  0.58846443  0.46315205  0.73931686  1
  O2-  O225  1  0.58942474  0.96232822  0.06037315  1
  O2-  O226  1  0.58361067  0.95487711  0.40171805  1
  O2-  O227  1  0.58624693  0.94840608  0.73160701  1
  O2-  O228  1  0.21334874  0.33386559  0.06828546  1
  O2-  O229  1  0.19961746  0.33178081  0.39190610  1
  O2-  O230  1  0.19514965  0.33409981  0.72311549  1
  O2-  O231  1  0.20301094  0.83515356  0.05730818  1
  O2-  O232  1  0.19664382  0.82804837  0.39751304  1
  O2-  O233  1  0.20344918  0.83218445  0.73976480  1
  O2-  O234  1  0.71050462  0.33739601  0.06430990  1
  O2-  O235  1  0.71298860  0.33276913  0.40007403  1
  O2-  O236  1  0.71333421  0.33213096  0.73638891  1
  O2-  O237  1  0.70353017  0.83566617  0.05862557  1
  O2-  O238  1  0.71569632  0.83290271  0.40039354  1
  O2-  O239  1  0.71305252  0.83663502  0.73288996  1
  O2-  O240  1  0.46264611  0.41688838  0.26005522  1
  O2-  O241  1  0.46411402  0.41867071  0.60313398  1
  O2-  O242  1  0.45577973  0.41443624  0.93804781  1
  O2-  O243  1  0.45616760  0.91860551  0.26838006  1
  O2-  O244  1  0.44981770  0.91581107  0.60879321  1
  O2-  O245  1  0.46596705  0.91653873  0.92755909  1
  O2-  O246  1  0.95022005  0.41857937  0.26971773  1
  O2-  O247  1  0.94622115  0.42481226  0.60020834  1
  O2-  O248  1  0.94924267  0.41275566  0.94160169  1
  O2-  O249  1  0.95758810  0.91610916  0.26377677  1
  O2-  O250  1  0.95341110  0.91340715  0.60565459  1
  O2-  O251  1  0.95425006  0.92261684  0.93077289  1
  O2-  O252  1  0.32988694  0.29758876  0.26160133  1
  O2-  O253  1  0.32847247  0.30342640  0.60109734  1
  O2-  O254  1  0.33896015  0.29064173  0.93744958  1
  O2-  O255  1  0.32941115  0.78922105  0.26887909  1
  O2-  O256  1  0.33028063  0.79552868  0.60970552  1
  O2-  O257  1  0.33299727  0.79631881  0.92859069  1
  O2-  O258  1  0.83636692  0.29469523  0.26681940  1
  O2-  O259  1  0.83263119  0.28818209  0.59872359  1
  O2-  O260  1  0.83674956  0.28675264  0.93795676  1
  O2-  O261  1  0.83664813  0.78735357  0.26398967  1
  O2-  O262  1  0.83860328  0.78999444  0.60427696  1
  O2-  O263  1  0.82950754  0.79295777  0.92967639  1
  O2-  O264  1  0.41639103  0.04332683  0.05860269  1
  O2-  O265  1  0.42127624  0.04809362  0.39945687  1
  O2-  O266  1  0.41974235  0.04353790  0.73952113  1
  O2-  O267  1  0.41518053  0.54510431  0.06402931  1
  O2-  O268  1  0.41636596  0.53783657  0.39786693  1
  O2-  O269  1  0.41621151  0.53781568  0.74031695  1
  O2-  O270  1  0.91626568  0.04822793  0.06063445  1
  O2-  O271  1  0.91438279  0.04144174  0.39630862  1
  O2-  O272  1  0.90832053  0.03860619  0.73347043  1
  O2-  O273  1  0.90955078  0.54116652  0.06550209  1
  O2-  O274  1  0.91681121  0.54731524  0.39787859  1
  O2-  O275  1  0.91879514  0.55310090  0.73065623  1
  O2-  O276  1  0.29460053  0.16168911  0.06273707  1
  O2-  O277  1  0.29100018  0.17098155  0.39576752  1
  O2-  O278  1  0.29298044  0.17308597  0.73527530  1
  O2-  O279  1  0.29911133  0.66970806  0.05956596  1
  O2-  O280  1  0.28928553  0.66365427  0.40404315  1
  O2-  O281  1  0.29027348  0.66468626  0.73860982  1
  O2-  O282  1  0.79137722  0.16084770  0.06651076  1
  O2-  O283  1  0.80270657  0.16717843  0.39460045  1
  O2-  O284  1  0.79303774  0.16094432  0.73071818  1
  O2-  O285  1  0.79385181  0.66444082  0.06109057  1
  O2-  O286  1  0.80055500  0.66669750  0.39596985  1
  O2-  O287  1  0.79233527  0.66621241  0.73536522  1
