# generated using pymatgen
data_Ca2Al2SiO7
_symmetry_space_group_name_H-M   'P 1'
_cell_length_a   15.47105633
_cell_length_b   15.47023922
_cell_length_c   15.29365746
_cell_angle_alpha   89.99383458
_cell_angle_beta   90.00368119
_cell_angle_gamma   89.99924632
_symmetry_Int_Tables_number   1
_chemical_formula_structural   Ca2Al2SiO7
_chemical_formula_sum   'Ca48 Al48 Si24 O168'
_cell_volume   3660.39836257
_cell_formula_units_Z   24
loop_
 _symmetry_equiv_pos_site_id
 _symmetry_equiv_pos_as_xyz
  1  'x, y, z'
loop_
 _atom_type_symbol
 _atom_type_oxidation_number
  Ca2+  2.0
  Al0+  0.0
  Si0+  0.0
  O2-  -2.0
loop_
 _atom_site_type_symbol
 _atom_site_label
 _atom_site_symmetry_multiplicity
 _atom_site_fract_x
 _atom_site_fract_y
 _atom_site_fract_z
 _atom_site_occupancy
  Ca2+  Ca0  1  0.17479451  0.08926885  0.17060505  1
  Ca2+  Ca1  1  0.17789675  0.09256060  0.49746035  1
  Ca2+  Ca2  1  0.17679641  0.08493127  0.84133611  1
  Ca2+  Ca3  1  0.17492970  0.57248980  0.17329270  1
  Ca2+  Ca4  1  0.17602141  0.58332186  0.49777991  1
  Ca2+  Ca5  1  0.17940861  0.57631048  0.84181507  1
  Ca2+  Ca6  1  0.65567578  0.07699645  0.17266327  1
  Ca2+  Ca7  1  0.66227721  0.07473518  0.50034896  1
  Ca2+  Ca8  1  0.66656226  0.08625754  0.84240998  1
  Ca2+  Ca9  1  0.66652983  0.57451985  0.17199175  1
  Ca2+  Ca10  1  0.66665948  0.57754838  0.49841255  1
  Ca2+  Ca11  1  0.66496584  0.58175519  0.84171193  1
  Ca2+  Ca12  1  0.09100247  0.32845750  0.16461762  1
  Ca2+  Ca13  1  0.07632742  0.33488106  0.48624407  1
  Ca2+  Ca14  1  0.08484379  0.33311353  0.83374572  1
  Ca2+  Ca15  1  0.08602628  0.82379700  0.16667028  1
  Ca2+  Ca16  1  0.08434163  0.82448134  0.49011954  1
  Ca2+  Ca17  1  0.08321329  0.83290791  0.83234130  1
  Ca2+  Ca18  1  0.57437373  0.33789793  0.16032189  1
  Ca2+  Ca19  1  0.57572225  0.33172946  0.49093735  1
  Ca2+  Ca20  1  0.57733176  0.33635961  0.83883130  1
  Ca2+  Ca21  1  0.57463447  0.82753657  0.16305114  1
  Ca2+  Ca22  1  0.57767943  0.82692652  0.49222690  1
  Ca2+  Ca23  1  0.57471781  0.82033556  0.83438901  1
  Ca2+  Ca24  1  0.33270826  0.42168913  0.17342894  1
  Ca2+  Ca25  1  0.33106373  0.42272042  0.49703992  1
  Ca2+  Ca26  1  0.33321896  0.42501131  0.84433303  1
  Ca2+  Ca27  1  0.34771316  0.92753101  0.17054941  1
  Ca2+  Ca28  1  0.33871847  0.92741190  0.49981675  1
  Ca2+  Ca29  1  0.34282283  0.92774566  0.83826520  1
  Ca2+  Ca30  1  0.81971946  0.41478604  0.17599403  1
  Ca2+  Ca31  1  0.83458597  0.41376794  0.49742401  1
  Ca2+  Ca32  1  0.82723074  0.41333604  0.83833999  1
  Ca2+  Ca33  1  0.82375179  0.92064821  0.17586171  1
  Ca2+  Ca34  1  0.82509083  0.91349674  0.49950372  1
  Ca2+  Ca35  1  0.82963660  0.91945843  0.84072002  1
  Ca2+  Ca36  1  0.41357613  0.17823152  0.16011274  1
  Ca2+  Ca37  1  0.41083390  0.17055177  0.48993596  1
  Ca2+  Ca38  1  0.41302258  0.17017479  0.83748543  1
  Ca2+  Ca39  1  0.41051025  0.67556625  0.15859898  1
  Ca2+  Ca40  1  0.41590385  0.66672348  0.49202448  1
  Ca2+  Ca41  1  0.42583770  0.65481148  0.83158049  1
  Ca2+  Ca42  1  0.92916528  0.17174512  0.16458829  1
  Ca2+  Ca43  1  0.92569351  0.17895540  0.48987076  1
  Ca2+  Ca44  1  0.92624419  0.17411290  0.82820580  1
  Ca2+  Ca45  1  0.92223524  0.65393928  0.17126184  1
  Ca2+  Ca46  1  0.92333557  0.66239066  0.48859352  1
  Ca2+  Ca47  1  0.91968457  0.66623344  0.83003573  1
  Al0+  Al48  1  0.00014243  0.00164729  -0.00408051  1
  Al0+  Al49  1  -0.00010146  -0.00029016  0.33106234  1
  Al0+  Al50  1  -0.00142639  0.00075883  0.66498560  1
  Al0+  Al51  1  0.00066893  0.50088065  0.00022730  1
  Al0+  Al52  1  -0.00174116  0.49985112  0.33042042  1
  Al0+  Al53  1  -0.00204187  0.50075744  0.66423948  1
  Al0+  Al54  1  0.50190141  -0.00132063  -0.00372925  1
  Al0+  Al55  1  0.49983368  -0.00242066  0.34106140  1
  Al0+  Al56  1  0.50094982  -0.00211120  0.67243232  1
  Al0+  Al57  1  0.50167350  0.50119065  0.00041492  1
  Al0+  Al58  1  0.50209074  0.49990225  0.33786699  1
  Al0+  Al59  1  0.50182441  0.49758712  0.66432333  1
  Al0+  Al60  1  0.24948565  0.24852747  -0.00392725  1
  Al0+  Al61  1  0.25116077  0.25118391  0.33387014  1
  Al0+  Al62  1  0.24997647  0.24967090  0.67116429  1
  Al0+  Al63  1  0.24694634  0.75375301  -0.00455664  1
  Al0+  Al64  1  0.24917251  0.75197803  0.32699174  1
  Al0+  Al65  1  0.25052873  0.75129404  0.67125419  1
  Al0+  Al66  1  0.75206554  0.25097722  0.00174014  1
  Al0+  Al67  1  0.75082075  0.24670436  0.33509309  1
  Al0+  Al68  1  0.75006854  0.24900888  0.66262549  1
  Al0+  Al69  1  0.75013828  0.75215909  -0.00234082  1
  Al0+  Al70  1  0.74927972  0.75031898  0.34171541  1
  Al0+  Al71  1  0.74832867  0.74831179  0.66453541  1
  Al0+  Al72  1  0.92906677  0.32090509  0.65216176  1
  Al0+  Al73  1  0.42836011  0.32186984  0.98516378  1
  Al0+  Al74  1  0.57113990  0.67912208  0.98707150  1
  Al0+  Al75  1  0.32247274  0.57334152  0.01453229  1
  Al0+  Al76  1  0.42633016  0.82174675  0.98353422  1
  Al0+  Al77  1  0.31933694  0.07014293  0.34513202  1
  Al0+  Al78  1  0.07095465  0.67855015  0.31882639  1
  Al0+  Al79  1  0.67804151  0.42501038  0.35059799  1
  Al0+  Al80  1  0.07251532  0.17962076  0.31779412  1
  Al0+  Al81  1  0.32086048  0.07117185  0.68239387  1
  Al0+  Al82  1  0.57013521  0.67674725  0.64985980  1
  Al0+  Al83  1  0.67880241  0.92970042  0.34815453  1
  Al0+  Al84  1  0.92654483  0.32215144  0.31521943  1
  Al0+  Al85  1  0.07118091  0.17893574  0.98378814  1
  Al0+  Al86  1  0.42907330  0.82067726  0.32108524  1
  Al0+  Al87  1  0.17996879  0.42875197  0.34743576  1
  Al0+  Al88  1  0.43105035  0.32204648  0.32151904  1
  Al0+  Al89  1  0.68051507  0.42920413  0.01260348  1
  Al0+  Al90  1  0.17873425  0.42861574  0.01436810  1
  Al0+  Al91  1  0.32194014  0.06769611  0.01471173  1
  Al0+  Al92  1  0.82012845  0.56932971  0.34851665  1
  Al0+  Al93  1  0.57271936  0.17923554  0.98734854  1
  Al0+  Al94  1  0.32155199  0.57489202  0.34662559  1
  Al0+  Al95  1  0.32211582  0.57027761  0.68021035  1
  Si0+  Si96  1  0.82098304  0.57123932  0.68251437  1
  Si0+  Si97  1  0.07284145  0.17810282  0.64904008  1
  Si0+  Si98  1  0.17557699  0.43006081  0.68231566  1
  Si0+  Si99  1  0.57274011  0.67862702  0.31805062  1
  Si0+  Si100  1  0.17336726  0.92961024  0.01725170  1
  Si0+  Si101  1  0.68053651  0.42695150  0.68241497  1
  Si0+  Si102  1  0.82305293  0.07172551  0.01464548  1
  Si0+  Si103  1  0.82228574  0.57520052  0.01488492  1
  Si0+  Si104  1  0.81936386  0.07051242  0.68211920  1
  Si0+  Si105  1  0.42892543  0.82257008  0.64913826  1
  Si0+  Si106  1  0.68038983  0.92690297  0.68571094  1
  Si0+  Si107  1  0.06971514  0.67824310  0.98243370  1
  Si0+  Si108  1  0.92890836  0.32315237  0.98303901  1
  Si0+  Si109  1  0.07055335  0.68116099  0.65278431  1
  Si0+  Si110  1  0.82506757  0.07029727  0.35185076  1
  Si0+  Si111  1  0.17523731  0.92784185  0.34835405  1
  Si0+  Si112  1  0.92574425  0.82143576  0.31725491  1
  Si0+  Si113  1  0.42867743  0.31896923  0.65165561  1
  Si0+  Si114  1  0.92759411  0.82200876  0.65179317  1
  Si0+  Si115  1  0.68159914  0.93012517  0.01503871  1
  Si0+  Si116  1  0.17537345  0.92787805  0.68302060  1
  Si0+  Si117  1  0.57094205  0.17579460  0.32135607  1
  Si0+  Si118  1  0.92929527  0.82189940  0.98519186  1
  Si0+  Si119  1  0.57085526  0.17695506  0.65221163  1
  O2-  O120  1  0.24713357  -0.00761607  0.06058676  1
  O2-  O121  1  0.24246668  -0.00249653  0.39271079  1
  O2-  O122  1  0.24373144  -0.00305331  0.72644597  1
  O2-  O123  1  0.25401839  0.49762005  0.06319741  1
  O2-  O124  1  0.25080315  0.50185117  0.39779143  1
  O2-  O125  1  0.24688167  0.49578941  0.72622217  1
  O2-  O126  1  0.74798904  0.00551892  0.05733388  1
  O2-  O127  1  0.75401452  0.00373784  0.39630392  1
  O2-  O128  1  0.75052112  -0.00086390  0.72792760  1
  O2-  O129  1  0.75395894  0.50620798  0.05696402  1
  O2-  O130  1  0.75145871  0.49576823  0.40130217  1
  O2-  O131  1  0.75043990  0.50004782  0.72424543  1
  O2-  O132  1  0.00212054  0.25299864  0.26703543  1
  O2-  O133  1  0.00749425  0.25006790  0.60626141  1
  O2-  O134  1  -0.00084119  0.25673836  0.93763438  1
  O2-  O135  1  -0.00648961  0.75258122  0.27275853  1
  O2-  O136  1  0.00095815  0.75394903  0.61036342  1
  O2-  O137  1  -0.00168243  0.75009707  0.94091563  1
  O2-  O138  1  0.50953102  0.24987861  0.27732025  1
  O2-  O139  1  0.49539015  0.24273484  0.61065137  1
  O2-  O140  1  0.50099290  0.24959702  0.93449230  1
  O2-  O141  1  0.49888362  0.74152280  0.27450624  1
  O2-  O142  1  0.49262286  0.74951147  0.60491198  1
  O2-  O143  1  0.49222395  0.74302937  0.93491795  1
  O2-  O144  1  0.06735682  0.17378246  0.09581246  1
  O2-  O145  1  0.07042076  0.17897460  0.43203673  1
  O2-  O146  1  0.06994945  0.17568229  0.75457605  1
  O2-  O147  1  0.06807140  0.67823685  0.08690494  1
  O2-  O148  1  0.07068293  0.68290783  0.43278078  1
  O2-  O149  1  0.06667645  0.68212552  0.75812072  1
  O2-  O150  1  0.57196354  0.17740035  0.10052994  1
  O2-  O151  1  0.56720882  0.17385619  0.42776555  1
  O2-  O152  1  0.57511524  0.17867145  0.75681583  1
  O2-  O153  1  0.58062113  0.68495938  0.09956578  1
  O2-  O154  1  0.57324911  0.68208587  0.42412726  1
  O2-  O155  1  0.57335506  0.67854910  0.76271828  1
  O2-  O156  1  0.18336180  0.42819564  0.23443434  1
  O2-  O157  1  0.17370013  0.43127086  0.57719927  1
  O2-  O158  1  0.17527373  0.43395837  0.89988770  1
  O2-  O159  1  0.17240315  0.92778234  0.24327522  1
  O2-  O160  1  0.17263712  0.92513790  0.57789370  1
  O2-  O161  1  0.16742116  0.93301404  0.91134154  1
  O2-  O162  1  0.67752746  0.42729479  0.23727448  1
  O2-  O163  1  0.68126071  0.42587990  0.57794658  1
  O2-  O164  1  0.68448280  0.42871804  0.89856392  1
  O2-  O165  1  0.68007270  0.93142606  0.23490859  1
  O2-  O166  1  0.68125429  0.92782655  0.58074223  1
  O2-  O167  1  0.68664574  0.92879921  0.90959349  1
  O2-  O168  1  0.42956374  0.32154373  0.09834599  1
  O2-  O169  1  0.43023236  0.31822180  0.43560545  1
  O2-  O170  1  0.43067795  0.32070697  0.75642060  1
  O2-  O171  1  0.43269658  0.82401576  0.09684635  1
  O2-  O172  1  0.43189874  0.82280856  0.43463972  1
  O2-  O173  1  0.43294934  0.82570926  0.75424905  1
  O2-  O174  1  0.92675773  0.32113973  0.08759997  1
  O2-  O175  1  0.92875273  0.31841155  0.42946233  1
  O2-  O176  1  0.92737955  0.31795832  0.76541918  1
  O2-  O177  1  0.92886220  0.82399354  0.08948824  1
  O2-  O178  1  0.92775788  0.82158103  0.42341062  1
  O2-  O179  1  0.92673857  0.82168643  0.75727079  1
  O2-  O180  1  0.32201061  0.06862446  0.23276578  1
  O2-  O181  1  0.32109352  0.07060721  0.56931052  1
  O2-  O182  1  0.31972458  0.06615276  0.90101820  1
  O2-  O183  1  0.31960641  0.57668089  0.23377322  1
  O2-  O184  1  0.31946355  0.57123569  0.56759366  1
  O2-  O185  1  0.31950719  0.57047860  0.90006850  1
  O2-  O186  1  0.82673345  0.06707985  0.24629771  1
  O2-  O187  1  0.81768115  0.06759203  0.57753666  1
  O2-  O188  1  0.82333491  0.06765128  0.90885817  1
  O2-  O189  1  0.81528097  0.57326390  0.23493917  1
  O2-  O190  1  0.82321705  0.57314079  0.57839623  1
  O2-  O191  1  0.82304810  0.57614316  0.90847814  1
  O2-  O192  1  0.04278161  0.08052960  0.26628158  1
  O2-  O193  1  0.04376392  0.08515103  0.60318748  1
  O2-  O194  1  0.03467540  0.08446159  0.92691456  1
  O2-  O195  1  0.03907431  0.58406730  0.26291585  1
  O2-  O196  1  0.04005679  0.59065880  0.60564625  1
  O2-  O197  1  0.03953764  0.58818647  0.93235848  1
  O2-  O198  1  0.54041239  0.08371506  0.27606043  1
  O2-  O199  1  0.54769919  0.08206603  0.60829456  1
  O2-  O200  1  0.54774171  0.08068577  0.93241133  1
  O2-  O201  1  0.55500317  0.58241973  0.27665254  1
  O2-  O202  1  0.54363429  0.57875409  0.59691440  1
  O2-  O203  1  0.54964522  0.57994109  0.93243364  1
  O2-  O204  1  0.17077414  0.20720620  0.26594285  1
  O2-  O205  1  0.16838341  0.20089956  0.60646079  1
  O2-  O206  1  0.16671200  0.20670527  0.92714139  1
  O2-  O207  1  0.16368674  0.71346960  0.26121828  1
  O2-  O208  1  0.16304264  0.70854960  0.60708709  1
  O2-  O209  1  0.15926929  0.70797809  0.93185914  1
  O2-  O210  1  0.66807308  0.18958188  0.27954839  1
  O2-  O211  1  0.66078521  0.20700547  0.60244643  1
  O2-  O212  1  0.67262515  0.20647041  0.93411435  1
  O2-  O213  1  0.66469924  0.71181851  0.27415247  1
  O2-  O214  1  0.66664277  0.71086372  0.59703597  1
  O2-  O215  1  0.66764278  0.71528380  0.93049190  1
  O2-  O216  1  0.08072381  0.46011751  0.06641634  1
  O2-  O217  1  0.08028130  0.45678956  0.39701749  1
  O2-  O218  1  0.08268797  0.45878252  0.72918673  1
  O2-  O219  1  0.08122916  0.95868800  0.06427665  1
  O2-  O220  1  0.08085679  0.94967026  0.39586776  1
  O2-  O221  1  0.08038258  0.95270148  0.72892694  1
  O2-  O222  1  0.58445753  0.45839538  0.06637407  1
  O2-  O223  1  0.58192373  0.45608680  0.40694390  1
  O2-  O224  1  0.58846856  0.45404079  0.72876523  1
  O2-  O225  1  0.58928059  0.95489674  0.06098073  1
  O2-  O226  1  0.58590603  0.96234167  0.40826509  1
  O2-  O227  1  0.58910237  0.95392666  0.73331770  1
  O2-  O228  1  0.20051919  0.32719114  0.06105291  1
  O2-  O229  1  0.20915670  0.33198527  0.40329637  1
  O2-  O230  1  0.19806482  0.33495090  0.72683221  1
  O2-  O231  1  0.19134735  0.83275066  0.05823957  1
  O2-  O232  1  0.20304192  0.83527975  0.39479617  1
  O2-  O233  1  0.19951440  0.83502952  0.73189192  1
  O2-  O234  1  0.71228395  0.33351185  0.06754022  1
  O2-  O235  1  0.70358755  0.32473260  0.40253485  1
  O2-  O236  1  0.71129572  0.33543945  0.72912953  1
  O2-  O237  1  0.71562493  0.84086807  0.06302677  1
  O2-  O238  1  0.71119018  0.83603194  0.40699498  1
  O2-  O239  1  0.71223017  0.83578754  0.73210114  1
  O2-  O240  1  0.46012148  0.41961352  0.26920673  1
  O2-  O241  1  0.46171820  0.40793729  0.60277048  1
  O2-  O242  1  0.45965419  0.41939900  0.93137348  1
  O2-  O243  1  0.46804129  0.91563420  0.26895100  1
  O2-  O244  1  0.46113129  0.91494342  0.60331649  1
  O2-  O245  1  0.46598463  0.91526451  0.92765045  1
  O2-  O246  1  0.94602014  0.42261498  0.26526240  1
  O2-  O247  1  0.95451332  0.41961264  0.59976073  1
  O2-  O248  1  0.95224932  0.41779464  0.93653761  1
  O2-  O249  1  0.95001447  0.91482274  0.27080685  1
  O2-  O250  1  0.95096787  0.91498787  0.60444738  1
  O2-  O251  1  0.95811147  0.91201975  0.93392627  1
  O2-  O252  1  0.33633653  0.28870710  0.26789546  1
  O2-  O253  1  0.33459846  0.29466244  0.60703451  1
  O2-  O254  1  0.33157123  0.29255837  0.92933102  1
  O2-  O255  1  0.33190936  0.79932774  0.26531527  1
  O2-  O256  1  0.33172842  0.80355237  0.60832207  1
  O2-  O257  1  0.32390048  0.80761219  0.93270539  1
  O2-  O258  1  0.82851573  0.28816946  0.26425099  1
  O2-  O259  1  0.83415969  0.28554396  0.59748467  1
  O2-  O260  1  0.83692361  0.29385076  0.93515390  1
  O2-  O261  1  0.83109213  0.79693748  0.27347282  1
  O2-  O262  1  0.83674799  0.79233577  0.60441897  1
  O2-  O263  1  0.83836019  0.79529609  0.93460493  1
  O2-  O264  1  0.41984115  0.03663657  0.06550384  1
  O2-  O265  1  0.41302912  0.03623963  0.40374834  1
  O2-  O266  1  0.41759166  0.03908353  0.73613142  1
  O2-  O267  1  0.42322420  0.55304935  0.06381124  1
  O2-  O268  1  0.42007494  0.54796009  0.39973840  1
  O2-  O269  1  0.41913303  0.53614841  0.73164520  1
  O2-  O270  1  0.91217237  0.03700264  0.06189035  1
  O2-  O271  1  0.91676394  0.04100115  0.40028173  1
  O2-  O272  1  0.91226420  0.04364505  0.72908910  1
  O2-  O273  1  0.91601008  0.54987998  0.05934993  1
  O2-  O274  1  0.91984438  0.54508081  0.40076655  1
  O2-  O275  1  0.91290322  0.54419519  0.73143798  1
  O2-  O276  1  0.29077967  0.16560294  0.06385124  1
  O2-  O277  1  0.28895060  0.16550658  0.40155047  1
  O2-  O278  1  0.29169415  0.16796632  0.73726055  1
  O2-  O279  1  0.28983838  0.67333997  0.06110932  1
  O2-  O280  1  0.28949336  0.67330131  0.39905669  1
  O2-  O281  1  0.29344339  0.66794720  0.73381192  1
  O2-  O282  1  0.80226282  0.16471106  0.06063472  1
  O2-  O283  1  0.80119821  0.16353071  0.39834416  1
  O2-  O284  1  0.78978829  0.16194592  0.72915930  1
  O2-  O285  1  0.79887723  0.66961154  0.05959111  1
  O2-  O286  1  0.79326948  0.66757328  0.40436150  1
  O2-  O287  1  0.79341250  0.66371051  0.73011057  1
