# generated using pymatgen
data_Ca2Al2SiO7
_symmetry_space_group_name_H-M   'P 1'
_cell_length_a   15.46111594
_cell_length_b   15.45996195
_cell_length_c   15.28520237
_cell_angle_alpha   89.99868544
_cell_angle_beta   89.99006047
_cell_angle_gamma   90.02733620
_symmetry_Int_Tables_number   1
_chemical_formula_structural   Ca2Al2SiO7
_chemical_formula_sum   'Ca48 Al48 Si24 O168'
_cell_volume   3653.59491818
_cell_formula_units_Z   24
loop_
 _symmetry_equiv_pos_site_id
 _symmetry_equiv_pos_as_xyz
  1  'x, y, z'
loop_
 _atom_type_symbol
 _atom_type_oxidation_number
  Ca2+  2.0
  Al0+  0.0
  Si0+  0.0
  O2-  -2.0
loop_
 _atom_site_type_symbol
 _atom_site_label
 _atom_site_symmetry_multiplicity
 _atom_site_fract_x
 _atom_site_fract_y
 _atom_site_fract_z
 _atom_site_occupancy
  Ca2+  Ca0  1  0.17322029  0.07765921  0.16716324  1
  Ca2+  Ca1  1  0.17363548  0.08986605  0.50364856  1
  Ca2+  Ca2  1  0.16941210  0.08187487  0.83832423  1
  Ca2+  Ca3  1  0.16998503  0.57521996  0.17845774  1
  Ca2+  Ca4  1  0.17882668  0.57280778  0.50458793  1
  Ca2+  Ca5  1  0.16829546  0.58110636  0.83136413  1
  Ca2+  Ca6  1  0.67769489  0.07405685  0.17184461  1
  Ca2+  Ca7  1  0.67257392  0.07530917  0.50849103  1
  Ca2+  Ca8  1  0.67358691  0.07520538  0.83729195  1
  Ca2+  Ca9  1  0.68068527  0.58545745  0.16906681  1
  Ca2+  Ca10  1  0.66550723  0.58047458  0.50531725  1
  Ca2+  Ca11  1  0.66710215  0.57922511  0.83313673  1
  Ca2+  Ca12  1  0.07896753  0.33328435  0.16126067  1
  Ca2+  Ca13  1  0.09106343  0.33151435  0.49846489  1
  Ca2+  Ca14  1  0.07627825  0.32805430  0.82681883  1
  Ca2+  Ca15  1  0.07794168  0.83158824  0.15720553  1
  Ca2+  Ca16  1  0.07486537  0.83354135  0.49838878  1
  Ca2+  Ca17  1  0.06980184  0.84327967  0.82996206  1
  Ca2+  Ca18  1  0.57502597  0.33284852  0.16474812  1
  Ca2+  Ca19  1  0.58264086  0.32939581  0.49751652  1
  Ca2+  Ca20  1  0.58568096  0.32506375  0.82166086  1
  Ca2+  Ca21  1  0.58373448  0.84139171  0.16744137  1
  Ca2+  Ca22  1  0.58393659  0.83218100  0.49596474  1
  Ca2+  Ca23  1  0.59033146  0.82992728  0.82594216  1
  Ca2+  Ca24  1  0.32694739  0.42078384  0.18053839  1
  Ca2+  Ca25  1  0.32946270  0.41907596  0.50521792  1
  Ca2+  Ca26  1  0.32994780  0.42079933  0.83036073  1
  Ca2+  Ca27  1  0.33401429  0.92608445  0.17193896  1
  Ca2+  Ca28  1  0.33838024  0.91909240  0.49881017  1
  Ca2+  Ca29  1  0.32521477  0.92395784  0.84333227  1
  Ca2+  Ca30  1  0.84123503  0.42657543  0.16931750  1
  Ca2+  Ca31  1  0.82821793  0.42475149  0.50506402  1
  Ca2+  Ca32  1  0.82842305  0.41689786  0.83876145  1
  Ca2+  Ca33  1  0.82614844  0.91992050  0.17086026  1
  Ca2+  Ca34  1  0.82513953  0.92326956  0.50695757  1
  Ca2+  Ca35  1  0.82916264  0.92186938  0.83855253  1
  Ca2+  Ca36  1  0.41042358  0.16695023  0.16597618  1
  Ca2+  Ca37  1  0.42412931  0.16875805  0.49092706  1
  Ca2+  Ca38  1  0.42434321  0.16297423  0.82659758  1
  Ca2+  Ca39  1  0.41375343  0.67275502  0.16712620  1
  Ca2+  Ca40  1  0.41934035  0.66581810  0.49344278  1
  Ca2+  Ca41  1  0.42284698  0.66961090  0.82208403  1
  Ca2+  Ca42  1  0.91223403  0.16924865  0.15958469  1
  Ca2+  Ca43  1  0.92027945  0.16005321  0.49832452  1
  Ca2+  Ca44  1  0.91720221  0.16377409  0.82503757  1
  Ca2+  Ca45  1  0.91392781  0.66875413  0.15703140  1
  Ca2+  Ca46  1  0.90958789  0.67350344  0.49652966  1
  Ca2+  Ca47  1  0.90756959  0.68025092  0.83128329  1
  Al0+  Al48  1  0.00156648  0.00012120  0.00350317  1
  Al0+  Al49  1  -0.00002002  -0.00050082  0.33257965  1
  Al0+  Al50  1  0.00062186  0.00188540  0.65840562  1
  Al0+  Al51  1  0.00011847  0.49855600  -0.00354697  1
  Al0+  Al52  1  0.00038443  0.49978983  0.34277502  1
  Al0+  Al53  1  0.00170094  0.50171861  0.67036923  1
  Al0+  Al54  1  0.49927654  0.00072896  0.00564398  1
  Al0+  Al55  1  0.49984235  -0.00166648  0.33517496  1
  Al0+  Al56  1  0.50134984  -0.00014365  0.66581428  1
  Al0+  Al57  1  0.49877759  0.50006004  -0.00084375  1
  Al0+  Al58  1  0.50181824  0.50017558  0.32793084  1
  Al0+  Al59  1  0.50066052  0.50157216  0.67068367  1
  Al0+  Al60  1  0.24975777  0.25227754  0.00096060  1
  Al0+  Al61  1  0.24983901  0.24727740  0.33417625  1
  Al0+  Al62  1  0.24841698  0.25162302  0.66878218  1
  Al0+  Al63  1  0.25042626  0.74863481  0.00067980  1
  Al0+  Al64  1  0.24984142  0.74914895  0.33160335  1
  Al0+  Al65  1  0.24854586  0.75132385  0.67022775  1
  Al0+  Al66  1  0.74631935  0.25034876  0.00012601  1
  Al0+  Al67  1  0.75217043  0.24976443  0.33323556  1
  Al0+  Al68  1  0.75062301  0.25135687  0.66727756  1
  Al0+  Al69  1  0.74948513  0.74766309  0.00274174  1
  Al0+  Al70  1  0.74936780  0.74995129  0.33833609  1
  Al0+  Al71  1  0.74804900  0.75084754  0.65893381  1
  Al0+  Al72  1  0.92744711  0.32111021  0.98660274  1
  Al0+  Al73  1  0.07057183  0.18104962  0.65230653  1
  Al0+  Al74  1  0.17849388  0.42740346  0.68550196  1
  Al0+  Al75  1  0.67844413  0.92814612  0.68260866  1
  Al0+  Al76  1  0.56916457  0.67903851  0.65266621  1
  Al0+  Al77  1  0.32155712  0.57271256  0.68272994  1
  Al0+  Al78  1  0.57252232  0.17790246  0.65276359  1
  Al0+  Al79  1  0.81986591  0.56745058  0.01070433  1
  Al0+  Al80  1  0.31914037  0.06918139  0.34851633  1
  Al0+  Al81  1  0.42882741  0.82034067  0.31847884  1
  Al0+  Al82  1  0.17938458  0.42721496  0.34837590  1
  Al0+  Al83  1  0.32092416  0.07247907  0.01449715  1
  Al0+  Al84  1  0.82121127  0.57051376  0.34750361  1
  Al0+  Al85  1  0.82291063  0.07043626  0.68155564  1
  Al0+  Al86  1  0.82326735  0.07286661  0.34971435  1
  Al0+  Al87  1  0.67887284  0.92984959  0.35071421  1
  Al0+  Al88  1  0.82183677  0.07336250  0.01404960  1
  Al0+  Al89  1  0.92940257  0.82023220  0.65129405  1
  Al0+  Al90  1  0.67960857  0.92660816  0.01556085  1
  Al0+  Al91  1  0.68012862  0.42975645  0.67896381  1
  Al0+  Al92  1  0.17794490  0.92693484  0.01435879  1
  Al0+  Al93  1  0.42928886  0.32002535  0.32033776  1
  Al0+  Al94  1  0.32304682  0.57231809  0.34668757  1
  Al0+  Al95  1  0.92930306  0.82058259  0.98779882  1
  Si0+  Si96  1  0.92989858  0.32238316  0.31975669  1
  Si0+  Si97  1  0.07399309  0.67746561  0.64864209  1
  Si0+  Si98  1  0.92755803  0.32503116  0.64917016  1
  Si0+  Si99  1  0.17982144  0.43117939  0.01479964  1
  Si0+  Si100  1  0.56839279  0.17904695  0.98545625  1
  Si0+  Si101  1  0.67774682  0.42737194  0.34754309  1
  Si0+  Si102  1  0.07384198  0.67632954  0.98266857  1
  Si0+  Si103  1  0.32159915  0.07116444  0.67974466  1
  Si0+  Si104  1  0.92843013  0.81990689  0.31691796  1
  Si0+  Si105  1  0.57392054  0.67746775  0.31326712  1
  Si0+  Si106  1  0.17823570  0.93003647  0.67942133  1
  Si0+  Si107  1  0.42851579  0.82178312  0.98520445  1
  Si0+  Si108  1  0.06912545  0.67841451  0.31976532  1
  Si0+  Si109  1  0.42920957  0.32075731  0.65170996  1
  Si0+  Si110  1  0.42733545  0.32273776  0.98322825  1
  Si0+  Si111  1  0.57318092  0.17751262  0.31511909  1
  Si0+  Si112  1  0.17715523  0.92644286  0.35077158  1
  Si0+  Si113  1  0.32315200  0.57072727  0.01602798  1
  Si0+  Si114  1  0.07233262  0.17954925  0.98450730  1
  Si0+  Si115  1  0.82221486  0.57379731  0.68310284  1
  Si0+  Si116  1  0.56966974  0.67848792  0.98501042  1
  Si0+  Si117  1  0.07138778  0.17790152  0.31605439  1
  Si0+  Si118  1  0.42515999  0.82282424  0.65164765  1
  Si0+  Si119  1  0.67480105  0.42679782  0.01743666  1
  O2-  O120  1  0.25100503  -0.00202880  0.06384721  1
  O2-  O121  1  0.24549498  -0.00568091  0.39666837  1
  O2-  O122  1  0.25148239  -0.00088766  0.72113705  1
  O2-  O123  1  0.25004680  0.50219370  0.05783551  1
  O2-  O124  1  0.25605214  0.49565547  0.39575758  1
  O2-  O125  1  0.24882639  0.50192962  0.73428949  1
  O2-  O126  1  0.75360206  -0.00228952  0.06375989  1
  O2-  O127  1  0.74984262  0.00308833  0.39927714  1
  O2-  O128  1  0.75058681  -0.00033976  0.73219767  1
  O2-  O129  1  0.74771116  0.49140965  0.06043474  1
  O2-  O130  1  0.74538633  0.49651399  0.39193756  1
  O2-  O131  1  0.75692612  0.50187985  0.72686853  1
  O2-  O132  1  -0.00135221  0.24897973  0.27658497  1
  O2-  O133  1  -0.00310656  0.25690867  0.60486796  1
  O2-  O134  1  -0.00251639  0.24166550  0.94039646  1
  O2-  O135  1  -0.00125295  0.74818818  0.27448217  1
  O2-  O136  1  0.00212269  0.74254493  0.60419795  1
  O2-  O137  1  0.00733601  0.74816654  0.94030231  1
  O2-  O138  1  0.50386732  0.24620443  0.27054936  1
  O2-  O139  1  0.49689214  0.25215135  0.60645576  1
  O2-  O140  1  0.49765602  0.25093086  0.94223705  1
  O2-  O141  1  0.50367414  0.74562094  0.27019722  1
  O2-  O142  1  0.49245670  0.75262673  0.60826910  1
  O2-  O143  1  0.50015700  0.75158248  0.94288158  1
  O2-  O144  1  0.07636335  0.18441431  0.09010398  1
  O2-  O145  1  0.07266630  0.17766387  0.42106806  1
  O2-  O146  1  0.07181800  0.18015556  0.76552488  1
  O2-  O147  1  0.07320926  0.67355607  0.08860878  1
  O2-  O148  1  0.06813134  0.68078353  0.42456785  1
  O2-  O149  1  0.07564142  0.67985139  0.75422865  1
  O2-  O150  1  0.56787075  0.18163644  0.09046117  1
  O2-  O151  1  0.57263744  0.17995279  0.42077655  1
  O2-  O152  1  0.56868881  0.17808393  0.76645756  1
  O2-  O153  1  0.56725217  0.67455903  0.08977368  1
  O2-  O154  1  0.57404252  0.67594326  0.41862148  1
  O2-  O155  1  0.56894140  0.67969479  0.76654588  1
  O2-  O156  1  0.17683095  0.43055023  0.23389798  1
  O2-  O157  1  0.18251765  0.42652657  0.57234395  1
  O2-  O158  1  0.18159874  0.43089976  0.91017595  1
  O2-  O159  1  0.17651758  0.92786963  0.24527483  1
  O2-  O160  1  0.17938581  0.92913253  0.57432751  1
  O2-  O161  1  0.17955227  0.92899227  0.90017964  1
  O2-  O162  1  0.67871221  0.42734749  0.24171365  1
  O2-  O163  1  0.68030018  0.43134398  0.56568224  1
  O2-  O164  1  0.67185724  0.42862261  0.91196984  1
  O2-  O165  1  0.68228153  0.92994327  0.23688806  1
  O2-  O166  1  0.67784466  0.92942337  0.56954558  1
  O2-  O167  1  0.67869079  0.92668448  0.90232226  1
  O2-  O168  1  0.42760055  0.32491431  0.08831271  1
  O2-  O169  1  0.43142983  0.31873903  0.43329118  1
  O2-  O170  1  0.42989992  0.31796640  0.75802441  1
  O2-  O171  1  0.42718192  0.81941974  0.09012363  1
  O2-  O172  1  0.42844600  0.81852924  0.43147845  1
  O2-  O173  1  0.42387724  0.82290471  0.75763509  1
  O2-  O174  1  0.93360932  0.32513761  0.10007775  1
  O2-  O175  1  0.92997067  0.32388532  0.42448899  1
  O2-  O176  1  0.92835072  0.32403559  0.75495741  1
  O2-  O177  1  0.92979094  0.81578333  0.10113600  1
  O2-  O178  1  0.93066509  0.81944674  0.42202785  1
  O2-  O179  1  0.93055683  0.82044863  0.76472800  1
  O2-  O180  1  0.31563438  0.06994038  0.23567708  1
  O2-  O181  1  0.32105192  0.07126551  0.57471981  1
  O2-  O182  1  0.32114469  0.07163965  0.90022802  1
  O2-  O183  1  0.31751628  0.57174116  0.23227870  1
  O2-  O184  1  0.32154207  0.57146371  0.56956047  1
  O2-  O185  1  0.32509082  0.56955196  0.91126130  1
  O2-  O186  1  0.82339715  0.07249887  0.23604418  1
  O2-  O187  1  0.82273512  0.06809614  0.56824467  1
  O2-  O188  1  0.81964933  0.07395809  0.90088897  1
  O2-  O189  1  0.82306674  0.56916367  0.23401304  1
  O2-  O190  1  0.82074008  0.57194846  0.57721656  1
  O2-  O191  1  0.81596525  0.56832411  0.89800647  1
  O2-  O192  1  0.04467430  0.08552843  0.26838212  1
  O2-  O193  1  0.04306200  0.08604622  0.59357599  1
  O2-  O194  1  0.05530095  0.08302768  0.94179189  1
  O2-  O195  1  0.04104344  0.58534316  0.27406518  1
  O2-  O196  1  0.05269531  0.58174845  0.60493132  1
  O2-  O197  1  0.04611692  0.58432190  0.93475502  1
  O2-  O198  1  0.54592357  0.08416707  0.27072327  1
  O2-  O199  1  0.54000257  0.08237361  0.59790309  1
  O2-  O200  1  0.53886775  0.08730669  0.93849462  1
  O2-  O201  1  0.55203276  0.58381777  0.26486328  1
  O2-  O202  1  0.53911382  0.58182315  0.59891730  1
  O2-  O203  1  0.53944375  0.58709322  0.93644282  1
  O2-  O204  1  0.16222559  0.20637431  0.26738184  1
  O2-  O205  1  0.16792647  0.21259945  0.59837591  1
  O2-  O206  1  0.16377525  0.21201630  0.93635626  1
  O2-  O207  1  0.16055406  0.70483643  0.27029729  1
  O2-  O208  1  0.16628540  0.70777961  0.60201857  1
  O2-  O209  1  0.16910564  0.69811513  0.93734815  1
  O2-  O210  1  0.66681091  0.20481707  0.26893751  1
  O2-  O211  1  0.66814556  0.21108239  0.59882487  1
  O2-  O212  1  0.65945266  0.20675345  0.93670347  1
  O2-  O213  1  0.66747389  0.70675230  0.26785311  1
  O2-  O214  1  0.66415762  0.70753801  0.59503083  1
  O2-  O215  1  0.66190801  0.70397321  0.93820209  1
  O2-  O216  1  0.08784671  0.45846604  0.06158589  1
  O2-  O217  1  0.08431159  0.45855354  0.40492417  1
  O2-  O218  1  0.07934010  0.45517481  0.73797475  1
  O2-  O219  1  0.08157763  0.95494826  0.07072997  1
  O2-  O220  1  0.08363426  0.95260111  0.39592059  1
  O2-  O221  1  0.08804614  0.96253449  0.72583016  1
  O2-  O222  1  0.58254644  0.45764935  0.06431466  1
  O2-  O223  1  0.58420073  0.45249791  0.39284147  1
  O2-  O224  1  0.58512456  0.46046313  0.73601501  1
  O2-  O225  1  0.58163077  0.95683627  0.06813343  1
  O2-  O226  1  0.57966785  0.95477906  0.40182191  1
  O2-  O227  1  0.57886283  0.95544259  0.73483573  1
  O2-  O228  1  0.20771122  0.33993964  0.06291003  1
  O2-  O229  1  0.20484416  0.32805201  0.39887214  1
  O2-  O230  1  0.20959181  0.33045008  0.74061712  1
  O2-  O231  1  0.20368585  0.82691774  0.06595451  1
  O2-  O232  1  0.20189808  0.83262619  0.39571281  1
  O2-  O233  1  0.20158258  0.83856203  0.72941121  1
  O2-  O234  1  0.69430410  0.33243082  0.06304986  1
  O2-  O235  1  0.70380385  0.33433498  0.39366612  1
  O2-  O236  1  0.70910343  0.33382523  0.73523839  1
  O2-  O237  1  0.70503624  0.82786792  0.06895413  1
  O2-  O238  1  0.70705139  0.83136922  0.40231832  1
  O2-  O239  1  0.70730783  0.82811994  0.73141751  1
  O2-  O240  1  0.45892642  0.41638425  0.26286573  1
  O2-  O241  1  0.45557296  0.41473107  0.60838808  1
  O2-  O242  1  0.45587124  0.41447391  0.93533414  1
  O2-  O243  1  0.45925181  0.91755331  0.26415574  1
  O2-  O244  1  0.45202822  0.91558892  0.60478997  1
  O2-  O245  1  0.45309346  0.91537666  0.93998010  1
  O2-  O246  1  0.96142296  0.41419436  0.27309902  1
  O2-  O247  1  0.95252803  0.42033991  0.60536279  1
  O2-  O248  1  0.96235864  0.41505613  0.92948722  1
  O2-  O249  1  0.95728095  0.91173484  0.26996582  1
  O2-  O250  1  0.96507556  0.91381160  0.59471276  1
  O2-  O251  1  0.95980013  0.91821165  0.93479221  1
  O2-  O252  1  0.33253051  0.28793562  0.26575442  1
  O2-  O253  1  0.33508038  0.29590311  0.60753091  1
  O2-  O254  1  0.33493555  0.29663907  0.93615735  1
  O2-  O255  1  0.33172506  0.78976490  0.26303070  1
  O2-  O256  1  0.33035682  0.80034171  0.60616273  1
  O2-  O257  1  0.33684387  0.79281106  0.93701139  1
  O2-  O258  1  0.83736673  0.29888342  0.27072833  1
  O2-  O259  1  0.83399374  0.30127276  0.60293688  1
  O2-  O260  1  0.82679499  0.29901426  0.93646017  1
  O2-  O261  1  0.83604940  0.79103161  0.27209109  1
  O2-  O262  1  0.83432869  0.78939315  0.59482432  1
  O2-  O263  1  0.83355561  0.78475562  0.93437370  1
  O2-  O264  1  0.41789677  0.04548208  0.06986685  1
  O2-  O265  1  0.41612515  0.04002984  0.40111585  1
  O2-  O266  1  0.41280241  0.04361617  0.72784347  1
  O2-  O267  1  0.41369586  0.54064571  0.06437830  1
  O2-  O268  1  0.42472427  0.54944604  0.39350526  1
  O2-  O269  1  0.41820622  0.54244153  0.73809484  1
  O2-  O270  1  0.92239602  0.05223180  0.06465930  1
  O2-  O271  1  0.92214068  0.04269797  0.40021915  1
  O2-  O272  1  0.92288408  0.04137158  0.73101223  1
  O2-  O273  1  0.91788966  0.53861452  0.06410460  1
  O2-  O274  1  0.91509824  0.53988738  0.40546263  1
  O2-  O275  1  0.91775864  0.55521082  0.72752600  1
  O2-  O276  1  0.29141236  0.17126247  0.06657454  1
  O2-  O277  1  0.28782618  0.16461986  0.40326775  1
  O2-  O278  1  0.29329930  0.16215667  0.72779700  1
  O2-  O279  1  0.29851743  0.66371781  0.06182267  1
  O2-  O280  1  0.29065853  0.66888883  0.39974562  1
  O2-  O281  1  0.29275476  0.67142259  0.73679051  1
  O2-  O282  1  0.78935173  0.17107478  0.06772941  1
  O2-  O283  1  0.79989701  0.17355688  0.39995623  1
  O2-  O284  1  0.79767274  0.17071006  0.73097773  1
  O2-  O285  1  0.78707378  0.66151193  0.06809173  1
  O2-  O286  1  0.79066404  0.66588184  0.40197573  1
  O2-  O287  1  0.79100297  0.66618348  0.72678734  1
