# generated using pymatgen
data_Ca2Al2SiO7
_symmetry_space_group_name_H-M   'P 1'
_cell_length_a   15.45989806
_cell_length_b   15.45915506
_cell_length_c   15.28457167
_cell_angle_alpha   89.99809564
_cell_angle_beta   89.98379574
_cell_angle_gamma   89.98105569
_symmetry_Int_Tables_number   1
_chemical_formula_structural   Ca2Al2SiO7
_chemical_formula_sum   'Ca48 Al48 Si24 O168'
_cell_volume   3652.96583388
_cell_formula_units_Z   24
loop_
 _symmetry_equiv_pos_site_id
 _symmetry_equiv_pos_as_xyz
  1  'x, y, z'
loop_
 _atom_type_symbol
 _atom_type_oxidation_number
  Ca2+  2.0
  Al0+  0.0
  Si0+  0.0
  O2-  -2.0
loop_
 _atom_site_type_symbol
 _atom_site_label
 _atom_site_symmetry_multiplicity
 _atom_site_fract_x
 _atom_site_fract_y
 _atom_site_fract_z
 _atom_site_occupancy
  Ca2+  Ca0  1  0.15945697  0.07811431  0.16714500  1
  Ca2+  Ca1  1  0.17135615  0.08250657  0.50926546  1
  Ca2+  Ca2  1  0.16549533  0.08467583  0.83856815  1
  Ca2+  Ca3  1  0.16874740  0.58013392  0.16683778  1
  Ca2+  Ca4  1  0.17078632  0.57447326  0.50286028  1
  Ca2+  Ca5  1  0.17492320  0.58219293  0.84125888  1
  Ca2+  Ca6  1  0.67076192  0.08545330  0.17135704  1
  Ca2+  Ca7  1  0.66975668  0.08533260  0.50357605  1
  Ca2+  Ca8  1  0.66079585  0.08923703  0.83607643  1
  Ca2+  Ca9  1  0.67612002  0.58453227  0.17188231  1
  Ca2+  Ca10  1  0.67443899  0.58077379  0.50749908  1
  Ca2+  Ca11  1  0.67772181  0.57372399  0.83655964  1
  Ca2+  Ca12  1  0.07497708  0.33397395  0.16134180  1
  Ca2+  Ca13  1  0.07532014  0.33478044  0.49649541  1
  Ca2+  Ca14  1  0.07387759  0.33000930  0.82834780  1
  Ca2+  Ca15  1  0.07980213  0.82834476  0.15919201  1
  Ca2+  Ca16  1  0.07657132  0.82827544  0.49454660  1
  Ca2+  Ca17  1  0.08990231  0.82810736  0.83709211  1
  Ca2+  Ca18  1  0.57855786  0.32802576  0.15775279  1
  Ca2+  Ca19  1  0.58246315  0.33730207  0.50490427  1
  Ca2+  Ca20  1  0.57781693  0.32860142  0.82779295  1
  Ca2+  Ca21  1  0.57403203  0.82665412  0.16604168  1
  Ca2+  Ca22  1  0.57694453  0.82355455  0.48929507  1
  Ca2+  Ca23  1  0.57586224  0.83179604  0.83286854  1
  Ca2+  Ca24  1  0.32789350  0.41684821  0.16962321  1
  Ca2+  Ca25  1  0.32875191  0.41774192  0.50892531  1
  Ca2+  Ca26  1  0.34335389  0.42476139  0.83835562  1
  Ca2+  Ca27  1  0.33136207  0.91073266  0.16564953  1
  Ca2+  Ca28  1  0.33586942  0.92133666  0.50563971  1
  Ca2+  Ca29  1  0.32936492  0.92447787  0.84181468  1
  Ca2+  Ca30  1  0.84247325  0.42462269  0.17186476  1
  Ca2+  Ca31  1  0.83313964  0.42377275  0.50773304  1
  Ca2+  Ca32  1  0.83515230  0.41591896  0.83620484  1
  Ca2+  Ca33  1  0.83604013  0.92502113  0.17579697  1
  Ca2+  Ca34  1  0.83757009  0.92273219  0.49996945  1
  Ca2+  Ca35  1  0.82951144  0.92073227  0.83864597  1
  Ca2+  Ca36  1  0.42427824  0.17425550  0.15554507  1
  Ca2+  Ca37  1  0.41819341  0.16852083  0.50385658  1
  Ca2+  Ca38  1  0.42097824  0.17724977  0.82505236  1
  Ca2+  Ca39  1  0.41677979  0.67250878  0.16067723  1
  Ca2+  Ca40  1  0.42234715  0.66715736  0.49234421  1
  Ca2+  Ca41  1  0.40459809  0.67061141  0.83057008  1
  Ca2+  Ca42  1  0.91696918  0.17861690  0.15962528  1
  Ca2+  Ca43  1  0.91524754  0.17975698  0.49539469  1
  Ca2+  Ca44  1  0.92648984  0.17741925  0.82823777  1
  Ca2+  Ca45  1  0.91863175  0.66571670  0.16176058  1
  Ca2+  Ca46  1  0.90918175  0.66947857  0.49157480  1
  Ca2+  Ca47  1  0.92052556  0.65756238  0.83302098  1
  Al0+  Al48  1  -0.00091085  -0.00068945  0.00136332  1
  Al0+  Al49  1  0.00068888  -0.00061454  0.33680013  1
  Al0+  Al50  1  -0.00076376  -0.00281271  0.66485087  1
  Al0+  Al51  1  0.00125951  0.50215690  -0.00385769  1
  Al0+  Al52  1  0.00106241  0.49941608  0.33910014  1
  Al0+  Al53  1  0.00313187  0.50143944  0.66543354  1
  Al0+  Al54  1  0.49971234  -0.00292092  -0.00440156  1
  Al0+  Al55  1  0.49953396  -0.00052425  0.32980165  1
  Al0+  Al56  1  0.49834459  0.00038322  0.66719617  1
  Al0+  Al57  1  0.50371295  0.50187146  0.00382522  1
  Al0+  Al58  1  0.50122324  0.49910777  0.32781290  1
  Al0+  Al59  1  0.50189405  0.50116620  0.67089591  1
  Al0+  Al60  1  0.25121178  0.25051399  -0.00475678  1
  Al0+  Al61  1  0.24941519  0.24842122  0.33780930  1
  Al0+  Al62  1  0.25050213  0.24857802  0.66480153  1
  Al0+  Al63  1  0.24892681  0.75101419  0.00125259  1
  Al0+  Al64  1  0.24949444  0.75046128  0.33271809  1
  Al0+  Al65  1  0.24750070  0.75041500  0.66623219  1
  Al0+  Al66  1  0.74945516  0.25038287  -0.00620954  1
  Al0+  Al67  1  0.75082334  0.25088365  0.33359539  1
  Al0+  Al68  1  0.75005308  0.24946845  0.66331753  1
  Al0+  Al69  1  0.74880908  0.75127302  0.00463778  1
  Al0+  Al70  1  0.74885548  0.75163925  0.32799443  1
  Al0+  Al71  1  0.74956875  0.75097707  0.67161392  1
  Al0+  Al72  1  0.82243678  0.56995758  0.01559230  1
  Al0+  Al73  1  0.81923647  0.57144739  0.34625594  1
  Al0+  Al74  1  0.42858277  0.81699118  0.98407739  1
  Al0+  Al75  1  0.07094175  0.17593962  0.98684614  1
  Al0+  Al76  1  0.32052491  0.57093200  0.67834425  1
  Al0+  Al77  1  0.93028018  0.32233694  0.64906326  1
  Al0+  Al78  1  0.32236049  0.57109934  0.01500757  1
  Al0+  Al79  1  0.32036812  0.07064214  0.68136968  1
  Al0+  Al80  1  0.92966639  0.32142973  0.31938544  1
  Al0+  Al81  1  0.06987819  0.68083838  0.98705344  1
  Al0+  Al82  1  0.82319629  0.57293091  0.68271393  1
  Al0+  Al83  1  0.92957435  0.82214982  0.31992740  1
  Al0+  Al84  1  0.42729021  0.82164738  0.31806678  1
  Al0+  Al85  1  0.57072355  0.17810013  0.98588975  1
  Al0+  Al86  1  0.18011279  0.42791620  0.34714259  1
  Al0+  Al87  1  0.43001768  0.32435336  0.65052351  1
  Al0+  Al88  1  0.57159488  0.67617934  0.31761840  1
  Al0+  Al89  1  0.42879229  0.32447708  0.98624463  1
  Al0+  Al90  1  0.17897449  0.93100374  0.01486659  1
  Al0+  Al91  1  0.93005779  0.32311700  0.98495862  1
  Al0+  Al92  1  0.07144378  0.17606612  0.64993406  1
  Al0+  Al93  1  0.68029112  0.42737870  0.68277932  1
  Al0+  Al94  1  0.82141168  0.07216142  0.34728961  1
  Al0+  Al95  1  0.57052090  0.17719192  0.64861409  1
  Si0+  Si96  1  0.32216080  0.07002693  0.34772270  1
  Si0+  Si97  1  0.57490437  0.67883065  0.98129522  1
  Si0+  Si98  1  0.57071341  0.17947682  0.31917586  1
  Si0+  Si99  1  0.57235520  0.68113389  0.65423574  1
  Si0+  Si100  1  0.07139620  0.67757422  0.31748543  1
  Si0+  Si101  1  0.42631208  0.31990839  0.31931284  1
  Si0+  Si102  1  0.67701555  0.93032409  0.34967871  1
  Si0+  Si103  1  0.32309923  0.07228931  0.01669449  1
  Si0+  Si104  1  0.92596355  0.82254846  0.98365771  1
  Si0+  Si105  1  0.17914797  0.42724294  0.68427754  1
  Si0+  Si106  1  0.42771409  0.81977921  0.65239986  1
  Si0+  Si107  1  0.17855106  0.42719410  0.01494879  1
  Si0+  Si108  1  0.32283479  0.57176395  0.34829118  1
  Si0+  Si109  1  0.67586773  0.42670253  0.34934274  1
  Si0+  Si110  1  0.81922000  0.07045899  0.01340783  1
  Si0+  Si111  1  0.67812755  0.92917552  0.68161649  1
  Si0+  Si112  1  0.07351413  0.17784516  0.31775683  1
  Si0+  Si113  1  0.68033415  0.42656622  0.01869587  1
  Si0+  Si114  1  0.82133045  0.06972309  0.68175857  1
  Si0+  Si115  1  0.17625198  0.92766822  0.68378612  1
  Si0+  Si116  1  0.17888007  0.92774718  0.34972382  1
  Si0+  Si117  1  0.07205115  0.68066389  0.65057312  1
  Si0+  Si118  1  0.92586055  0.81954469  0.65226447  1
  Si0+  Si119  1  0.67644951  0.92837527  0.01724126  1
  O2-  O120  1  0.25106743  0.00796171  0.06311863  1
  O2-  O121  1  0.25169227  -0.00231671  0.38986418  1
  O2-  O122  1  0.24147461  -0.00026236  0.72676671  1
  O2-  O123  1  0.25112324  0.49214574  0.05994812  1
  O2-  O124  1  0.25698543  0.50131124  0.39330026  1
  O2-  O125  1  0.25136090  0.49267981  0.72753792  1
  O2-  O126  1  0.74668930  0.00128371  0.05705217  1
  O2-  O127  1  0.74690386  -0.00307210  0.39529762  1
  O2-  O128  1  0.74663352  0.00239486  0.72434837  1
  O2-  O129  1  0.75062272  0.49328837  0.06357988  1
  O2-  O130  1  0.74319721  0.49778031  0.39191955  1
  O2-  O131  1  0.75663433  0.49577674  0.73200000  1
  O2-  O132  1  0.00392166  0.24541514  0.27385954  1
  O2-  O133  1  0.00173219  0.24933671  0.59874577  1
  O2-  O134  1  0.00283770  0.25095093  0.93681107  1
  O2-  O135  1  0.00189401  0.74563885  0.27355968  1
  O2-  O136  1  -0.00524105  0.74614691  0.61023218  1
  O2-  O137  1  -0.00769345  0.75241081  0.93874054  1
  O2-  O138  1  0.50000957  0.25107037  0.27794001  1
  O2-  O139  1  0.50067547  0.25137602  0.59842515  1
  O2-  O140  1  0.49772562  0.24917422  0.93737402  1
  O2-  O141  1  0.49555983  0.74554990  0.26944202  1
  O2-  O142  1  0.49773075  0.74818881  0.61064615  1
  O2-  O143  1  0.50087982  0.74092451  0.93536315  1
  O2-  O144  1  0.06582153  0.17435235  0.10087418  1
  O2-  O145  1  0.07470053  0.17846302  0.42305348  1
  O2-  O146  1  0.06696784  0.17424203  0.76320506  1
  O2-  O147  1  0.06894049  0.68203543  0.10032903  1
  O2-  O148  1  0.07335498  0.68073953  0.42349794  1
  O2-  O149  1  0.07596770  0.68417940  0.75529264  1
  O2-  O150  1  0.57102995  0.17895149  0.10055861  1
  O2-  O151  1  0.56921554  0.17677609  0.42371797  1
  O2-  O152  1  0.56633583  0.17418016  0.76148264  1
  O2-  O153  1  0.57614259  0.68348699  0.08674703  1
  O2-  O154  1  0.57017103  0.67806949  0.43216607  1
  O2-  O155  1  0.57499337  0.68629384  0.75888226  1
  O2-  O156  1  0.18199528  0.42726706  0.23396961  1
  O2-  O157  1  0.17833526  0.43166047  0.57823622  1
  O2-  O158  1  0.17650775  0.43002754  0.90968416  1
  O2-  O159  1  0.17662090  0.92790158  0.24495714  1
  O2-  O160  1  0.17794906  0.92439264  0.57776148  1
  O2-  O161  1  0.18089479  0.93057017  0.90180409  1
  O2-  O162  1  0.67535410  0.42417792  0.24387711  1
  O2-  O163  1  0.67883267  0.43339498  0.56864173  1
  O2-  O164  1  0.67985715  0.42754334  0.91351812  1
  O2-  O165  1  0.67557062  0.93439080  0.24412147  1
  O2-  O166  1  0.67981881  0.92603439  0.57659128  1
  O2-  O167  1  0.67795422  0.92573552  0.91178385  1
  O2-  O168  1  0.42991239  0.32133697  0.10109701  1
  O2-  O169  1  0.42522692  0.31973390  0.42397088  1
  O2-  O170  1  0.43239675  0.32459900  0.76353813  1
  O2-  O171  1  0.43070818  0.81750982  0.09695941  1
  O2-  O172  1  0.42935794  0.82242433  0.43241992  1
  O2-  O173  1  0.42753725  0.81918583  0.75728231  1
  O2-  O174  1  0.93067089  0.32237590  0.09905078  1
  O2-  O175  1  0.92937699  0.32133580  0.43195630  1
  O2-  O176  1  0.93219489  0.32092601  0.76246351  1
  O2-  O177  1  0.92755146  0.82428762  0.08925752  1
  O2-  O178  1  0.93217785  0.82197677  0.43360870  1
  O2-  O179  1  0.92465530  0.82262231  0.75703693  1
  O2-  O180  1  0.32225629  0.07199562  0.24287975  1
  O2-  O181  1  0.32224638  0.06433447  0.56738884  1
  O2-  O182  1  0.32417216  0.06823971  0.91147481  1
  O2-  O183  1  0.32045181  0.57197082  0.24283950  1
  O2-  O184  1  0.31705944  0.57401414  0.56488123  1
  O2-  O185  1  0.31805837  0.57210290  0.90182043  1
  O2-  O186  1  0.81873121  0.07183100  0.23381282  1
  O2-  O187  1  0.82193317  0.06546593  0.57652579  1
  O2-  O188  1  0.81934396  0.06650291  0.90820338  1
  O2-  O189  1  0.82078167  0.56949237  0.23323552  1
  O2-  O190  1  0.81797744  0.57860367  0.56908215  1
  O2-  O191  1  0.82009264  0.57066831  0.90294474  1
  O2-  O192  1  0.04871842  0.08296320  0.27477869  1
  O2-  O193  1  0.04340265  0.07596608  0.59820411  1
  O2-  O194  1  0.03932970  0.07873890  0.93290535  1
  O2-  O195  1  0.04651561  0.58383482  0.27313624  1
  O2-  O196  1  0.05177153  0.58743252  0.60352676  1
  O2-  O197  1  0.04286102  0.58549960  0.92988178  1
  O2-  O198  1  0.54287524  0.08824946  0.27048479  1
  O2-  O199  1  0.53934043  0.07832891  0.59557998  1
  O2-  O200  1  0.54674084  0.07836841  0.93440518  1
  O2-  O201  1  0.54841272  0.57744093  0.26246223  1
  O2-  O202  1  0.54773223  0.58887105  0.60772847  1
  O2-  O203  1  0.55713959  0.58239007  0.94034653  1
  O2-  O204  1  0.16748856  0.20249636  0.27157476  1
  O2-  O205  1  0.17167408  0.19956461  0.59921830  1
  O2-  O206  1  0.17164389  0.19704801  0.93687500  1
  O2-  O207  1  0.16452164  0.70443933  0.27148899  1
  O2-  O208  1  0.15990742  0.71563609  0.59880264  1
  O2-  O209  1  0.16403181  0.71626542  0.93186863  1
  O2-  O210  1  0.66240341  0.20679543  0.27160535  1
  O2-  O211  1  0.67046826  0.20116229  0.59731193  1
  O2-  O212  1  0.66805224  0.20505759  0.93100052  1
  O2-  O213  1  0.66671179  0.71015881  0.26189082  1
  O2-  O214  1  0.66214269  0.71445567  0.60534022  1
  O2-  O215  1  0.66578698  0.71285391  0.93462502  1
  O2-  O216  1  0.08717204  0.45922900  0.06219886  1
  O2-  O217  1  0.08676645  0.46243146  0.40502389  1
  O2-  O218  1  0.08770038  0.45859959  0.73095655  1
  O2-  O219  1  0.08087317  0.95832164  0.06970061  1
  O2-  O220  1  0.08855773  0.95592911  0.40016621  1
  O2-  O221  1  0.08081419  0.94738151  0.72868824  1
  O2-  O222  1  0.58808120  0.45409707  0.06720966  1
  O2-  O223  1  0.58082447  0.45022373  0.39447735  1
  O2-  O224  1  0.58428145  0.46053398  0.73759568  1
  O2-  O225  1  0.58441048  0.95526789  0.06458042  1
  O2-  O226  1  0.58378838  0.95757393  0.39675666  1
  O2-  O227  1  0.58582378  0.95472771  0.72915414  1
  O2-  O228  1  0.19987359  0.33208401  0.06073793  1
  O2-  O229  1  0.20957587  0.33159321  0.40290397  1
  O2-  O230  1  0.19831883  0.33155774  0.72669409  1
  O2-  O231  1  0.21224838  0.83594499  0.07008303  1
  O2-  O232  1  0.20524883  0.83559988  0.39844727  1
  O2-  O233  1  0.20671806  0.83593558  0.73060659  1
  O2-  O234  1  0.70328325  0.33108336  0.06297750  1
  O2-  O235  1  0.70231304  0.33402129  0.39638322  1
  O2-  O236  1  0.70365845  0.32633734  0.73269781  1
  O2-  O237  1  0.70559449  0.83849420  0.06733984  1
  O2-  O238  1  0.70100532  0.83570084  0.39374397  1
  O2-  O239  1  0.70895824  0.84030953  0.73321636  1
  O2-  O240  1  0.45056891  0.41217286  0.27141468  1
  O2-  O241  1  0.45921471  0.42361450  0.59787212  1
  O2-  O242  1  0.46035534  0.42295487  0.93605884  1
  O2-  O243  1  0.45876917  0.91853769  0.26329386  1
  O2-  O244  1  0.45775346  0.91048055  0.60498072  1
  O2-  O245  1  0.46186812  0.91241888  0.92955205  1
  O2-  O246  1  0.96434749  0.41795299  0.26782587  1
  O2-  O247  1  0.96014454  0.42181849  0.59779262  1
  O2-  O248  1  0.95836592  0.42033398  0.93124329  1
  O2-  O249  1  0.96309078  0.91829698  0.26637878  1
  O2-  O250  1  0.95630961  0.90952375  0.60246117  1
  O2-  O251  1  0.95366431  0.91470447  0.93626868  1
  O2-  O252  1  0.33589246  0.28796750  0.27163343  1
  O2-  O253  1  0.33093958  0.29579051  0.59898231  1
  O2-  O254  1  0.32964708  0.30219409  0.93331487  1
  O2-  O255  1  0.32728840  0.79700910  0.26677304  1
  O2-  O256  1  0.33538650  0.79363904  0.60468352  1
  O2-  O257  1  0.33182359  0.78853692  0.93056718  1
  O2-  O258  1  0.83258172  0.29112546  0.26570789  1
  O2-  O259  1  0.83159892  0.29373296  0.59755838  1
  O2-  O260  1  0.83263263  0.29356558  0.93208620  1
  O2-  O261  1  0.83186609  0.79887294  0.26593431  1
  O2-  O262  1  0.83343295  0.79444385  0.60433578  1
  O2-  O263  1  0.83073720  0.80023267  0.93972704  1
  O2-  O264  1  0.41558071  0.04075544  0.06284113  1
  O2-  O265  1  0.41391442  0.04123124  0.39522033  1
  O2-  O266  1  0.41506552  0.03482198  0.73590121  1
  O2-  O267  1  0.42140158  0.54752663  0.06817997  1
  O2-  O268  1  0.41832236  0.54829156  0.39122399  1
  O2-  O269  1  0.41852422  0.54892118  0.73267655  1
  O2-  O270  1  0.90915770  0.04025201  0.06277090  1
  O2-  O271  1  0.91711230  0.03956870  0.40262260  1
  O2-  O272  1  0.91087947  0.03527919  0.72965904  1
  O2-  O273  1  0.92124115  0.54283621  0.06750331  1
  O2-  O274  1  0.91596235  0.54294836  0.40114522  1
  O2-  O275  1  0.92525895  0.55079773  0.73018553  1
  O2-  O276  1  0.30351894  0.16839659  0.06043300  1
  O2-  O277  1  0.29397928  0.16026152  0.39786386  1
  O2-  O278  1  0.29517705  0.16900649  0.73368107  1
  O2-  O279  1  0.28573335  0.66570692  0.06903436  1
  O2-  O280  1  0.29601615  0.66538343  0.39467241  1
  O2-  O281  1  0.28397383  0.66664163  0.73185918  1
  O2-  O282  1  0.79221752  0.16323564  0.05939488  1
  O2-  O283  1  0.78849652  0.16760272  0.40192079  1
  O2-  O284  1  0.79727593  0.16248258  0.72732482  1
  O2-  O285  1  0.79071829  0.66785730  0.06809209  1
  O2-  O286  1  0.78980791  0.67057149  0.39712029  1
  O2-  O287  1  0.79117236  0.67016340  0.73731378  1
