# generated using pymatgen
data_Ca2Al2SiO7
_symmetry_space_group_name_H-M   'P 1'
_cell_length_a   15.46443745
_cell_length_b   15.46275682
_cell_length_c   15.28790889
_cell_angle_alpha   89.98770610
_cell_angle_beta   89.99881345
_cell_angle_gamma   89.98695486
_symmetry_Int_Tables_number   1
_chemical_formula_structural   Ca2Al2SiO7
_chemical_formula_sum   'Ca48 Al48 Si24 O168'
_cell_volume   3655.68794464
_cell_formula_units_Z   24
loop_
 _symmetry_equiv_pos_site_id
 _symmetry_equiv_pos_as_xyz
  1  'x, y, z'
loop_
 _atom_type_symbol
 _atom_type_oxidation_number
  Ca2+  2.0
  Al0+  0.0
  Si0+  0.0
  O2-  -2.0
loop_
 _atom_site_type_symbol
 _atom_site_label
 _atom_site_symmetry_multiplicity
 _atom_site_fract_x
 _atom_site_fract_y
 _atom_site_fract_z
 _atom_site_occupancy
  Ca2+  Ca0  1  0.17101934  0.07836168  0.18053393  1
  Ca2+  Ca1  1  0.16682209  0.08917743  0.50145231  1
  Ca2+  Ca2  1  0.16503323  0.08337526  0.83633438  1
  Ca2+  Ca3  1  0.17332687  0.58872687  0.17323470  1
  Ca2+  Ca4  1  0.16116041  0.58678470  0.50343035  1
  Ca2+  Ca5  1  0.17257033  0.59189725  0.83615703  1
  Ca2+  Ca6  1  0.66492947  0.08328172  0.16685012  1
  Ca2+  Ca7  1  0.67103709  0.08532319  0.50506326  1
  Ca2+  Ca8  1  0.67892481  0.07653280  0.84321156  1
  Ca2+  Ca9  1  0.67529092  0.57742248  0.17101817  1
  Ca2+  Ca10  1  0.66971544  0.57694216  0.50044609  1
  Ca2+  Ca11  1  0.66697658  0.57961560  0.84560954  1
  Ca2+  Ca12  1  0.07757833  0.32940939  0.16993503  1
  Ca2+  Ca13  1  0.07202359  0.32383508  0.49409164  1
  Ca2+  Ca14  1  0.07262962  0.32683132  0.82307776  1
  Ca2+  Ca15  1  0.07918719  0.83235729  0.16557925  1
  Ca2+  Ca16  1  0.08111267  0.82690692  0.49719310  1
  Ca2+  Ca17  1  0.06925243  0.82810772  0.82750539  1
  Ca2+  Ca18  1  0.59113435  0.32739441  0.16560537  1
  Ca2+  Ca19  1  0.57933024  0.32813922  0.48703211  1
  Ca2+  Ca20  1  0.59297113  0.32846050  0.83642046  1
  Ca2+  Ca21  1  0.58648426  0.82775337  0.15607664  1
  Ca2+  Ca22  1  0.58074465  0.83013257  0.49997281  1
  Ca2+  Ca23  1  0.58725160  0.82157051  0.83036158  1
  Ca2+  Ca24  1  0.33675186  0.42043731  0.17061201  1
  Ca2+  Ca25  1  0.33247806  0.41298279  0.50181396  1
  Ca2+  Ca26  1  0.32697031  0.42487175  0.84162575  1
  Ca2+  Ca27  1  0.32567216  0.92317861  0.17965086  1
  Ca2+  Ca28  1  0.32844548  0.91890788  0.50074949  1
  Ca2+  Ca29  1  0.33227642  0.91084927  0.83457816  1
  Ca2+  Ca30  1  0.82571630  0.42315650  0.17411122  1
  Ca2+  Ca31  1  0.83626998  0.41461850  0.49953277  1
  Ca2+  Ca32  1  0.82992487  0.42408060  0.84151300  1
  Ca2+  Ca33  1  0.83058520  0.91763682  0.16294973  1
  Ca2+  Ca34  1  0.83743752  0.92421524  0.50682699  1
  Ca2+  Ca35  1  0.83711613  0.92287341  0.84094588  1
  Ca2+  Ca36  1  0.42550503  0.16869754  0.16737027  1
  Ca2+  Ca37  1  0.42228655  0.17091216  0.48593249  1
  Ca2+  Ca38  1  0.42676859  0.16526190  0.83286306  1
  Ca2+  Ca39  1  0.42295250  0.66594460  0.15808551  1
  Ca2+  Ca40  1  0.42137987  0.67137313  0.50152280  1
  Ca2+  Ca41  1  0.42816893  0.66735015  0.82869423  1
  Ca2+  Ca42  1  0.91470290  0.16856493  0.16478718  1
  Ca2+  Ca43  1  0.91796974  0.17471303  0.49522074  1
  Ca2+  Ca44  1  0.91467410  0.16862071  0.82388018  1
  Ca2+  Ca45  1  0.91501759  0.66699422  0.16189297  1
  Ca2+  Ca46  1  0.92485000  0.66748265  0.49270850  1
  Ca2+  Ca47  1  0.90974376  0.67896330  0.82845408  1
  Al0+  Al48  1  0.00121689  -0.00087326  0.00065885  1
  Al0+  Al49  1  -0.00118874  -0.00286802  0.33430949  1
  Al0+  Al50  1  0.00308762  -0.00061313  0.66551403  1
  Al0+  Al51  1  0.00282008  0.49784163  0.00193749  1
  Al0+  Al52  1  0.00273873  0.50191540  0.32764197  1
  Al0+  Al53  1  -0.00150770  0.49856916  0.66363351  1
  Al0+  Al54  1  0.49946559  0.00172441  -0.00232440  1
  Al0+  Al55  1  0.49847534  0.00016764  0.33481456  1
  Al0+  Al56  1  0.49917611  -0.00066146  0.66535421  1
  Al0+  Al57  1  0.49690625  0.49950817  0.00339708  1
  Al0+  Al58  1  0.50103912  0.50124335  0.33506781  1
  Al0+  Al59  1  0.49970870  0.49947707  0.66509810  1
  Al0+  Al60  1  0.25002816  0.25008221  -0.00050736  1
  Al0+  Al61  1  0.25104651  0.25179840  0.32934956  1
  Al0+  Al62  1  0.25053746  0.25045312  0.66885113  1
  Al0+  Al63  1  0.24937502  0.75027831  0.00476246  1
  Al0+  Al64  1  0.24955078  0.75139260  0.33502760  1
  Al0+  Al65  1  0.25183945  0.75104180  0.66235183  1
  Al0+  Al66  1  0.75083693  0.24960371  0.00114209  1
  Al0+  Al67  1  0.74885401  0.25020825  0.32972685  1
  Al0+  Al68  1  0.74924641  0.24958316  0.66792440  1
  Al0+  Al69  1  0.75046403  0.75136382  -0.00199998  1
  Al0+  Al70  1  0.75079534  0.74981094  0.33875151  1
  Al0+  Al71  1  0.74850773  0.74906519  0.65674898  1
  Al0+  Al72  1  0.57199334  0.67554371  0.64949349  1
  Al0+  Al73  1  0.31996774  0.07236034  0.34913283  1
  Al0+  Al74  1  0.67786524  0.92926101  0.01288677  1
  Al0+  Al75  1  0.57147864  0.17717733  0.31804230  1
  Al0+  Al76  1  0.07156646  0.68107412  0.31741442  1
  Al0+  Al77  1  0.93021523  0.81987229  0.98736696  1
  Al0+  Al78  1  0.82291135  0.57309463  0.01260066  1
  Al0+  Al79  1  0.82328669  0.07073023  0.01588171  1
  Al0+  Al80  1  0.07354298  0.17860418  0.65316174  1
  Al0+  Al81  1  0.42867610  0.32416978  0.31775016  1
  Al0+  Al82  1  0.82112699  0.06935763  0.67886658  1
  Al0+  Al83  1  0.06981638  0.17691190  0.31787169  1
  Al0+  Al84  1  0.42950631  0.82212466  0.65094833  1
  Al0+  Al85  1  0.17714764  0.92845536  0.35131462  1
  Al0+  Al86  1  0.67986308  0.42837491  0.35008991  1
  Al0+  Al87  1  0.67825581  0.42860013  0.01504396  1
  Al0+  Al88  1  0.57184798  0.17913995  0.98377937  1
  Al0+  Al89  1  0.56987901  0.67869203  0.98913967  1
  Al0+  Al90  1  0.92589786  0.31998035  0.65255636  1
  Al0+  Al91  1  0.07018981  0.67919777  0.65349150  1
  Al0+  Al92  1  0.92855886  0.32156793  0.31555957  1
  Al0+  Al93  1  0.31824458  0.57109262  0.01343107  1
  Al0+  Al94  1  0.82352048  0.57099613  0.35051633  1
  Al0+  Al95  1  0.92744106  0.82266989  0.65048032  1
  Si0+  Si96  1  0.42570444  0.82268287  0.98578490  1
  Si0+  Si97  1  0.32219790  0.07277624  0.68409538  1
  Si0+  Si98  1  0.82134044  0.57111249  0.68039998  1
  Si0+  Si99  1  0.18131942  0.92788802  0.68403026  1
  Si0+  Si100  1  0.32132424  0.07276428  0.01440086  1
  Si0+  Si101  1  0.92941740  0.32117773  0.98467546  1
  Si0+  Si102  1  0.07393035  0.67691986  0.98477924  1
  Si0+  Si103  1  0.56984304  0.17966978  0.65338880  1
  Si0+  Si104  1  0.32073456  0.57075044  0.68109913  1
  Si0+  Si105  1  0.42618850  0.32117526  0.98118197  1
  Si0+  Si106  1  0.92502481  0.82169278  0.31496812  1
  Si0+  Si107  1  0.81983531  0.07030654  0.34776644  1
  Si0+  Si108  1  0.18032327  0.43020721  0.34880891  1
  Si0+  Si109  1  0.17844839  0.42505597  0.01841108  1
  Si0+  Si110  1  0.32223412  0.57262975  0.35082441  1
  Si0+  Si111  1  0.42983005  0.82007373  0.31813427  1
  Si0+  Si112  1  0.67603135  0.92688478  0.68227313  1
  Si0+  Si113  1  0.18034964  0.93026247  0.01438394  1
  Si0+  Si114  1  0.57158820  0.68070661  0.31773913  1
  Si0+  Si115  1  0.67713345  0.42965724  0.68222695  1
  Si0+  Si116  1  0.42893313  0.32046224  0.65435963  1
  Si0+  Si117  1  0.67723477  0.92783979  0.34924555  1
  Si0+  Si118  1  0.07158615  0.17915088  0.98550867  1
  Si0+  Si119  1  0.17820632  0.42838738  0.68114315  1
  O2-  O120  1  0.25292272  -0.00041629  0.05574970  1
  O2-  O121  1  0.24502583  0.00473031  0.40144422  1
  O2-  O122  1  0.25096713  0.00151966  0.72645562  1
  O2-  O123  1  0.24344769  0.49762328  0.06172219  1
  O2-  O124  1  0.25229673  0.50033138  0.39236668  1
  O2-  O125  1  0.24635562  0.50281322  0.72335339  1
  O2-  O126  1  0.74768521  0.00199523  0.06528493  1
  O2-  O127  1  0.74730648  0.00037446  0.38990929  1
  O2-  O128  1  0.74949964  -0.00899396  0.72538073  1
  O2-  O129  1  0.75035842  0.50170280  0.06260696  1
  O2-  O130  1  0.75408834  0.49694241  0.40190866  1
  O2-  O131  1  0.74796029  0.50190456  0.72284594  1
  O2-  O132  1  -0.00297071  0.24595549  0.26487396  1
  O2-  O133  1  -0.00252346  0.24643820  0.60469483  1
  O2-  O134  1  -0.00042337  0.24856789  0.94303315  1
  O2-  O135  1  -0.00567547  0.75294214  0.27162956  1
  O2-  O136  1  -0.00334283  0.74770653  0.60132085  1
  O2-  O137  1  0.00003270  0.73953900  0.94114488  1
  O2-  O138  1  0.50140945  0.25231144  0.26931611  1
  O2-  O139  1  0.49792685  0.24901434  0.61140472  1
  O2-  O140  1  0.49799690  0.25572272  0.93651802  1
  O2-  O141  1  0.50158736  0.75178193  0.27408147  1
  O2-  O142  1  0.50292751  0.75163070  0.60103256  1
  O2-  O143  1  0.49611011  0.75541472  0.94260151  1
  O2-  O144  1  0.07409099  0.18013058  0.09004025  1
  O2-  O145  1  0.06842152  0.18020315  0.43121897  1
  O2-  O146  1  0.07596771  0.18267062  0.76748840  1
  O2-  O147  1  0.07831391  0.68152604  0.08988059  1
  O2-  O148  1  0.07250662  0.68230682  0.43039671  1
  O2-  O149  1  0.07216778  0.68175249  0.76739208  1
  O2-  O150  1  0.56772460  0.17703323  0.09591014  1
  O2-  O151  1  0.56970497  0.17669842  0.43261098  1
  O2-  O152  1  0.56916431  0.18063766  0.75857457  1
  O2-  O153  1  0.56743998  0.68060657  0.10231830  1
  O2-  O154  1  0.56895716  0.68183586  0.42276919  1
  O2-  O155  1  0.56936837  0.67229171  0.76331049  1
  O2-  O156  1  0.18173895  0.43211921  0.24350246  1
  O2-  O157  1  0.18205975  0.42607117  0.57648599  1
  O2-  O158  1  0.18038650  0.42216479  0.91242767  1
  O2-  O159  1  0.18202405  0.92753346  0.23687129  1
  O2-  O160  1  0.18346865  0.92637069  0.57978063  1
  O2-  O161  1  0.18115395  0.93023828  0.90897177  1
  O2-  O162  1  0.67838337  0.43250276  0.23695430  1
  O2-  O163  1  0.67401696  0.42864303  0.57777180  1
  O2-  O164  1  0.68098218  0.42928819  0.90025367  1
  O2-  O165  1  0.67665201  0.92483774  0.24441153  1
  O2-  O166  1  0.67237254  0.93231136  0.57647038  1
  O2-  O167  1  0.67876179  0.92936024  0.89922575  1
  O2-  O168  1  0.42092600  0.31796131  0.08582786  1
  O2-  O169  1  0.42959547  0.32305986  0.43242871  1
  O2-  O170  1  0.42826576  0.32066374  0.75948484  1
  O2-  O171  1  0.42324757  0.82098533  0.09139835  1
  O2-  O172  1  0.43118844  0.81856359  0.42307562  1
  O2-  O173  1  0.42809369  0.81925654  0.76485717  1
  O2-  O174  1  0.93161129  0.32203012  0.08923756  1
  O2-  O175  1  0.93057460  0.31936161  0.42922709  1
  O2-  O176  1  0.92752596  0.32099037  0.76684427  1
  O2-  O177  1  0.93471976  0.82281819  0.10004498  1
  O2-  O178  1  0.92404310  0.82142517  0.42038190  1
  O2-  O179  1  0.92913478  0.82190625  0.76445599  1
  O2-  O180  1  0.32139963  0.06717227  0.23502169  1
  O2-  O181  1  0.32314053  0.07575441  0.57993160  1
  O2-  O182  1  0.31907107  0.07412261  0.90873555  1
  O2-  O183  1  0.32134285  0.57428918  0.24561413  1
  O2-  O184  1  0.32241976  0.56794592  0.57616284  1
  O2-  O185  1  0.31654358  0.57097958  0.89967111  1
  O2-  O186  1  0.82075305  0.06800041  0.24285632  1
  O2-  O187  1  0.81607872  0.07183493  0.56560881  1
  O2-  O188  1  0.82471078  0.06913965  0.90195680  1
  O2-  O189  1  0.81934915  0.57374407  0.23707466  1
  O2-  O190  1  0.82291844  0.56801008  0.57586145  1
  O2-  O191  1  0.82190385  0.57111782  0.89812165  1
  O2-  O192  1  0.04470114  0.07637563  0.26753344  1
  O2-  O193  1  0.05481775  0.07809661  0.60382074  1
  O2-  O194  1  0.04640840  0.08658949  0.93846846  1
  O2-  O195  1  0.04782095  0.58400103  0.26208261  1
  O2-  O196  1  0.04646995  0.57942202  0.60182622  1
  O2-  O197  1  0.05894823  0.57953796  0.94253723  1
  O2-  O198  1  0.53988156  0.07906486  0.26561658  1
  O2-  O199  1  0.54360885  0.08764146  0.60677909  1
  O2-  O200  1  0.53769618  0.08380876  0.92762803  1
  O2-  O201  1  0.54225330  0.58936805  0.27199020  1
  O2-  O202  1  0.53634684  0.57962640  0.59539327  1
  O2-  O203  1  0.53581489  0.58273092  0.93502791  1
  O2-  O204  1  0.16799865  0.20736974  0.26560360  1
  O2-  O205  1  0.17102549  0.21163305  0.60077749  1
  O2-  O206  1  0.16318877  0.20792477  0.93687054  1
  O2-  O207  1  0.16851185  0.71456285  0.26439745  1
  O2-  O208  1  0.16861070  0.70716769  0.60088717  1
  O2-  O209  1  0.16542529  0.70987874  0.93722019  1
  O2-  O210  1  0.66935499  0.20256929  0.26432430  1
  O2-  O211  1  0.66043974  0.20880608  0.60590149  1
  O2-  O212  1  0.66904315  0.20976748  0.92987204  1
  O2-  O213  1  0.66404373  0.70950696  0.27327637  1
  O2-  O214  1  0.66907417  0.69983867  0.59347639  1
  O2-  O215  1  0.66543473  0.70870528  0.93305976  1
  O2-  O216  1  0.08422677  0.44581799  0.06388275  1
  O2-  O217  1  0.08941276  0.45995423  0.39579536  1
  O2-  O218  1  0.08535925  0.45269875  0.72841336  1
  O2-  O219  1  0.09052321  0.96004995  0.06305252  1
  O2-  O220  1  0.07604217  0.94863872  0.40134755  1
  O2-  O221  1  0.08966224  0.95418108  0.73273886  1
  O2-  O222  1  0.57812428  0.45211194  0.06508716  1
  O2-  O223  1  0.58170754  0.46067513  0.40346945  1
  O2-  O224  1  0.58491060  0.45659320  0.73046965  1
  O2-  O225  1  0.57758357  0.95502804  0.06454806  1
  O2-  O226  1  0.58547817  0.95473041  0.39720792  1
  O2-  O227  1  0.58368268  0.95576433  0.72970791  1
  O2-  O228  1  0.20871179  0.33327462  0.06569138  1
  O2-  O229  1  0.20804727  0.33861734  0.39629612  1
  O2-  O230  1  0.21060540  0.33929816  0.73254187  1
  O2-  O231  1  0.20610572  0.83881055  0.06332446  1
  O2-  O232  1  0.21355290  0.83249594  0.40484359  1
  O2-  O233  1  0.21367638  0.83723140  0.73236753  1
  O2-  O234  1  0.70751082  0.33065891  0.06639334  1
  O2-  O235  1  0.70359802  0.32736465  0.40065569  1
  O2-  O236  1  0.70559270  0.33789027  0.72990694  1
  O2-  O237  1  0.70785848  0.83219232  0.06692662  1
  O2-  O238  1  0.70588689  0.83770557  0.39944804  1
  O2-  O239  1  0.69607357  0.82930193  0.72202496  1
  O2-  O240  1  0.45462401  0.42428321  0.26687670  1
  O2-  O241  1  0.45563954  0.41150224  0.60590991  1
  O2-  O242  1  0.44740774  0.41654737  0.93715740  1
  O2-  O243  1  0.45474869  0.91271791  0.27191864  1
  O2-  O244  1  0.45500720  0.92130529  0.59756966  1
  O2-  O245  1  0.44617840  0.91713193  0.93960882  1
  O2-  O246  1  0.96246633  0.41792080  0.26251804  1
  O2-  O247  1  0.95602802  0.41687022  0.59918024  1
  O2-  O248  1  0.95970299  0.41243653  0.93602703  1
  O2-  O249  1  0.95064217  0.91488480  0.26892591  1
  O2-  O250  1  0.96020868  0.91929754  0.59790486  1
  O2-  O251  1  0.96766857  0.91467131  0.93226328  1
  O2-  O252  1  0.33089718  0.29816555  0.26331927  1
  O2-  O253  1  0.33690777  0.29427973  0.60731859  1
  O2-  O254  1  0.33387038  0.29144408  0.93228998  1
  O2-  O255  1  0.33855872  0.79073531  0.27126164  1
  O2-  O256  1  0.33364170  0.79084259  0.59557532  1
  O2-  O257  1  0.33271444  0.79403299  0.93897271  1
  O2-  O258  1  0.82954936  0.29563387  0.26429471  1
  O2-  O259  1  0.82772211  0.29190934  0.59933687  1
  O2-  O260  1  0.83769150  0.29515063  0.93716134  1
  O2-  O261  1  0.83105103  0.79516187  0.26989123  1
  O2-  O262  1  0.82799437  0.80194496  0.59761026  1
  O2-  O263  1  0.83351374  0.79449672  0.93133758  1
  O2-  O264  1  0.41371935  0.04797145  0.06033720  1
  O2-  O265  1  0.41723780  0.03975056  0.40327714  1
  O2-  O266  1  0.41402026  0.04337043  0.73198932  1
  O2-  O267  1  0.41314609  0.54041399  0.06962261  1
  O2-  O268  1  0.41393001  0.54655131  0.39887276  1
  O2-  O269  1  0.41100856  0.53849811  0.72963444  1
  O2-  O270  1  0.92099918  0.03970691  0.06895977  1
  O2-  O271  1  0.91052178  0.04086973  0.39615222  1
  O2-  O272  1  0.92044671  0.04372400  0.73103133  1
  O2-  O273  1  0.92292858  0.54614988  0.06341886  1
  O2-  O274  1  0.92472236  0.54504124  0.39858050  1
  O2-  O275  1  0.91260224  0.54265717  0.72921305  1
  O2-  O276  1  0.29108011  0.16348418  0.06171295  1
  O2-  O277  1  0.29652924  0.17352463  0.39896365  1
  O2-  O278  1  0.29470200  0.16425758  0.73383275  1
  O2-  O279  1  0.28919149  0.66728573  0.07025982  1
  O2-  O280  1  0.29239327  0.66348936  0.39841552  1
  O2-  O281  1  0.29502934  0.66356985  0.72761846  1
  O2-  O282  1  0.79715575  0.16964471  0.06661058  1
  O2-  O283  1  0.79286429  0.16255511  0.39392086  1
  O2-  O284  1  0.78690570  0.16514135  0.73414140  1
  O2-  O285  1  0.79639663  0.67151304  0.06465575  1
  O2-  O286  1  0.79238788  0.66870785  0.40457133  1
  O2-  O287  1  0.79468942  0.66543452  0.72367148  1
