# generated using pymatgen
data_Ca2Al2SiO7
_symmetry_space_group_name_H-M   'P 1'
_cell_length_a   15.46179624
_cell_length_b   15.46190073
_cell_length_c   15.28681450
_cell_angle_alpha   90.00623216
_cell_angle_beta   89.99643361
_cell_angle_gamma   89.98120097
_symmetry_Int_Tables_number   1
_chemical_formula_structural   Ca2Al2SiO7
_chemical_formula_sum   'Ca48 Al48 Si24 O168'
_cell_volume   3654.59953917
_cell_formula_units_Z   24
loop_
 _symmetry_equiv_pos_site_id
 _symmetry_equiv_pos_as_xyz
  1  'x, y, z'
loop_
 _atom_type_symbol
 _atom_type_oxidation_number
  Ca2+  2.0
  Al0+  0.0
  Si0+  0.0
  O2-  -2.0
loop_
 _atom_site_type_symbol
 _atom_site_label
 _atom_site_symmetry_multiplicity
 _atom_site_fract_x
 _atom_site_fract_y
 _atom_site_fract_z
 _atom_site_occupancy
  Ca2+  Ca0  1  0.16608082  0.08493662  0.17477636  1
  Ca2+  Ca1  1  0.16755332  0.07896627  0.51060253  1
  Ca2+  Ca2  1  0.17212357  0.07848999  0.82858575  1
  Ca2+  Ca3  1  0.17187920  0.58356937  0.17451180  1
  Ca2+  Ca4  1  0.16798188  0.58169713  0.50201154  1
  Ca2+  Ca5  1  0.18032159  0.58613322  0.83439023  1
  Ca2+  Ca6  1  0.66632826  0.08107082  0.17396019  1
  Ca2+  Ca7  1  0.66970617  0.08737362  0.50740413  1
  Ca2+  Ca8  1  0.67185934  0.09059724  0.83025879  1
  Ca2+  Ca9  1  0.67066499  0.57148695  0.17861538  1
  Ca2+  Ca10  1  0.66560216  0.57718118  0.50239532  1
  Ca2+  Ca11  1  0.65882187  0.57050736  0.83318680  1
  Ca2+  Ca12  1  0.07112924  0.34566397  0.16899978  1
  Ca2+  Ca13  1  0.07364348  0.33224991  0.48919989  1
  Ca2+  Ca14  1  0.06831401  0.33696348  0.82738401  1
  Ca2+  Ca15  1  0.07822418  0.82755785  0.17053176  1
  Ca2+  Ca16  1  0.07677113  0.83143579  0.49649074  1
  Ca2+  Ca17  1  0.08101975  0.83419738  0.82392886  1
  Ca2+  Ca18  1  0.59642876  0.33019547  0.16740012  1
  Ca2+  Ca19  1  0.58331185  0.32910296  0.50072724  1
  Ca2+  Ca20  1  0.58248465  0.33307607  0.82021095  1
  Ca2+  Ca21  1  0.57953911  0.82169111  0.16335643  1
  Ca2+  Ca22  1  0.58340411  0.81786767  0.49744521  1
  Ca2+  Ca23  1  0.57083812  0.82320535  0.82186361  1
  Ca2+  Ca24  1  0.32690743  0.42419781  0.17419330  1
  Ca2+  Ca25  1  0.32681338  0.41673774  0.50830838  1
  Ca2+  Ca26  1  0.34483713  0.43047802  0.83323475  1
  Ca2+  Ca27  1  0.33612836  0.91602694  0.16942986  1
  Ca2+  Ca28  1  0.32672800  0.92163245  0.51334817  1
  Ca2+  Ca29  1  0.33612541  0.91463410  0.83274681  1
  Ca2+  Ca30  1  0.82801428  0.41680087  0.17622321  1
  Ca2+  Ca31  1  0.82559231  0.41264002  0.50398269  1
  Ca2+  Ca32  1  0.82240292  0.40711760  0.83504414  1
  Ca2+  Ca33  1  0.83441632  0.91782707  0.17454935  1
  Ca2+  Ca34  1  0.83972152  0.92220252  0.50938487  1
  Ca2+  Ca35  1  0.83587785  0.92277050  0.83013729  1
  Ca2+  Ca36  1  0.42314725  0.17047677  0.16694305  1
  Ca2+  Ca37  1  0.42475305  0.16461064  0.49883090  1
  Ca2+  Ca38  1  0.42390321  0.17474878  0.81962957  1
  Ca2+  Ca39  1  0.42081906  0.66539460  0.16219798  1
  Ca2+  Ca40  1  0.42501092  0.66248424  0.50376716  1
  Ca2+  Ca41  1  0.41474036  0.67040290  0.82299360  1
  Ca2+  Ca42  1  0.92202167  0.18041177  0.16822426  1
  Ca2+  Ca43  1  0.91741645  0.17568189  0.49725671  1
  Ca2+  Ca44  1  0.91279975  0.17601119  0.82530796  1
  Ca2+  Ca45  1  0.91917576  0.65937423  0.17264608  1
  Ca2+  Ca46  1  0.91471537  0.67789346  0.48966524  1
  Ca2+  Ca47  1  0.91991698  0.67355579  0.82425244  1
  Al0+  Al48  1  0.00183494  0.00020669  0.00142674  1
  Al0+  Al49  1  0.00029765  0.00093055  0.32601879  1
  Al0+  Al50  1  -0.00061141  0.00056860  0.67442969  1
  Al0+  Al51  1  -0.00050088  0.50075382  -0.00832979  1
  Al0+  Al52  1  0.00090571  0.50350550  0.33364450  1
  Al0+  Al53  1  -0.00171855  0.50095925  0.66375690  1
  Al0+  Al54  1  0.50025309  -0.00100829  -0.00250016  1
  Al0+  Al55  1  0.50048984  0.00183782  0.32959892  1
  Al0+  Al56  1  0.50000946  -0.00097640  0.66482023  1
  Al0+  Al57  1  0.50120254  0.49785679  0.01194214  1
  Al0+  Al58  1  0.49964364  0.50062942  0.33298607  1
  Al0+  Al59  1  0.49917277  0.49840077  0.66575114  1
  Al0+  Al60  1  0.25032311  0.24809441  -0.00032495  1
  Al0+  Al61  1  0.25238582  0.25028976  0.33406348  1
  Al0+  Al62  1  0.24777700  0.24897581  0.67160807  1
  Al0+  Al63  1  0.24988693  0.75109281  0.00298555  1
  Al0+  Al64  1  0.24839517  0.75343571  0.33187761  1
  Al0+  Al65  1  0.24872324  0.74873964  0.66986698  1
  Al0+  Al66  1  0.75289081  0.24810102  0.00184847  1
  Al0+  Al67  1  0.74951060  0.24776443  0.32934870  1
  Al0+  Al68  1  0.75033656  0.24971492  0.66713068  1
  Al0+  Al69  1  0.75073167  0.74998066  -0.00104531  1
  Al0+  Al70  1  0.74606193  0.75034033  0.32670023  1
  Al0+  Al71  1  0.75098299  0.75007257  0.66124970  1
  Al0+  Al72  1  0.42559971  0.82075874  0.65100424  1
  Al0+  Al73  1  0.67935975  0.42609905  0.35193517  1
  Al0+  Al74  1  0.31895375  0.56733774  0.67823033  1
  Al0+  Al75  1  0.92927527  0.32232062  0.31947441  1
  Al0+  Al76  1  0.17973005  0.42938919  0.34636769  1
  Al0+  Al77  1  0.92850228  0.32160364  0.65205168  1
  Al0+  Al78  1  0.42603396  0.32174342  0.65294166  1
  Al0+  Al79  1  0.56933555  0.67695501  0.31726473  1
  Al0+  Al80  1  0.93030978  0.31979125  0.98429066  1
  Al0+  Al81  1  0.57006333  0.17998702  0.31830921  1
  Al0+  Al82  1  0.17968301  0.92908613  0.68193211  1
  Al0+  Al83  1  0.32002346  0.57137508  0.01545455  1
  Al0+  Al84  1  0.81882726  0.07018647  0.67970657  1
  Al0+  Al85  1  0.82041570  0.57308203  0.34880692  1
  Al0+  Al86  1  0.57109553  0.67690765  0.65250028  1
  Al0+  Al87  1  0.68177053  0.42826501  0.01455874  1
  Al0+  Al88  1  0.42968248  0.81926763  0.98601046  1
  Al0+  Al89  1  0.07241022  0.67976437  0.31851087  1
  Al0+  Al90  1  0.32441670  0.07238803  0.68235083  1
  Al0+  Al91  1  0.92716297  0.82194876  0.31772958  1
  Al0+  Al92  1  0.07418472  0.17954020  0.32045991  1
  Al0+  Al93  1  0.68166075  0.43099508  0.67910962  1
  Al0+  Al94  1  0.93051177  0.82196842  0.65494889  1
  Al0+  Al95  1  0.57133807  0.17875244  0.65303048  1
  Si0+  Si96  1  0.67747769  0.92422210  0.68247761  1
  Si0+  Si97  1  0.82341259  0.57496743  0.68308317  1
  Si0+  Si98  1  0.17830711  0.93141118  0.34756288  1
  Si0+  Si99  1  0.32302829  0.07078854  0.34739198  1
  Si0+  Si100  1  0.17627686  0.42809842  0.01427512  1
  Si0+  Si101  1  0.07084536  0.68061782  0.98387604  1
  Si0+  Si102  1  0.82146315  0.06801874  0.34678774  1
  Si0+  Si103  1  0.42895634  0.82275429  0.31748592  1
  Si0+  Si104  1  0.07214687  0.67774308  0.65056055  1
  Si0+  Si105  1  0.32263304  0.07074536  0.01692341  1
  Si0+  Si106  1  0.17878372  0.92981270  0.01877111  1
  Si0+  Si107  1  0.42836365  0.32081130  0.98749811  1
  Si0+  Si108  1  0.07383019  0.17528764  0.98076128  1
  Si0+  Si109  1  0.32146282  0.57516030  0.35098392  1
  Si0+  Si110  1  0.57195257  0.67530797  0.98417386  1
  Si0+  Si111  1  0.82182097  0.06931792  0.01756676  1
  Si0+  Si112  1  0.82401345  0.57482874  0.01494390  1
  Si0+  Si113  1  0.07028266  0.17840678  0.65341776  1
  Si0+  Si114  1  0.57094985  0.17912260  0.98553567  1
  Si0+  Si115  1  0.17352489  0.42619159  0.68408123  1
  Si0+  Si116  1  0.92873147  0.82351418  0.98361649  1
  Si0+  Si117  1  0.67681191  0.92969708  0.34685595  1
  Si0+  Si118  1  0.67878948  0.92895586  0.01445105  1
  Si0+  Si119  1  0.42728571  0.32280013  0.31582558  1
  O2-  O120  1  0.25025837  0.00124222  0.06016786  1
  O2-  O121  1  0.24791055  0.00393811  0.38837121  1
  O2-  O122  1  0.25592621  -0.00339836  0.73312762  1
  O2-  O123  1  0.24575500  0.49511828  0.05990285  1
  O2-  O124  1  0.25371973  0.50474119  0.39322234  1
  O2-  O125  1  0.24610491  0.49134667  0.72779880  1
  O2-  O126  1  0.75129387  -0.00254800  0.05935840  1
  O2-  O127  1  0.75284539  -0.00511129  0.38879213  1
  O2-  O128  1  0.74313713  -0.00391505  0.72756199  1
  O2-  O129  1  0.75511055  0.50593954  0.05777998  1
  O2-  O130  1  0.75246151  0.49813003  0.40027817  1
  O2-  O131  1  0.75533973  0.50611922  0.72803282  1
  O2-  O132  1  0.00646519  0.25492830  0.26923600  1
  O2-  O133  1  0.00824702  0.25164545  0.60793764  1
  O2-  O134  1  0.00710336  0.24631403  0.93803903  1
  O2-  O135  1  -0.00384111  0.74724104  0.26718462  1
  O2-  O136  1  0.00171893  0.74520008  0.60817491  1
  O2-  O137  1  -0.00187800  0.75068206  0.94245045  1
  O2-  O138  1  0.50013477  0.25851243  0.27034779  1
  O2-  O139  1  0.49428140  0.24571957  0.60379571  1
  O2-  O140  1  0.50176938  0.25221049  0.94521303  1
  O2-  O141  1  0.49237288  0.75030439  0.27161420  1
  O2-  O142  1  0.50059499  0.75136687  0.60282323  1
  O2-  O143  1  0.50182613  0.74218831  0.93980851  1
  O2-  O144  1  0.07297628  0.17229639  0.08603515  1
  O2-  O145  1  0.07136012  0.17649421  0.43372423  1
  O2-  O146  1  0.06726832  0.17835494  0.75945698  1
  O2-  O147  1  0.07084379  0.68069471  0.08853585  1
  O2-  O148  1  0.07813083  0.68613842  0.43128209  1
  O2-  O149  1  0.07117896  0.67832983  0.75704642  1
  O2-  O150  1  0.56962211  0.17721427  0.09078769  1
  O2-  O151  1  0.56737841  0.17379938  0.43009452  1
  O2-  O152  1  0.57358262  0.18359600  0.76756901  1
  O2-  O153  1  0.57174870  0.67875315  0.08974299  1
  O2-  O154  1  0.56929477  0.67834266  0.42978009  1
  O2-  O155  1  0.56958898  0.67693561  0.76683356  1
  O2-  O156  1  0.18306792  0.43076757  0.23245762  1
  O2-  O157  1  0.17217953  0.42800649  0.57870283  1
  O2-  O158  1  0.17553930  0.43044833  0.90886802  1
  O2-  O159  1  0.18032493  0.93105701  0.24188389  1
  O2-  O160  1  0.17688275  0.93252416  0.56816626  1
  O2-  O161  1  0.17642744  0.92963354  0.91423430  1
  O2-  O162  1  0.68267378  0.42672856  0.23762417  1
  O2-  O163  1  0.68233368  0.42914214  0.56698292  1
  O2-  O164  1  0.67992026  0.42680773  0.90147924  1
  O2-  O165  1  0.67529666  0.93360073  0.24091804  1
  O2-  O166  1  0.68077057  0.92264566  0.57694386  1
  O2-  O167  1  0.67964196  0.92979298  0.90984953  1
  O2-  O168  1  0.42505918  0.31723526  0.09239115  1
  O2-  O169  1  0.42389545  0.31901552  0.42073057  1
  O2-  O170  1  0.43167705  0.32387016  0.76758507  1
  O2-  O171  1  0.43274092  0.82106438  0.09938939  1
  O2-  O172  1  0.43104148  0.82535947  0.42225070  1
  O2-  O173  1  0.42694457  0.81668503  0.76518076  1
  O2-  O174  1  0.93075445  0.31974914  0.09698924  1
  O2-  O175  1  0.92774487  0.31728882  0.43259666  1
  O2-  O176  1  0.92796969  0.31876458  0.76575357  1
  O2-  O177  1  0.92968196  0.82654684  0.08815281  1
  O2-  O178  1  0.93154545  0.82633234  0.43087817  1
  O2-  O179  1  0.93211380  0.82051942  0.76899881  1
  O2-  O180  1  0.32490562  0.06758824  0.24155661  1
  O2-  O181  1  0.31997964  0.07236850  0.56849618  1
  O2-  O182  1  0.32361108  0.07077209  0.91267332  1
  O2-  O183  1  0.31995533  0.57490719  0.24469432  1
  O2-  O184  1  0.31629494  0.56713438  0.56546103  1
  O2-  O185  1  0.32008341  0.57155169  0.90245956  1
  O2-  O186  1  0.81973356  0.06677639  0.24096900  1
  O2-  O187  1  0.82047968  0.06895188  0.56662580  1
  O2-  O188  1  0.82072973  0.06971935  0.91256492  1
  O2-  O189  1  0.81737838  0.57101329  0.23428071  1
  O2-  O190  1  0.82435811  0.57590370  0.57820757  1
  O2-  O191  1  0.82420283  0.57868524  0.90951448  1
  O2-  O192  1  0.04189117  0.08433504  0.26219146  1
  O2-  O193  1  0.03907989  0.08649316  0.60841009  1
  O2-  O194  1  0.04530980  0.08212971  0.93494616  1
  O2-  O195  1  0.04887388  0.58125690  0.26336096  1
  O2-  O196  1  0.04904060  0.58413102  0.60462077  1
  O2-  O197  1  0.04599687  0.58962846  0.93347804  1
  O2-  O198  1  0.53463102  0.08543811  0.26034223  1
  O2-  O199  1  0.55144955  0.07795524  0.60207732  1
  O2-  O200  1  0.54195363  0.08813596  0.93800511  1
  O2-  O201  1  0.53944552  0.58061857  0.26193034  1
  O2-  O202  1  0.53864462  0.58123497  0.59850922  1
  O2-  O203  1  0.54692604  0.57938732  0.94361925  1
  O2-  O204  1  0.17473530  0.20110297  0.26805010  1
  O2-  O205  1  0.16631231  0.19568560  0.61048720  1
  O2-  O206  1  0.16921511  0.19737257  0.93649778  1
  O2-  O207  1  0.16830351  0.71509370  0.26156205  1
  O2-  O208  1  0.16439000  0.70450988  0.60464523  1
  O2-  O209  1  0.16185493  0.71220495  0.93746921  1
  O2-  O210  1  0.66690215  0.20532229  0.26159157  1
  O2-  O211  1  0.66755551  0.21117464  0.59947905  1
  O2-  O212  1  0.66478108  0.20366226  0.94147673  1
  O2-  O213  1  0.66241936  0.71140491  0.25892283  1
  O2-  O214  1  0.66900587  0.70484684  0.59887902  1
  O2-  O215  1  0.66587750  0.70194794  0.93918790  1
  O2-  O216  1  0.08259589  0.45712753  0.05863091  1
  O2-  O217  1  0.08303266  0.45826345  0.39994414  1
  O2-  O218  1  0.08144038  0.45764720  0.73144984  1
  O2-  O219  1  0.08696396  0.95824703  0.06684643  1
  O2-  O220  1  0.08559659  0.95883411  0.39256608  1
  O2-  O221  1  0.08465069  0.96278906  0.74010244  1
  O2-  O222  1  0.58570782  0.45368620  0.07255250  1
  O2-  O223  1  0.57847936  0.45431437  0.39912623  1
  O2-  O224  1  0.58462154  0.46083400  0.73362013  1
  O2-  O225  1  0.58796490  0.95966509  0.06287062  1
  O2-  O226  1  0.58732215  0.96338067  0.39432690  1
  O2-  O227  1  0.58271696  0.94595952  0.72743964  1
  O2-  O228  1  0.19969122  0.33271086  0.05803593  1
  O2-  O229  1  0.21087019  0.33255906  0.40032254  1
  O2-  O230  1  0.19149799  0.33135519  0.73037029  1
  O2-  O231  1  0.20713382  0.83880017  0.06720147  1
  O2-  O232  1  0.20646023  0.84037177  0.39552458  1
  O2-  O233  1  0.20296543  0.82978630  0.73572861  1
  O2-  O234  1  0.71490676  0.33144355  0.06782635  1
  O2-  O235  1  0.70621090  0.32506972  0.40008138  1
  O2-  O236  1  0.71430250  0.33536457  0.73462204  1
  O2-  O237  1  0.70525179  0.83605647  0.06156596  1
  O2-  O238  1  0.69791657  0.83560525  0.39051427  1
  O2-  O239  1  0.70728751  0.83258873  0.73117331  1
  O2-  O240  1  0.44707316  0.41813852  0.27141879  1
  O2-  O241  1  0.45636957  0.41739373  0.59796640  1
  O2-  O242  1  0.45590894  0.41460875  0.94460390  1
  O2-  O243  1  0.45914192  0.91396660  0.26798456  1
  O2-  O244  1  0.44843272  0.92098770  0.60114897  1
  O2-  O245  1  0.46189371  0.91577986  0.93232076  1
  O2-  O246  1  0.95518022  0.42163836  0.26734449  1
  O2-  O247  1  0.95351215  0.41993407  0.60002644  1
  O2-  O248  1  0.95748092  0.41678999  0.92829650  1
  O2-  O249  1  0.96050773  0.91739569  0.26049986  1
  O2-  O250  1  0.96317322  0.91885824  0.60376360  1
  O2-  O251  1  0.95940732  0.91496338  0.93675357  1
  O2-  O252  1  0.33679499  0.29181528  0.26576206  1
  O2-  O253  1  0.32417815  0.29867322  0.60519352  1
  O2-  O254  1  0.33719941  0.29269538  0.93902086  1
  O2-  O255  1  0.33373279  0.80223293  0.27221241  1
  O2-  O256  1  0.32745655  0.79055929  0.59960568  1
  O2-  O257  1  0.33051072  0.79284110  0.93570473  1
  O2-  O258  1  0.83421751  0.28652242  0.26416836  1
  O2-  O259  1  0.83527683  0.28367278  0.59885914  1
  O2-  O260  1  0.83483922  0.28249291  0.93136679  1
  O2-  O261  1  0.82783933  0.79907765  0.26420121  1
  O2-  O262  1  0.83395797  0.79651664  0.59980742  1
  O2-  O263  1  0.83564408  0.79844594  0.93710065  1
  O2-  O264  1  0.41432688  0.04059809  0.06470826  1
  O2-  O265  1  0.41299982  0.03795538  0.39483056  1
  O2-  O266  1  0.42445708  0.04822649  0.73506259  1
  O2-  O267  1  0.41516226  0.54074355  0.07247805  1
  O2-  O268  1  0.41573340  0.55072601  0.39432433  1
  O2-  O269  1  0.41503085  0.53764855  0.73452879  1
  O2-  O270  1  0.91419631  0.04111604  0.06369658  1
  O2-  O271  1  0.91425931  0.04155366  0.39230555  1
  O2-  O272  1  0.91249677  0.03812691  0.73929309  1
  O2-  O273  1  0.91871891  0.54793928  0.05829300  1
  O2-  O274  1  0.92273416  0.55619496  0.39709228  1
  O2-  O275  1  0.91767746  0.55043427  0.72956644  1
  O2-  O276  1  0.29582288  0.16310819  0.06499805  1
  O2-  O277  1  0.30208462  0.16406284  0.39319521  1
  O2-  O278  1  0.29239162  0.16905286  0.73938768  1
  O2-  O279  1  0.28761147  0.66740861  0.07013548  1
  O2-  O280  1  0.29425332  0.66919329  0.39473684  1
  O2-  O281  1  0.28634152  0.66240390  0.73510770  1
  O2-  O282  1  0.79264664  0.15972209  0.06630199  1
  O2-  O283  1  0.79113177  0.15894517  0.39271702  1
  O2-  O284  1  0.78597327  0.16473077  0.73721595  1
  O2-  O285  1  0.80109460  0.66920399  0.06199536  1
  O2-  O286  1  0.78835379  0.67276739  0.39759601  1
  O2-  O287  1  0.79851935  0.66909157  0.72942504  1
