# generated using pymatgen
data_Ca2Al2SiO7
_symmetry_space_group_name_H-M   'P 1'
_cell_length_a   15.45339723
_cell_length_b   15.45339507
_cell_length_c   15.28006506
_cell_angle_alpha   89.99960362
_cell_angle_beta   90.01161912
_cell_angle_gamma   89.99483406
_symmetry_Int_Tables_number   1
_chemical_formula_structural   Ca2Al2SiO7
_chemical_formula_sum   'Ca48 Al48 Si24 O168'
_cell_volume   3648.99332212
_cell_formula_units_Z   24
loop_
 _symmetry_equiv_pos_site_id
 _symmetry_equiv_pos_as_xyz
  1  'x, y, z'
loop_
 _atom_type_symbol
 _atom_type_oxidation_number
  Ca2+  2.0
  Al0+  0.0
  Si0+  0.0
  O2-  -2.0
loop_
 _atom_site_type_symbol
 _atom_site_label
 _atom_site_symmetry_multiplicity
 _atom_site_fract_x
 _atom_site_fract_y
 _atom_site_fract_z
 _atom_site_occupancy
  Ca2+  Ca0  1  0.17057706  0.07383564  0.17547390  1
  Ca2+  Ca1  1  0.16258346  0.07154231  0.50941352  1
  Ca2+  Ca2  1  0.16480279  0.07987897  0.83211314  1
  Ca2+  Ca3  1  0.16959831  0.58607496  0.17847927  1
  Ca2+  Ca4  1  0.16888443  0.57448751  0.50051757  1
  Ca2+  Ca5  1  0.16610237  0.58056500  0.83578873  1
  Ca2+  Ca6  1  0.66866769  0.07808817  0.17627128  1
  Ca2+  Ca7  1  0.67311131  0.09048991  0.50088367  1
  Ca2+  Ca8  1  0.66935530  0.09251200  0.83617413  1
  Ca2+  Ca9  1  0.66689871  0.58243462  0.17388938  1
  Ca2+  Ca10  1  0.67068416  0.58495499  0.50334160  1
  Ca2+  Ca11  1  0.65949517  0.57042007  0.84004558  1
  Ca2+  Ca12  1  0.07469108  0.33912999  0.16253121  1
  Ca2+  Ca13  1  0.09165332  0.32938301  0.49725270  1
  Ca2+  Ca14  1  0.07707073  0.32997001  0.82437493  1
  Ca2+  Ca15  1  0.07980991  0.82430049  0.16256873  1
  Ca2+  Ca16  1  0.08549794  0.83126967  0.49275671  1
  Ca2+  Ca17  1  0.08192492  0.83044945  0.83125903  1
  Ca2+  Ca18  1  0.59188159  0.32202523  0.16122540  1
  Ca2+  Ca19  1  0.58612483  0.32808632  0.50080904  1
  Ca2+  Ca20  1  0.58573170  0.32836730  0.82486299  1
  Ca2+  Ca21  1  0.58601763  0.82151693  0.16093159  1
  Ca2+  Ca22  1  0.57714090  0.83348219  0.49137263  1
  Ca2+  Ca23  1  0.57231442  0.82941451  0.82948144  1
  Ca2+  Ca24  1  0.32410624  0.42670076  0.17745900  1
  Ca2+  Ca25  1  0.33006339  0.41955345  0.50453707  1
  Ca2+  Ca26  1  0.32935097  0.40852317  0.83372816  1
  Ca2+  Ca27  1  0.33018059  0.91157121  0.17058549  1
  Ca2+  Ca28  1  0.32248199  0.91013684  0.50538891  1
  Ca2+  Ca29  1  0.33360952  0.90945355  0.83408602  1
  Ca2+  Ca30  1  0.83040693  0.42105160  0.16806602  1
  Ca2+  Ca31  1  0.82804283  0.42499190  0.50312735  1
  Ca2+  Ca32  1  0.82192303  0.41105534  0.83876657  1
  Ca2+  Ca33  1  0.82895171  0.91974544  0.17598717  1
  Ca2+  Ca34  1  0.82454003  0.92612073  0.50237125  1
  Ca2+  Ca35  1  0.83589691  0.92345706  0.83623743  1
  Ca2+  Ca36  1  0.42965709  0.16514350  0.16330844  1
  Ca2+  Ca37  1  0.42558883  0.17285577  0.49690824  1
  Ca2+  Ca38  1  0.43113980  0.17174455  0.82280114  1
  Ca2+  Ca39  1  0.42408453  0.66920008  0.16334829  1
  Ca2+  Ca40  1  0.41969126  0.66834674  0.49451996  1
  Ca2+  Ca41  1  0.41839718  0.67448343  0.83261732  1
  Ca2+  Ca42  1  0.91336730  0.17217726  0.16357790  1
  Ca2+  Ca43  1  0.91563491  0.16235220  0.50014200  1
  Ca2+  Ca44  1  0.91743226  0.17175773  0.82677615  1
  Ca2+  Ca45  1  0.92635497  0.66572800  0.16167289  1
  Ca2+  Ca46  1  0.92202270  0.66492057  0.48942257  1
  Ca2+  Ca47  1  0.91990869  0.67189977  0.83565029  1
  Al0+  Al48  1  0.00105966  -0.00035757  0.00068302  1
  Al0+  Al49  1  0.00004285  0.00142786  0.33871755  1
  Al0+  Al50  1  -0.00133431  -0.00014719  0.67249510  1
  Al0+  Al51  1  -0.00225228  0.49861924  -0.01000511  1
  Al0+  Al52  1  -0.00134334  0.49950835  0.33713118  1
  Al0+  Al53  1  0.00079459  0.50140258  0.67153620  1
  Al0+  Al54  1  0.50083183  0.00075369  -0.00683047  1
  Al0+  Al55  1  0.49864038  0.00147570  0.33173910  1
  Al0+  Al56  1  0.49973519  -0.00168471  0.65677026  1
  Al0+  Al57  1  0.49753675  0.49756279  0.00449946  1
  Al0+  Al58  1  0.49803125  0.50022414  0.33291759  1
  Al0+  Al59  1  0.50046231  0.50106906  0.66756822  1
  Al0+  Al60  1  0.25066996  0.24774633  0.00529999  1
  Al0+  Al61  1  0.24983057  0.24895790  0.33248854  1
  Al0+  Al62  1  0.25005778  0.24879947  0.66371788  1
  Al0+  Al63  1  0.24938213  0.74867149  -0.00581473  1
  Al0+  Al64  1  0.24988670  0.74889171  0.33741699  1
  Al0+  Al65  1  0.24953668  0.74893559  0.66799550  1
  Al0+  Al66  1  0.75160492  0.25079704  -0.00181135  1
  Al0+  Al67  1  0.75078339  0.25052149  0.33218666  1
  Al0+  Al68  1  0.75236049  0.25198655  0.66945931  1
  Al0+  Al69  1  0.75139742  0.74940122  -0.00952271  1
  Al0+  Al70  1  0.74890488  0.75124541  0.33855943  1
  Al0+  Al71  1  0.75177665  0.75257418  0.66871101  1
  Al0+  Al72  1  0.82046273  0.07316565  0.34782159  1
  Al0+  Al73  1  0.17710918  0.42826660  0.34735438  1
  Al0+  Al74  1  0.93035312  0.31917095  0.98590390  1
  Al0+  Al75  1  0.07142228  0.67822677  0.98385089  1
  Al0+  Al76  1  0.57236515  0.67897284  0.32106784  1
  Al0+  Al77  1  0.17973910  0.92821700  0.68332585  1
  Al0+  Al78  1  0.57080802  0.18078445  0.98641526  1
  Al0+  Al79  1  0.57451016  0.17986496  0.64944066  1
  Al0+  Al80  1  0.06901372  0.17885692  0.65350112  1
  Al0+  Al81  1  0.57114696  0.18122260  0.31775352  1
  Al0+  Al82  1  0.67654617  0.92821167  0.34665509  1
  Al0+  Al83  1  0.68083289  0.43282807  0.67935837  1
  Al0+  Al84  1  0.81997780  0.57160394  0.34414132  1
  Al0+  Al85  1  0.81809956  0.06974536  0.68276823  1
  Al0+  Al86  1  0.42825963  0.32305622  0.65122271  1
  Al0+  Al87  1  0.57235178  0.67472553  0.98505249  1
  Al0+  Al88  1  0.42967988  0.82072635  0.98596173  1
  Al0+  Al89  1  0.32257327  0.57142251  0.34919076  1
  Al0+  Al90  1  0.92848951  0.82386333  0.98539667  1
  Al0+  Al91  1  0.67851186  0.42887670  0.01540723  1
  Al0+  Al92  1  0.18076588  0.92971087  0.34567633  1
  Al0+  Al93  1  0.42824692  0.81916785  0.65002246  1
  Al0+  Al94  1  0.06964153  0.67898848  0.32258098  1
  Al0+  Al95  1  0.18024556  0.42696513  0.68233437  1
  Si0+  Si96  1  0.92833803  0.82402376  0.31986371  1
  Si0+  Si97  1  0.67826063  0.92858912  0.01181131  1
  Si0+  Si98  1  0.32324096  0.07084885  0.68254263  1
  Si0+  Si99  1  0.92993585  0.32094264  0.31945047  1
  Si0+  Si100  1  0.32309531  0.07064381  0.01503651  1
  Si0+  Si101  1  0.32274777  0.07303046  0.35062863  1
  Si0+  Si102  1  0.42509503  0.32078823  0.98613043  1
  Si0+  Si103  1  0.17973827  0.92830590  0.01552693  1
  Si0+  Si104  1  0.31824967  0.57171563  0.01534534  1
  Si0+  Si105  1  0.06955928  0.67894765  0.65001691  1
  Si0+  Si106  1  0.07461214  0.17736001  0.98557824  1
  Si0+  Si107  1  0.67540712  0.92702084  0.68513407  1
  Si0+  Si108  1  0.42572138  0.32236519  0.31419190  1
  Si0+  Si109  1  0.92914052  0.32385015  0.64818733  1
  Si0+  Si110  1  0.17693552  0.42783617  0.01373209  1
  Si0+  Si111  1  0.57330328  0.67868573  0.65041143  1
  Si0+  Si112  1  0.42722664  0.82149560  0.31726460  1
  Si0+  Si113  1  0.92947241  0.82206997  0.64993662  1
  Si0+  Si114  1  0.82412565  0.57582604  0.68629607  1
  Si0+  Si115  1  0.32157927  0.57126525  0.68603972  1
  Si0+  Si116  1  0.82135952  0.07051506  0.01520915  1
  Si0+  Si117  1  0.82203143  0.57285630  0.01513546  1
  Si0+  Si118  1  0.67763778  0.42771275  0.34842694  1
  Si0+  Si119  1  0.07172621  0.17681570  0.31832191  1
  O2-  O120  1  0.25215205  -0.00141072  0.05689088  1
  O2-  O121  1  0.25425476  0.00437212  0.39434690  1
  O2-  O122  1  0.25599515  0.00182050  0.72988293  1
  O2-  O123  1  0.24581607  0.50052718  0.05605608  1
  O2-  O124  1  0.25162624  0.49732744  0.39738772  1
  O2-  O125  1  0.25643006  0.49910299  0.73106563  1
  O2-  O126  1  0.75171685  -0.00275577  0.05529291  1
  O2-  O127  1  0.74648985  0.00253499  0.39647967  1
  O2-  O128  1  0.73966811  -0.00067047  0.73058004  1
  O2-  O129  1  0.74923953  0.50873931  0.06035407  1
  O2-  O130  1  0.74093154  0.50179475  0.39152874  1
  O2-  O131  1  0.75343148  0.50877782  0.72863774  1
  O2-  O132  1  0.00205057  0.24974401  0.27726282  1
  O2-  O133  1  -0.00044388  0.25720608  0.60368587  1
  O2-  O134  1  0.00762686  0.24654494  0.94086528  1
  O2-  O135  1  -0.00483160  0.75369533  0.27520199  1
  O2-  O136  1  -0.00264225  0.74842742  0.60746619  1
  O2-  O137  1  0.00069063  0.75215838  0.93469341  1
  O2-  O138  1  0.49713172  0.25637134  0.26976070  1
  O2-  O139  1  0.50090756  0.25158825  0.60121486  1
  O2-  O140  1  0.49666285  0.25640071  0.94123497  1
  O2-  O141  1  0.49925714  0.75581775  0.27410593  1
  O2-  O142  1  0.50680966  0.74828532  0.60473695  1
  O2-  O143  1  0.50200534  0.74886518  0.93604127  1
  O2-  O144  1  0.07459077  0.17718897  0.09145577  1
  O2-  O145  1  0.07184584  0.17529514  0.42306404  1
  O2-  O146  1  0.06627858  0.17965692  0.76711984  1
  O2-  O147  1  0.07206107  0.67861876  0.09777354  1
  O2-  O148  1  0.06760683  0.67917119  0.43574804  1
  O2-  O149  1  0.06863817  0.67977451  0.75524153  1
  O2-  O150  1  0.57032380  0.17887280  0.09968947  1
  O2-  O151  1  0.57199950  0.18449667  0.43023912  1
  O2-  O152  1  0.57358418  0.18232589  0.76339842  1
  O2-  O153  1  0.57188207  0.67705100  0.09889341  1
  O2-  O154  1  0.57171129  0.67990364  0.43414337  1
  O2-  O155  1  0.57137974  0.67884963  0.75597224  1
  O2-  O156  1  0.17627288  0.43039230  0.23280604  1
  O2-  O157  1  0.17869083  0.43050678  0.56974313  1
  O2-  O158  1  0.18002965  0.42521335  0.90883314  1
  O2-  O159  1  0.18118384  0.93069385  0.23184213  1
  O2-  O160  1  0.17907199  0.92803520  0.57022793  1
  O2-  O161  1  0.17859921  0.93035444  0.91061207  1
  O2-  O162  1  0.68198339  0.42554282  0.24259065  1
  O2-  O163  1  0.68381379  0.43483261  0.56592627  1
  O2-  O164  1  0.68069806  0.42708126  0.90239442  1
  O2-  O165  1  0.67942882  0.92762799  0.23212331  1
  O2-  O166  1  0.67976426  0.92263262  0.57997012  1
  O2-  O167  1  0.67736930  0.93194407  0.90689043  1
  O2-  O168  1  0.42148855  0.31690863  0.09150178  1
  O2-  O169  1  0.42417660  0.32031051  0.41937882  1
  O2-  O170  1  0.42910755  0.32014984  0.76552726  1
  O2-  O171  1  0.42854563  0.81970254  0.09956832  1
  O2-  O172  1  0.42634548  0.81938342  0.42278354  1
  O2-  O173  1  0.42853532  0.81629288  0.76317797  1
  O2-  O174  1  0.93131336  0.31918109  0.09964027  1
  O2-  O175  1  0.92868584  0.32130198  0.42418004  1
  O2-  O176  1  0.92954218  0.32114648  0.75404489  1
  O2-  O177  1  0.93073387  0.82616244  0.09916593  1
  O2-  O178  1  0.93108518  0.82409301  0.42562561  1
  O2-  O179  1  0.93078324  0.82120530  0.75513834  1
  O2-  O180  1  0.32099970  0.07248751  0.24422532  1
  O2-  O181  1  0.31999309  0.06941055  0.57701148  1
  O2-  O182  1  0.32148390  0.07433613  0.91047762  1
  O2-  O183  1  0.32015406  0.57198798  0.23481334  1
  O2-  O184  1  0.31922472  0.57270066  0.58069386  1
  O2-  O185  1  0.31831629  0.57128847  0.91032609  1
  O2-  O186  1  0.82099919  0.07259474  0.23348523  1
  O2-  O187  1  0.81904542  0.06732439  0.57002811  1
  O2-  O188  1  0.82166972  0.07115835  0.91020304  1
  O2-  O189  1  0.82297832  0.56850436  0.23112846  1
  O2-  O190  1  0.82540635  0.57573148  0.58037108  1
  O2-  O191  1  0.82309033  0.56965159  0.90970423  1
  O2-  O192  1  0.04169440  0.08610133  0.26905470  1
  O2-  O193  1  0.03405917  0.08240218  0.60142712  1
  O2-  O194  1  0.04896049  0.08397137  0.93999665  1
  O2-  O195  1  0.03780052  0.58242309  0.26860424  1
  O2-  O196  1  0.04215598  0.58610157  0.60445501  1
  O2-  O197  1  0.04227053  0.58162216  0.92787725  1
  O2-  O198  1  0.53926917  0.08405241  0.26387284  1
  O2-  O199  1  0.54907346  0.08067600  0.59744667  1
  O2-  O200  1  0.54027847  0.08592952  0.92993314  1
  O2-  O201  1  0.54230340  0.58168777  0.26700616  1
  O2-  O202  1  0.54722329  0.58575638  0.60425192  1
  O2-  O203  1  0.53907717  0.57640704  0.93454500  1
  O2-  O204  1  0.16439688  0.20093245  0.26974030  1
  O2-  O205  1  0.16667842  0.20376170  0.59960957  1
  O2-  O206  1  0.16911243  0.20110213  0.94046562  1
  O2-  O207  1  0.16645808  0.71035717  0.26920328  1
  O2-  O208  1  0.16144960  0.70753925  0.60479137  1
  O2-  O209  1  0.16816692  0.70643275  0.92816894  1
  O2-  O210  1  0.66833437  0.21195229  0.26354134  1
  O2-  O211  1  0.67262261  0.21289568  0.59864485  1
  O2-  O212  1  0.66709097  0.21182877  0.93356461  1
  O2-  O213  1  0.66988213  0.70890983  0.26722543  1
  O2-  O214  1  0.66936338  0.70237723  0.60776593  1
  O2-  O215  1  0.67062656  0.69825567  0.93069122  1
  O2-  O216  1  0.08274584  0.45394021  0.05673833  1
  O2-  O217  1  0.08051338  0.45663693  0.40259249  1
  O2-  O218  1  0.08374334  0.46009242  0.73672314  1
  O2-  O219  1  0.08872957  0.95759081  0.06442815  1
  O2-  O220  1  0.08505298  0.96040057  0.40099599  1
  O2-  O221  1  0.08452578  0.96156176  0.73822859  1
  O2-  O222  1  0.57956921  0.45146269  0.06928208  1
  O2-  O223  1  0.58167431  0.44622699  0.39085319  1
  O2-  O224  1  0.58337064  0.46051342  0.73432104  1
  O2-  O225  1  0.58693551  0.95832449  0.05925051  1
  O2-  O226  1  0.57672816  0.95408048  0.39728855  1
  O2-  O227  1  0.57864859  0.94789640  0.72595421  1
  O2-  O228  1  0.20425217  0.33614663  0.06328684  1
  O2-  O229  1  0.20334714  0.32774546  0.39688424  1
  O2-  O230  1  0.20776192  0.32870426  0.73550993  1
  O2-  O231  1  0.20742778  0.83536449  0.06067977  1
  O2-  O232  1  0.21073655  0.83446052  0.40167927  1
  O2-  O233  1  0.21039374  0.83122933  0.73687805  1
  O2-  O234  1  0.71753676  0.33409415  0.06916284  1
  O2-  O235  1  0.71076335  0.33758271  0.39602700  1
  O2-  O236  1  0.71434082  0.33755538  0.73452647  1
  O2-  O237  1  0.70467004  0.83453038  0.05592586  1
  O2-  O238  1  0.70527760  0.83257688  0.40445072  1
  O2-  O239  1  0.70571458  0.83508755  0.73342641  1
  O2-  O240  1  0.44736500  0.41744043  0.26965633  1
  O2-  O241  1  0.45582628  0.42240505  0.59971821  1
  O2-  O242  1  0.44464469  0.41615065  0.94265191  1
  O2-  O243  1  0.44615509  0.91726252  0.27260487  1
  O2-  O244  1  0.45293647  0.91597878  0.59405756  1
  O2-  O245  1  0.45647744  0.91825469  0.93035804  1
  O2-  O246  1  0.95891015  0.41162636  0.27025452  1
  O2-  O247  1  0.95237610  0.41990094  0.60617377  1
  O2-  O248  1  0.95672363  0.41396195  0.92726715  1
  O2-  O249  1  0.95610946  0.91713104  0.27329165  1
  O2-  O250  1  0.96025739  0.91285631  0.60411704  1
  O2-  O251  1  0.95906603  0.92185527  0.93156447  1
  O2-  O252  1  0.33287907  0.29383405  0.26635556  1
  O2-  O253  1  0.33037140  0.29443518  0.59771628  1
  O2-  O254  1  0.33221895  0.29164704  0.93918809  1
  O2-  O255  1  0.33485052  0.79196475  0.27057290  1
  O2-  O256  1  0.33153956  0.78498485  0.59803345  1
  O2-  O257  1  0.33236658  0.79145076  0.93138655  1
  O2-  O258  1  0.83953189  0.29225582  0.26924390  1
  O2-  O259  1  0.83690382  0.29594352  0.60210919  1
  O2-  O260  1  0.83650541  0.28440086  0.93008350  1
  O2-  O261  1  0.83361888  0.80079126  0.27615460  1
  O2-  O262  1  0.83580013  0.79765470  0.60396110  1
  O2-  O263  1  0.83202622  0.79779773  0.92738378  1
  O2-  O264  1  0.41504530  0.04174521  0.06210522  1
  O2-  O265  1  0.41649817  0.04996741  0.39606532  1
  O2-  O266  1  0.41835612  0.04511435  0.72585256  1
  O2-  O267  1  0.40906289  0.54378162  0.06479976  1
  O2-  O268  1  0.42085248  0.54388778  0.40324255  1
  O2-  O269  1  0.41675427  0.55075419  0.73076790  1
  O2-  O270  1  0.91465347  0.04570302  0.06255787  1
  O2-  O271  1  0.91812702  0.04545109  0.40195750  1
  O2-  O272  1  0.91251204  0.03503714  0.73901049  1
  O2-  O273  1  0.91516209  0.54066463  0.05982925  1
  O2-  O274  1  0.91262646  0.53587611  0.40285722  1
  O2-  O275  1  0.91685962  0.54920917  0.73333413  1
  O2-  O276  1  0.29442086  0.16064796  0.06736781  1
  O2-  O277  1  0.29732138  0.16661696  0.39559013  1
  O2-  O278  1  0.29700153  0.16400783  0.72903057  1
  O2-  O279  1  0.28980037  0.66368195  0.06231624  1
  O2-  O280  1  0.29291491  0.66796519  0.40388243  1
  O2-  O281  1  0.28923838  0.66228574  0.73367972  1
  O2-  O282  1  0.79191902  0.16163633  0.06241992  1
  O2-  O283  1  0.79286845  0.17163685  0.40103740  1
  O2-  O284  1  0.79269101  0.16818823  0.73615436  1
  O2-  O285  1  0.80353371  0.66967242  0.05764832  1
  O2-  O286  1  0.79499429  0.66787723  0.40142355  1
  O2-  O287  1  0.80148762  0.67080106  0.73128146  1
