# generated using pymatgen
data_Ca2Al2SiO7
_symmetry_space_group_name_H-M   'P 1'
_cell_length_a   15.46011936
_cell_length_b   15.45842714
_cell_length_c   15.28390396
_cell_angle_alpha   89.99627174
_cell_angle_beta   90.02503540
_cell_angle_gamma   89.98692922
_symmetry_Int_Tables_number   1
_chemical_formula_structural   Ca2Al2SiO7
_chemical_formula_sum   'Ca48 Al48 Si24 O168'
_cell_volume   3652.68643897
_cell_formula_units_Z   24
loop_
 _symmetry_equiv_pos_site_id
 _symmetry_equiv_pos_as_xyz
  1  'x, y, z'
loop_
 _atom_type_symbol
 _atom_type_oxidation_number
  Ca2+  2.0
  Al0+  0.0
  Si0+  0.0
  O2-  -2.0
loop_
 _atom_site_type_symbol
 _atom_site_label
 _atom_site_symmetry_multiplicity
 _atom_site_fract_x
 _atom_site_fract_y
 _atom_site_fract_z
 _atom_site_occupancy
  Ca2+  Ca0  1  0.16124810  0.08005427  0.16852621  1
  Ca2+  Ca1  1  0.16720022  0.09195403  0.50471090  1
  Ca2+  Ca2  1  0.16547759  0.08104208  0.84186415  1
  Ca2+  Ca3  1  0.17553111  0.57821520  0.18166212  1
  Ca2+  Ca4  1  0.17103473  0.57451773  0.50150192  1
  Ca2+  Ca5  1  0.16742578  0.57467500  0.83772371  1
  Ca2+  Ca6  1  0.65609452  0.07640090  0.17137767  1
  Ca2+  Ca7  1  0.65717812  0.07968470  0.50272424  1
  Ca2+  Ca8  1  0.66967130  0.08107532  0.84669846  1
  Ca2+  Ca9  1  0.66863642  0.58631392  0.17346483  1
  Ca2+  Ca10  1  0.65318366  0.57225845  0.50205738  1
  Ca2+  Ca11  1  0.66402841  0.58123441  0.83653972  1
  Ca2+  Ca12  1  0.08910805  0.32366426  0.16412089  1
  Ca2+  Ca13  1  0.09110466  0.32914784  0.49421329  1
  Ca2+  Ca14  1  0.08267649  0.32303196  0.82630780  1
  Ca2+  Ca15  1  0.08642083  0.82727101  0.16265470  1
  Ca2+  Ca16  1  0.07364161  0.82855793  0.49425122  1
  Ca2+  Ca17  1  0.07569927  0.83579154  0.82845554  1
  Ca2+  Ca18  1  0.58325019  0.32986942  0.16573894  1
  Ca2+  Ca19  1  0.57875888  0.33241205  0.49050750  1
  Ca2+  Ca20  1  0.58292216  0.32322680  0.82277630  1
  Ca2+  Ca21  1  0.58407884  0.82765777  0.15934079  1
  Ca2+  Ca22  1  0.58697097  0.82113285  0.49263350  1
  Ca2+  Ca23  1  0.59259221  0.82369798  0.83399991  1
  Ca2+  Ca24  1  0.33212257  0.42168563  0.17897786  1
  Ca2+  Ca25  1  0.33183858  0.41297111  0.50114585  1
  Ca2+  Ca26  1  0.33142955  0.40913603  0.82905138  1
  Ca2+  Ca27  1  0.33313105  0.91420230  0.16703481  1
  Ca2+  Ca28  1  0.33120465  0.92090305  0.50287090  1
  Ca2+  Ca29  1  0.32679733  0.91492532  0.84345377  1
  Ca2+  Ca30  1  0.82664994  0.42216683  0.17013704  1
  Ca2+  Ca31  1  0.81890720  0.41412580  0.50294827  1
  Ca2+  Ca32  1  0.82733293  0.42409759  0.83757773  1
  Ca2+  Ca33  1  0.81982884  0.92467692  0.16741534  1
  Ca2+  Ca34  1  0.82958753  0.91505908  0.50070910  1
  Ca2+  Ca35  1  0.82927024  0.92156512  0.84276533  1
  Ca2+  Ca36  1  0.42554643  0.17338532  0.16644782  1
  Ca2+  Ca37  1  0.42561463  0.18031671  0.49692099  1
  Ca2+  Ca38  1  0.42991598  0.16893171  0.82831131  1
  Ca2+  Ca39  1  0.42724977  0.66648833  0.16233287  1
  Ca2+  Ca40  1  0.42411212  0.66143522  0.49482737  1
  Ca2+  Ca41  1  0.42672516  0.67360221  0.83334555  1
  Ca2+  Ca42  1  0.92330001  0.16405251  0.16260012  1
  Ca2+  Ca43  1  0.92846697  0.16896717  0.49573865  1
  Ca2+  Ca44  1  0.92653017  0.15525674  0.83248822  1
  Ca2+  Ca45  1  0.92133401  0.66180007  0.16317825  1
  Ca2+  Ca46  1  0.92031289  0.67088291  0.49639606  1
  Ca2+  Ca47  1  0.90948924  0.67447673  0.82914869  1
  Al0+  Al48  1  0.00023091  -0.00173462  0.00586565  1
  Al0+  Al49  1  -0.00210165  0.00020844  0.33023926  1
  Al0+  Al50  1  -0.00104216  -0.00136913  0.65688555  1
  Al0+  Al51  1  -0.00053535  0.49772305  0.00354271  1
  Al0+  Al52  1  0.00000997  0.50056902  0.33394296  1
  Al0+  Al53  1  0.00034749  0.49963049  0.67233218  1
  Al0+  Al54  1  0.49625377  0.00122437  -0.00287652  1
  Al0+  Al55  1  0.49805679  -0.00026496  0.33783416  1
  Al0+  Al56  1  0.49846564  -0.00164258  0.66662802  1
  Al0+  Al57  1  0.49769964  0.50013431  -0.00548853  1
  Al0+  Al58  1  0.50020094  0.50204166  0.33120310  1
  Al0+  Al59  1  0.49846263  0.50076545  0.66809299  1
  Al0+  Al60  1  0.24889835  0.24779053  -0.00398730  1
  Al0+  Al61  1  0.25086243  0.24854324  0.32730614  1
  Al0+  Al62  1  0.25238837  0.24914856  0.66655287  1
  Al0+  Al63  1  0.25046633  0.74785572  -0.00037976  1
  Al0+  Al64  1  0.24836455  0.75048282  0.33686050  1
  Al0+  Al65  1  0.24986781  0.74918262  0.66867089  1
  Al0+  Al66  1  0.75269780  0.25293917  0.00023263  1
  Al0+  Al67  1  0.75306210  0.24894144  0.33352198  1
  Al0+  Al68  1  0.75376467  0.24772874  0.66901458  1
  Al0+  Al69  1  0.75217703  0.74955149  0.00485698  1
  Al0+  Al70  1  0.75038639  0.75365530  0.33355524  1
  Al0+  Al71  1  0.75027482  0.75113253  0.65738333  1
  Al0+  Al72  1  0.57297129  0.17785800  0.31892577  1
  Al0+  Al73  1  0.57243593  0.18072000  0.98770373  1
  Al0+  Al74  1  0.56960738  0.68130023  0.65191686  1
  Al0+  Al75  1  0.67638421  0.93101904  0.01381234  1
  Al0+  Al76  1  0.32215808  0.57270198  0.34906415  1
  Al0+  Al77  1  0.92987398  0.82019446  0.65279836  1
  Al0+  Al78  1  0.57030620  0.68053375  0.31923766  1
  Al0+  Al79  1  0.68078867  0.42987611  0.34486206  1
  Al0+  Al80  1  0.17969616  0.42791301  0.68223467  1
  Al0+  Al81  1  0.43129978  0.32036359  0.65183112  1
  Al0+  Al82  1  0.07109966  0.18011492  0.31796434  1
  Al0+  Al83  1  0.82165494  0.07365552  0.01532136  1
  Al0+  Al84  1  0.07000989  0.67928557  0.32072819  1
  Al0+  Al85  1  0.67789456  0.42805841  0.68037611  1
  Al0+  Al86  1  0.82072433  0.57106513  0.01344923  1
  Al0+  Al87  1  0.06997284  0.18067166  0.65359016  1
  Al0+  Al88  1  0.57410587  0.67967745  0.98459058  1
  Al0+  Al89  1  0.43055573  0.32216216  0.31725483  1
  Al0+  Al90  1  0.17935702  0.42693393  0.34733383  1
  Al0+  Al91  1  0.06804073  0.17841279  0.98561963  1
  Al0+  Al92  1  0.57569983  0.17679675  0.65256708  1
  Al0+  Al93  1  0.17934741  0.92769550  0.01354725  1
  Al0+  Al94  1  0.67764194  0.93096986  0.34929064  1
  Al0+  Al95  1  0.42725020  0.82144636  0.98588872  1
  Si0+  Si96  1  0.17746569  0.92918657  0.67968541  1
  Si0+  Si97  1  0.32050020  0.07334278  0.01805292  1
  Si0+  Si98  1  0.07208481  0.67585148  0.98538520  1
  Si0+  Si99  1  0.93177827  0.81856384  0.98728529  1
  Si0+  Si100  1  0.32022461  0.56969730  0.01459621  1
  Si0+  Si101  1  0.92858242  0.32537706  0.65045399  1
  Si0+  Si102  1  0.31965201  0.07022500  0.34935170  1
  Si0+  Si103  1  0.42598365  0.82349363  0.31892219  1
  Si0+  Si104  1  0.17984683  0.42721313  0.01482026  1
  Si0+  Si105  1  0.82368427  0.07151866  0.35287922  1
  Si0+  Si106  1  0.82107879  0.57338445  0.68140304  1
  Si0+  Si107  1  0.92693680  0.32332514  0.31623070  1
  Si0+  Si108  1  0.92892726  0.32494535  0.98166481  1
  Si0+  Si109  1  0.42684665  0.32230130  0.98185707  1
  Si0+  Si110  1  0.82380146  0.06859313  0.68016275  1
  Si0+  Si111  1  0.32200100  0.57400969  0.68769476  1
  Si0+  Si112  1  0.17625898  0.92932315  0.34997191  1
  Si0+  Si113  1  0.82286814  0.57433398  0.35111383  1
  Si0+  Si114  1  0.42412790  0.82212437  0.64917488  1
  Si0+  Si115  1  0.67928079  0.92868276  0.68058871  1
  Si0+  Si116  1  0.92801966  0.82228397  0.31187401  1
  Si0+  Si117  1  0.07359756  0.67567779  0.65197609  1
  Si0+  Si118  1  0.67556259  0.42935056  0.01542904  1
  Si0+  Si119  1  0.32042560  0.06951382  0.68291670  1
  O2-  O120  1  0.25413354  0.00158954  0.06158831  1
  O2-  O121  1  0.24608530  0.00108731  0.39239712  1
  O2-  O122  1  0.24915540  -0.00229764  0.72410546  1
  O2-  O123  1  0.25145216  0.49679212  0.05679900  1
  O2-  O124  1  0.25097714  0.49895041  0.39806245  1
  O2-  O125  1  0.25253646  0.50441740  0.73040847  1
  O2-  O126  1  0.74157758  0.00976458  0.06419570  1
  O2-  O127  1  0.75019449  0.00784702  0.39712026  1
  O2-  O128  1  0.74567446  0.00462898  0.72181394  1
  O2-  O129  1  0.74163527  0.50101346  0.05916162  1
  O2-  O130  1  0.75336359  0.50618481  0.39439546  1
  O2-  O131  1  0.75284990  0.50423082  0.72565547  1
  O2-  O132  1  -0.00107982  0.25746342  0.27239928  1
  O2-  O133  1  -0.00015670  0.25904987  0.60645663  1
  O2-  O134  1  -0.00732666  0.25126156  0.93740352  1
  O2-  O135  1  -0.00428457  0.75179822  0.26918841  1
  O2-  O136  1  0.00432936  0.74401291  0.60855067  1
  O2-  O137  1  0.00111326  0.74653855  0.94259428  1
  O2-  O138  1  0.50552200  0.25311063  0.26766958  1
  O2-  O139  1  0.51007847  0.25483566  0.60319383  1
  O2-  O140  1  0.49999122  0.25707274  0.93986408  1
  O2-  O141  1  0.49463463  0.75519567  0.27490100  1
  O2-  O142  1  0.49321073  0.75456034  0.60530090  1
  O2-  O143  1  0.50492106  0.75563749  0.93545127  1
  O2-  O144  1  0.06889283  0.18052636  0.09840743  1
  O2-  O145  1  0.06974641  0.17915082  0.43136048  1
  O2-  O146  1  0.06744222  0.17658231  0.76662367  1
  O2-  O147  1  0.07205527  0.67650769  0.09028554  1
  O2-  O148  1  0.06797780  0.68275528  0.43408901  1
  O2-  O149  1  0.07410749  0.67735360  0.75799599  1
  O2-  O150  1  0.56882385  0.18202207  0.10042376  1
  O2-  O151  1  0.56906167  0.17787203  0.43231006  1
  O2-  O152  1  0.57302264  0.17486002  0.76654294  1
  O2-  O153  1  0.57235655  0.67846663  0.09788741  1
  O2-  O154  1  0.56910534  0.68125267  0.43248998  1
  O2-  O155  1  0.57242802  0.68439290  0.76491355  1
  O2-  O156  1  0.18100803  0.42863335  0.23311096  1
  O2-  O157  1  0.17968295  0.42890113  0.56979621  1
  O2-  O158  1  0.17975913  0.42841972  0.90942475  1
  O2-  O159  1  0.17712557  0.92857412  0.24494722  1
  O2-  O160  1  0.17868556  0.92981534  0.57452450  1
  O2-  O161  1  0.17749585  0.92962775  0.89973335  1
  O2-  O162  1  0.68364672  0.43094011  0.23172767  1
  O2-  O163  1  0.67921994  0.42932804  0.56726350  1
  O2-  O164  1  0.67781385  0.42941719  0.90958482  1
  O2-  O165  1  0.67804257  0.93042702  0.23648335  1
  O2-  O166  1  0.68094772  0.92801502  0.57558038  1
  O2-  O167  1  0.68282103  0.92857776  0.89951662  1
  O2-  O168  1  0.42441823  0.32315015  0.08707740  1
  O2-  O169  1  0.42957517  0.31937572  0.43055080  1
  O2-  O170  1  0.43029602  0.31462393  0.76584076  1
  O2-  O171  1  0.42352592  0.81553284  0.09921719  1
  O2-  O172  1  0.42643768  0.82450940  0.42487146  1
  O2-  O173  1  0.42103095  0.82191058  0.75444896  1
  O2-  O174  1  0.93335825  0.32957137  0.08690684  1
  O2-  O175  1  0.92519695  0.32099152  0.42198881  1
  O2-  O176  1  0.92926228  0.32574140  0.75603510  1
  O2-  O177  1  0.93430865  0.81701403  0.09184763  1
  O2-  O178  1  0.93020425  0.82268525  0.41802822  1
  O2-  O179  1  0.93065721  0.82105392  0.76644131  1
  O2-  O180  1  0.32044586  0.06773110  0.24440362  1
  O2-  O181  1  0.31913671  0.06818711  0.57759880  1
  O2-  O182  1  0.31727735  0.07525214  0.91217028  1
  O2-  O183  1  0.31977571  0.57340721  0.23477173  1
  O2-  O184  1  0.31997582  0.57844203  0.58267409  1
  O2-  O185  1  0.31770361  0.57067135  0.90941237  1
  O2-  O186  1  0.82807315  0.06787387  0.24773029  1
  O2-  O187  1  0.82890875  0.06522471  0.57556026  1
  O2-  O188  1  0.82469914  0.06651757  0.90108625  1
  O2-  O189  1  0.82298075  0.57296956  0.24525447  1
  O2-  O190  1  0.82366332  0.57314055  0.57620807  1
  O2-  O191  1  0.82351225  0.57006210  0.90011539  1
  O2-  O192  1  0.03797167  0.08329167  0.26541598  1
  O2-  O193  1  0.03749958  0.08620601  0.59659299  1
  O2-  O194  1  0.03809027  0.07977322  0.93430905  1
  O2-  O195  1  0.04178808  0.58226407  0.26586280  1
  O2-  O196  1  0.04750882  0.58204948  0.60718170  1
  O2-  O197  1  0.04415377  0.58349578  0.93920911  1
  O2-  O198  1  0.53659723  0.08037284  0.26864842  1
  O2-  O199  1  0.54002155  0.07941894  0.60129250  1
  O2-  O200  1  0.54046276  0.08465309  0.93298345  1
  O2-  O201  1  0.54150435  0.58507929  0.26348839  1
  O2-  O202  1  0.53809239  0.58414618  0.60098969  1
  O2-  O203  1  0.54093328  0.58257718  0.93060624  1
  O2-  O204  1  0.16735401  0.20606386  0.26182826  1
  O2-  O205  1  0.16784481  0.20810592  0.60193164  1
  O2-  O206  1  0.16463276  0.20893984  0.93086874  1
  O2-  O207  1  0.16635099  0.71243384  0.26717925  1
  O2-  O208  1  0.16663405  0.70256870  0.60612434  1
  O2-  O209  1  0.16280436  0.70345126  0.93651379  1
  O2-  O210  1  0.67438113  0.19893746  0.26974114  1
  O2-  O211  1  0.67817073  0.19446444  0.60444038  1
  O2-  O212  1  0.67116169  0.20784588  0.93521376  1
  O2-  O213  1  0.66796010  0.71224735  0.26802721  1
  O2-  O214  1  0.66426469  0.71262907  0.59539834  1
  O2-  O215  1  0.67422758  0.70645819  0.93324885  1
  O2-  O216  1  0.08843759  0.45458125  0.06216050  1
  O2-  O217  1  0.07986249  0.45429204  0.39923478  1
  O2-  O218  1  0.08267191  0.45697039  0.73838567  1
  O2-  O219  1  0.08495870  0.95818443  0.07091322  1
  O2-  O220  1  0.08340475  0.95657236  0.39561979  1
  O2-  O221  1  0.08505419  0.95876649  0.72493937  1
  O2-  O222  1  0.57967106  0.45105585  0.05805858  1
  O2-  O223  1  0.58420581  0.46076250  0.39784950  1
  O2-  O224  1  0.58162628  0.45860450  0.73506532  1
  O2-  O225  1  0.57476438  0.95225871  0.06318600  1
  O2-  O226  1  0.58026079  0.95741814  0.40481235  1
  O2-  O227  1  0.58466565  0.94869339  0.72609357  1
  O2-  O228  1  0.20673132  0.33416081  0.05968441  1
  O2-  O229  1  0.20789709  0.32710860  0.39742855  1
  O2-  O230  1  0.21334852  0.33157404  0.73675787  1
  O2-  O231  1  0.20903156  0.82997977  0.06669679  1
  O2-  O232  1  0.20402442  0.83885779  0.39990955  1
  O2-  O233  1  0.20140411  0.83615903  0.72744267  1
  O2-  O234  1  0.70498634  0.33761033  0.06270010  1
  O2-  O235  1  0.71294323  0.33320229  0.39922629  1
  O2-  O236  1  0.71103296  0.33131739  0.73417255  1
  O2-  O237  1  0.71190016  0.83507412  0.06735828  1
  O2-  O238  1  0.71392717  0.83573886  0.40393339  1
  O2-  O239  1  0.71408661  0.83816961  0.72643268  1
  O2-  O240  1  0.45616799  0.42080956  0.26437359  1
  O2-  O241  1  0.44900806  0.42222258  0.60367278  1
  O2-  O242  1  0.44662961  0.41664718  0.93480249  1
  O2-  O243  1  0.45071861  0.91698901  0.27318945  1
  O2-  O244  1  0.44864452  0.91607816  0.60391223  1
  O2-  O245  1  0.44348832  0.92278489  0.93443317  1
  O2-  O246  1  0.94815634  0.41847987  0.27185727  1
  O2-  O247  1  0.95052896  0.42020368  0.60575787  1
  O2-  O248  1  0.96062524  0.41594825  0.93260559  1
  O2-  O249  1  0.95618323  0.91477175  0.26632703  1
  O2-  O250  1  0.96381038  0.91227719  0.59237590  1
  O2-  O251  1  0.96190782  0.90947522  0.93944360  1
  O2-  O252  1  0.33436187  0.28922767  0.26232729  1
  O2-  O253  1  0.33536623  0.28499933  0.59871106  1
  O2-  O254  1  0.33499305  0.29138834  0.93451768  1
  O2-  O255  1  0.33120475  0.80028549  0.27476619  1
  O2-  O256  1  0.32991840  0.79758511  0.60279355  1
  O2-  O257  1  0.33092265  0.78621730  0.92995298  1
  O2-  O258  1  0.83625564  0.29409234  0.26643972  1
  O2-  O259  1  0.83683874  0.29508868  0.60358613  1
  O2-  O260  1  0.83346551  0.30646720  0.93707783  1
  O2-  O261  1  0.83413357  0.79810555  0.26735684  1
  O2-  O262  1  0.83597692  0.79013620  0.59387562  1
  O2-  O263  1  0.84024335  0.79142533  0.93914125  1
  O2-  O264  1  0.41421691  0.05024854  0.06409116  1
  O2-  O265  1  0.40854638  0.04025405  0.40109762  1
  O2-  O266  1  0.41179229  0.04051224  0.73148076  1
  O2-  O267  1  0.41326966  0.54369752  0.06045814  1
  O2-  O268  1  0.42056825  0.54517874  0.40101558  1
  O2-  O269  1  0.41470855  0.54800463  0.73480093  1
  O2-  O270  1  0.91575549  0.03614195  0.07091741  1
  O2-  O271  1  0.91526623  0.03854712  0.40072347  1
  O2-  O272  1  0.91317272  0.03157520  0.72819596  1
  O2-  O273  1  0.91629316  0.53662305  0.06948592  1
  O2-  O274  1  0.91620893  0.54888150  0.39765434  1
  O2-  O275  1  0.91469584  0.55100725  0.73007823  1
  O2-  O276  1  0.29043255  0.16557663  0.06469957  1
  O2-  O277  1  0.29063900  0.16181778  0.39574248  1
  O2-  O278  1  0.29212186  0.15999813  0.73147249  1
  O2-  O279  1  0.29018643  0.65988314  0.06286081  1
  O2-  O280  1  0.29182332  0.67047204  0.40372572  1
  O2-  O281  1  0.29447809  0.66732301  0.73544352  1
  O2-  O282  1  0.80696620  0.17668353  0.06337615  1
  O2-  O283  1  0.80609091  0.16728467  0.39687351  1
  O2-  O284  1  0.80748165  0.16256720  0.72782613  1
  O2-  O285  1  0.79700978  0.66761187  0.07022846  1
  O2-  O286  1  0.80004423  0.66931876  0.39483935  1
  O2-  O287  1  0.79278912  0.66771459  0.72565332  1
