# generated using pymatgen
data_Ca2Al2SiO7
_symmetry_space_group_name_H-M   'P 1'
_cell_length_a   15.45993465
_cell_length_b   15.46039216
_cell_length_c   15.28582843
_cell_angle_alpha   90.00199879
_cell_angle_beta   90.00622696
_cell_angle_gamma   89.99627042
_symmetry_Int_Tables_number   1
_chemical_formula_structural   Ca2Al2SiO7
_chemical_formula_sum   'Ca48 Al48 Si24 O168'
_cell_volume   3653.56750818
_cell_formula_units_Z   24
loop_
 _symmetry_equiv_pos_site_id
 _symmetry_equiv_pos_as_xyz
  1  'x, y, z'
loop_
 _atom_type_symbol
 _atom_type_oxidation_number
  Ca2+  2.0
  Al0+  0.0
  Si0+  0.0
  O2-  -2.0
loop_
 _atom_site_type_symbol
 _atom_site_label
 _atom_site_symmetry_multiplicity
 _atom_site_fract_x
 _atom_site_fract_y
 _atom_site_fract_z
 _atom_site_occupancy
  Ca2+  Ca0  1  0.17312451  0.08445766  0.16610694  1
  Ca2+  Ca1  1  0.17218967  0.08025699  0.50779063  1
  Ca2+  Ca2  1  0.16457143  0.07499098  0.83981214  1
  Ca2+  Ca3  1  0.16309922  0.58331250  0.16893040  1
  Ca2+  Ca4  1  0.17207510  0.57803702  0.51428665  1
  Ca2+  Ca5  1  0.16620780  0.58463576  0.83301902  1
  Ca2+  Ca6  1  0.66891315  0.07286292  0.17848719  1
  Ca2+  Ca7  1  0.67349947  0.07746497  0.50294490  1
  Ca2+  Ca8  1  0.67109226  0.07068572  0.83437099  1
  Ca2+  Ca9  1  0.66377485  0.58394219  0.16822003  1
  Ca2+  Ca10  1  0.66589237  0.58212460  0.50679347  1
  Ca2+  Ca11  1  0.66367819  0.58805327  0.83762092  1
  Ca2+  Ca12  1  0.07834879  0.32391825  0.16307859  1
  Ca2+  Ca13  1  0.07676188  0.33011315  0.50093305  1
  Ca2+  Ca14  1  0.08260739  0.32064143  0.82306354  1
  Ca2+  Ca15  1  0.07670952  0.83676118  0.16126354  1
  Ca2+  Ca16  1  0.08378926  0.83195877  0.49943216  1
  Ca2+  Ca17  1  0.09384795  0.82837286  0.82601195  1
  Ca2+  Ca18  1  0.57950841  0.32290163  0.16925159  1
  Ca2+  Ca19  1  0.57631254  0.32409728  0.49041910  1
  Ca2+  Ca20  1  0.58013542  0.32995396  0.82762552  1
  Ca2+  Ca21  1  0.58046791  0.84030497  0.16323743  1
  Ca2+  Ca22  1  0.57645683  0.84032642  0.49786527  1
  Ca2+  Ca23  1  0.58146379  0.83034526  0.82525873  1
  Ca2+  Ca24  1  0.33330634  0.41767097  0.17375396  1
  Ca2+  Ca25  1  0.32955624  0.42179184  0.50922926  1
  Ca2+  Ca26  1  0.32792131  0.42336047  0.83137788  1
  Ca2+  Ca27  1  0.32954664  0.92438061  0.17142210  1
  Ca2+  Ca28  1  0.33446648  0.91702272  0.50446223  1
  Ca2+  Ca29  1  0.32360650  0.91614168  0.83569536  1
  Ca2+  Ca30  1  0.83584005  0.41828224  0.17326837  1
  Ca2+  Ca31  1  0.83741364  0.41251569  0.50512582  1
  Ca2+  Ca32  1  0.83813835  0.41647070  0.83105670  1
  Ca2+  Ca33  1  0.82354752  0.91822563  0.17766992  1
  Ca2+  Ca34  1  0.82667221  0.92315611  0.50415837  1
  Ca2+  Ca35  1  0.82486083  0.91646894  0.83436491  1
  Ca2+  Ca36  1  0.41364247  0.16204678  0.16857376  1
  Ca2+  Ca37  1  0.42193321  0.16671767  0.48725120  1
  Ca2+  Ca38  1  0.41360710  0.16271409  0.83195288  1
  Ca2+  Ca39  1  0.42262368  0.67815007  0.16259832  1
  Ca2+  Ca40  1  0.41583445  0.67837881  0.50224486  1
  Ca2+  Ca41  1  0.42474548  0.67327521  0.82134057  1
  Ca2+  Ca42  1  0.91678998  0.16693058  0.16521051  1
  Ca2+  Ca43  1  0.91620993  0.16707202  0.49759083  1
  Ca2+  Ca44  1  0.92630057  0.16649652  0.82265208  1
  Ca2+  Ca45  1  0.92082067  0.67588994  0.16319026  1
  Ca2+  Ca46  1  0.92347674  0.67458457  0.49714043  1
  Ca2+  Ca47  1  0.92958461  0.66993030  0.82867860  1
  Al0+  Al48  1  -0.00194246  0.00151113  -0.00029280  1
  Al0+  Al49  1  -0.00010548  -0.00201514  0.33157377  1
  Al0+  Al50  1  0.00152102  0.00017253  0.66976216  1
  Al0+  Al51  1  -0.00106315  0.50217858  -0.00192384  1
  Al0+  Al52  1  0.00032213  0.49753992  0.33044530  1
  Al0+  Al53  1  -0.00006012  0.49871916  0.66445774  1
  Al0+  Al54  1  0.50000353  0.00200432  0.00484624  1
  Al0+  Al55  1  0.49837570  -0.00122363  0.33195578  1
  Al0+  Al56  1  0.50133665  0.00009270  0.66753665  1
  Al0+  Al57  1  0.49960488  0.50005223  -0.00170749  1
  Al0+  Al58  1  0.49974444  0.49967163  0.33115156  1
  Al0+  Al59  1  0.50098388  0.50036145  0.66767560  1
  Al0+  Al60  1  0.24817762  0.25255751  -0.00065572  1
  Al0+  Al61  1  0.24872689  0.25072159  0.33427188  1
  Al0+  Al62  1  0.24903391  0.25176408  0.66670369  1
  Al0+  Al63  1  0.25008838  0.75006465  0.00248649  1
  Al0+  Al64  1  0.25306182  0.74745741  0.32842752  1
  Al0+  Al65  1  0.25353671  0.75034695  0.66558609  1
  Al0+  Al66  1  0.74672858  0.25214465  -0.00094826  1
  Al0+  Al67  1  0.75004166  0.25051601  0.32774423  1
  Al0+  Al68  1  0.74988836  0.25070042  0.66901124  1
  Al0+  Al69  1  0.75027660  0.74874177  0.00129955  1
  Al0+  Al70  1  0.75233185  0.74766860  0.33469459  1
  Al0+  Al71  1  0.75073500  0.74755208  0.66728527  1
  Al0+  Al72  1  0.67862738  0.92756259  0.68226095  1
  Al0+  Al73  1  0.42667168  0.32200903  0.31883622  1
  Al0+  Al74  1  0.42926297  0.82090500  0.31724717  1
  Al0+  Al75  1  0.57006750  0.17806418  0.31821445  1
  Al0+  Al76  1  0.82268141  0.07286514  0.34789783  1
  Al0+  Al77  1  0.07223157  0.67974850  0.65359499  1
  Al0+  Al78  1  0.07151237  0.68031184  0.98603895  1
  Al0+  Al79  1  0.92940767  0.82088817  0.32078239  1
  Al0+  Al80  1  0.92943261  0.32027518  0.31853261  1
  Al0+  Al81  1  0.17686338  0.42901027  0.68298707  1
  Al0+  Al82  1  0.68112156  0.92825504  0.01464617  1
  Al0+  Al83  1  0.57008005  0.67966425  0.98678805  1
  Al0+  Al84  1  0.07291362  0.17583209  0.65008182  1
  Al0+  Al85  1  0.31928248  0.07322682  0.01515547  1
  Al0+  Al86  1  0.31804515  0.07060257  0.34774981  1
  Al0+  Al87  1  0.82134148  0.07264455  0.68261395  1
  Al0+  Al88  1  0.57346492  0.67744360  0.65076762  1
  Al0+  Al89  1  0.43081571  0.82252816  0.65213168  1
  Al0+  Al90  1  0.18064292  0.92960550  0.67732948  1
  Al0+  Al91  1  0.67831889  0.92639176  0.34968360  1
  Al0+  Al92  1  0.17680337  0.92673086  0.01629413  1
  Al0+  Al93  1  0.32206037  0.57120576  0.68219339  1
  Al0+  Al94  1  0.92835413  0.31908233  0.65170625  1
  Al0+  Al95  1  0.07003905  0.17985523  0.98605189  1
  Si0+  Si96  1  0.32252112  0.57018957  0.01660918  1
  Si0+  Si97  1  0.67909332  0.42956034  0.68176265  1
  Si0+  Si98  1  0.07193545  0.67749180  0.31744082  1
  Si0+  Si99  1  0.17795429  0.42998148  0.34826606  1
  Si0+  Si100  1  0.92627014  0.32266758  0.98302229  1
  Si0+  Si101  1  0.17835880  0.92482367  0.34929019  1
  Si0+  Si102  1  0.42909517  0.32153507  0.65347093  1
  Si0+  Si103  1  0.57009050  0.17989925  0.65354400  1
  Si0+  Si104  1  0.92774653  0.82206026  0.65124983  1
  Si0+  Si105  1  0.17804031  0.43156786  0.01621978  1
  Si0+  Si106  1  0.82035161  0.07468292  0.01648703  1
  Si0+  Si107  1  0.32325325  0.07415052  0.68127903  1
  Si0+  Si108  1  0.07232195  0.17662883  0.31643560  1
  Si0+  Si109  1  0.67902682  0.43000718  0.34738716  1
  Si0+  Si110  1  0.82310835  0.56905422  0.34903757  1
  Si0+  Si111  1  0.57051723  0.17908543  0.98336906  1
  Si0+  Si112  1  0.32220230  0.57050577  0.34808165  1
  Si0+  Si113  1  0.92757446  0.82203081  0.98337402  1
  Si0+  Si114  1  0.82225809  0.57088306  0.68193253  1
  Si0+  Si115  1  0.42898523  0.82425873  0.98338919  1
  Si0+  Si116  1  0.82107045  0.56882212  0.01572399  1
  Si0+  Si117  1  0.57313492  0.67722574  0.31717638  1
  Si0+  Si118  1  0.67635984  0.42874732  0.01645627  1
  Si0+  Si119  1  0.42869630  0.32198373  0.98359551  1
  O2-  O120  1  0.24857456  -0.00036566  0.06505516  1
  O2-  O121  1  0.24459533  -0.00478158  0.39425072  1
  O2-  O122  1  0.25233157  0.00753395  0.72406193  1
  O2-  O123  1  0.24809103  0.50294301  0.06029315  1
  O2-  O124  1  0.25071613  0.49963246  0.38920916  1
  O2-  O125  1  0.24735912  0.50247428  0.73371038  1
  O2-  O126  1  0.75488747  0.00374247  0.06121685  1
  O2-  O127  1  0.75044050  0.00023282  0.39660041  1
  O2-  O128  1  0.75229273  -0.00226398  0.73255475  1
  O2-  O129  1  0.74928503  0.49814948  0.05807635  1
  O2-  O130  1  0.75059091  0.49946903  0.39094964  1
  O2-  O131  1  0.74895843  0.50158913  0.72411047  1
  O2-  O132  1  -0.00019924  0.24214776  0.27225747  1
  O2-  O133  1  -0.00143389  0.24618346  0.60107950  1
  O2-  O134  1  -0.00845915  0.25136495  0.94010793  1
  O2-  O135  1  0.00678616  0.74897844  0.27302776  1
  O2-  O136  1  -0.00064729  0.75577448  0.60713802  1
  O2-  O137  1  0.00301530  0.76054647  0.93930729  1
  O2-  O138  1  0.49499649  0.24762173  0.26726687  1
  O2-  O139  1  0.49493900  0.24645532  0.61139353  1
  O2-  O140  1  0.49708416  0.24834070  0.94123612  1
  O2-  O141  1  0.50899380  0.74967566  0.27264467  1
  O2-  O142  1  0.50526488  0.75244426  0.60157970  1
  O2-  O143  1  0.49801134  0.75559021  0.93981557  1
  O2-  O144  1  0.07029225  0.18443999  0.09941843  1
  O2-  O145  1  0.07491504  0.17915562  0.42147204  1
  O2-  O146  1  0.07308324  0.17829280  0.76392566  1
  O2-  O147  1  0.06541108  0.67459464  0.09919269  1
  O2-  O148  1  0.07085906  0.67546407  0.42279235  1
  O2-  O149  1  0.06925745  0.68046975  0.76684446  1
  O2-  O150  1  0.57361504  0.18223241  0.08779709  1
  O2-  O151  1  0.57013195  0.18281424  0.43228377  1
  O2-  O152  1  0.56936051  0.18277183  0.75927384  1
  O2-  O153  1  0.56737846  0.67607034  0.09990319  1
  O2-  O154  1  0.57071555  0.67197030  0.42204451  1
  O2-  O155  1  0.57103741  0.67643720  0.76456078  1
  O2-  O156  1  0.17654234  0.43234493  0.24251262  1
  O2-  O157  1  0.17952743  0.42992298  0.56888392  1
  O2-  O158  1  0.17920094  0.43170604  0.91180858  1
  O2-  O159  1  0.17917015  0.92463147  0.24370981  1
  O2-  O160  1  0.18243733  0.92915199  0.56411448  1
  O2-  O161  1  0.18037464  0.92559178  0.90285547  1
  O2-  O162  1  0.67859608  0.43310463  0.24190559  1
  O2-  O163  1  0.67789318  0.42900479  0.57669223  1
  O2-  O164  1  0.67509738  0.42760244  0.91139921  1
  O2-  O165  1  0.68120649  0.92657481  0.23555431  1
  O2-  O166  1  0.67820810  0.93045788  0.56924142  1
  O2-  O167  1  0.68205628  0.92845373  0.90178127  1
  O2-  O168  1  0.43073311  0.32533798  0.08833473  1
  O2-  O169  1  0.43035267  0.32477443  0.43244476  1
  O2-  O170  1  0.43223743  0.32244666  0.75913252  1
  O2-  O171  1  0.42997753  0.82168205  0.08926115  1
  O2-  O172  1  0.42472803  0.81733870  0.42953963  1
  O2-  O173  1  0.43087273  0.82211933  0.76603458  1
  O2-  O174  1  0.92721050  0.32461171  0.08879416  1
  O2-  O175  1  0.93295867  0.32614954  0.43044753  1
  O2-  O176  1  0.92802850  0.31906734  0.76569851  1
  O2-  O177  1  0.92572903  0.81701258  0.08912702  1
  O2-  O178  1  0.93007141  0.81693765  0.43362117  1
  O2-  O179  1  0.92565017  0.81811859  0.75704656  1
  O2-  O180  1  0.31443543  0.07130308  0.23490850  1
  O2-  O181  1  0.32453756  0.07460142  0.57572240  1
  O2-  O182  1  0.31942759  0.07371894  0.90143641  1
  O2-  O183  1  0.32149505  0.56961385  0.24243695  1
  O2-  O184  1  0.32194804  0.56722258  0.56813269  1
  O2-  O185  1  0.32463255  0.56688358  0.91218960  1
  O2-  O186  1  0.82099916  0.07170235  0.23373230  1
  O2-  O187  1  0.81724177  0.07463455  0.56933585  1
  O2-  O188  1  0.81734580  0.07633116  0.91118841  1
  O2-  O189  1  0.82387238  0.56756632  0.24353457  1
  O2-  O190  1  0.82255397  0.56971695  0.57672235  1
  O2-  O191  1  0.82222522  0.56730369  0.91077661  1
  O2-  O192  1  0.05117844  0.08211177  0.27070974  1
  O2-  O193  1  0.04761446  0.07642863  0.59842894  1
  O2-  O194  1  0.04288007  0.08179892  0.93322842  1
  O2-  O195  1  0.04162233  0.58568627  0.26963951  1
  O2-  O196  1  0.03922553  0.58418889  0.59955723  1
  O2-  O197  1  0.03467781  0.58552659  0.93110340  1
  O2-  O198  1  0.54312357  0.08018642  0.26513926  1
  O2-  O199  1  0.54656081  0.08773172  0.60655971  1
  O2-  O200  1  0.54365570  0.08704719  0.93639890  1
  O2-  O201  1  0.54307995  0.58545113  0.26846550  1
  O2-  O202  1  0.54334647  0.57868564  0.59847466  1
  O2-  O203  1  0.53974543  0.58231090  0.93316173  1
  O2-  O204  1  0.16287409  0.20995147  0.26854187  1
  O2-  O205  1  0.17104640  0.20788098  0.59769572  1
  O2-  O206  1  0.16505590  0.21558738  0.93220936  1
  O2-  O207  1  0.16654417  0.69771151  0.27131274  1
  O2-  O208  1  0.16900509  0.70767219  0.59981021  1
  O2-  O209  1  0.17156481  0.70271662  0.93543011  1
  O2-  O210  1  0.66544075  0.21208076  0.26203289  1
  O2-  O211  1  0.65938185  0.21406795  0.60674909  1
  O2-  O212  1  0.66028240  0.21202595  0.93404391  1
  O2-  O213  1  0.66925186  0.69565871  0.27336181  1
  O2-  O214  1  0.67471438  0.69746145  0.60047621  1
  O2-  O215  1  0.66921450  0.70498192  0.93535790  1
  O2-  O216  1  0.08555230  0.46009217  0.06311544  1
  O2-  O217  1  0.08713777  0.46040511  0.39576672  1
  O2-  O218  1  0.07813391  0.45623362  0.73537283  1
  O2-  O219  1  0.07658680  0.95475921  0.06675523  1
  O2-  O220  1  0.08328460  0.94656764  0.39303756  1
  O2-  O221  1  0.08351551  0.95327800  0.73355659  1
  O2-  O222  1  0.58577904  0.45917789  0.06487251  1
  O2-  O223  1  0.58732350  0.45842385  0.39526133  1
  O2-  O224  1  0.58795226  0.45593863  0.73165555  1
  O2-  O225  1  0.58441433  0.95979108  0.06733881  1
  O2-  O226  1  0.57891533  0.95432260  0.39887277  1
  O2-  O227  1  0.58171053  0.96017767  0.73674477  1
  O2-  O228  1  0.20757169  0.34104649  0.06471850  1
  O2-  O229  1  0.20329801  0.33814059  0.39536953  1
  O2-  O230  1  0.20945266  0.33186368  0.73686598  1
  O2-  O231  1  0.20350104  0.82768037  0.07040832  1
  O2-  O232  1  0.20653507  0.83034971  0.39259940  1
  O2-  O233  1  0.21485586  0.83470440  0.73258998  1
  O2-  O234  1  0.70301348  0.33682898  0.06463003  1
  O2-  O235  1  0.70574046  0.33792998  0.39333652  1
  O2-  O236  1  0.70748147  0.33954333  0.73279120  1
  O2-  O237  1  0.71092856  0.83094084  0.06846251  1
  O2-  O238  1  0.70731230  0.82703955  0.40048773  1
  O2-  O239  1  0.70618294  0.82762538  0.73342190  1
  O2-  O240  1  0.45920254  0.41891468  0.26347402  1
  O2-  O241  1  0.46202823  0.41093780  0.60544018  1
  O2-  O242  1  0.46153268  0.41143593  0.93443051  1
  O2-  O243  1  0.45576250  0.91750752  0.26247856  1
  O2-  O244  1  0.45788560  0.92168784  0.59900524  1
  O2-  O245  1  0.45383035  0.91864494  0.93963568  1
  O2-  O246  1  0.96397279  0.41546105  0.26132683  1
  O2-  O247  1  0.95622396  0.41754947  0.59860276  1
  O2-  O248  1  0.95409952  0.41582234  0.93767479  1
  O2-  O249  1  0.95667241  0.91691818  0.26349794  1
  O2-  O250  1  0.95131584  0.91612153  0.60713701  1
  O2-  O251  1  0.94277285  0.91868351  0.94107572  1
  O2-  O252  1  0.32696272  0.29773345  0.26640270  1
  O2-  O253  1  0.33578552  0.30065437  0.60725529  1
  O2-  O254  1  0.33604928  0.29766734  0.93686376  1
  O2-  O255  1  0.33547174  0.78409408  0.25978055  1
  O2-  O256  1  0.33492297  0.79042333  0.59655340  1
  O2-  O257  1  0.33489357  0.79681107  0.94031993  1
  O2-  O258  1  0.83200371  0.29697786  0.26260264  1
  O2-  O259  1  0.82777124  0.29480846  0.60035632  1
  O2-  O260  1  0.82999962  0.30275076  0.93938976  1
  O2-  O261  1  0.83498801  0.78412236  0.26497637  1
  O2-  O262  1  0.83644032  0.79121005  0.60404459  1
  O2-  O263  1  0.83766184  0.78667453  0.93600111  1
  O2-  O264  1  0.41871017  0.04820828  0.06774815  1
  O2-  O265  1  0.41585681  0.04197093  0.39922844  1
  O2-  O266  1  0.41616252  0.04816709  0.72859645  1
  O2-  O267  1  0.41246306  0.53681413  0.06514630  1
  O2-  O268  1  0.41386481  0.54208949  0.39484624  1
  O2-  O269  1  0.41902020  0.53732162  0.73638841  1
  O2-  O270  1  0.91536527  0.05375979  0.06078010  1
  O2-  O271  1  0.92210752  0.04479997  0.39877645  1
  O2-  O272  1  0.92026316  0.04606545  0.73459421  1
  O2-  O273  1  0.91168128  0.53939222  0.06553216  1
  O2-  O274  1  0.91443756  0.53874587  0.39592844  1
  O2-  O275  1  0.91203740  0.53955863  0.73116977  1
  O2-  O276  1  0.28999457  0.17269017  0.06738815  1
  O2-  O277  1  0.29003097  0.16885381  0.40119367  1
  O2-  O278  1  0.30145908  0.16889181  0.72670422  1
  O2-  O279  1  0.29826976  0.66279929  0.06398373  1
  O2-  O280  1  0.29392183  0.66208138  0.39492316  1
  O2-  O281  1  0.29681569  0.66971430  0.73454220  1
  O2-  O282  1  0.79244861  0.16895147  0.06146739  1
  O2-  O283  1  0.79445156  0.17316007  0.39736274  1
  O2-  O284  1  0.78882083  0.16974190  0.73726319  1
  O2-  O285  1  0.79302545  0.65974621  0.06454987  1
  O2-  O286  1  0.79737890  0.66013934  0.39774167  1
  O2-  O287  1  0.79746108  0.66193198  0.73198170  1
