# generated using pymatgen
data_Ca2Al2SiO7
_symmetry_space_group_name_H-M   'P 1'
_cell_length_a   15.46224290
_cell_length_b   15.46394098
_cell_length_c   15.28690102
_cell_angle_alpha   90.01657328
_cell_angle_beta   90.00203467
_cell_angle_gamma   89.97945996
_symmetry_Int_Tables_number   1
_chemical_formula_structural   Ca2Al2SiO7
_chemical_formula_sum   'Ca48 Al48 Si24 O168'
_cell_volume   3655.20788816
_cell_formula_units_Z   24
loop_
 _symmetry_equiv_pos_site_id
 _symmetry_equiv_pos_as_xyz
  1  'x, y, z'
loop_
 _atom_type_symbol
 _atom_type_oxidation_number
  Ca2+  2.0
  Al0+  0.0
  Si0+  0.0
  O2-  -2.0
loop_
 _atom_site_type_symbol
 _atom_site_label
 _atom_site_symmetry_multiplicity
 _atom_site_fract_x
 _atom_site_fract_y
 _atom_site_fract_z
 _atom_site_occupancy
  Ca2+  Ca0  1  0.17118678  0.07379249  0.17580602  1
  Ca2+  Ca1  1  0.16954884  0.08422365  0.49783823  1
  Ca2+  Ca2  1  0.17711026  0.07377911  0.84573028  1
  Ca2+  Ca3  1  0.16796960  0.58282491  0.16119199  1
  Ca2+  Ca4  1  0.16596922  0.58393287  0.50448354  1
  Ca2+  Ca5  1  0.16578888  0.58514085  0.84368212  1
  Ca2+  Ca6  1  0.66443515  0.07593972  0.16626346  1
  Ca2+  Ca7  1  0.66327399  0.07926664  0.50145301  1
  Ca2+  Ca8  1  0.66502313  0.08019555  0.84205961  1
  Ca2+  Ca9  1  0.67076067  0.57622913  0.17582728  1
  Ca2+  Ca10  1  0.66288915  0.57701391  0.50423861  1
  Ca2+  Ca11  1  0.66663124  0.58563878  0.83634597  1
  Ca2+  Ca12  1  0.07755089  0.33019992  0.16098912  1
  Ca2+  Ca13  1  0.07237788  0.32812405  0.48975605  1
  Ca2+  Ca14  1  0.07415294  0.34165984  0.83258651  1
  Ca2+  Ca15  1  0.08490882  0.83257323  0.15627245  1
  Ca2+  Ca16  1  0.08417335  0.83157456  0.49667572  1
  Ca2+  Ca17  1  0.08429576  0.82632951  0.83020070  1
  Ca2+  Ca18  1  0.57852050  0.32923214  0.16373896  1
  Ca2+  Ca19  1  0.58081012  0.32693457  0.49167248  1
  Ca2+  Ca20  1  0.58172064  0.31865888  0.83014754  1
  Ca2+  Ca21  1  0.57379889  0.84646023  0.16238826  1
  Ca2+  Ca22  1  0.57284085  0.83493587  0.49456291  1
  Ca2+  Ca23  1  0.57135369  0.83334777  0.82959532  1
  Ca2+  Ca24  1  0.33311842  0.42114675  0.16980043  1
  Ca2+  Ca25  1  0.33440582  0.41504406  0.50329512  1
  Ca2+  Ca26  1  0.32347730  0.42920229  0.84651951  1
  Ca2+  Ca27  1  0.32883571  0.92305186  0.16998354  1
  Ca2+  Ca28  1  0.33367709  0.91508104  0.49659157  1
  Ca2+  Ca29  1  0.33187749  0.91474269  0.84490276  1
  Ca2+  Ca30  1  0.83137294  0.41181027  0.17175862  1
  Ca2+  Ca31  1  0.83088324  0.40884384  0.50239945  1
  Ca2+  Ca32  1  0.83688793  0.41551589  0.83908729  1
  Ca2+  Ca33  1  0.82099029  0.90914829  0.17110805  1
  Ca2+  Ca34  1  0.82873399  0.91454841  0.50518348  1
  Ca2+  Ca35  1  0.82737297  0.90793911  0.84072601  1
  Ca2+  Ca36  1  0.41648371  0.16210509  0.16351351  1
  Ca2+  Ca37  1  0.42011010  0.16794451  0.49167320  1
  Ca2+  Ca38  1  0.42774986  0.15523863  0.83420717  1
  Ca2+  Ca39  1  0.41391025  0.67867245  0.16057333  1
  Ca2+  Ca40  1  0.41965217  0.67842622  0.49754090  1
  Ca2+  Ca41  1  0.41390367  0.67772624  0.83077647  1
  Ca2+  Ca42  1  0.92010161  0.17460831  0.16566856  1
  Ca2+  Ca43  1  0.92237398  0.17472663  0.49234453  1
  Ca2+  Ca44  1  0.91637752  0.17775718  0.83093981  1
  Ca2+  Ca45  1  0.92441185  0.67327339  0.15703150  1
  Ca2+  Ca46  1  0.92112459  0.67087116  0.50268543  1
  Ca2+  Ca47  1  0.92767865  0.67863871  0.83275459  1
  Al0+  Al48  1  -0.00286116  0.00417066  -0.00081041  1
  Al0+  Al49  1  -0.00078437  -0.00113614  0.33402218  1
  Al0+  Al50  1  -0.00025354  0.00146337  0.66643075  1
  Al0+  Al51  1  -0.00099197  0.50152899  -0.00235211  1
  Al0+  Al52  1  0.00019146  0.50231133  0.33080939  1
  Al0+  Al53  1  -0.00247850  0.50035851  0.65912787  1
  Al0+  Al54  1  0.50199785  -0.00066291  -0.00103207  1
  Al0+  Al55  1  0.49976801  -0.00030188  0.33763929  1
  Al0+  Al56  1  0.50071968  0.00062171  0.65860886  1
  Al0+  Al57  1  0.50028797  0.49872807  0.00343665  1
  Al0+  Al58  1  0.50185871  0.49943371  0.33534066  1
  Al0+  Al59  1  0.49885508  0.49964250  0.66840304  1
  Al0+  Al60  1  0.25014031  0.25181157  0.00535558  1
  Al0+  Al61  1  0.25041097  0.25027071  0.32999453  1
  Al0+  Al62  1  0.24977816  0.24950753  0.67249596  1
  Al0+  Al63  1  0.25125788  0.74944054  0.00023946  1
  Al0+  Al64  1  0.25152035  0.74993031  0.33315321  1
  Al0+  Al65  1  0.25018059  0.74984139  0.65933580  1
  Al0+  Al66  1  0.74930658  0.24876973  -0.00695689  1
  Al0+  Al67  1  0.74974016  0.24968600  0.33418354  1
  Al0+  Al68  1  0.74875792  0.24854728  0.66042096  1
  Al0+  Al69  1  0.74983464  0.74811239  0.00312192  1
  Al0+  Al70  1  0.75071169  0.74750508  0.34086176  1
  Al0+  Al71  1  0.75018050  0.74692408  0.66262787  1
  Al0+  Al72  1  0.31995091  0.07259167  0.34994520  1
  Al0+  Al73  1  0.56995645  0.17967682  0.65087353  1
  Al0+  Al74  1  0.67929998  0.92865052  0.34938380  1
  Al0+  Al75  1  0.32311308  0.57204839  0.01614992  1
  Al0+  Al76  1  0.68016071  0.42866285  0.34754100  1
  Al0+  Al77  1  0.93012566  0.31999966  0.65200449  1
  Al0+  Al78  1  0.17760934  0.92719282  0.35004072  1
  Al0+  Al79  1  0.57140487  0.67605688  0.65236894  1
  Al0+  Al80  1  0.07168384  0.17691640  0.31747093  1
  Al0+  Al81  1  0.93077523  0.31957810  0.98590115  1
  Al0+  Al82  1  0.43090456  0.82063065  0.31604959  1
  Al0+  Al83  1  0.68217097  0.92825721  0.01117262  1
  Al0+  Al84  1  0.92544844  0.82510546  0.98852379  1
  Al0+  Al85  1  0.42918958  0.82175532  0.64982637  1
  Al0+  Al86  1  0.43168257  0.81953350  0.98868152  1
  Al0+  Al87  1  0.92860826  0.32189675  0.31677326  1
  Al0+  Al88  1  0.07093428  0.68237471  0.98660307  1
  Al0+  Al89  1  0.56768932  0.18063696  0.98797007  1
  Al0+  Al90  1  0.07101343  0.67993616  0.65026566  1
  Al0+  Al91  1  0.17652655  0.92929299  0.01248608  1
  Al0+  Al92  1  0.17583743  0.43014762  0.01582375  1
  Al0+  Al93  1  0.92878157  0.82368614  0.65121997  1
  Al0+  Al94  1  0.32365222  0.07044851  0.01371462  1
  Al0+  Al95  1  0.42918226  0.32276487  0.31991941  1
  Si0+  Si96  1  0.42683896  0.32129501  0.65368373  1
  Si0+  Si97  1  0.57351032  0.67365108  0.98659341  1
  Si0+  Si98  1  0.67962326  0.92872176  0.68144930  1
  Si0+  Si99  1  0.68000446  0.42602178  0.01311098  1
  Si0+  Si100  1  0.32146856  0.57030957  0.35023676  1
  Si0+  Si101  1  0.57335527  0.67812836  0.31694750  1
  Si0+  Si102  1  0.67856822  0.42737817  0.68349171  1
  Si0+  Si103  1  0.82150666  0.56978142  0.68382958  1
  Si0+  Si104  1  0.82081935  0.07202834  0.68192827  1
  Si0+  Si105  1  0.07458896  0.17811225  0.65186856  1
  Si0+  Si106  1  0.82412746  0.57133109  0.35346294  1
  Si0+  Si107  1  0.17826688  0.43034650  0.34851229  1
  Si0+  Si108  1  0.07526436  0.17788042  0.98230634  1
  Si0+  Si109  1  0.57129308  0.17768869  0.31566223  1
  Si0+  Si110  1  0.32005986  0.57126297  0.68077003  1
  Si0+  Si111  1  0.81935473  0.56973445  0.01443995  1
  Si0+  Si112  1  0.32214525  0.07169142  0.68218155  1
  Si0+  Si113  1  0.82094918  0.07644563  0.01572257  1
  Si0+  Si114  1  0.17945473  0.92882434  0.68106241  1
  Si0+  Si115  1  0.82174450  0.07151852  0.35084213  1
  Si0+  Si116  1  0.17730271  0.42917525  0.67976999  1
  Si0+  Si117  1  0.42589406  0.32517699  0.98281956  1
  Si0+  Si118  1  0.07203743  0.68011311  0.31684509  1
  Si0+  Si119  1  0.92700011  0.81992828  0.31954288  1
  O2-  O120  1  0.24595790  0.00393303  0.06225804  1
  O2-  O121  1  0.24764400  0.00100876  0.40102559  1
  O2-  O122  1  0.25196554  -0.00105962  0.72255570  1
  O2-  O123  1  0.25215058  0.49812746  0.06551281  1
  O2-  O124  1  0.25112260  0.49845455  0.39329018  1
  O2-  O125  1  0.24769857  0.50084174  0.72180933  1
  O2-  O126  1  0.76117416  -0.00095055  0.05801838  1
  O2-  O127  1  0.75464362  0.00217912  0.39691649  1
  O2-  O128  1  0.75310052  -0.00257543  0.72419116  1
  O2-  O129  1  0.74745271  0.49951176  0.05620062  1
  O2-  O130  1  0.75690831  0.50033699  0.39645126  1
  O2-  O131  1  0.74898380  0.49910540  0.72622855  1
  O2-  O132  1  0.00129466  0.25091925  0.26762887  1
  O2-  O133  1  0.00660712  0.24707231  0.60719156  1
  O2-  O134  1  0.00789360  0.24827398  0.93756760  1
  O2-  O135  1  0.00224032  0.75359492  0.27738691  1
  O2-  O136  1  0.00266400  0.75479364  0.59936856  1
  O2-  O137  1  0.00428233  0.76058725  0.93859288  1
  O2-  O138  1  0.50186769  0.24621342  0.27312943  1
  O2-  O139  1  0.49423749  0.25376526  0.60641946  1
  O2-  O140  1  0.49036949  0.25225239  0.93921797  1
  O2-  O141  1  0.50901793  0.74856180  0.27037772  1
  O2-  O142  1  0.50314085  0.75036267  0.60136087  1
  O2-  O143  1  0.50412598  0.74160727  0.94323884  1
  O2-  O144  1  0.07242261  0.17767548  0.08732533  1
  O2-  O145  1  0.06948064  0.18094926  0.43199769  1
  O2-  O146  1  0.07495291  0.17903718  0.75722262  1
  O2-  O147  1  0.06697252  0.67961833  0.10038616  1
  O2-  O148  1  0.07088694  0.67773686  0.42202114  1
  O2-  O149  1  0.07117400  0.67930637  0.76333192  1
  O2-  O150  1  0.57069832  0.18355464  0.10056923  1
  O2-  O151  1  0.57134336  0.17977648  0.42163453  1
  O2-  O152  1  0.57052953  0.17875993  0.76408136  1
  O2-  O153  1  0.57545355  0.67134724  0.09190256  1
  O2-  O154  1  0.57037392  0.67749724  0.42257744  1
  O2-  O155  1  0.56968096  0.67637770  0.76617808  1
  O2-  O156  1  0.17640748  0.43429251  0.24418380  1
  O2-  O157  1  0.18011661  0.42736509  0.57452811  1
  O2-  O158  1  0.17522781  0.43406018  0.90114358  1
  O2-  O159  1  0.17778004  0.92533866  0.23693832  1
  O2-  O160  1  0.17841479  0.93023944  0.57632102  1
  O2-  O161  1  0.17960147  0.92911376  0.89788484  1
  O2-  O162  1  0.68058612  0.43098134  0.23399118  1
  O2-  O163  1  0.67893686  0.42761606  0.57856957  1
  O2-  O164  1  0.68131004  0.42597460  0.90770583  1
  O2-  O165  1  0.68063381  0.92971898  0.23626599  1
  O2-  O166  1  0.68032170  0.93144842  0.57635546  1
  O2-  O167  1  0.68060043  0.92911454  0.89759232  1
  O2-  O168  1  0.43120424  0.32940407  0.08806732  1
  O2-  O169  1  0.43199021  0.32359765  0.43372166  1
  O2-  O170  1  0.42849361  0.32120537  0.75898748  1
  O2-  O171  1  0.43369645  0.82093651  0.10145511  1
  O2-  O172  1  0.43100830  0.81705025  0.42918995  1
  O2-  O173  1  0.42872561  0.82191803  0.76361460  1
  O2-  O174  1  0.92777743  0.31789733  0.09836001  1
  O2-  O175  1  0.93009854  0.32036640  0.43057115  1
  O2-  O176  1  0.93011981  0.32037627  0.76524146  1
  O2-  O177  1  0.92120150  0.81694525  0.10209682  1
  O2-  O178  1  0.92598002  0.81702970  0.42461273  1
  O2-  O179  1  0.92883399  0.82166073  0.76444049  1
  O2-  O180  1  0.32086527  0.06965301  0.23688298  1
  O2-  O181  1  0.31995268  0.07699318  0.57775568  1
  O2-  O182  1  0.32453219  0.06552376  0.89907873  1
  O2-  O183  1  0.32080747  0.57029765  0.24560133  1
  O2-  O184  1  0.32071757  0.56829483  0.57549223  1
  O2-  O185  1  0.32353431  0.57074434  0.90179696  1
  O2-  O186  1  0.82040068  0.07184548  0.24539711  1
  O2-  O187  1  0.81938514  0.07298007  0.57694432  1
  O2-  O188  1  0.81563687  0.08266960  0.91003439  1
  O2-  O189  1  0.82276154  0.57399591  0.24768166  1
  O2-  O190  1  0.82261225  0.56793662  0.57893357  1
  O2-  O191  1  0.81803213  0.56942359  0.90922919  1
  O2-  O192  1  0.04119861  0.07853703  0.26570182  1
  O2-  O193  1  0.04830699  0.08540821  0.60518772  1
  O2-  O194  1  0.04774789  0.08574747  0.93358217  1
  O2-  O195  1  0.04181975  0.58968109  0.26871119  1
  O2-  O196  1  0.03894769  0.58352242  0.59482775  1
  O2-  O197  1  0.03543541  0.58677489  0.93215518  1
  O2-  O198  1  0.54559603  0.08381783  0.27171952  1
  O2-  O199  1  0.54088530  0.08470033  0.59448540  1
  O2-  O200  1  0.53925080  0.08460350  0.93121947  1
  O2-  O201  1  0.54642089  0.58478997  0.27177557  1
  O2-  O202  1  0.54068374  0.57770783  0.59939732  1
  O2-  O203  1  0.55072535  0.57950146  0.93943884  1
  O2-  O204  1  0.16976318  0.20410245  0.26556989  1
  O2-  O205  1  0.16853462  0.20416862  0.60650897  1
  O2-  O206  1  0.17030203  0.20135220  0.93760996  1
  O2-  O207  1  0.16445933  0.70532860  0.27086614  1
  O2-  O208  1  0.16915588  0.70425323  0.59528488  1
  O2-  O209  1  0.17044213  0.70399676  0.93361355  1
  O2-  O210  1  0.66502595  0.20356076  0.27116221  1
  O2-  O211  1  0.66454403  0.21145033  0.59467153  1
  O2-  O212  1  0.66159630  0.21441828  0.92955112  1
  O2-  O213  1  0.67008324  0.69864964  0.27535278  1
  O2-  O214  1  0.67130910  0.69642617  0.60020331  1
  O2-  O215  1  0.66646153  0.70011965  0.94003231  1
  O2-  O216  1  0.07878106  0.46324963  0.06894064  1
  O2-  O217  1  0.08710221  0.46179364  0.39676832  1
  O2-  O218  1  0.08419750  0.45758993  0.72390042  1
  O2-  O219  1  0.07552956  0.95375030  0.06290293  1
  O2-  O220  1  0.07732380  0.95242142  0.40202318  1
  O2-  O221  1  0.08731248  0.95672108  0.72830770  1
  O2-  O222  1  0.58759680  0.44962881  0.06085666  1
  O2-  O223  1  0.58479329  0.46136868  0.40403859  1
  O2-  O224  1  0.58601012  0.45371897  0.73109080  1
  O2-  O225  1  0.58884068  0.96596548  0.06604941  1
  O2-  O226  1  0.58442898  0.96144909  0.40474626  1
  O2-  O227  1  0.58717143  0.95998530  0.72602752  1
  O2-  O228  1  0.19881888  0.33059089  0.06780567  1
  O2-  O229  1  0.20355671  0.33775214  0.39495418  1
  O2-  O230  1  0.20360623  0.33803939  0.73018800  1
  O2-  O231  1  0.20570276  0.83141477  0.06426555  1
  O2-  O232  1  0.20995137  0.82901771  0.40305621  1
  O2-  O233  1  0.20749996  0.83545620  0.72537682  1
  O2-  O234  1  0.71220124  0.33597906  0.06040150  1
  O2-  O235  1  0.70831946  0.33131983  0.40226601  1
  O2-  O236  1  0.70857499  0.33498929  0.72889735  1
  O2-  O237  1  0.70755343  0.83113335  0.06785660  1
  O2-  O238  1  0.70906675  0.83161433  0.40381050  1
  O2-  O239  1  0.70451751  0.83466398  0.72568947  1
  O2-  O240  1  0.46345935  0.41839480  0.26590239  1
  O2-  O241  1  0.45098415  0.41509055  0.60787643  1
  O2-  O242  1  0.45704405  0.41665077  0.93444562  1
  O2-  O243  1  0.46225243  0.91866333  0.26656137  1
  O2-  O244  1  0.45781523  0.91863869  0.59509258  1
  O2-  O245  1  0.46635756  0.91330853  0.93203998  1
  O2-  O246  1  0.95515691  0.42188792  0.26662053  1
  O2-  O247  1  0.95768407  0.41563135  0.59578750  1
  O2-  O248  1  0.95901964  0.41686671  0.93162347  1
  O2-  O249  1  0.94665375  0.91393237  0.27461695  1
  O2-  O250  1  0.95255559  0.92390398  0.59970641  1
  O2-  O251  1  0.93908432  0.92780980  0.93928958  1
  O2-  O252  1  0.33182438  0.29810001  0.26620797  1
  O2-  O253  1  0.33214621  0.29674947  0.60891893  1
  O2-  O254  1  0.32959195  0.30662744  0.93997583  1
  O2-  O255  1  0.33467621  0.78563434  0.26480245  1
  O2-  O256  1  0.33290197  0.79094477  0.59502769  1
  O2-  O257  1  0.33573697  0.78941899  0.93347291  1
  O2-  O258  1  0.82945811  0.29236506  0.26619554  1
  O2-  O259  1  0.83451066  0.28753383  0.59825412  1
  O2-  O260  1  0.83567436  0.28677538  0.92942273  1
  O2-  O261  1  0.83617870  0.78641119  0.27338197  1
  O2-  O262  1  0.83182568  0.79105998  0.59800540  1
  O2-  O263  1  0.83060916  0.78599246  0.93349663  1
  O2-  O264  1  0.42001256  0.03806656  0.06720365  1
  O2-  O265  1  0.41816601  0.04341862  0.40344294  1
  O2-  O266  1  0.41585924  0.04334318  0.72560547  1
  O2-  O267  1  0.42181436  0.54420605  0.07001434  1
  O2-  O268  1  0.41325974  0.54287096  0.39777811  1
  O2-  O269  1  0.41109707  0.54328598  0.73001263  1
  O2-  O270  1  0.91750964  0.06307766  0.05871235  1
  O2-  O271  1  0.91513106  0.04715554  0.39782529  1
  O2-  O272  1  0.91473075  0.05081068  0.72902627  1
  O2-  O273  1  0.90987021  0.54059511  0.06246384  1
  O2-  O274  1  0.91873676  0.54743754  0.39863833  1
  O2-  O275  1  0.91301944  0.53868806  0.73028876  1
  O2-  O276  1  0.30597022  0.17276068  0.06200852  1
  O2-  O277  1  0.29345578  0.17280713  0.40249280  1
  O2-  O278  1  0.29497842  0.16261263  0.73325769  1
  O2-  O279  1  0.29262504  0.66865342  0.07018524  1
  O2-  O280  1  0.29068413  0.66077640  0.39835027  1
  O2-  O281  1  0.29232773  0.66408490  0.72606321  1
  O2-  O282  1  0.78436771  0.16535678  0.06493185  1
  O2-  O283  1  0.79451188  0.16455322  0.39801513  1
  O2-  O284  1  0.78794757  0.16293335  0.72899430  1
  O2-  O285  1  0.79222852  0.65975970  0.06577067  1
  O2-  O286  1  0.79646552  0.66256596  0.40341726  1
  O2-  O287  1  0.79444707  0.66203079  0.73127538  1
