# generated using pymatgen
data_Ca2Al2SiO7
_symmetry_space_group_name_H-M   'P 1'
_cell_length_a   15.46536635
_cell_length_b   15.46699259
_cell_length_c   15.29009878
_cell_angle_alpha   90.00550050
_cell_angle_beta   90.00237838
_cell_angle_gamma   90.02617705
_symmetry_Int_Tables_number   1
_chemical_formula_structural   Ca2Al2SiO7
_chemical_formula_sum   'Ca48 Al48 Si24 O168'
_cell_volume   3657.43261418
_cell_formula_units_Z   24
loop_
 _symmetry_equiv_pos_site_id
 _symmetry_equiv_pos_as_xyz
  1  'x, y, z'
loop_
 _atom_type_symbol
 _atom_type_oxidation_number
  Ca2+  2.0
  Al0+  0.0
  Si0+  0.0
  O2-  -2.0
loop_
 _atom_site_type_symbol
 _atom_site_label
 _atom_site_symmetry_multiplicity
 _atom_site_fract_x
 _atom_site_fract_y
 _atom_site_fract_z
 _atom_site_occupancy
  Ca2+  Ca0  1  0.17617560  0.08570146  0.17522945  1
  Ca2+  Ca1  1  0.17183739  0.08831595  0.50442872  1
  Ca2+  Ca2  1  0.17927063  0.09357058  0.83208967  1
  Ca2+  Ca3  1  0.16993161  0.57613220  0.16377483  1
  Ca2+  Ca4  1  0.17513693  0.57251284  0.51103657  1
  Ca2+  Ca5  1  0.17755316  0.57378302  0.83675370  1
  Ca2+  Ca6  1  0.66176312  0.08152282  0.16450121  1
  Ca2+  Ca7  1  0.67476520  0.07990664  0.51248580  1
  Ca2+  Ca8  1  0.66198547  0.07519966  0.83867518  1
  Ca2+  Ca9  1  0.67182014  0.56797240  0.17308136  1
  Ca2+  Ca10  1  0.66780098  0.57490052  0.50443387  1
  Ca2+  Ca11  1  0.65823593  0.56932963  0.83284777  1
  Ca2+  Ca12  1  0.07888646  0.33171195  0.16050121  1
  Ca2+  Ca13  1  0.08786123  0.32102430  0.50028643  1
  Ca2+  Ca14  1  0.07596340  0.33768727  0.82437847  1
  Ca2+  Ca15  1  0.08604265  0.83418109  0.16542896  1
  Ca2+  Ca16  1  0.08611874  0.83370397  0.49343671  1
  Ca2+  Ca17  1  0.08350042  0.83039247  0.82723670  1
  Ca2+  Ca18  1  0.58198450  0.33052427  0.16185062  1
  Ca2+  Ca19  1  0.57262176  0.34371427  0.49843542  1
  Ca2+  Ca20  1  0.58208677  0.33016054  0.82657492  1
  Ca2+  Ca21  1  0.58365604  0.83151704  0.15882890  1
  Ca2+  Ca22  1  0.58126458  0.83227115  0.50489372  1
  Ca2+  Ca23  1  0.58231985  0.82756486  0.82173450  1
  Ca2+  Ca24  1  0.33362873  0.41688972  0.16809010  1
  Ca2+  Ca25  1  0.33194307  0.41437478  0.51279241  1
  Ca2+  Ca26  1  0.32704671  0.41924837  0.83414520  1
  Ca2+  Ca27  1  0.32997524  0.93266822  0.17269975  1
  Ca2+  Ca28  1  0.33339245  0.92963831  0.50557536  1
  Ca2+  Ca29  1  0.34465085  0.92926832  0.83356666  1
  Ca2+  Ca30  1  0.82278075  0.41034536  0.16948804  1
  Ca2+  Ca31  1  0.82262233  0.41324958  0.50604972  1
  Ca2+  Ca32  1  0.82442201  0.40427301  0.83585882  1
  Ca2+  Ca33  1  0.82562818  0.91606520  0.16874743  1
  Ca2+  Ca34  1  0.82825490  0.92510974  0.51040566  1
  Ca2+  Ca35  1  0.82271857  0.92366765  0.83210129  1
  Ca2+  Ca36  1  0.41695128  0.16930089  0.16369583  1
  Ca2+  Ca37  1  0.40784813  0.17775495  0.49790105  1
  Ca2+  Ca38  1  0.41930474  0.16747638  0.82744999  1
  Ca2+  Ca39  1  0.41420486  0.66959269  0.16038502  1
  Ca2+  Ca40  1  0.42050989  0.66594084  0.50289105  1
  Ca2+  Ca41  1  0.41720632  0.67001459  0.81982211  1
  Ca2+  Ca42  1  0.92531130  0.17127691  0.16000999  1
  Ca2+  Ca43  1  0.92508833  0.16677435  0.50127742  1
  Ca2+  Ca44  1  0.92286112  0.17693793  0.82301735  1
  Ca2+  Ca45  1  0.91378497  0.66382496  0.16473587  1
  Ca2+  Ca46  1  0.91406582  0.66615084  0.49512098  1
  Ca2+  Ca47  1  0.91764121  0.66766539  0.82823623  1
  Al0+  Al48  1  -0.00072448  -0.00039829  -0.00300886  1
  Al0+  Al49  1  -0.00113154  -0.00208927  0.32902171  1
  Al0+  Al50  1  0.00008772  -0.00014158  0.66807701  1
  Al0+  Al51  1  0.00092419  0.50183896  -0.00151254  1
  Al0+  Al52  1  0.00029642  0.50134667  0.33468591  1
  Al0+  Al53  1  -0.00205612  0.50048582  0.66375406  1
  Al0+  Al54  1  0.49984940  -0.00046115  0.00616960  1
  Al0+  Al55  1  0.49850011  -0.00002314  0.33686099  1
  Al0+  Al56  1  0.49969045  -0.00189480  0.66812086  1
  Al0+  Al57  1  0.50126169  0.50074558  0.00861315  1
  Al0+  Al58  1  0.50036294  0.50119283  0.32955699  1
  Al0+  Al59  1  0.50209235  0.50138893  0.66619350  1
  Al0+  Al60  1  0.25026854  0.25101566  0.00848733  1
  Al0+  Al61  1  0.25065439  0.25108606  0.32604797  1
  Al0+  Al62  1  0.24931914  0.24926344  0.66892724  1
  Al0+  Al63  1  0.24929429  0.75092690  0.00138996  1
  Al0+  Al64  1  0.24926726  0.75034636  0.33300113  1
  Al0+  Al65  1  0.25032462  0.75166163  0.66330703  1
  Al0+  Al66  1  0.75061228  0.24739507  -0.00254910  1
  Al0+  Al67  1  0.74793846  0.24839073  0.33755386  1
  Al0+  Al68  1  0.75235077  0.25017754  0.66956807  1
  Al0+  Al69  1  0.74926937  0.75101992  0.00184177  1
  Al0+  Al70  1  0.75017235  0.74888924  0.33475723  1
  Al0+  Al71  1  0.75028219  0.74954165  0.66491428  1
  Al0+  Al72  1  0.42733621  0.82330945  0.64980538  1
  Al0+  Al73  1  0.68037385  0.42585693  0.01355994  1
  Al0+  Al74  1  0.32004953  0.07326035  0.35104100  1
  Al0+  Al75  1  0.32020973  0.07104192  0.68047700  1
  Al0+  Al76  1  0.17790986  0.42767258  0.68000367  1
  Al0+  Al77  1  0.56834469  0.17873735  0.98689337  1
  Al0+  Al78  1  0.93051174  0.32106377  0.98720116  1
  Al0+  Al79  1  0.32195962  0.57277711  0.01567308  1
  Al0+  Al80  1  0.07129002  0.17914251  0.65258095  1
  Al0+  Al81  1  0.32071075  0.07079273  0.01448546  1
  Al0+  Al82  1  0.06941531  0.17845760  0.31772596  1
  Al0+  Al83  1  0.32206905  0.57186621  0.67905491  1
  Al0+  Al84  1  0.82350787  0.07230681  0.68301904  1
  Al0+  Al85  1  0.43030601  0.32202736  0.31864370  1
  Al0+  Al86  1  0.67963019  0.42957212  0.68101281  1
  Al0+  Al87  1  0.43108389  0.31944085  0.65745880  1
  Al0+  Al88  1  0.92654128  0.32335681  0.64899036  1
  Al0+  Al89  1  0.67915033  0.92919358  0.68115574  1
  Al0+  Al90  1  0.17798162  0.92899527  0.34739811  1
  Al0+  Al91  1  0.67802117  0.42724567  0.34997084  1
  Al0+  Al92  1  0.68003690  0.92899162  0.01469457  1
  Al0+  Al93  1  0.57221639  0.67839623  0.65046354  1
  Al0+  Al94  1  0.17758357  0.42987012  0.01642870  1
  Al0+  Al95  1  0.82155635  0.57079046  0.34824986  1
  Si0+  Si96  1  0.92788101  0.81929555  0.31691354  1
  Si0+  Si97  1  0.57145044  0.67887036  0.98686400  1
  Si0+  Si98  1  0.07099292  0.68104612  0.98368387  1
  Si0+  Si99  1  0.82244436  0.57302995  0.68372411  1
  Si0+  Si100  1  0.07143487  0.67912457  0.65043677  1
  Si0+  Si101  1  0.32098941  0.57225405  0.34775410  1
  Si0+  Si102  1  0.82169600  0.57298313  0.01433536  1
  Si0+  Si103  1  0.93008010  0.82001539  0.65122987  1
  Si0+  Si104  1  0.82304385  0.07060604  0.01784126  1
  Si0+  Si105  1  0.67833896  0.92764543  0.34839905  1
  Si0+  Si106  1  0.07424409  0.17726026  0.98354641  1
  Si0+  Si107  1  0.17530495  0.92789947  0.01529590  1
  Si0+  Si108  1  0.57359319  0.17512500  0.31827909  1
  Si0+  Si109  1  0.07224716  0.67810310  0.31668832  1
  Si0+  Si110  1  0.92662462  0.82163795  0.98336233  1
  Si0+  Si111  1  0.17964870  0.42982122  0.34747063  1
  Si0+  Si112  1  0.57146780  0.68114949  0.31528407  1
  Si0+  Si113  1  0.17718889  0.92710327  0.68321603  1
  Si0+  Si114  1  0.42880905  0.82149456  0.31644597  1
  Si0+  Si115  1  0.42927076  0.81991283  0.98716480  1
  Si0+  Si116  1  0.92671594  0.32182691  0.31737779  1
  Si0+  Si117  1  0.42781422  0.32418864  0.98386307  1
  Si0+  Si118  1  0.57270525  0.17656141  0.65208632  1
  Si0+  Si119  1  0.82093773  0.06949332  0.34626569  1
  O2-  O120  1  0.24044229  -0.00016802  0.05832549  1
  O2-  O121  1  0.24613619  0.00216817  0.39957593  1
  O2-  O122  1  0.24676961  -0.00566452  0.72731353  1
  O2-  O123  1  0.25367474  0.49789348  0.06707144  1
  O2-  O124  1  0.25297127  0.49864257  0.38923327  1
  O2-  O125  1  0.25095643  0.49944750  0.72878556  1
  O2-  O126  1  0.75438147  0.00256838  0.06386533  1
  O2-  O127  1  0.74617005  0.00208753  0.38820110  1
  O2-  O128  1  0.74584604  0.00549263  0.73199729  1
  O2-  O129  1  0.75677539  0.50080506  0.05787887  1
  O2-  O130  1  0.75318222  0.49680639  0.39862038  1
  O2-  O131  1  0.75667131  0.50243572  0.72807926  1
  O2-  O132  1  -0.00515374  0.25369915  0.27132425  1
  O2-  O133  1  0.00002470  0.25155729  0.60126979  1
  O2-  O134  1  0.00774824  0.24843895  0.94131400  1
  O2-  O135  1  -0.00040015  0.74855197  0.27471882  1
  O2-  O136  1  0.00090653  0.75018122  0.60729617  1
  O2-  O137  1  -0.00048203  0.75225842  0.94174337  1
  O2-  O138  1  0.50606055  0.24593098  0.27564007  1
  O2-  O139  1  0.50531258  0.24565247  0.60723443  1
  O2-  O140  1  0.49574089  0.25493491  0.93972449  1
  O2-  O141  1  0.50052366  0.75205021  0.27200783  1
  O2-  O142  1  0.49896745  0.74999671  0.60053647  1
  O2-  O143  1  0.49600224  0.74511284  0.94529039  1
  O2-  O144  1  0.07035737  0.17453799  0.08945256  1
  O2-  O145  1  0.06840048  0.17825837  0.43021318  1
  O2-  O146  1  0.07119053  0.17944198  0.76619800  1
  O2-  O147  1  0.07046545  0.68245108  0.08905528  1
  O2-  O148  1  0.07335436  0.67907681  0.42140611  1
  O2-  O149  1  0.06994769  0.68151171  0.75586656  1
  O2-  O150  1  0.56721513  0.17850925  0.10041838  1
  O2-  O151  1  0.57627088  0.17111585  0.42319500  1
  O2-  O152  1  0.56997609  0.17636801  0.75795809  1
  O2-  O153  1  0.57346590  0.68275014  0.09239557  1
  O2-  O154  1  0.57143994  0.68210916  0.41971828  1
  O2-  O155  1  0.57251909  0.67933683  0.76466454  1
  O2-  O156  1  0.17758500  0.43334466  0.24236490  1
  O2-  O157  1  0.18034419  0.42892521  0.56564410  1
  O2-  O158  1  0.17586740  0.43358811  0.90353348  1
  O2-  O159  1  0.18097147  0.92801021  0.23347021  1
  O2-  O160  1  0.17541192  0.92679098  0.57786966  1
  O2-  O161  1  0.17436659  0.92386438  0.91017478  1
  O2-  O162  1  0.68000645  0.42756142  0.23588397  1
  O2-  O163  1  0.67842308  0.43203161  0.56824358  1
  O2-  O164  1  0.67850236  0.42790515  0.90089763  1
  O2-  O165  1  0.68023432  0.92539815  0.24289342  1
  O2-  O166  1  0.68335769  0.92962857  0.56685432  1
  O2-  O167  1  0.68132072  0.92644712  0.90271754  1
  O2-  O168  1  0.43034386  0.32283627  0.08981603  1
  O2-  O169  1  0.42891357  0.32357003  0.43170165  1
  O2-  O170  1  0.43136482  0.31847081  0.77050392  1
  O2-  O171  1  0.43119476  0.81902100  0.09288614  1
  O2-  O172  1  0.42949514  0.82067679  0.42068936  1
  O2-  O173  1  0.42837831  0.82247477  0.76409185  1
  O2-  O174  1  0.93069162  0.31814153  0.10107812  1
  O2-  O175  1  0.92743391  0.32070126  0.42218548  1
  O2-  O176  1  0.92884292  0.32334069  0.76286660  1
  O2-  O177  1  0.92564382  0.82088628  0.08870747  1
  O2-  O178  1  0.92653075  0.81915607  0.42166001  1
  O2-  O179  1  0.93087048  0.81774596  0.75671080  1
  O2-  O180  1  0.32118088  0.06997174  0.23709594  1
  O2-  O181  1  0.31860857  0.07223144  0.56793261  1
  O2-  O182  1  0.32234710  0.06873751  0.90158626  1
  O2-  O183  1  0.31810814  0.57444016  0.24257061  1
  O2-  O184  1  0.31912646  0.57065352  0.56477527  1
  O2-  O185  1  0.31960820  0.57761060  0.90300847  1
  O2-  O186  1  0.82119442  0.06703933  0.24093154  1
  O2-  O187  1  0.82382282  0.06684586  0.56841293  1
  O2-  O188  1  0.82422375  0.06715951  0.91315026  1
  O2-  O189  1  0.81879096  0.57311961  0.23435252  1
  O2-  O190  1  0.82143032  0.57534168  0.57831754  1
  O2-  O191  1  0.82025652  0.57814543  0.90930412  1
  O2-  O192  1  0.03771482  0.08174851  0.26272443  1
  O2-  O193  1  0.04219702  0.07978194  0.60034856  1
  O2-  O194  1  0.04811779  0.08349876  0.93759875  1
  O2-  O195  1  0.04427460  0.58681727  0.26752352  1
  O2-  O196  1  0.04336385  0.58852024  0.60152214  1
  O2-  O197  1  0.04278921  0.59070032  0.93481057  1
  O2-  O198  1  0.54597470  0.08160489  0.27092536  1
  O2-  O199  1  0.54890775  0.08267423  0.60652973  1
  O2-  O200  1  0.53620681  0.08096222  0.93524673  1
  O2-  O201  1  0.54372507  0.58986870  0.26687945  1
  O2-  O202  1  0.54305328  0.58163715  0.59510365  1
  O2-  O203  1  0.54800175  0.58468286  0.94304385  1
  O2-  O204  1  0.16488656  0.21033432  0.26257353  1
  O2-  O205  1  0.16871043  0.20898316  0.59837426  1
  O2-  O206  1  0.17000530  0.20090043  0.94222681  1
  O2-  O207  1  0.16265055  0.70816855  0.26678729  1
  O2-  O208  1  0.16213336  0.70683013  0.60132175  1
  O2-  O209  1  0.16191664  0.71111935  0.93576168  1
  O2-  O210  1  0.66771914  0.19895829  0.27064261  1
  O2-  O211  1  0.66765301  0.19979945  0.60879046  1
  O2-  O212  1  0.66667279  0.20373974  0.93422249  1
  O2-  O213  1  0.66327792  0.71097125  0.26818612  1
  O2-  O214  1  0.67000365  0.70917104  0.59629525  1
  O2-  O215  1  0.66172838  0.71093697  0.93938273  1
  O2-  O216  1  0.08115601  0.46595054  0.07068332  1
  O2-  O217  1  0.08873027  0.45929882  0.39481921  1
  O2-  O218  1  0.07936350  0.45967484  0.73004290  1
  O2-  O219  1  0.07967226  0.94867576  0.06047866  1
  O2-  O220  1  0.07589903  0.94985012  0.39580955  1
  O2-  O221  1  0.08379447  0.95071735  0.73040341  1
  O2-  O222  1  0.58605191  0.45812467  0.07082383  1
  O2-  O223  1  0.58025375  0.46290112  0.39929588  1
  O2-  O224  1  0.58486721  0.46319050  0.73618676  1
  O2-  O225  1  0.58509648  0.95950693  0.07177596  1
  O2-  O226  1  0.58537932  0.95058193  0.39410425  1
  O2-  O227  1  0.57985858  0.95146498  0.73362061  1
  O2-  O228  1  0.20054070  0.33113817  0.07073096  1
  O2-  O229  1  0.20677880  0.33716359  0.39119912  1
  O2-  O230  1  0.20523001  0.33100305  0.73475274  1
  O2-  O231  1  0.20287617  0.83567432  0.06336861  1
  O2-  O232  1  0.20588169  0.82970081  0.39904733  1
  O2-  O233  1  0.20056384  0.83270582  0.72858286  1
  O2-  O234  1  0.71237394  0.32961253  0.06773565  1
  O2-  O235  1  0.70068692  0.32736131  0.40203743  1
  O2-  O236  1  0.70780346  0.33249763  0.73461645  1
  O2-  O237  1  0.71357029  0.83360727  0.07125943  1
  O2-  O238  1  0.71052031  0.83777141  0.39559231  1
  O2-  O239  1  0.71348371  0.83201704  0.73303205  1
  O2-  O240  1  0.45997593  0.41885569  0.26272262  1
  O2-  O241  1  0.46085734  0.41569852  0.60241168  1
  O2-  O242  1  0.45333808  0.41953006  0.94203056  1
  O2-  O243  1  0.45654108  0.91402876  0.26964257  1
  O2-  O244  1  0.45927919  0.92028911  0.59525779  1
  O2-  O245  1  0.46167969  0.91037188  0.94142447  1
  O2-  O246  1  0.95287993  0.41640611  0.27264406  1
  O2-  O247  1  0.95006857  0.42347641  0.59690897  1
  O2-  O248  1  0.95679832  0.41970349  0.93488630  1
  O2-  O249  1  0.95398557  0.90972302  0.26565720  1
  O2-  O250  1  0.95716733  0.91165095  0.60382356  1
  O2-  O251  1  0.95297424  0.91336070  0.93525359  1
  O2-  O252  1  0.33503511  0.29218314  0.26121138  1
  O2-  O253  1  0.33472254  0.28861331  0.60306794  1
  O2-  O254  1  0.33196440  0.29966764  0.94274463  1
  O2-  O255  1  0.33733937  0.79127678  0.26880273  1
  O2-  O256  1  0.32849062  0.79748007  0.59586322  1
  O2-  O257  1  0.33544841  0.79797944  0.94146947  1
  O2-  O258  1  0.83222416  0.29452556  0.27296910  1
  O2-  O259  1  0.82859555  0.29212647  0.59629385  1
  O2-  O260  1  0.83534199  0.28731882  0.93307511  1
  O2-  O261  1  0.83658081  0.78947819  0.26779308  1
  O2-  O262  1  0.83937727  0.79191160  0.60218791  1
  O2-  O263  1  0.83604789  0.79070894  0.93555660  1
  O2-  O264  1  0.41331584  0.03359064  0.07190903  1
  O2-  O265  1  0.41843356  0.04275239  0.40263441  1
  O2-  O266  1  0.41667307  0.03986997  0.73432947  1
  O2-  O267  1  0.42055901  0.54965748  0.07113234  1
  O2-  O268  1  0.41500490  0.54899567  0.39097306  1
  O2-  O269  1  0.42055904  0.54697048  0.73110860  1
  O2-  O270  1  0.91663978  0.04257821  0.06418124  1
  O2-  O271  1  0.91049179  0.03594670  0.39337112  1
  O2-  O272  1  0.91872561  0.03643874  0.73755682  1
  O2-  O273  1  0.91688040  0.55285294  0.05906247  1
  O2-  O274  1  0.92278263  0.55067808  0.39899110  1
  O2-  O275  1  0.91759653  0.55242146  0.72850050  1
  O2-  O276  1  0.29507831  0.16734584  0.07040051  1
  O2-  O277  1  0.29113080  0.17346753  0.39855911  1
  O2-  O278  1  0.28825531  0.16534037  0.73716259  1
  O2-  O279  1  0.28817774  0.67029649  0.07010051  1
  O2-  O280  1  0.29050648  0.66289662  0.39483691  1
  O2-  O281  1  0.29179005  0.67081010  0.72988855  1
  O2-  O282  1  0.79697716  0.16328243  0.06437349  1
  O2-  O283  1  0.79749646  0.16132777  0.39455394  1
  O2-  O284  1  0.80204582  0.17175052  0.73424944  1
  O2-  O285  1  0.79304952  0.66487475  0.06337371  1
  O2-  O286  1  0.79149268  0.66908883  0.40141176  1
  O2-  O287  1  0.79683159  0.66651244  0.73006428  1
