# generated using pymatgen
data_Ca2Al2SiO7
_symmetry_space_group_name_H-M   'P 1'
_cell_length_a   15.46789055
_cell_length_b   15.46440425
_cell_length_c   15.28974864
_cell_angle_alpha   90.00659571
_cell_angle_beta   89.98408515
_cell_angle_gamma   89.99717407
_symmetry_Int_Tables_number   1
_chemical_formula_structural   Ca2Al2SiO7
_chemical_formula_sum   'Ca48 Al48 Si24 O168'
_cell_volume   3657.33388437
_cell_formula_units_Z   24
loop_
 _symmetry_equiv_pos_site_id
 _symmetry_equiv_pos_as_xyz
  1  'x, y, z'
loop_
 _atom_type_symbol
 _atom_type_oxidation_number
  Ca2+  2.0
  Al0+  0.0
  Si0+  0.0
  O2-  -2.0
loop_
 _atom_site_type_symbol
 _atom_site_label
 _atom_site_symmetry_multiplicity
 _atom_site_fract_x
 _atom_site_fract_y
 _atom_site_fract_z
 _atom_site_occupancy
  Ca2+  Ca0  1  0.17197343  0.07720337  0.16446166  1
  Ca2+  Ca1  1  0.17532764  0.08199945  0.50685488  1
  Ca2+  Ca2  1  0.18029007  0.07905275  0.84328219  1
  Ca2+  Ca3  1  0.17498653  0.58762230  0.17332559  1
  Ca2+  Ca4  1  0.17157271  0.59230583  0.50175490  1
  Ca2+  Ca5  1  0.16369169  0.58802541  0.83540374  1
  Ca2+  Ca6  1  0.67295852  0.07758487  0.16949690  1
  Ca2+  Ca7  1  0.67515348  0.07779666  0.50199912  1
  Ca2+  Ca8  1  0.67247266  0.08650868  0.83744452  1
  Ca2+  Ca9  1  0.66296277  0.57482300  0.17542601  1
  Ca2+  Ca10  1  0.66745699  0.57744994  0.49893765  1
  Ca2+  Ca11  1  0.66016806  0.57146243  0.83920021  1
  Ca2+  Ca12  1  0.06782186  0.33235444  0.16273537  1
  Ca2+  Ca13  1  0.07461821  0.32728776  0.49027518  1
  Ca2+  Ca14  1  0.07414330  0.33238357  0.83195580  1
  Ca2+  Ca15  1  0.07282491  0.83726766  0.16200499  1
  Ca2+  Ca16  1  0.07112717  0.83249535  0.49944809  1
  Ca2+  Ca17  1  0.07579320  0.83854305  0.83190838  1
  Ca2+  Ca18  1  0.59259370  0.32868194  0.15918024  1
  Ca2+  Ca19  1  0.59623953  0.32937681  0.49984806  1
  Ca2+  Ca20  1  0.59206226  0.32283206  0.83074677  1
  Ca2+  Ca21  1  0.58368298  0.82264119  0.16211159  1
  Ca2+  Ca22  1  0.57794621  0.83060273  0.48496967  1
  Ca2+  Ca23  1  0.57963966  0.83233730  0.83423897  1
  Ca2+  Ca24  1  0.33246883  0.42473061  0.17382889  1
  Ca2+  Ca25  1  0.33388795  0.42480571  0.50091044  1
  Ca2+  Ca26  1  0.32989615  0.41779224  0.83815783  1
  Ca2+  Ca27  1  0.33305563  0.90796491  0.16656561  1
  Ca2+  Ca28  1  0.33453212  0.91848512  0.50556531  1
  Ca2+  Ca29  1  0.32988038  0.92280885  0.84457625  1
  Ca2+  Ca30  1  0.82602107  0.41981679  0.17374178  1
  Ca2+  Ca31  1  0.82619846  0.41961568  0.49806934  1
  Ca2+  Ca32  1  0.82315767  0.41590711  0.84113307  1
  Ca2+  Ca33  1  0.83321823  0.92409342  0.17568926  1
  Ca2+  Ca34  1  0.83579283  0.92186076  0.50270806  1
  Ca2+  Ca35  1  0.84230422  0.92653349  0.83918760  1
  Ca2+  Ca36  1  0.42556854  0.16709147  0.15695128  1
  Ca2+  Ca37  1  0.42461260  0.16360842  0.49895456  1
  Ca2+  Ca38  1  0.42907608  0.15513365  0.83076772  1
  Ca2+  Ca39  1  0.42626672  0.67219126  0.16502167  1
  Ca2+  Ca40  1  0.42295547  0.67186339  0.48719040  1
  Ca2+  Ca41  1  0.42104132  0.67106518  0.83668101  1
  Ca2+  Ca42  1  0.90186523  0.17547175  0.16211450  1
  Ca2+  Ca43  1  0.90673021  0.16966047  0.49364395  1
  Ca2+  Ca44  1  0.90528525  0.17001641  0.83237453  1
  Ca2+  Ca45  1  0.90276944  0.68066196  0.16584373  1
  Ca2+  Ca46  1  0.91492152  0.67512348  0.49278344  1
  Ca2+  Ca47  1  0.92109903  0.68314190  0.82566184  1
  Al0+  Al48  1  0.00363933  0.00261313  0.00504508  1
  Al0+  Al49  1  0.00444587  0.00060032  0.33446850  1
  Al0+  Al50  1  0.00119324  0.00166135  0.66657925  1
  Al0+  Al51  1  -0.00159047  0.49920694  -0.00429973  1
  Al0+  Al52  1  -0.00038356  0.49732493  0.33193299  1
  Al0+  Al53  1  0.00095618  0.50078707  0.66291828  1
  Al0+  Al54  1  0.50195176  0.00026080  -0.00379989  1
  Al0+  Al55  1  0.49884709  0.00147153  0.33208174  1
  Al0+  Al56  1  0.50232479  0.00129874  0.66461452  1
  Al0+  Al57  1  0.49843131  0.49811011  0.00029398  1
  Al0+  Al58  1  0.49703881  0.49838843  0.34002386  1
  Al0+  Al59  1  0.49758347  0.49963850  0.67175447  1
  Al0+  Al60  1  0.24906731  0.25079916  0.00549093  1
  Al0+  Al61  1  0.25008829  0.24884814  0.33237388  1
  Al0+  Al62  1  0.25078138  0.25252063  0.67070596  1
  Al0+  Al63  1  0.25032702  0.74976545  0.00076538  1
  Al0+  Al64  1  0.24909789  0.75083449  0.33623197  1
  Al0+  Al65  1  0.24979298  0.75035944  0.66555393  1
  Al0+  Al66  1  0.74887308  0.25098524  -0.00127491  1
  Al0+  Al67  1  0.75021486  0.24929412  0.33527801  1
  Al0+  Al68  1  0.74819354  0.24931166  0.66835599  1
  Al0+  Al69  1  0.75096999  0.74888654  -0.01379862  1
  Al0+  Al70  1  0.74871697  0.74846953  0.33196422  1
  Al0+  Al71  1  0.74862677  0.74978852  0.66337850  1
  Al0+  Al72  1  0.82019725  0.06991952  0.01302601  1
  Al0+  Al73  1  0.82208375  0.06913046  0.34765782  1
  Al0+  Al74  1  0.92991827  0.82425239  0.98721223  1
  Al0+  Al75  1  0.92879160  0.31975133  0.98485534  1
  Al0+  Al76  1  0.42724447  0.82309235  0.31865430  1
  Al0+  Al77  1  0.92844190  0.31853846  0.31943191  1
  Al0+  Al78  1  0.92824098  0.82382080  0.65005816  1
  Al0+  Al79  1  0.67763233  0.42804973  0.34870721  1
  Al0+  Al80  1  0.31828142  0.57111164  0.34770224  1
  Al0+  Al81  1  0.18053828  0.92776507  0.01697623  1
  Al0+  Al82  1  0.68066144  0.43171252  0.68246475  1
  Al0+  Al83  1  0.32286711  0.07191541  0.68003239  1
  Al0+  Al84  1  0.67706823  0.92807668  0.34531602  1
  Al0+  Al85  1  0.67959576  0.43096231  0.01344320  1
  Al0+  Al86  1  0.07170797  0.67860379  0.65048802  1
  Al0+  Al87  1  0.57190120  0.67539193  0.98312235  1
  Al0+  Al88  1  0.82063437  0.06871073  0.68118396  1
  Al0+  Al89  1  0.57064732  0.18029606  0.64999730  1
  Al0+  Al90  1  0.82263795  0.57233959  0.34715859  1
  Al0+  Al91  1  0.57119531  0.67652407  0.31997515  1
  Al0+  Al92  1  0.57039740  0.18006635  0.98706208  1
  Al0+  Al93  1  0.92919177  0.82163492  0.31955105  1
  Al0+  Al94  1  0.42903558  0.81993596  0.98409163  1
  Al0+  Al95  1  0.32502100  0.07102015  0.01700040  1
  Si0+  Si96  1  0.07427633  0.17967697  0.98281196  1
  Si0+  Si97  1  0.42604310  0.32391528  0.64942580  1
  Si0+  Si98  1  0.82332381  0.57295498  0.01313549  1
  Si0+  Si99  1  0.82433881  0.57386542  0.68395455  1
  Si0+  Si100  1  0.31954908  0.56954845  0.01521805  1
  Si0+  Si101  1  0.07580157  0.17762024  0.31509787  1
  Si0+  Si102  1  0.17554639  0.42875013  0.01578365  1
  Si0+  Si103  1  0.92861213  0.31943694  0.65136661  1
  Si0+  Si104  1  0.17707475  0.42882072  0.68235031  1
  Si0+  Si105  1  0.07134650  0.67776456  0.31699509  1
  Si0+  Si106  1  0.56866864  0.67525640  0.65126967  1
  Si0+  Si107  1  0.43139335  0.82048640  0.65254713  1
  Si0+  Si108  1  0.57016612  0.18088673  0.31812346  1
  Si0+  Si109  1  0.07244684  0.67778289  0.98583256  1
  Si0+  Si110  1  0.07429775  0.18122673  0.65334941  1
  Si0+  Si111  1  0.67729170  0.92563943  0.68331636  1
  Si0+  Si112  1  0.31893721  0.57203404  0.68402571  1
  Si0+  Si113  1  0.32105405  0.07315824  0.34926265  1
  Si0+  Si114  1  0.18034750  0.92884012  0.68351084  1
  Si0+  Si115  1  0.17806918  0.42644471  0.34998967  1
  Si0+  Si116  1  0.17989593  0.92909763  0.35157663  1
  Si0+  Si117  1  0.42604949  0.31997214  0.31951472  1
  Si0+  Si118  1  0.42484629  0.32183885  0.98431048  1
  Si0+  Si119  1  0.67912500  0.92444838  0.01347721  1
  O2-  O120  1  0.25619187  -0.00362968  0.06764486  1
  O2-  O121  1  0.25318815  -0.00071548  0.39171026  1
  O2-  O122  1  0.24894844  -0.00253918  0.72719381  1
  O2-  O123  1  0.24682883  0.49966022  0.05704990  1
  O2-  O124  1  0.24267970  0.49761404  0.39625959  1
  O2-  O125  1  0.24602890  0.50200729  0.72514954  1
  O2-  O126  1  0.75116794  -0.01055379  0.05793143  1
  O2-  O127  1  0.75346722  -0.00585423  0.39793043  1
  O2-  O128  1  0.75076985  -0.01068478  0.72724256  1
  O2-  O129  1  0.75093079  0.50901865  0.05818347  1
  O2-  O130  1  0.74849410  0.50215114  0.39730864  1
  O2-  O131  1  0.75465596  0.50698386  0.72952861  1
  O2-  O132  1  0.00158791  0.24139706  0.27318227  1
  O2-  O133  1  0.00048227  0.24852697  0.60989589  1
  O2-  O134  1  0.00262507  0.24440845  0.93699543  1
  O2-  O135  1  -0.00061948  0.74193675  0.27220791  1
  O2-  O136  1  -0.00360442  0.74693284  0.60128587  1
  O2-  O137  1  0.00463134  0.74760149  0.94289356  1
  O2-  O138  1  0.50000950  0.25337538  0.27673768  1
  O2-  O139  1  0.49443960  0.25536535  0.60478884  1
  O2-  O140  1  0.49087262  0.25107181  0.94059707  1
  O2-  O141  1  0.50243266  0.75291119  0.27148242  1
  O2-  O142  1  0.50297767  0.75112228  0.60938920  1
  O2-  O143  1  0.50270920  0.75039410  0.93261141  1
  O2-  O144  1  0.07743382  0.18388743  0.08811064  1
  O2-  O145  1  0.08214032  0.18140932  0.42102192  1
  O2-  O146  1  0.07745256  0.18489780  0.75797458  1
  O2-  O147  1  0.07394152  0.67532732  0.09111825  1
  O2-  O148  1  0.07323907  0.68158930  0.42236942  1
  O2-  O149  1  0.07238581  0.67963274  0.76426977  1
  O2-  O150  1  0.57106542  0.18339299  0.10038134  1
  O2-  O151  1  0.56835999  0.18102495  0.42339941  1
  O2-  O152  1  0.57062045  0.18128909  0.76284314  1
  O2-  O153  1  0.56929342  0.67258521  0.09612780  1
  O2-  O154  1  0.56607686  0.67596662  0.43431580  1
  O2-  O155  1  0.56416628  0.67321637  0.75613667  1
  O2-  O156  1  0.18151723  0.42594341  0.24429805  1
  O2-  O157  1  0.17903095  0.42511356  0.57774342  1
  O2-  O158  1  0.17633102  0.42895076  0.91027860  1
  O2-  O159  1  0.17859831  0.92878411  0.24689125  1
  O2-  O160  1  0.18244314  0.92966977  0.57761967  1
  O2-  O161  1  0.18084560  0.93006939  0.90297803  1
  O2-  O162  1  0.67892984  0.42635584  0.23526007  1
  O2-  O163  1  0.68221941  0.43235699  0.56976096  1
  O2-  O164  1  0.68123101  0.42997779  0.90006649  1
  O2-  O165  1  0.67585091  0.93207387  0.23173290  1
  O2-  O166  1  0.67377515  0.92769637  0.57802333  1
  O2-  O167  1  0.67873739  0.92672183  0.90758429  1
  O2-  O168  1  0.42443910  0.32380623  0.09008818  1
  O2-  O169  1  0.41961292  0.31582553  0.42425591  1
  O2-  O170  1  0.42381860  0.32615379  0.75475761  1
  O2-  O171  1  0.42840572  0.81512921  0.09703809  1
  O2-  O172  1  0.42629127  0.82150389  0.43327162  1
  O2-  O173  1  0.43050570  0.81873145  0.75734042  1
  O2-  O174  1  0.93041144  0.32060100  0.09763764  1
  O2-  O175  1  0.93116086  0.31697771  0.43324864  1
  O2-  O176  1  0.93032548  0.31921841  0.75659992  1
  O2-  O177  1  0.92931476  0.82306285  0.10020739  1
  O2-  O178  1  0.93353266  0.82374353  0.43232327  1
  O2-  O179  1  0.93339071  0.82595459  0.76374344  1
  O2-  O180  1  0.31916596  0.07831568  0.24497647  1
  O2-  O181  1  0.32022468  0.07029930  0.56630397  1
  O2-  O182  1  0.32147352  0.07138272  0.90313198  1
  O2-  O183  1  0.31682828  0.56843001  0.23446714  1
  O2-  O184  1  0.31957505  0.57150436  0.57918457  1
  O2-  O185  1  0.31807930  0.56800928  0.90965210  1
  O2-  O186  1  0.81829375  0.07111903  0.23423363  1
  O2-  O187  1  0.81947831  0.07058722  0.56837774  1
  O2-  O188  1  0.81788082  0.07047628  0.89960538  1
  O2-  O189  1  0.82376714  0.56993825  0.23347351  1
  O2-  O190  1  0.82449889  0.57196604  0.57862200  1
  O2-  O191  1  0.82631578  0.56869418  0.90747544  1
  O2-  O192  1  0.05726855  0.08200973  0.27220343  1
  O2-  O193  1  0.05163742  0.08809822  0.60668887  1
  O2-  O194  1  0.05385925  0.08462475  0.93920274  1
  O2-  O195  1  0.05509467  0.58091965  0.27428197  1
  O2-  O196  1  0.05160167  0.57757445  0.59823736  1
  O2-  O197  1  0.04734192  0.58479970  0.93725895  1
  O2-  O198  1  0.53996096  0.09051474  0.27024782  1
  O2-  O199  1  0.53923544  0.08397498  0.59507604  1
  O2-  O200  1  0.54476542  0.08344755  0.93051547  1
  O2-  O201  1  0.53606996  0.57828122  0.26987985  1
  O2-  O202  1  0.53413888  0.58560318  0.60422037  1
  O2-  O203  1  0.53470831  0.57895660  0.92962784  1
  O2-  O204  1  0.16632121  0.20942230  0.26569170  1
  O2-  O205  1  0.16450887  0.21292639  0.60366631  1
  O2-  O206  1  0.16653287  0.21057831  0.93567927  1
  O2-  O207  1  0.16365985  0.70827277  0.27094953  1
  O2-  O208  1  0.17001600  0.71004577  0.59733171  1
  O2-  O209  1  0.16607599  0.70133388  0.93874377  1
  O2-  O210  1  0.66174903  0.20850506  0.27151844  1
  O2-  O211  1  0.66646120  0.21420198  0.59624569  1
  O2-  O212  1  0.66366746  0.21651803  0.93060261  1
  O2-  O213  1  0.67012063  0.69801950  0.26614172  1
  O2-  O214  1  0.66345893  0.69538023  0.60746699  1
  O2-  O215  1  0.66952599  0.69828647  0.92582278  1
  O2-  O216  1  0.08378060  0.45705484  0.06254255  1
  O2-  O217  1  0.08347433  0.44689739  0.39494055  1
  O2-  O218  1  0.08466246  0.45488402  0.73014151  1
  O2-  O219  1  0.08530989  0.96158414  0.07316618  1
  O2-  O220  1  0.09084062  0.96036434  0.40220218  1
  O2-  O221  1  0.08715088  0.95590232  0.72850967  1
  O2-  O222  1  0.58027803  0.45527497  0.06548304  1
  O2-  O223  1  0.57820030  0.45034689  0.40275715  1
  O2-  O224  1  0.58217039  0.46015087  0.73503295  1
  O2-  O225  1  0.58664991  0.95281528  0.05894644  1
  O2-  O226  1  0.57982358  0.96166957  0.40007623  1
  O2-  O227  1  0.58595000  0.95751712  0.73053888  1
  O2-  O228  1  0.20250824  0.33831605  0.06539330  1
  O2-  O229  1  0.20805244  0.33400016  0.39691564  1
  O2-  O230  1  0.20727197  0.33959956  0.73391530  1
  O2-  O231  1  0.20550655  0.82790882  0.06925121  1
  O2-  O232  1  0.20655506  0.83794747  0.40042904  1
  O2-  O233  1  0.20637458  0.83518628  0.72909249  1
  O2-  O234  1  0.71433124  0.33600263  0.06675941  1
  O2-  O235  1  0.71151770  0.33175731  0.40278204  1
  O2-  O236  1  0.71313780  0.33507648  0.73480602  1
  O2-  O237  1  0.70105388  0.82781496  0.05431218  1
  O2-  O238  1  0.69662901  0.82720784  0.39561774  1
  O2-  O239  1  0.69488394  0.82910368  0.72712693  1
  O2-  O240  1  0.44879436  0.41384745  0.27507052  1
  O2-  O241  1  0.45166600  0.41824245  0.60428687  1
  O2-  O242  1  0.45050784  0.41440814  0.93657007  1
  O2-  O243  1  0.44876277  0.92373759  0.26795023  1
  O2-  O244  1  0.45727082  0.91251337  0.60487944  1
  O2-  O245  1  0.45514089  0.91892670  0.93151386  1
  O2-  O246  1  0.96149196  0.41403813  0.26401704  1
  O2-  O247  1  0.95662076  0.41137454  0.60486239  1
  O2-  O248  1  0.96213799  0.41503582  0.92838530  1
  O2-  O249  1  0.96613141  0.91742635  0.26734223  1
  O2-  O250  1  0.96262732  0.92104270  0.59699753  1
  O2-  O251  1  0.96553401  0.92051871  0.93490846  1
  O2-  O252  1  0.33605259  0.29035088  0.26863640  1
  O2-  O253  1  0.33175545  0.29951000  0.60344929  1
  O2-  O254  1  0.32925638  0.30054788  0.93969651  1
  O2-  O255  1  0.32920349  0.79049480  0.26785959  1
  O2-  O256  1  0.33915668  0.79220355  0.60625028  1
  O2-  O257  1  0.33117470  0.78774366  0.93057370  1
  O2-  O258  1  0.83193515  0.28775177  0.26554494  1
  O2-  O259  1  0.83784209  0.28929190  0.60484813  1
  O2-  O260  1  0.83367107  0.28771123  0.92979834  1
  O2-  O261  1  0.83152769  0.79485988  0.26639526  1
  O2-  O262  1  0.82738190  0.79963862  0.60006160  1
  O2-  O263  1  0.83579937  0.79628030  0.92722962  1
  O2-  O264  1  0.42554559  0.04737260  0.06653496  1
  O2-  O265  1  0.41337784  0.04846243  0.39646941  1
  O2-  O266  1  0.41963404  0.04021843  0.73178956  1
  O2-  O267  1  0.40944050  0.53856328  0.06329632  1
  O2-  O268  1  0.41143129  0.53730235  0.40602720  1
  O2-  O269  1  0.40846040  0.54142607  0.73389078  1
  O2-  O270  1  0.91952556  0.04949423  0.06524060  1
  O2-  O271  1  0.92391148  0.04828030  0.39783211  1
  O2-  O272  1  0.92047593  0.04527302  0.73348115  1
  O2-  O273  1  0.91564394  0.54429489  0.06004745  1
  O2-  O274  1  0.92107312  0.54119348  0.40024034  1
  O2-  O275  1  0.91870184  0.54725271  0.72824419  1
  O2-  O276  1  0.29353079  0.16960465  0.06947236  1
  O2-  O277  1  0.28912457  0.16324300  0.39890641  1
  O2-  O278  1  0.29292494  0.16903829  0.73312512  1
  O2-  O279  1  0.29226733  0.66063582  0.06287068  1
  O2-  O280  1  0.28702865  0.66688161  0.40374597  1
  O2-  O281  1  0.29105538  0.66385756  0.73167472  1
  O2-  O282  1  0.78319762  0.16494281  0.06549094  1
  O2-  O283  1  0.78859250  0.16553969  0.40129029  1
  O2-  O284  1  0.78566795  0.16446110  0.73441224  1
  O2-  O285  1  0.80109806  0.66953298  0.05343107  1
  O2-  O286  1  0.79657901  0.67064815  0.40086811  1
  O2-  O287  1  0.80026855  0.66904467  0.72774303  1
