# generated using pymatgen
data_Ca2Al2SiO7
_symmetry_space_group_name_H-M   'P 1'
_cell_length_a   15.46266880
_cell_length_b   15.46318854
_cell_length_c   15.28696766
_cell_angle_alpha   90.00245824
_cell_angle_beta   89.98657608
_cell_angle_gamma   89.99374246
_symmetry_Int_Tables_number   1
_chemical_formula_structural   Ca2Al2SiO7
_chemical_formula_sum   'Ca48 Al48 Si24 O168'
_cell_volume   3655.14690953
_cell_formula_units_Z   24
loop_
 _symmetry_equiv_pos_site_id
 _symmetry_equiv_pos_as_xyz
  1  'x, y, z'
loop_
 _atom_type_symbol
 _atom_type_oxidation_number
  Ca2+  2.0
  Al0+  0.0
  Si0+  0.0
  O2-  -2.0
loop_
 _atom_site_type_symbol
 _atom_site_label
 _atom_site_symmetry_multiplicity
 _atom_site_fract_x
 _atom_site_fract_y
 _atom_site_fract_z
 _atom_site_occupancy
  Ca2+  Ca0  1  0.17656745  0.08187391  0.17146151  1
  Ca2+  Ca1  1  0.17523468  0.08495773  0.51001824  1
  Ca2+  Ca2  1  0.16650151  0.08119175  0.82577181  1
  Ca2+  Ca3  1  0.16516917  0.57762252  0.16640309  1
  Ca2+  Ca4  1  0.16931371  0.57044320  0.50864550  1
  Ca2+  Ca5  1  0.17234297  0.57337292  0.84118804  1
  Ca2+  Ca6  1  0.67623246  0.08477676  0.17381135  1
  Ca2+  Ca7  1  0.67506533  0.08548542  0.50810158  1
  Ca2+  Ca8  1  0.67754962  0.08824959  0.83332591  1
  Ca2+  Ca9  1  0.66737473  0.57955160  0.16922275  1
  Ca2+  Ca10  1  0.66678556  0.58362405  0.50911715  1
  Ca2+  Ca11  1  0.66412094  0.58650690  0.83261637  1
  Ca2+  Ca12  1  0.08409214  0.33773657  0.16630693  1
  Ca2+  Ca13  1  0.08603546  0.33013125  0.49781310  1
  Ca2+  Ca14  1  0.08841475  0.32972701  0.82677636  1
  Ca2+  Ca15  1  0.07394296  0.83038206  0.15640525  1
  Ca2+  Ca16  1  0.07288889  0.84571038  0.50041227  1
  Ca2+  Ca17  1  0.07464308  0.83770824  0.82654145  1
  Ca2+  Ca18  1  0.57658770  0.32413457  0.16168275  1
  Ca2+  Ca19  1  0.57608579  0.31927403  0.50079106  1
  Ca2+  Ca20  1  0.56981132  0.32895595  0.82483230  1
  Ca2+  Ca21  1  0.57499899  0.83253211  0.16143827  1
  Ca2+  Ca22  1  0.58863908  0.83187432  0.50348517  1
  Ca2+  Ca23  1  0.58015759  0.82969041  0.82630855  1
  Ca2+  Ca24  1  0.32383741  0.41571149  0.16603824  1
  Ca2+  Ca25  1  0.32429527  0.41688577  0.51123708  1
  Ca2+  Ca26  1  0.33046358  0.42073997  0.83794440  1
  Ca2+  Ca27  1  0.33378030  0.91845396  0.17235511  1
  Ca2+  Ca28  1  0.32685750  0.92923732  0.50925902  1
  Ca2+  Ca29  1  0.33462132  0.92031785  0.83557117  1
  Ca2+  Ca30  1  0.83515505  0.41676588  0.17480262  1
  Ca2+  Ca31  1  0.83433209  0.41471372  0.50194431  1
  Ca2+  Ca32  1  0.82945695  0.41770783  0.83810084  1
  Ca2+  Ca33  1  0.84050594  0.92504614  0.16985072  1
  Ca2+  Ca34  1  0.83276345  0.92453819  0.51040824  1
  Ca2+  Ca35  1  0.83345646  0.92169136  0.83297658  1
  Ca2+  Ca36  1  0.42052523  0.16737565  0.16231231  1
  Ca2+  Ca37  1  0.42206512  0.15917323  0.49775396  1
  Ca2+  Ca38  1  0.41471035  0.17825994  0.82086161  1
  Ca2+  Ca39  1  0.41371513  0.67132938  0.15671087  1
  Ca2+  Ca40  1  0.41846739  0.66212654  0.50498126  1
  Ca2+  Ca41  1  0.41391178  0.66658159  0.82743839  1
  Ca2+  Ca42  1  0.91270745  0.16849113  0.16567348  1
  Ca2+  Ca43  1  0.92166227  0.16403572  0.49659954  1
  Ca2+  Ca44  1  0.92113271  0.16109067  0.82559011  1
  Ca2+  Ca45  1  0.92382670  0.67923934  0.15814753  1
  Ca2+  Ca46  1  0.91754524  0.68267799  0.49593150  1
  Ca2+  Ca47  1  0.92414918  0.67742286  0.82892291  1
  Al0+  Al48  1  -0.00014690  0.00227366  0.00223132  1
  Al0+  Al49  1  0.00032700  0.00190510  0.32979593  1
  Al0+  Al50  1  0.00021621  0.00329029  0.66454124  1
  Al0+  Al51  1  -0.00153067  0.49989750  0.00023907  1
  Al0+  Al52  1  -0.00031806  0.50014086  0.33483676  1
  Al0+  Al53  1  -0.00092203  0.50244268  0.67059491  1
  Al0+  Al54  1  0.50358283  -0.00172754  -0.00383378  1
  Al0+  Al55  1  0.50215643  -0.00180872  0.33205775  1
  Al0+  Al56  1  0.50124895  -0.00102939  0.67030394  1
  Al0+  Al57  1  0.49967931  0.49822732  0.00256581  1
  Al0+  Al58  1  0.50032445  0.49862066  0.33248717  1
  Al0+  Al59  1  0.50012767  0.50011490  0.66056374  1
  Al0+  Al60  1  0.24967863  0.25000644  0.00104440  1
  Al0+  Al61  1  0.25085543  0.25072615  0.33953332  1
  Al0+  Al62  1  0.24700047  0.25036182  0.66532090  1
  Al0+  Al63  1  0.25014295  0.74883402  -0.00337915  1
  Al0+  Al64  1  0.25052174  0.74778304  0.33489859  1
  Al0+  Al65  1  0.24833630  0.74864869  0.67019542  1
  Al0+  Al66  1  0.75095877  0.24932939  0.00462891  1
  Al0+  Al67  1  0.74951987  0.24974700  0.32966225  1
  Al0+  Al68  1  0.74818220  0.25225678  0.66850680  1
  Al0+  Al69  1  0.74930274  0.75125956  -0.00116523  1
  Al0+  Al70  1  0.75051503  0.74938349  0.32611560  1
  Al0+  Al71  1  0.74991905  0.75122426  0.66271487  1
  Al0+  Al72  1  0.07089381  0.67706082  0.98372517  1
  Al0+  Al73  1  0.32285940  0.06904381  0.34489220  1
  Al0+  Al74  1  0.57177198  0.17660972  0.65281590  1
  Al0+  Al75  1  0.82055044  0.07122818  0.34785855  1
  Al0+  Al76  1  0.17683454  0.42865124  0.68319626  1
  Al0+  Al77  1  0.82107801  0.07027195  0.01656203  1
  Al0+  Al78  1  0.92934877  0.82396957  0.98229207  1
  Al0+  Al79  1  0.32234282  0.07112292  0.68242705  1
  Al0+  Al80  1  0.42746124  0.32031970  0.65046811  1
  Al0+  Al81  1  0.67929976  0.92624090  0.68202256  1
  Al0+  Al82  1  0.17754724  0.42726355  0.01735598  1
  Al0+  Al83  1  0.42883089  0.31851019  0.98720683  1
  Al0+  Al84  1  0.57016099  0.17769470  0.31845769  1
  Al0+  Al85  1  0.81986638  0.07298090  0.68104176  1
  Al0+  Al86  1  0.42859640  0.82154559  0.98631979  1
  Al0+  Al87  1  0.93005469  0.82303809  0.31777814  1
  Al0+  Al88  1  0.32300723  0.56957992  0.68167858  1
  Al0+  Al89  1  0.32186442  0.57184801  0.01646116  1
  Al0+  Al90  1  0.93052519  0.32026021  0.32079380  1
  Al0+  Al91  1  0.56945821  0.68079784  0.65332254  1
  Al0+  Al92  1  0.17870646  0.43118375  0.34878096  1
  Al0+  Al93  1  0.93117978  0.82088516  0.65228482  1
  Al0+  Al94  1  0.17767290  0.92930630  0.68072094  1
  Al0+  Al95  1  0.06837186  0.18146522  0.65305150  1
  Si0+  Si96  1  0.07124042  0.18028119  0.98645221  1
  Si0+  Si97  1  0.92582824  0.32600740  0.65246372  1
  Si0+  Si98  1  0.57404088  0.17818090  0.98299162  1
  Si0+  Si99  1  0.82012602  0.57303188  0.68138007  1
  Si0+  Si100  1  0.67763246  0.92656692  0.01894390  1
  Si0+  Si101  1  0.17837678  0.92643901  0.34694203  1
  Si0+  Si102  1  0.57160264  0.67639125  0.31706272  1
  Si0+  Si103  1  0.67900369  0.92563082  0.34876981  1
  Si0+  Si104  1  0.42949245  0.81888395  0.32073567  1
  Si0+  Si105  1  0.57154025  0.67676682  0.98509723  1
  Si0+  Si106  1  0.07165458  0.67741766  0.31779238  1
  Si0+  Si107  1  0.32307501  0.06998436  0.01338368  1
  Si0+  Si108  1  0.07263178  0.67656822  0.64865933  1
  Si0+  Si109  1  0.92708186  0.32087880  0.98631204  1
  Si0+  Si110  1  0.42467784  0.82283740  0.64922315  1
  Si0+  Si111  1  0.42714842  0.32216397  0.31538640  1
  Si0+  Si112  1  0.81923478  0.57139179  0.34785562  1
  Si0+  Si113  1  0.67948689  0.43048886  0.68106226  1
  Si0+  Si114  1  0.81987416  0.57188124  0.01541108  1
  Si0+  Si115  1  0.67819160  0.42911430  0.34900321  1
  Si0+  Si116  1  0.67952367  0.42863509  0.01637269  1
  Si0+  Si117  1  0.17952969  0.92950021  0.01408963  1
  Si0+  Si118  1  0.07469283  0.17902942  0.31484483  1
  Si0+  Si119  1  0.32468477  0.57328580  0.35134216  1
  O2-  O120  1  0.25518568  -0.00393781  0.05678379  1
  O2-  O121  1  0.24652377  -0.00430724  0.38996274  1
  O2-  O122  1  0.25426157  -0.00468102  0.73282398  1
  O2-  O123  1  0.24854327  0.50111662  0.06665288  1
  O2-  O124  1  0.25610514  0.50401497  0.39334982  1
  O2-  O125  1  0.25042059  0.49909832  0.73205435  1
  O2-  O126  1  0.74708251  -0.00556181  0.06302529  1
  O2-  O127  1  0.74866780  -0.00689736  0.39225332  1
  O2-  O128  1  0.74701872  0.00223923  0.73184079  1
  O2-  O129  1  0.74986663  0.50032899  0.05942466  1
  O2-  O130  1  0.74814212  0.50124048  0.39158737  1
  O2-  O131  1  0.75171911  0.49977915  0.72448162  1
  O2-  O132  1  0.00483596  0.24694922  0.27069246  1
  O2-  O133  1  -0.00587627  0.25779062  0.60835825  1
  O2-  O134  1  0.00041109  0.25275701  0.94555826  1
  O2-  O135  1  0.00804926  0.75066406  0.27296014  1
  O2-  O136  1  0.00830304  0.74917129  0.60371709  1
  O2-  O137  1  0.00250323  0.75260846  0.93357295  1
  O2-  O138  1  0.49358921  0.25078885  0.27133597  1
  O2-  O139  1  0.49429273  0.24233653  0.60168905  1
  O2-  O140  1  0.50124394  0.24210847  0.93995149  1
  O2-  O141  1  0.49824894  0.74563094  0.27700701  1
  O2-  O142  1  0.49474456  0.75465239  0.60491320  1
  O2-  O143  1  0.50078641  0.74319485  0.94238574  1
  O2-  O144  1  0.07217157  0.17946217  0.09175113  1
  O2-  O145  1  0.07432844  0.17847784  0.41992820  1
  O2-  O146  1  0.06629885  0.18083350  0.76674800  1
  O2-  O147  1  0.06668206  0.67914287  0.09829285  1
  O2-  O148  1  0.06875361  0.67609341  0.42310634  1
  O2-  O149  1  0.06734413  0.67360468  0.75365523  1
  O2-  O150  1  0.57398185  0.18017607  0.08921259  1
  O2-  O151  1  0.57055878  0.17903380  0.43080295  1
  O2-  O152  1  0.57564320  0.18485949  0.76627081  1
  O2-  O153  1  0.57328589  0.67794155  0.09136408  1
  O2-  O154  1  0.57453771  0.67536822  0.42152555  1
  O2-  O155  1  0.57058623  0.68038479  0.76627322  1
  O2-  O156  1  0.17848176  0.43303318  0.23574480  1
  O2-  O157  1  0.17433018  0.43203000  0.56929028  1
  O2-  O158  1  0.17781351  0.42538630  0.90480776  1
  O2-  O159  1  0.18140272  0.92515129  0.24074470  1
  O2-  O160  1  0.17825393  0.93308253  0.56650610  1
  O2-  O161  1  0.17697863  0.93325535  0.90983507  1
  O2-  O162  1  0.67803359  0.43206875  0.24336897  1
  O2-  O163  1  0.68185709  0.43134509  0.57571343  1
  O2-  O164  1  0.68165718  0.42812736  0.91139127  1
  O2-  O165  1  0.67710578  0.92552945  0.24297497  1
  O2-  O166  1  0.68524048  0.92290363  0.56807540  1
  O2-  O167  1  0.67623391  0.92522659  0.91423907  1
  O2-  O168  1  0.43089800  0.31537639  0.10089525  1
  O2-  O169  1  0.42983402  0.32527203  0.42019581  1
  O2-  O170  1  0.43181348  0.32231332  0.76435633  1
  O2-  O171  1  0.43161084  0.82290682  0.10057404  1
  O2-  O172  1  0.42981343  0.81864965  0.42509981  1
  O2-  O173  1  0.42558046  0.82099644  0.75467483  1
  O2-  O174  1  0.92456235  0.32016798  0.09143060  1
  O2-  O175  1  0.93011234  0.32113268  0.43340722  1
  O2-  O176  1  0.92437398  0.32692681  0.75842956  1
  O2-  O177  1  0.93126054  0.82238551  0.09645874  1
  O2-  O178  1  0.92790095  0.82110000  0.43066230  1
  O2-  O179  1  0.93048926  0.81843258  0.76501934  1
  O2-  O180  1  0.32210047  0.06626720  0.23070398  1
  O2-  O181  1  0.32057011  0.06925345  0.56845292  1
  O2-  O182  1  0.32146440  0.07089230  0.90918696  1
  O2-  O183  1  0.32604557  0.57618323  0.24602292  1
  O2-  O184  1  0.32185346  0.56713048  0.56735871  1
  O2-  O185  1  0.32567833  0.56808244  0.90385929  1
  O2-  O186  1  0.81871525  0.07061390  0.23439030  1
  O2-  O187  1  0.82005810  0.07272550  0.56733573  1
  O2-  O188  1  0.82003962  0.07422600  0.90426751  1
  O2-  O189  1  0.81649144  0.57032350  0.24240053  1
  O2-  O190  1  0.81870041  0.57230171  0.57584072  1
  O2-  O191  1  0.81776356  0.57024833  0.91041557  1
  O2-  O192  1  0.05064347  0.08548723  0.26737353  1
  O2-  O193  1  0.03753092  0.08698256  0.59530026  1
  O2-  O194  1  0.04122993  0.08970746  0.93915571  1
  O2-  O195  1  0.03971435  0.58669179  0.26997122  1
  O2-  O196  1  0.03973503  0.58507834  0.60129284  1
  O2-  O197  1  0.03701520  0.57989978  0.93130479  1
  O2-  O198  1  0.54208727  0.08018731  0.26347744  1
  O2-  O199  1  0.55171807  0.07531995  0.60239695  1
  O2-  O200  1  0.55619099  0.08250308  0.94021070  1
  O2-  O201  1  0.54641731  0.58371865  0.26902018  1
  O2-  O202  1  0.54131916  0.58520008  0.59513950  1
  O2-  O203  1  0.55101033  0.58140654  0.94126754  1
  O2-  O204  1  0.16851927  0.20652518  0.26933507  1
  O2-  O205  1  0.16388208  0.21058851  0.59654020  1
  O2-  O206  1  0.16256931  0.20684985  0.93846185  1
  O2-  O207  1  0.16791443  0.69740584  0.27386232  1
  O2-  O208  1  0.16809422  0.69609361  0.60437258  1
  O2-  O209  1  0.17094741  0.69874161  0.93396284  1
  O2-  O210  1  0.66428339  0.21363080  0.26232759  1
  O2-  O211  1  0.66767138  0.21439142  0.59867745  1
  O2-  O212  1  0.66624850  0.21087227  0.93872325  1
  O2-  O213  1  0.66179711  0.70457955  0.26596242  1
  O2-  O214  1  0.66535919  0.71084765  0.59620117  1
  O2-  O215  1  0.66445326  0.70343701  0.93832538  1
  O2-  O216  1  0.07688061  0.45462709  0.06824408  1
  O2-  O217  1  0.08216443  0.46287888  0.40269950  1
  O2-  O218  1  0.07794655  0.45747897  0.73613675  1
  O2-  O219  1  0.09046194  0.96258705  0.06457947  1
  O2-  O220  1  0.08454101  0.95305022  0.39051649  1
  O2-  O221  1  0.08248811  0.96569477  0.73459777  1
  O2-  O222  1  0.58904304  0.45619671  0.06648469  1
  O2-  O223  1  0.58652188  0.45687660  0.39616719  1
  O2-  O224  1  0.58917216  0.46223165  0.72767315  1
  O2-  O225  1  0.58419255  0.95392362  0.06645636  1
  O2-  O226  1  0.58550172  0.95009171  0.39484260  1
  O2-  O227  1  0.57862948  0.94533489  0.73300605  1
  O2-  O228  1  0.20891048  0.32924660  0.07164750  1
  O2-  O229  1  0.20678421  0.33388243  0.40190684  1
  O2-  O230  1  0.20197870  0.32937967  0.73350478  1
  O2-  O231  1  0.20343626  0.83649582  0.06074541  1
  O2-  O232  1  0.20215211  0.83271563  0.39353692  1
  O2-  O233  1  0.19603959  0.82809450  0.73081070  1
  O2-  O234  1  0.70918749  0.33830927  0.06593934  1
  O2-  O235  1  0.70866612  0.33830086  0.39498749  1
  O2-  O236  1  0.70588884  0.34054337  0.73221439  1
  O2-  O237  1  0.70082153  0.83185277  0.06554179  1
  O2-  O238  1  0.70313884  0.83003262  0.39165363  1
  O2-  O239  1  0.71185531  0.82901964  0.73571787  1
  O2-  O240  1  0.45667820  0.41488793  0.26814347  1
  O2-  O241  1  0.46353119  0.41510501  0.59501857  1
  O2-  O242  1  0.46362842  0.41462915  0.93563321  1
  O2-  O243  1  0.45974303  0.90858029  0.27013029  1
  O2-  O244  1  0.45054269  0.91653182  0.60396578  1
  O2-  O245  1  0.46185075  0.91661745  0.93075259  1
  O2-  O246  1  0.95876328  0.41837859  0.26652877  1
  O2-  O247  1  0.94934094  0.42061980  0.60673103  1
  O2-  O248  1  0.94861025  0.41419325  0.93971647  1
  O2-  O249  1  0.95985413  0.91950777  0.26277864  1
  O2-  O250  1  0.96145432  0.91745270  0.59855840  1
  O2-  O251  1  0.95887132  0.92319620  0.93281988  1
  O2-  O252  1  0.33257189  0.29714167  0.27143357  1
  O2-  O253  1  0.32747141  0.29765172  0.60036894  1
  O2-  O254  1  0.33211466  0.28880502  0.93424485  1
  O2-  O255  1  0.33665179  0.79367074  0.27257887  1
  O2-  O256  1  0.33119878  0.79643148  0.60263435  1
  O2-  O257  1  0.33137954  0.79669826  0.93279410  1
  O2-  O258  1  0.83387553  0.29182623  0.26463506  1
  O2-  O259  1  0.83178996  0.30223419  0.60685089  1
  O2-  O260  1  0.83547343  0.29192317  0.93868440  1
  O2-  O261  1  0.83478920  0.78853843  0.26215114  1
  O2-  O262  1  0.83702681  0.78496456  0.59712028  1
  O2-  O263  1  0.82976206  0.79413375  0.93360018  1
  O2-  O264  1  0.41704854  0.04460481  0.05879318  1
  O2-  O265  1  0.41844444  0.03531474  0.39847682  1
  O2-  O266  1  0.42198850  0.04895010  0.73490531  1
  O2-  O267  1  0.42100585  0.54309412  0.07057973  1
  O2-  O268  1  0.41950097  0.54799365  0.39543596  1
  O2-  O269  1  0.42292401  0.54205164  0.73176718  1
  O2-  O270  1  0.91829755  0.04144344  0.07150742  1
  O2-  O271  1  0.92032056  0.04476552  0.39726647  1
  O2-  O272  1  0.91752815  0.04257140  0.73274228  1
  O2-  O273  1  0.91056877  0.54367656  0.06415355  1
  O2-  O274  1  0.91015590  0.54385478  0.39577955  1
  O2-  O275  1  0.91110498  0.54773673  0.73087882  1
  O2-  O276  1  0.29094961  0.15945544  0.06303707  1
  O2-  O277  1  0.29568685  0.16582088  0.39872678  1
  O2-  O278  1  0.28789820  0.16799262  0.73363243  1
  O2-  O279  1  0.29498291  0.67202701  0.06868544  1
  O2-  O280  1  0.30023808  0.66691255  0.39848207  1
  O2-  O281  1  0.29869734  0.66945613  0.73218984  1
  O2-  O282  1  0.78896911  0.16699861  0.07165428  1
  O2-  O283  1  0.78787396  0.16829897  0.39896804  1
  O2-  O284  1  0.79316450  0.17240314  0.73460097  1
  O2-  O285  1  0.79073778  0.66340974  0.06363020  1
  O2-  O286  1  0.78973713  0.66350361  0.39368088  1
  O2-  O287  1  0.78765447  0.66217162  0.72939350  1
