# generated using pymatgen
data_Ca2Al2SiO7
_symmetry_space_group_name_H-M   'P 1'
_cell_length_a   15.46338215
_cell_length_b   15.46384438
_cell_length_c   15.28852105
_cell_angle_alpha   90.00658062
_cell_angle_beta   89.97799118
_cell_angle_gamma   90.00114499
_symmetry_Int_Tables_number   1
_chemical_formula_structural   Ca2Al2SiO7
_chemical_formula_sum   'Ca48 Al48 Si24 O168'
_cell_volume   3655.84184670
_cell_formula_units_Z   24
loop_
 _symmetry_equiv_pos_site_id
 _symmetry_equiv_pos_as_xyz
  1  'x, y, z'
loop_
 _atom_type_symbol
 _atom_type_oxidation_number
  Ca2+  2.0
  Al0+  0.0
  Si0+  0.0
  O2-  -2.0
loop_
 _atom_site_type_symbol
 _atom_site_label
 _atom_site_symmetry_multiplicity
 _atom_site_fract_x
 _atom_site_fract_y
 _atom_site_fract_z
 _atom_site_occupancy
  Ca2+  Ca0  1  0.16374698  0.08220286  0.17351820  1
  Ca2+  Ca1  1  0.16063019  0.07521112  0.50440911  1
  Ca2+  Ca2  1  0.16778038  0.07627886  0.83280099  1
  Ca2+  Ca3  1  0.17474641  0.58039082  0.17709817  1
  Ca2+  Ca4  1  0.17045464  0.57291318  0.49978141  1
  Ca2+  Ca5  1  0.17840247  0.57775638  0.83172922  1
  Ca2+  Ca6  1  0.66901916  0.08119031  0.17786218  1
  Ca2+  Ca7  1  0.67641754  0.09100848  0.50016963  1
  Ca2+  Ca8  1  0.67141919  0.08299613  0.83284976  1
  Ca2+  Ca9  1  0.67685125  0.57974705  0.16763085  1
  Ca2+  Ca10  1  0.67926995  0.57901577  0.50434080  1
  Ca2+  Ca11  1  0.66963032  0.57393509  0.83644584  1
  Ca2+  Ca12  1  0.08142732  0.33644268  0.17252274  1
  Ca2+  Ca13  1  0.08220534  0.33196464  0.48797084  1
  Ca2+  Ca14  1  0.08360194  0.33461297  0.82731555  1
  Ca2+  Ca15  1  0.07164357  0.82403319  0.16988520  1
  Ca2+  Ca16  1  0.08176062  0.82421449  0.49156685  1
  Ca2+  Ca17  1  0.08015233  0.83029152  0.82908973  1
  Ca2+  Ca18  1  0.57541861  0.34094269  0.16493088  1
  Ca2+  Ca19  1  0.57556383  0.33694219  0.49551427  1
  Ca2+  Ca20  1  0.57743294  0.34641260  0.82964875  1
  Ca2+  Ca21  1  0.57903457  0.83020943  0.16769412  1
  Ca2+  Ca22  1  0.57130081  0.83056315  0.49421751  1
  Ca2+  Ca23  1  0.57532572  0.82609089  0.82456115  1
  Ca2+  Ca24  1  0.33354045  0.42416406  0.17570923  1
  Ca2+  Ca25  1  0.32633948  0.41723066  0.50562512  1
  Ca2+  Ca26  1  0.33861446  0.42236333  0.83774832  1
  Ca2+  Ca27  1  0.33334783  0.91853047  0.17632701  1
  Ca2+  Ca28  1  0.33034528  0.91446683  0.50695338  1
  Ca2+  Ca29  1  0.32636345  0.90931645  0.83250497  1
  Ca2+  Ca30  1  0.83225031  0.42301833  0.17660391  1
  Ca2+  Ca31  1  0.83435063  0.42455398  0.50606510  1
  Ca2+  Ca32  1  0.82166883  0.42775783  0.83854884  1
  Ca2+  Ca33  1  0.83992432  0.91884515  0.17561479  1
  Ca2+  Ca34  1  0.84302336  0.92909603  0.50021019  1
  Ca2+  Ca35  1  0.83739368  0.92183555  0.83745622  1
  Ca2+  Ca36  1  0.42124320  0.18179959  0.16669977  1
  Ca2+  Ca37  1  0.42270568  0.18077221  0.49052645  1
  Ca2+  Ca38  1  0.42043113  0.18150079  0.82586065  1
  Ca2+  Ca39  1  0.40825776  0.66732863  0.16510883  1
  Ca2+  Ca40  1  0.40342335  0.67319661  0.49649205  1
  Ca2+  Ca41  1  0.41361248  0.66352394  0.82471772  1
  Ca2+  Ca42  1  0.91737899  0.17109893  0.17357273  1
  Ca2+  Ca43  1  0.91887803  0.17142541  0.48928985  1
  Ca2+  Ca44  1  0.91642916  0.16745610  0.82757111  1
  Ca2+  Ca45  1  0.91708544  0.66592413  0.16198187  1
  Ca2+  Ca46  1  0.92199420  0.66578703  0.48691939  1
  Ca2+  Ca47  1  0.90807344  0.66882402  0.82984581  1
  Al0+  Al48  1  0.00018685  -0.00150031  -0.00360636  1
  Al0+  Al49  1  -0.00024038  -0.00039130  0.33048754  1
  Al0+  Al50  1  0.00073472  -0.00038027  0.67602320  1
  Al0+  Al51  1  0.00262112  0.49935677  -0.00119460  1
  Al0+  Al52  1  0.00280579  0.49947393  0.33166207  1
  Al0+  Al53  1  0.00162607  0.50137263  0.67484643  1
  Al0+  Al54  1  0.49983098  0.00131788  -0.00173607  1
  Al0+  Al55  1  0.49933014  -0.00096696  0.32731605  1
  Al0+  Al56  1  0.50120199  0.00079872  0.66306854  1
  Al0+  Al57  1  0.50019384  0.50212984  0.00451624  1
  Al0+  Al58  1  0.50187513  0.50472700  0.33447654  1
  Al0+  Al59  1  0.50195765  0.50160435  0.66496680  1
  Al0+  Al60  1  0.25111961  0.24801048  -0.00559616  1
  Al0+  Al61  1  0.25183558  0.24834370  0.32813019  1
  Al0+  Al62  1  0.24969215  0.24702108  0.66551128  1
  Al0+  Al63  1  0.24567188  0.75084357  0.00380724  1
  Al0+  Al64  1  0.24742252  0.75123038  0.32719554  1
  Al0+  Al65  1  0.24658329  0.74967800  0.67101885  1
  Al0+  Al66  1  0.74975738  0.24778351  0.00297616  1
  Al0+  Al67  1  0.75042465  0.24822808  0.33076995  1
  Al0+  Al68  1  0.75146710  0.24981314  0.67595821  1
  Al0+  Al69  1  0.74793392  0.75179621  -0.00266498  1
  Al0+  Al70  1  0.74622990  0.75222127  0.33531867  1
  Al0+  Al71  1  0.74886160  0.75445887  0.66571193  1
  Al0+  Al72  1  0.67919644  0.42825484  0.01764405  1
  Al0+  Al73  1  0.42707157  0.81937587  0.65430250  1
  Al0+  Al74  1  0.07220970  0.17725819  0.31989095  1
  Al0+  Al75  1  0.92899189  0.32244987  0.32081424  1
  Al0+  Al76  1  0.82056838  0.06934195  0.68155394  1
  Al0+  Al77  1  0.32215564  0.57366131  0.34880371  1
  Al0+  Al78  1  0.57190363  0.17947740  0.31908107  1
  Al0+  Al79  1  0.06994653  0.67699306  0.31853538  1
  Al0+  Al80  1  0.42979240  0.32470611  0.31847223  1
  Al0+  Al81  1  0.82036819  0.06952189  0.34610626  1
  Al0+  Al82  1  0.92701801  0.82020675  0.32184780  1
  Al0+  Al83  1  0.18152261  0.42618600  0.34682744  1
  Al0+  Al84  1  0.31967026  0.56942176  0.67987095  1
  Al0+  Al85  1  0.43189417  0.32156196  0.98519824  1
  Al0+  Al86  1  0.18049592  0.92908912  0.68037345  1
  Al0+  Al87  1  0.67994831  0.42952542  0.67995562  1
  Al0+  Al88  1  0.82335531  0.57493786  0.68036413  1
  Al0+  Al89  1  0.92875713  0.81876457  0.98427243  1
  Al0+  Al90  1  0.82140292  0.57219315  0.01516471  1
  Al0+  Al91  1  0.31905962  0.57091957  0.01436954  1
  Al0+  Al92  1  0.42963513  0.32249824  0.65231099  1
  Al0+  Al93  1  0.82193833  0.57183233  0.34532272  1
  Al0+  Al94  1  0.17913330  0.42414046  0.68196062  1
  Al0+  Al95  1  0.42791029  0.81866710  0.31935847  1
  Si0+  Si96  1  0.42639048  0.82269547  0.98515046  1
  Si0+  Si97  1  0.57405744  0.67881871  0.31490666  1
  Si0+  Si98  1  0.32464298  0.07156903  0.68253727  1
  Si0+  Si99  1  0.32088010  0.07023600  0.01471852  1
  Si0+  Si100  1  0.67498274  0.92898116  0.68386373  1
  Si0+  Si101  1  0.92797705  0.32092870  0.98387979  1
  Si0+  Si102  1  0.92846730  0.82328976  0.65205766  1
  Si0+  Si103  1  0.06982628  0.17685388  0.65343497  1
  Si0+  Si104  1  0.93042526  0.32054385  0.65603791  1
  Si0+  Si105  1  0.07007987  0.17803341  0.98239049  1
  Si0+  Si106  1  0.67691703  0.93022073  0.01468278  1
  Si0+  Si107  1  0.32330526  0.07005527  0.34723247  1
  Si0+  Si108  1  0.17899075  0.42349321  0.01685020  1
  Si0+  Si109  1  0.67419578  0.92843152  0.35169136  1
  Si0+  Si110  1  0.67907702  0.42738527  0.34985358  1
  Si0+  Si111  1  0.56882630  0.68155917  0.98455095  1
  Si0+  Si112  1  0.57310671  0.17573001  0.98112876  1
  Si0+  Si113  1  0.57353198  0.67872121  0.64792987  1
  Si0+  Si114  1  0.07278714  0.67690457  0.97986177  1
  Si0+  Si115  1  0.17937871  0.93136463  0.34705872  1
  Si0+  Si116  1  0.57471776  0.17821427  0.65040695  1
  Si0+  Si117  1  0.82216228  0.06896843  0.01707674  1
  Si0+  Si118  1  0.06863345  0.67954288  0.65274320  1
  Si0+  Si119  1  0.17799210  0.93047447  0.01803811  1
  O2-  O120  1  0.25168422  -0.00131295  0.05956627  1
  O2-  O121  1  0.25006729  0.00191982  0.39034186  1
  O2-  O122  1  0.25846708  0.00056001  0.72800301  1
  O2-  O123  1  0.24612781  0.49405483  0.05926718  1
  O2-  O124  1  0.25564435  0.49585407  0.39695178  1
  O2-  O125  1  0.25600522  0.49089790  0.73200862  1
  O2-  O126  1  0.74858621  0.00006566  0.05749235  1
  O2-  O127  1  0.74526945  -0.00432645  0.39424574  1
  O2-  O128  1  0.74557950  -0.00475465  0.72915035  1
  O2-  O129  1  0.75649030  0.49491773  0.06677334  1
  O2-  O130  1  0.75090783  0.49376667  0.39269509  1
  O2-  O131  1  0.75045060  0.50361093  0.72925211  1
  O2-  O132  1  0.00262307  0.25150617  0.27008715  1
  O2-  O133  1  0.00450066  0.25301609  0.61279075  1
  O2-  O134  1  0.00051710  0.25073149  0.94081674  1
  O2-  O135  1  -0.01009145  0.74155629  0.26989961  1
  O2-  O136  1  -0.00812777  0.74561932  0.61143959  1
  O2-  O137  1  -0.00112783  0.74064748  0.93557237  1
  O2-  O138  1  0.50481291  0.25525042  0.26829826  1
  O2-  O139  1  0.50555420  0.24704897  0.60811762  1
  O2-  O140  1  0.50913728  0.24885520  0.93763350  1
  O2-  O141  1  0.49973704  0.74253687  0.27106601  1
  O2-  O142  1  0.50067274  0.74488199  0.60611451  1
  O2-  O143  1  0.49371232  0.74927614  0.94230598  1
  O2-  O144  1  0.07004792  0.17452336  0.08679329  1
  O2-  O145  1  0.06874979  0.17306915  0.43368079  1
  O2-  O146  1  0.06749797  0.17433743  0.75904649  1
  O2-  O147  1  0.07514506  0.68050316  0.08489086  1
  O2-  O148  1  0.07202638  0.68083696  0.43259016  1
  O2-  O149  1  0.07041701  0.68278730  0.75800349  1
  O2-  O150  1  0.56962639  0.16884071  0.08576780  1
  O2-  O151  1  0.56954853  0.17899606  0.43294533  1
  O2-  O152  1  0.57277290  0.17494103  0.75621979  1
  O2-  O153  1  0.57074336  0.68545847  0.08929413  1
  O2-  O154  1  0.57847651  0.68256495  0.42008619  1
  O2-  O155  1  0.57491675  0.68162490  0.75407037  1
  O2-  O156  1  0.18258635  0.42711121  0.23290746  1
  O2-  O157  1  0.17587288  0.42439113  0.56917166  1
  O2-  O158  1  0.18014352  0.42225090  0.91110586  1
  O2-  O159  1  0.18048509  0.93323112  0.24161769  1
  O2-  O160  1  0.17786263  0.93080055  0.56748446  1
  O2-  O161  1  0.17875406  0.93081988  0.91265397  1
  O2-  O162  1  0.67920891  0.42934428  0.24424860  1
  O2-  O163  1  0.68349443  0.42779141  0.56650666  1
  O2-  O164  1  0.67913733  0.43195633  0.90412391  1
  O2-  O165  1  0.67211542  0.92982544  0.24561272  1
  O2-  O166  1  0.67300245  0.92913402  0.57901387  1
  O2-  O167  1  0.67536530  0.93246424  0.90951152  1
  O2-  O168  1  0.43068479  0.31894126  0.09767024  1
  O2-  O169  1  0.42961841  0.32127780  0.43211657  1
  O2-  O170  1  0.43091438  0.32042977  0.76586720  1
  O2-  O171  1  0.42885186  0.82490965  0.08992777  1
  O2-  O172  1  0.42783525  0.82059469  0.43246819  1
  O2-  O173  1  0.42910090  0.81800511  0.76819700  1
  O2-  O174  1  0.92838884  0.31930413  0.08850364  1
  O2-  O175  1  0.92838826  0.32045192  0.43501828  1
  O2-  O176  1  0.93158324  0.31622223  0.76156547  1
  O2-  O177  1  0.93148512  0.82205497  0.09666053  1
  O2-  O178  1  0.93365614  0.82340782  0.43562690  1
  O2-  O179  1  0.93106174  0.82499840  0.75749178  1
  O2-  O180  1  0.32293379  0.06648602  0.24165814  1
  O2-  O181  1  0.32250155  0.07109572  0.57717103  1
  O2-  O182  1  0.31906147  0.06819942  0.90952869  1
  O2-  O183  1  0.31805429  0.57394204  0.23493149  1
  O2-  O184  1  0.31348126  0.57355903  0.56740394  1
  O2-  O185  1  0.31914753  0.57208032  0.90122534  1
  O2-  O186  1  0.82123760  0.06565016  0.23275132  1
  O2-  O187  1  0.82293403  0.06926063  0.56904193  1
  O2-  O188  1  0.82270471  0.06772612  0.91159178  1
  O2-  O189  1  0.81846724  0.57208797  0.23235170  1
  O2-  O190  1  0.82437723  0.57292034  0.56673060  1
  O2-  O191  1  0.81578423  0.57317731  0.90171066  1
  O2-  O192  1  0.03938093  0.08180687  0.26290448  1
  O2-  O193  1  0.03617552  0.08601501  0.60763520  1
  O2-  O194  1  0.03929424  0.08740664  0.93315319  1
  O2-  O195  1  0.05028143  0.57829268  0.26438684  1
  O2-  O196  1  0.04574801  0.58562989  0.60761158  1
  O2-  O197  1  0.05598696  0.58049147  0.93582176  1
  O2-  O198  1  0.53938001  0.08296899  0.26375664  1
  O2-  O199  1  0.55153783  0.08451725  0.60345936  1
  O2-  O200  1  0.54220330  0.08420572  0.93137300  1
  O2-  O201  1  0.55504706  0.58417529  0.26938389  1
  O2-  O202  1  0.55359396  0.58464407  0.60233348  1
  O2-  O203  1  0.54257754  0.58934953  0.93805443  1
  O2-  O204  1  0.17088952  0.19958072  0.26470472  1
  O2-  O205  1  0.16398532  0.19449990  0.60725120  1
  O2-  O206  1  0.16251191  0.20235714  0.93374875  1
  O2-  O207  1  0.16245192  0.71633460  0.26081587  1
  O2-  O208  1  0.15731137  0.71497621  0.60526213  1
  O2-  O209  1  0.16351929  0.71270434  0.93263586  1
  O2-  O210  1  0.67158612  0.19935491  0.26585957  1
  O2-  O211  1  0.66980140  0.20441613  0.60796165  1
  O2-  O212  1  0.66977203  0.19519739  0.93818212  1
  O2-  O213  1  0.66335279  0.71244768  0.26449126  1
  O2-  O214  1  0.66521160  0.71029713  0.60034151  1
  O2-  O215  1  0.65757106  0.71407181  0.93374867  1
  O2-  O216  1  0.08387098  0.44690602  0.06018297  1
  O2-  O217  1  0.08306571  0.45484530  0.39944102  1
  O2-  O218  1  0.08406496  0.45801185  0.73915306  1
  O2-  O219  1  0.08736056  0.96381777  0.06358082  1
  O2-  O220  1  0.08858894  0.95997891  0.39535951  1
  O2-  O221  1  0.08781991  0.96435196  0.74002403  1
  O2-  O222  1  0.58366268  0.46360565  0.07108386  1
  O2-  O223  1  0.58694303  0.45691821  0.39660048  1
  O2-  O224  1  0.58232967  0.45987543  0.73351016  1
  O2-  O225  1  0.58495988  0.95840696  0.06257813  1
  O2-  O226  1  0.58107924  0.95691780  0.39740520  1
  O2-  O227  1  0.58248865  0.95636893  0.73265854  1
  O2-  O228  1  0.20440603  0.32885581  0.06043530  1
  O2-  O229  1  0.20603741  0.32527401  0.39749972  1
  O2-  O230  1  0.19953190  0.32252104  0.73280190  1
  O2-  O231  1  0.20251004  0.83853236  0.06551490  1
  O2-  O232  1  0.20779018  0.83969566  0.39295837  1
  O2-  O233  1  0.20970111  0.83462306  0.73927777  1
  O2-  O234  1  0.70015413  0.32601581  0.06605003  1
  O2-  O235  1  0.70063845  0.33213625  0.39314244  1
  O2-  O236  1  0.70762276  0.33299993  0.73762356  1
  O2-  O237  1  0.70272251  0.83818821  0.06125461  1
  O2-  O238  1  0.69552674  0.83487229  0.39849433  1
  O2-  O239  1  0.69902126  0.83545638  0.73074825  1
  O2-  O240  1  0.45660982  0.42469472  0.26811062  1
  O2-  O241  1  0.45919661  0.41920096  0.59879551  1
  O2-  O242  1  0.46192306  0.42003159  0.93418827  1
  O2-  O243  1  0.46072629  0.91360231  0.26250247  1
  O2-  O244  1  0.45628071  0.91729833  0.60150562  1
  O2-  O245  1  0.45647658  0.91365676  0.93686255  1
  O2-  O246  1  0.95740075  0.41873621  0.26457788  1
  O2-  O247  1  0.95437736  0.41481997  0.61260522  1
  O2-  O248  1  0.95483015  0.41305813  0.93604529  1
  O2-  O249  1  0.96460736  0.91392310  0.26521964  1
  O2-  O250  1  0.96483232  0.91358265  0.60733807  1
  O2-  O251  1  0.96500615  0.91445535  0.92928011  1
  O2-  O252  1  0.33449708  0.29083953  0.26294594  1
  O2-  O253  1  0.33278479  0.28817667  0.60044845  1
  O2-  O254  1  0.33611065  0.28662044  0.93042466  1
  O2-  O255  1  0.33179025  0.79304526  0.26217635  1
  O2-  O256  1  0.32872341  0.79073931  0.60279566  1
  O2-  O257  1  0.33166712  0.79848057  0.94186860  1
  O2-  O258  1  0.83295905  0.29075943  0.26521349  1
  O2-  O259  1  0.83918348  0.28919092  0.61066018  1
  O2-  O260  1  0.83641176  0.28980570  0.93722993  1
  O2-  O261  1  0.82445018  0.80506469  0.27338863  1
  O2-  O262  1  0.83319856  0.80779096  0.60729122  1
  O2-  O263  1  0.82960644  0.79555813  0.93034268  1
  O2-  O264  1  0.41312663  0.04272142  0.06112134  1
  O2-  O265  1  0.41326763  0.03819296  0.39498621  1
  O2-  O266  1  0.41930465  0.04955651  0.72798230  1
  O2-  O267  1  0.41646084  0.54545760  0.06788002  1
  O2-  O268  1  0.42461592  0.55743484  0.39771166  1
  O2-  O269  1  0.42162353  0.55018620  0.72889235  1
  O2-  O270  1  0.91390526  0.03757996  0.06177830  1
  O2-  O271  1  0.91679735  0.03641465  0.40007665  1
  O2-  O272  1  0.91454448  0.03634354  0.74026512  1
  O2-  O273  1  0.92426341  0.54999298  0.06100711  1
  O2-  O274  1  0.92002520  0.54466460  0.39701352  1
  O2-  O275  1  0.91978985  0.54769472  0.73706988  1
  O2-  O276  1  0.29074102  0.16155489  0.06100883  1
  O2-  O277  1  0.29934909  0.16288020  0.39282216  1
  O2-  O278  1  0.29439411  0.16244583  0.73152130  1
  O2-  O279  1  0.28729994  0.66834860  0.06725863  1
  O2-  O280  1  0.28645148  0.67197353  0.39806000  1
  O2-  O281  1  0.28458561  0.66495022  0.73602585  1
  O2-  O282  1  0.79806294  0.16164217  0.06322376  1
  O2-  O283  1  0.79154775  0.16659293  0.40072309  1
  O2-  O284  1  0.79096463  0.16393593  0.74032656  1
  O2-  O285  1  0.78766030  0.67073809  0.06517225  1
  O2-  O286  1  0.78891933  0.66842240  0.39887587  1
  O2-  O287  1  0.79579843  0.67550608  0.72972242  1
