# generated using pymatgen
data_Ca2Al2SiO7
_symmetry_space_group_name_H-M   'P 1'
_cell_length_a   15.45743933
_cell_length_b   15.45684528
_cell_length_c   15.28345123
_cell_angle_alpha   90.00167417
_cell_angle_beta   90.00636255
_cell_angle_gamma   90.00100045
_symmetry_Int_Tables_number   1
_chemical_formula_structural   Ca2Al2SiO7
_chemical_formula_sum   'Ca48 Al48 Si24 O168'
_cell_volume   3651.57178563
_cell_formula_units_Z   24
loop_
 _symmetry_equiv_pos_site_id
 _symmetry_equiv_pos_as_xyz
  1  'x, y, z'
loop_
 _atom_type_symbol
 _atom_type_oxidation_number
  Ca2+  2.0
  Al0+  0.0
  Si0+  0.0
  O2-  -2.0
loop_
 _atom_site_type_symbol
 _atom_site_label
 _atom_site_symmetry_multiplicity
 _atom_site_fract_x
 _atom_site_fract_y
 _atom_site_fract_z
 _atom_site_occupancy
  Ca2+  Ca0  1  0.17018350  0.07678824  0.16549214  1
  Ca2+  Ca1  1  0.17447599  0.08698550  0.51080590  1
  Ca2+  Ca2  1  0.17850299  0.08332345  0.84088771  1
  Ca2+  Ca3  1  0.16916388  0.58483884  0.16539722  1
  Ca2+  Ca4  1  0.16195853  0.58639598  0.50484479  1
  Ca2+  Ca5  1  0.16958821  0.58088925  0.84122114  1
  Ca2+  Ca6  1  0.66344897  0.07482440  0.17165138  1
  Ca2+  Ca7  1  0.66437654  0.07910283  0.50285303  1
  Ca2+  Ca8  1  0.65878891  0.07467997  0.83680665  1
  Ca2+  Ca9  1  0.67350382  0.58077998  0.16533029  1
  Ca2+  Ca10  1  0.66655800  0.57486247  0.51330621  1
  Ca2+  Ca11  1  0.66489288  0.57222366  0.83994851  1
  Ca2+  Ca12  1  0.07884588  0.33480052  0.16262624  1
  Ca2+  Ca13  1  0.07114388  0.32697226  0.49849644  1
  Ca2+  Ca14  1  0.08054369  0.33196101  0.82519292  1
  Ca2+  Ca15  1  0.07746285  0.83232477  0.15674890  1
  Ca2+  Ca16  1  0.08680590  0.82130455  0.49644808  1
  Ca2+  Ca17  1  0.07967159  0.83224259  0.83185093  1
  Ca2+  Ca18  1  0.58965301  0.31931756  0.15914507  1
  Ca2+  Ca19  1  0.59265695  0.31958695  0.49917667  1
  Ca2+  Ca20  1  0.59094273  0.32403040  0.82888057  1
  Ca2+  Ca21  1  0.58146321  0.83878753  0.15617526  1
  Ca2+  Ca22  1  0.58142978  0.84188980  0.50318104  1
  Ca2+  Ca23  1  0.57493601  0.83498309  0.82705715  1
  Ca2+  Ca24  1  0.32894968  0.42044600  0.16362195  1
  Ca2+  Ca25  1  0.33152601  0.41900883  0.50613291  1
  Ca2+  Ca26  1  0.32626433  0.42521537  0.84447197  1
  Ca2+  Ca27  1  0.33460870  0.91808285  0.16073585  1
  Ca2+  Ca28  1  0.33443891  0.92200337  0.50949222  1
  Ca2+  Ca29  1  0.33503059  0.92232502  0.83961425  1
  Ca2+  Ca30  1  0.83236170  0.41794217  0.16551195  1
  Ca2+  Ca31  1  0.83332458  0.41302085  0.50622561  1
  Ca2+  Ca32  1  0.82643543  0.42039149  0.83726889  1
  Ca2+  Ca33  1  0.82289135  0.91929280  0.17278296  1
  Ca2+  Ca34  1  0.82215968  0.92247817  0.50429759  1
  Ca2+  Ca35  1  0.82200961  0.91215849  0.84078683  1
  Ca2+  Ca36  1  0.42789233  0.16106943  0.15867258  1
  Ca2+  Ca37  1  0.42805684  0.15966530  0.50122496  1
  Ca2+  Ca38  1  0.42426118  0.15865096  0.83014686  1
  Ca2+  Ca39  1  0.41846807  0.67325770  0.15620366  1
  Ca2+  Ca40  1  0.42493119  0.67236890  0.50196985  1
  Ca2+  Ca41  1  0.41725942  0.67672775  0.82774697  1
  Ca2+  Ca42  1  0.90850717  0.17024729  0.16462220  1
  Ca2+  Ca43  1  0.90769521  0.17706850  0.49715302  1
  Ca2+  Ca44  1  0.92602611  0.17431222  0.82361859  1
  Ca2+  Ca45  1  0.91901131  0.67099593  0.15853517  1
  Ca2+  Ca46  1  0.92733147  0.66609884  0.49719482  1
  Ca2+  Ca47  1  0.91674808  0.66919281  0.83283641  1
  Al0+  Al48  1  0.00016229  0.00054996  -0.00265686  1
  Al0+  Al49  1  0.00009709  0.00013935  0.34008031  1
  Al0+  Al50  1  0.00084393  -0.00048629  0.66238974  1
  Al0+  Al51  1  -0.00059045  0.49999874  0.00596645  1
  Al0+  Al52  1  0.00121696  0.49889737  0.32509414  1
  Al0+  Al53  1  -0.00074592  0.50058571  0.66002275  1
  Al0+  Al54  1  0.50047483  -0.00058416  -0.00061504  1
  Al0+  Al55  1  0.49788251  -0.00034209  0.33293470  1
  Al0+  Al56  1  0.49923708  0.00079847  0.66644812  1
  Al0+  Al57  1  0.49958945  0.49688219  0.01001322  1
  Al0+  Al58  1  0.49848005  0.50146919  0.33336784  1
  Al0+  Al59  1  0.49958650  0.50065908  0.66890623  1
  Al0+  Al60  1  0.25199544  0.25061461  0.00949464  1
  Al0+  Al61  1  0.24870574  0.25182210  0.33424245  1
  Al0+  Al62  1  0.25069152  0.25094216  0.66774348  1
  Al0+  Al63  1  0.24985768  0.75066105  0.00258925  1
  Al0+  Al64  1  0.25195954  0.74891445  0.32969751  1
  Al0+  Al65  1  0.24989238  0.75154907  0.65875705  1
  Al0+  Al66  1  0.75081520  0.24962871  -0.00428335  1
  Al0+  Al67  1  0.74946039  0.24979639  0.32629605  1
  Al0+  Al68  1  0.75018185  0.25003027  0.66431035  1
  Al0+  Al69  1  0.75035146  0.74881181  0.00329011  1
  Al0+  Al70  1  0.74994382  0.74845213  0.33986897  1
  Al0+  Al71  1  0.75062917  0.74938145  0.66668444  1
  Al0+  Al72  1  0.82076766  0.07305157  0.34867779  1
  Al0+  Al73  1  0.82042686  0.57112187  0.01503299  1
  Al0+  Al74  1  0.57244886  0.67675060  0.65395508  1
  Al0+  Al75  1  0.92709231  0.82232576  0.98746376  1
  Al0+  Al76  1  0.56748873  0.18002276  0.31828402  1
  Al0+  Al77  1  0.07438173  0.17762517  0.65314027  1
  Al0+  Al78  1  0.17638638  0.92921413  0.01354614  1
  Al0+  Al79  1  0.42943993  0.81924350  0.98619123  1
  Al0+  Al80  1  0.31947114  0.07103810  0.68035531  1
  Al0+  Al81  1  0.32258641  0.07004985  0.01644792  1
  Al0+  Al82  1  0.32144992  0.57298393  0.01464219  1
  Al0+  Al83  1  0.67985754  0.93007688  0.01141299  1
  Al0+  Al84  1  0.92962315  0.31962931  0.65252701  1
  Al0+  Al85  1  0.06948456  0.68125763  0.65513960  1
  Al0+  Al86  1  0.92959731  0.31826023  0.31592733  1
  Al0+  Al87  1  0.07136709  0.68040887  0.31594835  1
  Al0+  Al88  1  0.56940668  0.17994841  0.65349922  1
  Al0+  Al89  1  0.57056733  0.18012653  0.98422838  1
  Al0+  Al90  1  0.17762135  0.42827781  0.01536245  1
  Al0+  Al91  1  0.67883661  0.42801288  0.67936942  1
  Al0+  Al92  1  0.67644451  0.92807180  0.35030334  1
  Al0+  Al93  1  0.68067265  0.92999319  0.68277633  1
  Al0+  Al94  1  0.67910359  0.42540060  0.01636377  1
  Al0+  Al95  1  0.43050352  0.82143504  0.65063346  1
  Si0+  Si96  1  0.07491547  0.17630561  0.31561843  1
  Si0+  Si97  1  0.32061086  0.57215517  0.35159524  1
  Si0+  Si98  1  0.92737704  0.82225684  0.31829786  1
  Si0+  Si99  1  0.67922315  0.43049845  0.34774492  1
  Si0+  Si100  1  0.42692553  0.32463418  0.65212912  1
  Si0+  Si101  1  0.82380000  0.07229891  0.01284934  1
  Si0+  Si102  1  0.32033078  0.57293823  0.67975299  1
  Si0+  Si103  1  0.82430108  0.57153115  0.68176809  1
  Si0+  Si104  1  0.93050765  0.32185518  0.98366837  1
  Si0+  Si105  1  0.17949111  0.92696011  0.34889659  1
  Si0+  Si106  1  0.42661639  0.32278150  0.98429350  1
  Si0+  Si107  1  0.42521792  0.32500995  0.31586870  1
  Si0+  Si108  1  0.92521578  0.82382519  0.64839808  1
  Si0+  Si109  1  0.82380896  0.07276989  0.68417702  1
  Si0+  Si110  1  0.43148683  0.81948731  0.31694406  1
  Si0+  Si111  1  0.17707439  0.92528298  0.68164863  1
  Si0+  Si112  1  0.07069937  0.67818113  0.98387986  1
  Si0+  Si113  1  0.31873803  0.07108136  0.34892318  1
  Si0+  Si114  1  0.82305425  0.56970051  0.34971712  1
  Si0+  Si115  1  0.17845079  0.43129122  0.67872315  1
  Si0+  Si116  1  0.07344291  0.17959635  0.98688106  1
  Si0+  Si117  1  0.57268945  0.67622489  0.31815672  1
  Si0+  Si118  1  0.57262322  0.67475621  0.98596408  1
  Si0+  Si119  1  0.17832526  0.43020976  0.35124606  1
  O2-  O120  1  0.24902642  -0.00080480  0.06615351  1
  O2-  O121  1  0.24521056  0.00276563  0.39140530  1
  O2-  O122  1  0.24107189  -0.00127851  0.72438008  1
  O2-  O123  1  0.24883526  0.50143914  0.06532628  1
  O2-  O124  1  0.24993968  0.50067195  0.39440666  1
  O2-  O125  1  0.24945718  0.50169409  0.72134570  1
  O2-  O126  1  0.75637313  0.00288163  0.05745694  1
  O2-  O127  1  0.74933014  0.00032237  0.39869115  1
  O2-  O128  1  0.75795071  0.00237567  0.72948892  1
  O2-  O129  1  0.74895451  0.49930548  0.06673251  1
  O2-  O130  1  0.74972777  0.50112592  0.39209133  1
  O2-  O131  1  0.75107980  0.50650823  0.72375738  1
  O2-  O132  1  0.00229056  0.24024537  0.27053417  1
  O2-  O133  1  -0.00197068  0.24407117  0.60187709  1
  O2-  O134  1  0.00394078  0.25210916  0.94398388  1
  O2-  O135  1  -0.00313998  0.75578939  0.27166044  1
  O2-  O136  1  -0.00323126  0.75670063  0.60584539  1
  O2-  O137  1  0.00262391  0.74765164  0.94058140  1
  O2-  O138  1  0.49302102  0.25568942  0.27224941  1
  O2-  O139  1  0.49659107  0.25735911  0.60712089  1
  O2-  O140  1  0.49611572  0.25635566  0.93874436  1
  O2-  O141  1  0.50708326  0.75240337  0.27644220  1
  O2-  O142  1  0.50494914  0.75139869  0.60044894  1
  O2-  O143  1  0.50234098  0.74159270  0.94175677  1
  O2-  O144  1  0.07076264  0.17892868  0.09215064  1
  O2-  O145  1  0.08067940  0.18133671  0.42065695  1
  O2-  O146  1  0.07540156  0.18282531  0.76700821  1
  O2-  O147  1  0.06931970  0.67912866  0.08961529  1
  O2-  O148  1  0.07082725  0.68063465  0.42949511  1
  O2-  O149  1  0.06976085  0.67946793  0.76784080  1
  O2-  O150  1  0.56979252  0.17955986  0.09767106  1
  O2-  O151  1  0.56607149  0.18037393  0.43162997  1
  O2-  O152  1  0.56820698  0.17987706  0.76613546  1
  O2-  O153  1  0.57239289  0.67779787  0.09232709  1
  O2-  O154  1  0.56878717  0.67007860  0.42271418  1
  O2-  O155  1  0.56732655  0.67326315  0.76706445  1
  O2-  O156  1  0.18013686  0.42978878  0.24662630  1
  O2-  O157  1  0.17958931  0.43270046  0.57330793  1
  O2-  O158  1  0.17729205  0.42942061  0.90102849  1
  O2-  O159  1  0.18044600  0.92655182  0.24415062  1
  O2-  O160  1  0.18096935  0.92270480  0.57545912  1
  O2-  O161  1  0.17468970  0.93182030  0.90013809  1
  O2-  O162  1  0.68016402  0.43281159  0.24303557  1
  O2-  O163  1  0.68059517  0.42817992  0.56543336  1
  O2-  O164  1  0.68198777  0.42543763  0.90269103  1
  O2-  O165  1  0.67615084  0.92779578  0.23666149  1
  O2-  O166  1  0.68109740  0.93297150  0.56962889  1
  O2-  O167  1  0.67901471  0.93055448  0.89842574  1
  O2-  O168  1  0.42653744  0.32095598  0.09012591  1
  O2-  O169  1  0.42412638  0.32691541  0.42160993  1
  O2-  O170  1  0.42442065  0.32624466  0.75719928  1
  O2-  O171  1  0.43246199  0.81900275  0.10009110  1
  O2-  O172  1  0.42881512  0.81855955  0.42188722  1
  O2-  O173  1  0.42805886  0.81943222  0.76380656  1
  O2-  O174  1  0.92967387  0.31978727  0.08888966  1
  O2-  O175  1  0.93120882  0.32057048  0.42882608  1
  O2-  O176  1  0.93334152  0.32217875  0.76622200  1
  O2-  O177  1  0.92826160  0.82185002  0.10083841  1
  O2-  O178  1  0.92908220  0.81877405  0.42400432  1
  O2-  O179  1  0.92469806  0.82281960  0.75395918  1
  O2-  O180  1  0.31930880  0.06934285  0.24424155  1
  O2-  O181  1  0.31916943  0.06951054  0.56626010  1
  O2-  O182  1  0.32086912  0.06997507  0.90300532  1
  O2-  O183  1  0.32082860  0.57242985  0.24707193  1
  O2-  O184  1  0.31979580  0.57101211  0.57412815  1
  O2-  O185  1  0.31873007  0.57219287  0.90048223  1
  O2-  O186  1  0.81982649  0.07069811  0.23481156  1
  O2-  O187  1  0.82128994  0.07296078  0.57854742  1
  O2-  O188  1  0.82485037  0.07243618  0.90736928  1
  O2-  O189  1  0.82139634  0.57072436  0.24500796  1
  O2-  O190  1  0.82702869  0.56870337  0.57564904  1
  O2-  O191  1  0.82201486  0.56883979  0.90133444  1
  O2-  O192  1  0.05433470  0.07918719  0.27501232  1
  O2-  O193  1  0.05542053  0.07657046  0.60136595  1
  O2-  O194  1  0.04584208  0.08927426  0.93717267  1
  O2-  O195  1  0.04177060  0.58403299  0.26242733  1
  O2-  O196  1  0.03834450  0.58648724  0.59661390  1
  O2-  O197  1  0.04413158  0.58383420  0.93952744  1
  O2-  O198  1  0.53428883  0.08327491  0.26556317  1
  O2-  O199  1  0.53476149  0.08588312  0.59767662  1
  O2-  O200  1  0.53656545  0.08433376  0.93149687  1
  O2-  O201  1  0.53963744  0.58698927  0.26813131  1
  O2-  O202  1  0.53921673  0.58007274  0.59797951  1
  O2-  O203  1  0.54874348  0.57855446  0.94488493  1
  O2-  O204  1  0.16667054  0.20715486  0.26757136  1
  O2-  O205  1  0.17038154  0.21203912  0.59784899  1
  O2-  O206  1  0.16676667  0.20741135  0.94298365  1
  O2-  O207  1  0.16903074  0.71033755  0.26383283  1
  O2-  O208  1  0.16448091  0.71036114  0.59587597  1
  O2-  O209  1  0.16478137  0.70253720  0.93912599  1
  O2-  O210  1  0.66314324  0.21052618  0.26340994  1
  O2-  O211  1  0.66577886  0.20985006  0.59864001  1
  O2-  O212  1  0.66752033  0.20981771  0.92976326  1
  O2-  O213  1  0.66773941  0.69853881  0.27493132  1
  O2-  O214  1  0.67313283  0.69793018  0.60228220  1
  O2-  O215  1  0.66614437  0.69943834  0.94084606  1
  O2-  O216  1  0.08064488  0.45589492  0.07074124  1
  O2-  O217  1  0.08629948  0.46051045  0.39648040  1
  O2-  O218  1  0.08674683  0.46035466  0.72506083  1
  O2-  O219  1  0.07915426  0.96045714  0.06871401  1
  O2-  O220  1  0.08631800  0.94688108  0.39714593  1
  O2-  O221  1  0.08030977  0.94354369  0.72375440  1
  O2-  O222  1  0.58050622  0.44730728  0.07127602  1
  O2-  O223  1  0.58612469  0.45742384  0.39361992  1
  O2-  O224  1  0.58141471  0.45609617  0.73346845  1
  O2-  O225  1  0.58539332  0.96322520  0.06703922  1
  O2-  O226  1  0.57745834  0.95877683  0.40169945  1
  O2-  O227  1  0.58375859  0.96304457  0.73383425  1
  O2-  O228  1  0.20654534  0.33242677  0.07334136  1
  O2-  O229  1  0.20538939  0.33794295  0.39899254  1
  O2-  O230  1  0.20545381  0.34013123  0.72691578  1
  O2-  O231  1  0.20257654  0.83109036  0.06734296  1
  O2-  O232  1  0.21420120  0.83644060  0.39563286  1
  O2-  O233  1  0.20683950  0.83301606  0.72793324  1
  O2-  O234  1  0.71383129  0.32835776  0.06863943  1
  O2-  O235  1  0.70792680  0.33783257  0.39193457  1
  O2-  O236  1  0.71224185  0.33249803  0.73335775  1
  O2-  O237  1  0.70726662  0.83327695  0.06615831  1
  O2-  O238  1  0.70283929  0.82852407  0.40343136  1
  O2-  O239  1  0.70815126  0.83076070  0.73364503  1
  O2-  O240  1  0.45059052  0.41916189  0.27039848  1
  O2-  O241  1  0.45000260  0.41832597  0.60467023  1
  O2-  O242  1  0.44895043  0.41859781  0.94107559  1
  O2-  O243  1  0.45442636  0.91257739  0.27029492  1
  O2-  O244  1  0.45929202  0.91907691  0.59654533  1
  O2-  O245  1  0.46244755  0.91465756  0.93259338  1
  O2-  O246  1  0.96402346  0.41309798  0.26091275  1
  O2-  O247  1  0.96089959  0.41577334  0.59608586  1
  O2-  O248  1  0.95765453  0.41467803  0.93850866  1
  O2-  O249  1  0.95124866  0.91772770  0.27568894  1
  O2-  O250  1  0.94768101  0.91777836  0.60172207  1
  O2-  O251  1  0.95698872  0.91828551  0.93117974  1
  O2-  O252  1  0.33069346  0.30019294  0.27116335  1
  O2-  O253  1  0.33424222  0.29840074  0.60374094  1
  O2-  O254  1  0.33178567  0.29787330  0.93990453  1
  O2-  O255  1  0.34170320  0.78684674  0.26864543  1
  O2-  O256  1  0.33394838  0.79112654  0.59404882  1
  O2-  O257  1  0.33099735  0.79194348  0.93388091  1
  O2-  O258  1  0.83334858  0.29030936  0.26001976  1
  O2-  O259  1  0.83178791  0.29262286  0.59758908  1
  O2-  O260  1  0.84024993  0.29257201  0.93477753  1
  O2-  O261  1  0.83298617  0.79440092  0.27456554  1
  O2-  O262  1  0.83374076  0.79513222  0.60010626  1
  O2-  O263  1  0.83176913  0.78801710  0.93265995  1
  O2-  O264  1  0.41845838  0.03602167  0.07057759  1
  O2-  O265  1  0.40903097  0.03936921  0.39672276  1
  O2-  O266  1  0.41451812  0.03751601  0.73399750  1
  O2-  O267  1  0.41787381  0.54473060  0.07225886  1
  O2-  O268  1  0.41269450  0.54382598  0.39921633  1
  O2-  O269  1  0.41103035  0.54636149  0.72853876  1
  O2-  O270  1  0.91735568  0.05006374  0.06012378  1
  O2-  O271  1  0.92071961  0.04962055  0.40296479  1
  O2-  O272  1  0.92031456  0.05083706  0.72674068  1
  O2-  O273  1  0.91751824  0.54280354  0.07052047  1
  O2-  O274  1  0.91540027  0.53832228  0.39414060  1
  O2-  O275  1  0.91614471  0.54089738  0.72887738  1
  O2-  O276  1  0.29716184  0.16784435  0.07163514  1
  O2-  O277  1  0.29421707  0.16481062  0.39482164  1
  O2-  O278  1  0.29213948  0.16898201  0.73405516  1
  O2-  O279  1  0.29256542  0.66973404  0.07041763  1
  O2-  O280  1  0.29173595  0.66398872  0.39863634  1
  O2-  O281  1  0.29026763  0.66488942  0.72450811  1
  O2-  O282  1  0.79692241  0.16551499  0.05842949  1
  O2-  O283  1  0.78922009  0.17215161  0.39913980  1
  O2-  O284  1  0.79794065  0.16652179  0.72908322  1
  O2-  O285  1  0.79217111  0.66788955  0.07177146  1
  O2-  O286  1  0.79953439  0.66180017  0.39872625  1
  O2-  O287  1  0.80490037  0.66672892  0.72604470  1
