# generated using pymatgen
data_Ca2Al2SiO7
_symmetry_space_group_name_H-M   'P 1'
_cell_length_a   15.46807449
_cell_length_b   15.46757508
_cell_length_c   15.29145787
_cell_angle_alpha   90.00045084
_cell_angle_beta   89.99136867
_cell_angle_gamma   90.01391027
_symmetry_Int_Tables_number   1
_chemical_formula_structural   Ca2Al2SiO7
_chemical_formula_sum   'Ca48 Al48 Si24 O168'
_cell_volume   3658.53624754
_cell_formula_units_Z   24
loop_
 _symmetry_equiv_pos_site_id
 _symmetry_equiv_pos_as_xyz
  1  'x, y, z'
loop_
 _atom_type_symbol
 _atom_type_oxidation_number
  Ca2+  2.0
  Al0+  0.0
  Si0+  0.0
  O2-  -2.0
loop_
 _atom_site_type_symbol
 _atom_site_label
 _atom_site_symmetry_multiplicity
 _atom_site_fract_x
 _atom_site_fract_y
 _atom_site_fract_z
 _atom_site_occupancy
  Ca2+  Ca0  1  0.16450383  0.07376569  0.16544457  1
  Ca2+  Ca1  1  0.16183122  0.07371385  0.50072500  1
  Ca2+  Ca2  1  0.17051221  0.07542233  0.84865205  1
  Ca2+  Ca3  1  0.16668311  0.57887629  0.17151315  1
  Ca2+  Ca4  1  0.16481894  0.57618797  0.49627217  1
  Ca2+  Ca5  1  0.16987085  0.57295583  0.84359163  1
  Ca2+  Ca6  1  0.67828165  0.08605002  0.17402806  1
  Ca2+  Ca7  1  0.66918967  0.08902117  0.49614245  1
  Ca2+  Ca8  1  0.67303872  0.08213954  0.84172071  1
  Ca2+  Ca9  1  0.67671458  0.58364333  0.17166375  1
  Ca2+  Ca10  1  0.67263844  0.58307927  0.49660478  1
  Ca2+  Ca11  1  0.67346254  0.58416193  0.84377799  1
  Ca2+  Ca12  1  0.08207854  0.33170835  0.15483668  1
  Ca2+  Ca13  1  0.08150738  0.34010422  0.49758682  1
  Ca2+  Ca14  1  0.07525242  0.34044211  0.83231752  1
  Ca2+  Ca15  1  0.08652105  0.82495273  0.16478881  1
  Ca2+  Ca16  1  0.08018887  0.82607508  0.48482614  1
  Ca2+  Ca17  1  0.09135261  0.82577540  0.83837088  1
  Ca2+  Ca18  1  0.58880142  0.33165793  0.16691850  1
  Ca2+  Ca19  1  0.57913335  0.33437474  0.49070332  1
  Ca2+  Ca20  1  0.57251855  0.33220519  0.82822773  1
  Ca2+  Ca21  1  0.57466311  0.82474225  0.15566160  1
  Ca2+  Ca22  1  0.57433844  0.83422741  0.49656634  1
  Ca2+  Ca23  1  0.57199195  0.82779608  0.83419361  1
  Ca2+  Ca24  1  0.32167258  0.42805395  0.17142845  1
  Ca2+  Ca25  1  0.32407676  0.41947903  0.50413655  1
  Ca2+  Ca26  1  0.32263624  0.41574324  0.84204263  1
  Ca2+  Ca27  1  0.32206601  0.91126223  0.16491609  1
  Ca2+  Ca28  1  0.32774075  0.91370637  0.50145520  1
  Ca2+  Ca29  1  0.33448543  0.92088889  0.84518187  1
  Ca2+  Ca30  1  0.83525892  0.42808247  0.16953832  1
  Ca2+  Ca31  1  0.83183434  0.41928330  0.49886640  1
  Ca2+  Ca32  1  0.83463017  0.41531345  0.84108435  1
  Ca2+  Ca33  1  0.84442904  0.92906625  0.17178975  1
  Ca2+  Ca34  1  0.84122358  0.92419062  0.49876400  1
  Ca2+  Ca35  1  0.83121839  0.92456901  0.84372785  1
  Ca2+  Ca36  1  0.42251904  0.16280853  0.16220239  1
  Ca2+  Ca37  1  0.42222593  0.17599297  0.49394372  1
  Ca2+  Ca38  1  0.40976356  0.17224702  0.82933770  1
  Ca2+  Ca39  1  0.41818873  0.66324411  0.15535013  1
  Ca2+  Ca40  1  0.41006380  0.67006191  0.49440454  1
  Ca2+  Ca41  1  0.40684239  0.67676687  0.83644009  1
  Ca2+  Ca42  1  0.91968848  0.17091169  0.15688987  1
  Ca2+  Ca43  1  0.91487754  0.17345551  0.49414043  1
  Ca2+  Ca44  1  0.92152195  0.17533953  0.83614515  1
  Ca2+  Ca45  1  0.92476869  0.66262880  0.16145795  1
  Ca2+  Ca46  1  0.92263757  0.67308967  0.48603811  1
  Ca2+  Ca47  1  0.92540434  0.65633963  0.83587135  1
  Al0+  Al48  1  0.00013737  0.00001829  0.00232365  1
  Al0+  Al49  1  -0.00003567  0.00213089  0.34028184  1
  Al0+  Al50  1  0.00020379  0.00041882  0.67033100  1
  Al0+  Al51  1  -0.00282380  0.49968140  -0.00148982  1
  Al0+  Al52  1  -0.00060441  0.50151316  0.33719632  1
  Al0+  Al53  1  0.00043017  0.49955632  0.66423318  1
  Al0+  Al54  1  0.50137952  -0.00088015  -0.00093715  1
  Al0+  Al55  1  0.50092026  0.00273121  0.32918413  1
  Al0+  Al56  1  0.50130399  -0.00245461  0.66244397  1
  Al0+  Al57  1  0.50109127  0.49659890  -0.00247047  1
  Al0+  Al58  1  0.49868866  0.50174561  0.33975449  1
  Al0+  Al59  1  0.50168815  0.50115211  0.66301415  1
  Al0+  Al60  1  0.25089096  0.24646326  0.00522975  1
  Al0+  Al61  1  0.25087235  0.25052491  0.33563149  1
  Al0+  Al62  1  0.24947140  0.24797119  0.66420643  1
  Al0+  Al63  1  0.25001141  0.75002088  -0.00322586  1
  Al0+  Al64  1  0.24790494  0.75132064  0.33753829  1
  Al0+  Al65  1  0.24976432  0.74904396  0.66149240  1
  Al0+  Al66  1  0.75025294  0.24898776  -0.00146698  1
  Al0+  Al67  1  0.74956733  0.24937070  0.33715140  1
  Al0+  Al68  1  0.75239138  0.25063519  0.66457870  1
  Al0+  Al69  1  0.74931205  0.74962942  -0.00072828  1
  Al0+  Al70  1  0.74711711  0.75472620  0.33368087  1
  Al0+  Al71  1  0.75040972  0.75128645  0.66772481  1
  Al0+  Al72  1  0.68028751  0.42960415  0.34778907  1
  Al0+  Al73  1  0.07032898  0.67835781  0.98590074  1
  Al0+  Al74  1  0.93027673  0.32089265  0.64993164  1
  Al0+  Al75  1  0.18069017  0.93198167  0.34803676  1
  Al0+  Al76  1  0.42725006  0.32164365  0.65280114  1
  Al0+  Al77  1  0.92678265  0.82458337  0.31851493  1
  Al0+  Al78  1  0.92930002  0.32069866  0.98650120  1
  Al0+  Al79  1  0.82105367  0.57496430  0.34857267  1
  Al0+  Al80  1  0.17981169  0.42876706  0.68198277  1
  Al0+  Al81  1  0.42872384  0.81976967  0.98613489  1
  Al0+  Al82  1  0.32450983  0.07201825  0.01529293  1
  Al0+  Al83  1  0.17751349  0.42647982  0.34877856  1
  Al0+  Al84  1  0.07306945  0.17695624  0.98646867  1
  Al0+  Al85  1  0.57054237  0.18199195  0.31825332  1
  Al0+  Al86  1  0.81985429  0.57142085  0.01198758  1
  Al0+  Al87  1  0.32210589  0.56987464  0.01148562  1
  Al0+  Al88  1  0.32035966  0.57248325  0.34868918  1
  Al0+  Al89  1  0.17699631  0.42857290  0.01375188  1
  Al0+  Al90  1  0.82052336  0.07018249  0.34874374  1
  Al0+  Al91  1  0.06937871  0.67909979  0.31676061  1
  Al0+  Al92  1  0.42962839  0.81934144  0.65050457  1
  Al0+  Al93  1  0.57284984  0.67494764  0.98531957  1
  Al0+  Al94  1  0.81954226  0.07051534  0.01311467  1
  Al0+  Al95  1  0.17887123  0.92729294  0.01485321  1
  Si0+  Si96  1  0.06940705  0.67988546  0.65094180  1
  Si0+  Si97  1  0.82116714  0.07206686  0.68397884  1
  Si0+  Si98  1  0.32201775  0.06783743  0.67890548  1
  Si0+  Si99  1  0.42893779  0.31891727  0.98675836  1
  Si0+  Si100  1  0.57221356  0.17848978  0.98499261  1
  Si0+  Si101  1  0.32323215  0.57285375  0.68374200  1
  Si0+  Si102  1  0.67700637  0.42598097  0.01405214  1
  Si0+  Si103  1  0.92831411  0.82285016  0.65362619  1
  Si0+  Si104  1  0.57578431  0.67888519  0.64765878  1
  Si0+  Si105  1  0.92784535  0.82253840  0.98312018  1
  Si0+  Si106  1  0.57000110  0.67861141  0.31885879  1
  Si0+  Si107  1  0.07232238  0.17908550  0.32027798  1
  Si0+  Si108  1  0.67402387  0.93014082  0.35076441  1
  Si0+  Si109  1  0.17861529  0.92757053  0.68211943  1
  Si0+  Si110  1  0.67894729  0.42776207  0.68209984  1
  Si0+  Si111  1  0.67875893  0.92909364  0.68275402  1
  Si0+  Si112  1  0.42843811  0.82148972  0.31835416  1
  Si0+  Si113  1  0.57235586  0.17868388  0.65076742  1
  Si0+  Si114  1  0.07099710  0.17523489  0.64886104  1
  Si0+  Si115  1  0.67827520  0.92749312  0.01682096  1
  Si0+  Si116  1  0.42735997  0.32471736  0.31510953  1
  Si0+  Si117  1  0.32543585  0.07213811  0.35158603  1
  Si0+  Si118  1  0.81972387  0.57123016  0.68131034  1
  Si0+  Si119  1  0.92976661  0.32035003  0.31969428  1
  O2-  O120  1  0.25158872  -0.00003094  0.06302913  1
  O2-  O121  1  0.25509131  0.00611972  0.39737113  1
  O2-  O122  1  0.25098798  -0.00232761  0.72249291  1
  O2-  O123  1  0.24656056  0.50312342  0.06273790  1
  O2-  O124  1  0.25043530  0.49817952  0.39837701  1
  O2-  O125  1  0.25873407  0.50007474  0.72705625  1
  O2-  O126  1  0.74817010  -0.00604795  0.06146929  1
  O2-  O127  1  0.74738385  -0.00629243  0.39607116  1
  O2-  O128  1  0.74972695  0.00055837  0.72468566  1
  O2-  O129  1  0.74273603  0.49818838  0.05592330  1
  O2-  O130  1  0.75082311  0.50186353  0.40020567  1
  O2-  O131  1  0.74848728  0.50023974  0.72377782  1
  O2-  O132  1  0.00651067  0.25512612  0.27913482  1
  O2-  O133  1  0.00512061  0.24601220  0.60364673  1
  O2-  O134  1  0.00508089  0.25246258  0.93564431  1
  O2-  O135  1  -0.00636172  0.74851053  0.26832007  1
  O2-  O136  1  -0.00020193  0.75346517  0.61092887  1
  O2-  O137  1  -0.00521920  0.75272565  0.93748453  1
  O2-  O138  1  0.49635731  0.25628474  0.27042029  1
  O2-  O139  1  0.50498699  0.24876080  0.60718818  1
  O2-  O140  1  0.49807038  0.24575877  0.94305029  1
  O2-  O141  1  0.49726617  0.74812489  0.27750155  1
  O2-  O142  1  0.50213561  0.74247847  0.60341522  1
  O2-  O143  1  0.49812748  0.74462768  0.93571762  1
  O2-  O144  1  0.06873802  0.17681080  0.10030629  1
  O2-  O145  1  0.06936689  0.17711645  0.42591623  1
  O2-  O146  1  0.06839579  0.16998636  0.75359785  1
  O2-  O147  1  0.06943394  0.67791901  0.09804625  1
  O2-  O148  1  0.06911760  0.68204714  0.43146103  1
  O2-  O149  1  0.06944696  0.67962289  0.75605627  1
  O2-  O150  1  0.57485837  0.18081916  0.08966624  1
  O2-  O151  1  0.56795419  0.18221468  0.43189983  1
  O2-  O152  1  0.57251877  0.17826266  0.75658820  1
  O2-  O153  1  0.57337415  0.67763922  0.09910120  1
  O2-  O154  1  0.57079445  0.68123280  0.42439684  1
  O2-  O155  1  0.58098042  0.68171456  0.75251042  1
  O2-  O156  1  0.17832129  0.42413433  0.23586912  1
  O2-  O157  1  0.17896313  0.43219567  0.56927460  1
  O2-  O158  1  0.17938720  0.42908780  0.89957479  1
  O2-  O159  1  0.18123376  0.93169023  0.23592648  1
  O2-  O160  1  0.17711968  0.92924429  0.57701969  1
  O2-  O161  1  0.18065473  0.92839697  0.90017989  1
  O2-  O162  1  0.68220618  0.43003493  0.23434597  1
  O2-  O163  1  0.67973007  0.42671776  0.57743212  1
  O2-  O164  1  0.67727556  0.42369442  0.90787831  1
  O2-  O165  1  0.66928156  0.93374131  0.24596960  1
  O2-  O166  1  0.67865976  0.92861973  0.57789309  1
  O2-  O167  1  0.67893813  0.93080035  0.91037089  1
  O2-  O168  1  0.43233949  0.32027886  0.09132180  1
  O2-  O169  1  0.42869122  0.32147067  0.42120750  1
  O2-  O170  1  0.42843520  0.31811564  0.76625878  1
  O2-  O171  1  0.43164553  0.82109926  0.09966910  1
  O2-  O172  1  0.43126414  0.82180419  0.42414877  1
  O2-  O173  1  0.43083763  0.82198356  0.76273779  1
  O2-  O174  1  0.92574749  0.31912818  0.10004016  1
  O2-  O175  1  0.92926452  0.31757804  0.42541789  1
  O2-  O176  1  0.92761449  0.31959586  0.76238482  1
  O2-  O177  1  0.92774779  0.82330753  0.08811866  1
  O2-  O178  1  0.93150913  0.82448329  0.43343107  1
  O2-  O179  1  0.92683318  0.82421305  0.75833619  1
  O2-  O180  1  0.32728309  0.06985000  0.24675342  1
  O2-  O181  1  0.32186757  0.06580150  0.57385626  1
  O2-  O182  1  0.32562125  0.07074475  0.90055972  1
  O2-  O183  1  0.32221823  0.57176582  0.23555482  1
  O2-  O184  1  0.32027464  0.57490063  0.57836668  1
  O2-  O185  1  0.32109962  0.56620767  0.89735737  1
  O2-  O186  1  0.81982517  0.07146035  0.23612264  1
  O2-  O187  1  0.82190401  0.07141938  0.57900748  1
  O2-  O188  1  0.81581936  0.07002705  0.89920980  1
  O2-  O189  1  0.81975609  0.57292686  0.23536128  1
  O2-  O190  1  0.81776528  0.57325804  0.57658543  1
  O2-  O191  1  0.81936097  0.56906631  0.89799255  1
  O2-  O192  1  0.03880518  0.08927849  0.27416390  1
  O2-  O193  1  0.04090505  0.08223877  0.60150545  1
  O2-  O194  1  0.04013388  0.08005770  0.93171996  1
  O2-  O195  1  0.04341211  0.57885422  0.26700822  1
  O2-  O196  1  0.03856429  0.58982797  0.60297208  1
  O2-  O197  1  0.03625064  0.58371093  0.92926099  1
  O2-  O198  1  0.54065298  0.08565244  0.26324402  1
  O2-  O199  1  0.54636856  0.08554728  0.60400170  1
  O2-  O200  1  0.54962453  0.08557487  0.93729771  1
  O2-  O201  1  0.54439134  0.58574673  0.27361152  1
  O2-  O202  1  0.55656965  0.58319178  0.60364629  1
  O2-  O203  1  0.55074210  0.57483140  0.93228226  1
  O2-  O204  1  0.16700128  0.19908077  0.27561810  1
  O2-  O205  1  0.16579323  0.19600505  0.60350121  1
  O2-  O206  1  0.17467715  0.19741719  0.93639879  1
  O2-  O207  1  0.16767273  0.71271282  0.26743903  1
  O2-  O208  1  0.16095298  0.70630202  0.60275439  1
  O2-  O209  1  0.16537747  0.70982331  0.92883754  1
  O2-  O210  1  0.66793927  0.21260375  0.26569234  1
  O2-  O211  1  0.66640595  0.20327390  0.60539241  1
  O2-  O212  1  0.66131751  0.20941944  0.93366808  1
  O2-  O213  1  0.66105062  0.70795876  0.27134778  1
  O2-  O214  1  0.66715146  0.71139305  0.59957526  1
  O2-  O215  1  0.66954203  0.70812519  0.92982978  1
  O2-  O216  1  0.07772203  0.45437553  0.06380467  1
  O2-  O217  1  0.08014314  0.45653444  0.40306640  1
  O2-  O218  1  0.08285348  0.46361244  0.73346161  1
  O2-  O219  1  0.08106104  0.95544533  0.06753843  1
  O2-  O220  1  0.08608405  0.96459824  0.40579388  1
  O2-  O221  1  0.08707758  0.95549364  0.73011627  1
  O2-  O222  1  0.58309662  0.44626570  0.06049590  1
  O2-  O223  1  0.58202476  0.45689951  0.40210990  1
  O2-  O224  1  0.58577527  0.45331877  0.72851828  1
  O2-  O225  1  0.58582231  0.95431776  0.06271793  1
  O2-  O226  1  0.58338718  0.96298896  0.40031705  1
  O2-  O227  1  0.58711845  0.95803510  0.73011862  1
  O2-  O228  1  0.20598942  0.33057553  0.06528580  1
  O2-  O229  1  0.20512605  0.32777848  0.40363649  1
  O2-  O230  1  0.20634851  0.32866108  0.73135609  1
  O2-  O231  1  0.20876695  0.82974715  0.06714566  1
  O2-  O232  1  0.21178211  0.83706006  0.40508379  1
  O2-  O233  1  0.20531444  0.83410438  0.72593234  1
  O2-  O234  1  0.70532046  0.33386032  0.06080631  1
  O2-  O235  1  0.70939889  0.33250385  0.40326161  1
  O2-  O236  1  0.70777491  0.33580104  0.72930167  1
  O2-  O237  1  0.70001408  0.83302529  0.06110959  1
  O2-  O238  1  0.69283654  0.83541320  0.39711207  1
  O2-  O239  1  0.70785390  0.83806117  0.73103387  1
  O2-  O240  1  0.45370280  0.41897346  0.27213017  1
  O2-  O241  1  0.45662028  0.41900234  0.59954558  1
  O2-  O242  1  0.45851689  0.40798316  0.93469854  1
  O2-  O243  1  0.45838150  0.91254824  0.27211203  1
  O2-  O244  1  0.46381832  0.91466589  0.59471136  1
  O2-  O245  1  0.46232207  0.91715247  0.93135458  1
  O2-  O246  1  0.95069595  0.41490968  0.27624130  1
  O2-  O247  1  0.96031371  0.41780569  0.59601397  1
  O2-  O248  1  0.95385803  0.41861797  0.93052524  1
  O2-  O249  1  0.96074513  0.92292001  0.26953565  1
  O2-  O250  1  0.95534559  0.91573221  0.60728155  1
  O2-  O251  1  0.95488781  0.91530945  0.93562915  1
  O2-  O252  1  0.33348241  0.29828477  0.27094679  1
  O2-  O253  1  0.33278367  0.28724955  0.59669167  1
  O2-  O254  1  0.33750343  0.29060890  0.93910755  1
  O2-  O255  1  0.33522283  0.79651260  0.27488645  1
  O2-  O256  1  0.33220703  0.79091505  0.59581093  1
  O2-  O257  1  0.33118374  0.79516448  0.92922050  1
  O2-  O258  1  0.83975679  0.28662753  0.27423509  1
  O2-  O259  1  0.83359466  0.28875298  0.59586816  1
  O2-  O260  1  0.83222917  0.28750244  0.93102267  1
  O2-  O261  1  0.82394631  0.80804052  0.27070103  1
  O2-  O262  1  0.83636531  0.79582480  0.60594311  1
  O2-  O263  1  0.83319970  0.79982117  0.93719396  1
  O2-  O264  1  0.42404170  0.04488794  0.06649443  1
  O2-  O265  1  0.41812229  0.04409430  0.39879938  1
  O2-  O266  1  0.41468317  0.04046289  0.72525036  1
  O2-  O267  1  0.42012418  0.53848859  0.06347685  1
  O2-  O268  1  0.41854574  0.54767573  0.40472369  1
  O2-  O269  1  0.42056497  0.55462838  0.72451196  1
  O2-  O270  1  0.91586723  0.04185370  0.06672866  1
  O2-  O271  1  0.91529258  0.04106596  0.40757982  1
  O2-  O272  1  0.91244296  0.04275734  0.73150552  1
  O2-  O273  1  0.91410189  0.53827690  0.06694513  1
  O2-  O274  1  0.91829301  0.54688140  0.40321398  1
  O2-  O275  1  0.91184210  0.54205520  0.72655183  1
  O2-  O276  1  0.29969036  0.16879888  0.07187024  1
  O2-  O277  1  0.30237759  0.16692481  0.39627885  1
  O2-  O278  1  0.29597020  0.16041351  0.72511405  1
  O2-  O279  1  0.30132477  0.67093371  0.05942507  1
  O2-  O280  1  0.29007329  0.66952006  0.40387935  1
  O2-  O281  1  0.29170372  0.66589095  0.72844846  1
  O2-  O282  1  0.78554609  0.16577980  0.06678464  1
  O2-  O283  1  0.78525571  0.16411629  0.40534721  1
  O2-  O284  1  0.79227021  0.16383927  0.73037403  1
  O2-  O285  1  0.79227730  0.66874073  0.06540105  1
  O2-  O286  1  0.79034916  0.67382727  0.40121218  1
  O2-  O287  1  0.79327808  0.66369671  0.72876238  1
