# generated using pymatgen
data_Ca2Al2SiO7
_symmetry_space_group_name_H-M   'P 1'
_cell_length_a   15.46622112
_cell_length_b   15.46592360
_cell_length_c   15.28875029
_cell_angle_alpha   89.99334258
_cell_angle_beta   89.99718428
_cell_angle_gamma   90.04539900
_symmetry_Int_Tables_number   1
_chemical_formula_structural   Ca2Al2SiO7
_chemical_formula_sum   'Ca48 Al48 Si24 O168'
_cell_volume   3657.05863011
_cell_formula_units_Z   24
loop_
 _symmetry_equiv_pos_site_id
 _symmetry_equiv_pos_as_xyz
  1  'x, y, z'
loop_
 _atom_type_symbol
 _atom_type_oxidation_number
  Ca2+  2.0
  Al0+  0.0
  Si0+  0.0
  O2-  -2.0
loop_
 _atom_site_type_symbol
 _atom_site_label
 _atom_site_symmetry_multiplicity
 _atom_site_fract_x
 _atom_site_fract_y
 _atom_site_fract_z
 _atom_site_occupancy
  Ca2+  Ca0  1  0.17446255  0.07528233  0.17962079  1
  Ca2+  Ca1  1  0.17635896  0.07351777  0.50705609  1
  Ca2+  Ca2  1  0.16551520  0.08005066  0.82865208  1
  Ca2+  Ca3  1  0.16670124  0.58295320  0.16824880  1
  Ca2+  Ca4  1  0.16846845  0.57174609  0.50642378  1
  Ca2+  Ca5  1  0.17571117  0.58601711  0.83405818  1
  Ca2+  Ca6  1  0.67659602  0.08043448  0.17773631  1
  Ca2+  Ca7  1  0.66094661  0.07609940  0.50203161  1
  Ca2+  Ca8  1  0.66248193  0.07721625  0.83298932  1
  Ca2+  Ca9  1  0.67810572  0.57975059  0.17673212  1
  Ca2+  Ca10  1  0.67652989  0.57920235  0.50669691  1
  Ca2+  Ca11  1  0.67597287  0.58055885  0.83513821  1
  Ca2+  Ca12  1  0.08410937  0.33419978  0.16592538  1
  Ca2+  Ca13  1  0.09116913  0.33018487  0.49717704  1
  Ca2+  Ca14  1  0.08227319  0.32820376  0.82191084  1
  Ca2+  Ca15  1  0.07749058  0.83172618  0.16620121  1
  Ca2+  Ca16  1  0.07990888  0.83686865  0.49257573  1
  Ca2+  Ca17  1  0.08285059  0.82871587  0.82737226  1
  Ca2+  Ca18  1  0.59372526  0.32771949  0.16955044  1
  Ca2+  Ca19  1  0.59254191  0.32506691  0.49468187  1
  Ca2+  Ca20  1  0.58515785  0.32668971  0.82190756  1
  Ca2+  Ca21  1  0.57901522  0.83876878  0.17151891  1
  Ca2+  Ca22  1  0.57444147  0.84190558  0.49423211  1
  Ca2+  Ca23  1  0.57686372  0.83245252  0.82127039  1
  Ca2+  Ca24  1  0.32734703  0.42415916  0.17257838  1
  Ca2+  Ca25  1  0.32431660  0.41987396  0.50687171  1
  Ca2+  Ca26  1  0.33077013  0.42608136  0.83331268  1
  Ca2+  Ca27  1  0.32748109  0.91988787  0.17912568  1
  Ca2+  Ca28  1  0.33129311  0.92006412  0.50573763  1
  Ca2+  Ca29  1  0.33276426  0.91827764  0.82655449  1
  Ca2+  Ca30  1  0.83288125  0.42924556  0.17471735  1
  Ca2+  Ca31  1  0.82512782  0.42557728  0.50200528  1
  Ca2+  Ca32  1  0.83147649  0.42438346  0.83089038  1
  Ca2+  Ca33  1  0.83175927  0.92527618  0.17810656  1
  Ca2+  Ca34  1  0.82364942  0.91670778  0.49951863  1
  Ca2+  Ca35  1  0.82672499  0.92293853  0.83501017  1
  Ca2+  Ca36  1  0.42254809  0.16367711  0.17061400  1
  Ca2+  Ca37  1  0.42517209  0.15743506  0.49536399  1
  Ca2+  Ca38  1  0.42099105  0.16829190  0.82007677  1
  Ca2+  Ca39  1  0.41261648  0.67314944  0.16292189  1
  Ca2+  Ca40  1  0.41115503  0.67747486  0.49693546  1
  Ca2+  Ca41  1  0.41115436  0.67018998  0.82394178  1
  Ca2+  Ca42  1  0.91260729  0.16438864  0.16299692  1
  Ca2+  Ca43  1  0.92368657  0.16195913  0.49467361  1
  Ca2+  Ca44  1  0.92051783  0.16628374  0.82495609  1
  Ca2+  Ca45  1  0.91757114  0.66875779  0.16272089  1
  Ca2+  Ca46  1  0.91258345  0.67023780  0.49197824  1
  Ca2+  Ca47  1  0.92015125  0.65806390  0.83040538  1
  Al0+  Al48  1  -0.00075637  -0.00072983  0.00210438  1
  Al0+  Al49  1  0.00141523  -0.00107122  0.33329501  1
  Al0+  Al50  1  0.00076005  -0.00051391  0.66554522  1
  Al0+  Al51  1  -0.00088570  0.49888841  -0.00194902  1
  Al0+  Al52  1  0.00162547  0.49906127  0.33932695  1
  Al0+  Al53  1  0.00009143  0.49901592  0.67156509  1
  Al0+  Al54  1  0.49796523  0.00014667  -0.00087915  1
  Al0+  Al55  1  0.50145569  0.00133962  0.32649222  1
  Al0+  Al56  1  0.49944855  -0.00054909  0.66798052  1
  Al0+  Al57  1  0.49790311  0.49981851  0.00433391  1
  Al0+  Al58  1  0.50021817  0.49920260  0.33447103  1
  Al0+  Al59  1  0.50142178  0.49992422  0.67225277  1
  Al0+  Al60  1  0.25059557  0.24935339  -0.00152747  1
  Al0+  Al61  1  0.25249659  0.25031788  0.33668543  1
  Al0+  Al62  1  0.25044889  0.24908871  0.66902433  1
  Al0+  Al63  1  0.24808128  0.74971723  -0.00052441  1
  Al0+  Al64  1  0.24917767  0.74958335  0.32976299  1
  Al0+  Al65  1  0.24745389  0.75074366  0.66741209  1
  Al0+  Al66  1  0.75021117  0.24802271  -0.00054081  1
  Al0+  Al67  1  0.75393426  0.25141596  0.33326979  1
  Al0+  Al68  1  0.75177153  0.25137592  0.66410484  1
  Al0+  Al69  1  0.74736666  0.75060709  0.00281739  1
  Al0+  Al70  1  0.75041860  0.75276412  0.33332885  1
  Al0+  Al71  1  0.75023809  0.75164869  0.67576614  1
  Al0+  Al72  1  0.18025613  0.42967588  0.34564078  1
  Al0+  Al73  1  0.67806455  0.93097558  0.68064078  1
  Al0+  Al74  1  0.06871528  0.67943629  0.98517211  1
  Al0+  Al75  1  0.32008600  0.57202969  0.01536315  1
  Al0+  Al76  1  0.17926183  0.92661332  0.34717767  1
  Al0+  Al77  1  0.57248087  0.18120563  0.31821645  1
  Al0+  Al78  1  0.82143690  0.57299515  0.34741825  1
  Al0+  Al79  1  0.42873429  0.82000611  0.31853148  1
  Al0+  Al80  1  0.67906542  0.42678045  0.68207105  1
  Al0+  Al81  1  0.82125144  0.57041783  0.01523103  1
  Al0+  Al82  1  0.07162991  0.17854570  0.65125399  1
  Al0+  Al83  1  0.67900705  0.93082228  0.34739498  1
  Al0+  Al84  1  0.32179640  0.06940803  0.68216524  1
  Al0+  Al85  1  0.82086982  0.57298175  0.68294478  1
  Al0+  Al86  1  0.32255647  0.07033786  0.34723016  1
  Al0+  Al87  1  0.32038393  0.57227622  0.67929677  1
  Al0+  Al88  1  0.92842254  0.82135245  0.31990199  1
  Al0+  Al89  1  0.82372697  0.07273631  0.34905815  1
  Al0+  Al90  1  0.82016601  0.06936449  0.01228763  1
  Al0+  Al91  1  0.67816402  0.42850565  0.34722350  1
  Al0+  Al92  1  0.42906703  0.81820114  0.65286391  1
  Al0+  Al93  1  0.17615958  0.92849523  0.68311687  1
  Al0+  Al94  1  0.17911204  0.42713519  0.68310612  1
  Al0+  Al95  1  0.57110006  0.18007002  0.65259275  1
  Si0+  Si96  1  0.92940613  0.32308455  0.64718392  1
  Si0+  Si97  1  0.17933366  0.92957997  0.01505785  1
  Si0+  Si98  1  0.57211050  0.67643664  0.31707938  1
  Si0+  Si99  1  0.57073754  0.67735593  0.98583208  1
  Si0+  Si100  1  0.93190343  0.32181502  0.31749185  1
  Si0+  Si101  1  0.07181397  0.17754886  0.98597187  1
  Si0+  Si102  1  0.07292569  0.17958633  0.31763216  1
  Si0+  Si103  1  0.57444663  0.67726831  0.65186309  1
  Si0+  Si104  1  0.67426657  0.92873731  0.01765709  1
  Si0+  Si105  1  0.06939959  0.67855432  0.65142334  1
  Si0+  Si106  1  0.56993113  0.18050115  0.98442428  1
  Si0+  Si107  1  0.32309676  0.57341587  0.34848229  1
  Si0+  Si108  1  0.92884614  0.31955812  0.98468685  1
  Si0+  Si109  1  0.42888477  0.82027623  0.98385400  1
  Si0+  Si110  1  0.92620086  0.82333606  0.98232096  1
  Si0+  Si111  1  0.07069730  0.67547935  0.31731013  1
  Si0+  Si112  1  0.92748811  0.82103702  0.65288763  1
  Si0+  Si113  1  0.42726729  0.32171584  0.98465689  1
  Si0+  Si114  1  0.67745159  0.42724094  0.01652361  1
  Si0+  Si115  1  0.42827989  0.32425026  0.65044749  1
  Si0+  Si116  1  0.17865872  0.42624517  0.01591231  1
  Si0+  Si117  1  0.42650097  0.32414292  0.31540953  1
  Si0+  Si118  1  0.32103740  0.07228401  0.01548284  1
  Si0+  Si119  1  0.82286619  0.07175781  0.68116580  1
  O2-  O120  1  0.24945384  0.00180241  0.05657115  1
  O2-  O121  1  0.25322501  -0.00389779  0.39630937  1
  O2-  O122  1  0.24776128  0.00043510  0.73424657  1
  O2-  O123  1  0.24550073  0.49636573  0.06045777  1
  O2-  O124  1  0.25585846  0.50322477  0.39113372  1
  O2-  O125  1  0.25085628  0.49933524  0.73228988  1
  O2-  O126  1  0.74669628  -0.00566747  0.05935473  1
  O2-  O127  1  0.74940914  0.00364652  0.39845664  1
  O2-  O128  1  0.75123529  0.00733794  0.72716481  1
  O2-  O129  1  0.74431061  0.49755274  0.06052345  1
  O2-  O130  1  0.74535834  0.50501673  0.39583331  1
  O2-  O131  1  0.74818649  0.50103886  0.73241585  1
  O2-  O132  1  0.00117931  0.24919266  0.27358823  1
  O2-  O133  1  -0.00124885  0.25462201  0.60346306  1
  O2-  O134  1  0.00019783  0.24793053  0.94370183  1
  O2-  O135  1  0.00195523  0.74464036  0.27360392  1
  O2-  O136  1  -0.00351987  0.74790163  0.61077968  1
  O2-  O137  1  -0.00893275  0.75144589  0.93732127  1
  O2-  O138  1  0.49863885  0.25809242  0.27117693  1
  O2-  O139  1  0.49794820  0.25674362  0.60647736  1
  O2-  O140  1  0.49990596  0.25226087  0.94236476  1
  O2-  O141  1  0.50166959  0.74320478  0.27101936  1
  O2-  O142  1  0.50296508  0.74221120  0.60680194  1
  O2-  O143  1  0.50065585  0.74939366  0.94280024  1
  O2-  O144  1  0.07366439  0.17867938  0.09108537  1
  O2-  O145  1  0.07291411  0.18116532  0.42223054  1
  O2-  O146  1  0.06623643  0.17831136  0.76552228  1
  O2-  O147  1  0.06910787  0.68156349  0.09828983  1
  O2-  O148  1  0.07064941  0.67377559  0.42277824  1
  O2-  O149  1  0.06938827  0.67987589  0.75688053  1
  O2-  O150  1  0.57028359  0.18075079  0.08920843  1
  O2-  O151  1  0.57100886  0.18083913  0.43071721  1
  O2-  O152  1  0.56917042  0.18038637  0.76694271  1
  O2-  O153  1  0.57013533  0.67766939  0.09074033  1
  O2-  O154  1  0.57088230  0.67569521  0.42226231  1
  O2-  O155  1  0.57455236  0.68075655  0.75816972  1
  O2-  O156  1  0.17996993  0.43035135  0.23180430  1
  O2-  O157  1  0.17976198  0.42940006  0.56951053  1
  O2-  O158  1  0.18110130  0.42283307  0.91114240  1
  O2-  O159  1  0.17986516  0.92940022  0.23235593  1
  O2-  O160  1  0.17555852  0.92823374  0.57035850  1
  O2-  O161  1  0.17853405  0.93057174  0.91034339  1
  O2-  O162  1  0.68315371  0.42948617  0.23280807  1
  O2-  O163  1  0.68209287  0.42709403  0.56913647  1
  O2-  O164  1  0.67820029  0.42615519  0.91122611  1
  O2-  O165  1  0.68015910  0.93257539  0.23315215  1
  O2-  O166  1  0.67837884  0.92986560  0.56848669  1
  O2-  O167  1  0.67105129  0.93089700  0.91197842  1
  O2-  O168  1  0.42389509  0.31965746  0.08937898  1
  O2-  O169  1  0.42276892  0.32486491  0.42015556  1
  O2-  O170  1  0.42947545  0.32236683  0.75693794  1
  O2-  O171  1  0.42934874  0.82169989  0.08883294  1
  O2-  O172  1  0.42800569  0.81875700  0.43112853  1
  O2-  O173  1  0.43095854  0.81750827  0.76697222  1
  O2-  O174  1  0.92954511  0.31972628  0.08981599  1
  O2-  O175  1  0.93409895  0.32354584  0.42198067  1
  O2-  O176  1  0.92938723  0.32088394  0.75365718  1
  O2-  O177  1  0.92959108  0.82552316  0.08763159  1
  O2-  O178  1  0.92922185  0.82026603  0.43312765  1
  O2-  O179  1  0.92871884  0.82235155  0.75836221  1
  O2-  O180  1  0.31868606  0.07049021  0.23220313  1
  O2-  O181  1  0.32304326  0.06618008  0.56936070  1
  O2-  O182  1  0.32279464  0.07327262  0.91103540  1
  O2-  O183  1  0.32107678  0.57285413  0.24228607  1
  O2-  O184  1  0.31667899  0.57228751  0.56580858  1
  O2-  O185  1  0.32000627  0.57163290  0.90292848  1
  O2-  O186  1  0.82220123  0.07116772  0.23472657  1
  O2-  O187  1  0.82486933  0.06841814  0.57629754  1
  O2-  O188  1  0.81934193  0.06977970  0.89917507  1
  O2-  O189  1  0.82317766  0.56991967  0.23328617  1
  O2-  O190  1  0.82032527  0.57445954  0.56984433  1
  O2-  O191  1  0.82070960  0.56726828  0.90266452  1
  O2-  O192  1  0.04615363  0.08774382  0.26943852  1
  O2-  O193  1  0.03944727  0.08216754  0.59770367  1
  O2-  O194  1  0.04386146  0.08543711  0.93911946  1
  O2-  O195  1  0.04449156  0.58200536  0.27023094  1
  O2-  O196  1  0.04350563  0.58510836  0.60640510  1
  O2-  O197  1  0.04104435  0.58125133  0.93187333  1
  O2-  O198  1  0.54057803  0.08705487  0.25910161  1
  O2-  O199  1  0.53781461  0.08376388  0.60080752  1
  O2-  O200  1  0.54009653  0.08821156  0.93817530  1
  O2-  O201  1  0.54930186  0.58186511  0.26992598  1
  O2-  O202  1  0.55384497  0.58141354  0.60898461  1
  O2-  O203  1  0.54337687  0.58460158  0.93980791  1
  O2-  O204  1  0.16442199  0.20968989  0.26952194  1
  O2-  O205  1  0.16960726  0.20736576  0.59956877  1
  O2-  O206  1  0.16347083  0.20527776  0.93770671  1
  O2-  O207  1  0.16382774  0.70048193  0.26925054  1
  O2-  O208  1  0.15984859  0.70741472  0.60311057  1
  O2-  O209  1  0.16476287  0.71348076  0.93108985  1
  O2-  O210  1  0.67008095  0.21291596  0.26362351  1
  O2-  O211  1  0.66926705  0.20728791  0.60021846  1
  O2-  O212  1  0.66225592  0.20616423  0.93658679  1
  O2-  O213  1  0.66457536  0.70527038  0.26970246  1
  O2-  O214  1  0.66793007  0.70657526  0.60821245  1
  O2-  O215  1  0.66300802  0.70425596  0.93805839  1
  O2-  O216  1  0.08423164  0.45077471  0.06021853  1
  O2-  O217  1  0.08601650  0.45924520  0.40302509  1
  O2-  O218  1  0.08100765  0.45435651  0.73632701  1
  O2-  O219  1  0.08728792  0.95637922  0.06246306  1
  O2-  O220  1  0.08247424  0.95683201  0.39911440  1
  O2-  O221  1  0.07854180  0.95869840  0.73790742  1
  O2-  O222  1  0.58298459  0.44909119  0.06212651  1
  O2-  O223  1  0.57693660  0.44739109  0.39718588  1
  O2-  O224  1  0.58042661  0.45056736  0.73670068  1
  O2-  O225  1  0.58164623  0.95852244  0.06397227  1
  O2-  O226  1  0.58034414  0.96007222  0.39700950  1
  O2-  O227  1  0.58349968  0.96233425  0.73784093  1
  O2-  O228  1  0.20611510  0.33291447  0.06307888  1
  O2-  O229  1  0.21024285  0.33385389  0.39967573  1
  O2-  O230  1  0.20584744  0.32907179  0.73664307  1
  O2-  O231  1  0.20882594  0.83875601  0.06212667  1
  O2-  O232  1  0.20257076  0.82637450  0.39693409  1
  O2-  O233  1  0.20548624  0.83104001  0.73667894  1
  O2-  O234  1  0.70597577  0.33369752  0.06101572  1
  O2-  O235  1  0.71275578  0.33293507  0.39944982  1
  O2-  O236  1  0.71154843  0.32936655  0.73648774  1
  O2-  O237  1  0.69444974  0.83354759  0.06166853  1
  O2-  O238  1  0.70511034  0.83255518  0.39960500  1
  O2-  O239  1  0.70971571  0.83700473  0.73941028  1
  O2-  O240  1  0.44851110  0.41899492  0.26837777  1
  O2-  O241  1  0.45085606  0.41932261  0.60622443  1
  O2-  O242  1  0.45288353  0.41500665  0.93904238  1
  O2-  O243  1  0.46105180  0.91490071  0.26080478  1
  O2-  O244  1  0.46232916  0.91435867  0.60123072  1
  O2-  O245  1  0.45609215  0.91306913  0.93686440  1
  O2-  O246  1  0.96405661  0.41263770  0.26900264  1
  O2-  O247  1  0.95519894  0.41740685  0.60326329  1
  O2-  O248  1  0.95680171  0.41019764  0.93550889  1
  O2-  O249  1  0.96271247  0.91676129  0.26310067  1
  O2-  O250  1  0.95640476  0.91162009  0.60477603  1
  O2-  O251  1  0.95640787  0.91577677  0.93520098  1
  O2-  O252  1  0.33470380  0.29368809  0.26611303  1
  O2-  O253  1  0.33424397  0.29868737  0.60621205  1
  O2-  O254  1  0.33661573  0.29201214  0.93524781  1
  O2-  O255  1  0.33210252  0.78958708  0.26170567  1
  O2-  O256  1  0.33126792  0.78919112  0.60031063  1
  O2-  O257  1  0.33701508  0.79206418  0.93764447  1
  O2-  O258  1  0.84079403  0.29658114  0.26725902  1
  O2-  O259  1  0.83633992  0.29790139  0.60094701  1
  O2-  O260  1  0.83747813  0.29059452  0.93638159  1
  O2-  O261  1  0.83163881  0.79423202  0.26334728  1
  O2-  O262  1  0.83443742  0.79403560  0.60794442  1
  O2-  O263  1  0.82937257  0.80304781  0.94037566  1
  O2-  O264  1  0.41274574  0.04312317  0.06266724  1
  O2-  O265  1  0.42212224  0.04425918  0.39477240  1
  O2-  O266  1  0.41749335  0.03727998  0.73869827  1
  O2-  O267  1  0.41621409  0.54186247  0.07085040  1
  O2-  O268  1  0.41727084  0.55160861  0.39325598  1
  O2-  O269  1  0.41960002  0.54873698  0.73333100  1
  O2-  O270  1  0.91767650  0.04196323  0.06692867  1
  O2-  O271  1  0.92145272  0.04269268  0.39988105  1
  O2-  O272  1  0.91402956  0.04163523  0.72982174  1
  O2-  O273  1  0.91761328  0.53665244  0.06797776  1
  O2-  O274  1  0.91766385  0.54100283  0.40099317  1
  O2-  O275  1  0.91776219  0.54070678  0.73652817  1
  O2-  O276  1  0.29362724  0.16428708  0.06268403  1
  O2-  O277  1  0.29510959  0.16805118  0.39939136  1
  O2-  O278  1  0.29600289  0.16837447  0.73496180  1
  O2-  O279  1  0.28729958  0.66835718  0.06889786  1
  O2-  O280  1  0.29567611  0.66617974  0.39309722  1
  O2-  O281  1  0.28731675  0.66812828  0.73462241  1
  O2-  O282  1  0.78988917  0.16635714  0.06624167  1
  O2-  O283  1  0.80279887  0.17317561  0.39819859  1
  O2-  O284  1  0.80244739  0.16721781  0.72481406  1
  O2-  O285  1  0.79305350  0.66917926  0.06642933  1
  O2-  O286  1  0.79628741  0.67203437  0.39794123  1
  O2-  O287  1  0.79423680  0.66976671  0.74015774  1
