# generated using pymatgen
data_Ca2Al2SiO7
_symmetry_space_group_name_H-M   'P 1'
_cell_length_a   15.46458318
_cell_length_b   15.46622379
_cell_length_c   15.28985858
_cell_angle_alpha   89.99409349
_cell_angle_beta   90.01175484
_cell_angle_gamma   89.98851686
_symmetry_Int_Tables_number   1
_chemical_formula_structural   Ca2Al2SiO7
_chemical_formula_sum   'Ca48 Al48 Si24 O168'
_cell_volume   3657.00839382
_cell_formula_units_Z   24
loop_
 _symmetry_equiv_pos_site_id
 _symmetry_equiv_pos_as_xyz
  1  'x, y, z'
loop_
 _atom_type_symbol
 _atom_type_oxidation_number
  Ca2+  2.0
  Al0+  0.0
  Si0+  0.0
  O2-  -2.0
loop_
 _atom_site_type_symbol
 _atom_site_label
 _atom_site_symmetry_multiplicity
 _atom_site_fract_x
 _atom_site_fract_y
 _atom_site_fract_z
 _atom_site_occupancy
  Ca2+  Ca0  1  0.17211981  0.07942477  0.17530874  1
  Ca2+  Ca1  1  0.17513261  0.07814425  0.49898860  1
  Ca2+  Ca2  1  0.16599303  0.08073772  0.84001851  1
  Ca2+  Ca3  1  0.17090192  0.57729349  0.16692798  1
  Ca2+  Ca4  1  0.17440790  0.57271013  0.51151155  1
  Ca2+  Ca5  1  0.17458054  0.58180756  0.84105967  1
  Ca2+  Ca6  1  0.66818334  0.09349021  0.16842315  1
  Ca2+  Ca7  1  0.66170665  0.08479578  0.50207648  1
  Ca2+  Ca8  1  0.66957084  0.08386588  0.84459425  1
  Ca2+  Ca9  1  0.66285615  0.58071371  0.17359155  1
  Ca2+  Ca10  1  0.66432797  0.57801200  0.50907321  1
  Ca2+  Ca11  1  0.66129793  0.58235299  0.83443496  1
  Ca2+  Ca12  1  0.08050299  0.33431962  0.15517706  1
  Ca2+  Ca13  1  0.08484652  0.34127601  0.49523381  1
  Ca2+  Ca14  1  0.08543880  0.33807057  0.83322561  1
  Ca2+  Ca15  1  0.08731705  0.83011927  0.16115349  1
  Ca2+  Ca16  1  0.08699215  0.82662144  0.49893494  1
  Ca2+  Ca17  1  0.08554235  0.81611793  0.83011471  1
  Ca2+  Ca18  1  0.57876686  0.32853655  0.16699263  1
  Ca2+  Ca19  1  0.57185086  0.34120530  0.49329744  1
  Ca2+  Ca20  1  0.57938555  0.33162628  0.82753569  1
  Ca2+  Ca21  1  0.57602091  0.82236724  0.15856201  1
  Ca2+  Ca22  1  0.57887460  0.81988433  0.49904046  1
  Ca2+  Ca23  1  0.57185129  0.82205506  0.82973626  1
  Ca2+  Ca24  1  0.32543101  0.41614883  0.16951771  1
  Ca2+  Ca25  1  0.32876429  0.41471752  0.50844783  1
  Ca2+  Ca26  1  0.32857916  0.42731017  0.83542822  1
  Ca2+  Ca27  1  0.33237488  0.92130771  0.17270439  1
  Ca2+  Ca28  1  0.34236102  0.92317173  0.50016983  1
  Ca2+  Ca29  1  0.34054427  0.91367868  0.83881663  1
  Ca2+  Ca30  1  0.82747786  0.41347119  0.16896530  1
  Ca2+  Ca31  1  0.81651649  0.42097686  0.50613234  1
  Ca2+  Ca32  1  0.82863956  0.41848788  0.83294231  1
  Ca2+  Ca33  1  0.83434993  0.92582857  0.16809327  1
  Ca2+  Ca34  1  0.83058745  0.91969900  0.50439924  1
  Ca2+  Ca35  1  0.83150601  0.92380802  0.84056187  1
  Ca2+  Ca36  1  0.42097827  0.16925297  0.16580918  1
  Ca2+  Ca37  1  0.41892106  0.18008780  0.49087629  1
  Ca2+  Ca38  1  0.42070978  0.17455296  0.82869864  1
  Ca2+  Ca39  1  0.42404273  0.66677260  0.15797285  1
  Ca2+  Ca40  1  0.42638092  0.65607259  0.50080099  1
  Ca2+  Ca41  1  0.41536998  0.67000254  0.82698072  1
  Ca2+  Ca42  1  0.92378241  0.17394854  0.15346055  1
  Ca2+  Ca43  1  0.92033878  0.17009384  0.49643902  1
  Ca2+  Ca44  1  0.91889439  0.17224932  0.83879575  1
  Ca2+  Ca45  1  0.92530632  0.66825322  0.15941566  1
  Ca2+  Ca46  1  0.92247969  0.65433293  0.50298414  1
  Ca2+  Ca47  1  0.92928714  0.65254430  0.82865537  1
  Al0+  Al48  1  -0.00102923  0.00198157  0.00155134  1
  Al0+  Al49  1  -0.00049473  -0.00052189  0.33833504  1
  Al0+  Al50  1  0.00128052  0.00030893  0.66628913  1
  Al0+  Al51  1  -0.00298718  0.49972877  -0.00327313  1
  Al0+  Al52  1  0.00025021  0.50098765  0.33423255  1
  Al0+  Al53  1  -0.00291002  0.49626689  0.66566257  1
  Al0+  Al54  1  0.50074318  -0.00090459  -0.00512586  1
  Al0+  Al55  1  0.50280949  -0.00020854  0.33465563  1
  Al0+  Al56  1  0.50137991  -0.00080561  0.66502979  1
  Al0+  Al57  1  0.50017256  0.49885051  0.00221572  1
  Al0+  Al58  1  0.49947815  0.49869567  0.32584698  1
  Al0+  Al59  1  0.49763991  0.49801584  0.66819211  1
  Al0+  Al60  1  0.24954171  0.24856482  -0.00041715  1
  Al0+  Al61  1  0.24956277  0.24856806  0.33705097  1
  Al0+  Al62  1  0.25084723  0.24602294  0.66703912  1
  Al0+  Al63  1  0.25002900  0.75025783  -0.00130438  1
  Al0+  Al64  1  0.24948769  0.74916925  0.33677139  1
  Al0+  Al65  1  0.24778633  0.75237655  0.65914966  1
  Al0+  Al66  1  0.75156690  0.24990395  -0.00308867  1
  Al0+  Al67  1  0.75120440  0.25230942  0.33636079  1
  Al0+  Al68  1  0.75332008  0.24926120  0.66985966  1
  Al0+  Al69  1  0.74845753  0.75088824  -0.00114690  1
  Al0+  Al70  1  0.75365321  0.75253965  0.32940867  1
  Al0+  Al71  1  0.75123161  0.75275265  0.66858226  1
  Al0+  Al72  1  0.81980247  0.07112243  0.01500827  1
  Al0+  Al73  1  0.17843718  0.42542635  0.68213585  1
  Al0+  Al74  1  0.32197355  0.57289727  0.01668846  1
  Al0+  Al75  1  0.42923249  0.31893160  0.65469586  1
  Al0+  Al76  1  0.06908274  0.68005928  0.98836868  1
  Al0+  Al77  1  0.17822273  0.42964076  0.34613626  1
  Al0+  Al78  1  0.17791761  0.92722008  0.34969863  1
  Al0+  Al79  1  0.57226604  0.67904095  0.31942948  1
  Al0+  Al80  1  0.31946831  0.57304618  0.68068254  1
  Al0+  Al81  1  0.17794033  0.42925300  0.01475742  1
  Al0+  Al82  1  0.67918478  0.43061195  0.34503763  1
  Al0+  Al83  1  0.42845703  0.81965081  0.98693746  1
  Al0+  Al84  1  0.07316110  0.17831592  0.98596351  1
  Al0+  Al85  1  0.57073081  0.67850571  0.65208077  1
  Al0+  Al86  1  0.57007956  0.18083168  0.98660840  1
  Al0+  Al87  1  0.42531332  0.32132987  0.31597652  1
  Al0+  Al88  1  0.67677094  0.42873005  0.68271838  1
  Al0+  Al89  1  0.42700778  0.82302530  0.64850611  1
  Al0+  Al90  1  0.92874693  0.32218651  0.98335076  1
  Al0+  Al91  1  0.81955336  0.57253944  0.68180782  1
  Al0+  Al92  1  0.06896966  0.67667172  0.65148717  1
  Al0+  Al93  1  0.57233189  0.67551166  0.98444955  1
  Al0+  Al94  1  0.32391879  0.07010256  0.34874910  1
  Al0+  Al95  1  0.57276489  0.17870832  0.31947072  1
  Si0+  Si96  1  0.92716103  0.82356378  0.98464883  1
  Si0+  Si97  1  0.32228088  0.57142676  0.34912194  1
  Si0+  Si98  1  0.82039402  0.57267135  0.01544215  1
  Si0+  Si99  1  0.32324831  0.07080057  0.01339205  1
  Si0+  Si100  1  0.06927044  0.17741516  0.32061335  1
  Si0+  Si101  1  0.17717861  0.93046539  0.68312695  1
  Si0+  Si102  1  0.92831480  0.31907120  0.64810957  1
  Si0+  Si103  1  0.93077181  0.32117679  0.31976474  1
  Si0+  Si104  1  0.82334605  0.07039737  0.68292499  1
  Si0+  Si105  1  0.17898040  0.92966483  0.01286416  1
  Si0+  Si106  1  0.32193022  0.06809076  0.68326564  1
  Si0+  Si107  1  0.42601537  0.32178762  0.98255994  1
  Si0+  Si108  1  0.07032684  0.67897762  0.31846654  1
  Si0+  Si109  1  0.93012841  0.82420548  0.31710118  1
  Si0+  Si110  1  0.07064596  0.17685877  0.64950985  1
  Si0+  Si111  1  0.57486405  0.17880595  0.65158556  1
  Si0+  Si112  1  0.67733917  0.92881489  0.01841800  1
  Si0+  Si113  1  0.82218491  0.57477837  0.34787106  1
  Si0+  Si114  1  0.68104577  0.92711600  0.34859278  1
  Si0+  Si115  1  0.42843499  0.82186703  0.31729094  1
  Si0+  Si116  1  0.92964862  0.82509606  0.65009389  1
  Si0+  Si117  1  0.67860004  0.93052101  0.68309216  1
  Si0+  Si118  1  0.82047867  0.07184759  0.34962769  1
  Si0+  Si119  1  0.67940762  0.42816527  0.01565159  1
  O2-  O120  1  0.24987237  0.00115301  0.05423301  1
  O2-  O121  1  0.25341150  -0.00414469  0.39931797  1
  O2-  O122  1  0.25376924  -0.00531529  0.72619723  1
  O2-  O123  1  0.25065327  0.49943853  0.06621195  1
  O2-  O124  1  0.25491758  0.50127696  0.39287832  1
  O2-  O125  1  0.24506236  0.50287924  0.73039530  1
  O2-  O126  1  0.74542241  -0.00240904  0.06436636  1
  O2-  O127  1  0.74729101  0.00320719  0.39173452  1
  O2-  O128  1  0.74934663  0.00272326  0.72437124  1
  O2-  O129  1  0.74650912  0.50436357  0.05712832  1
  O2-  O130  1  0.74840408  0.51133496  0.39033904  1
  O2-  O131  1  0.74429475  0.50504709  0.73336438  1
  O2-  O132  1  0.00383977  0.25270608  0.27760873  1
  O2-  O133  1  0.00378426  0.25167100  0.60679665  1
  O2-  O134  1  0.00566682  0.25384923  0.93477879  1
  O2-  O135  1  0.00191318  0.75342414  0.27655144  1
  O2-  O136  1  -0.00805392  0.75098594  0.60526068  1
  O2-  O137  1  -0.00738497  0.75287708  0.94024930  1
  O2-  O138  1  0.49842220  0.24775729  0.26921192  1
  O2-  O139  1  0.50927456  0.24937630  0.60771114  1
  O2-  O140  1  0.49596853  0.25397954  0.93851059  1
  O2-  O141  1  0.49518742  0.75172381  0.27317103  1
  O2-  O142  1  0.49529763  0.74658272  0.60023245  1
  O2-  O143  1  0.49627633  0.74411209  0.93695027  1
  O2-  O144  1  0.07056270  0.17527991  0.09996048  1
  O2-  O145  1  0.06454707  0.17555713  0.42600988  1
  O2-  O146  1  0.06777047  0.17189549  0.75400984  1
  O2-  O147  1  0.06763043  0.68320522  0.10206917  1
  O2-  O148  1  0.06615335  0.67745931  0.42318525  1
  O2-  O149  1  0.06844562  0.67969405  0.76447286  1
  O2-  O150  1  0.56949336  0.18222476  0.09944770  1
  O2-  O151  1  0.57424412  0.18051798  0.43307292  1
  O2-  O152  1  0.57358678  0.17710955  0.75730831  1
  O2-  O153  1  0.57444230  0.68002923  0.09845585  1
  O2-  O154  1  0.57463736  0.68019724  0.43217355  1
  O2-  O155  1  0.57162287  0.68266837  0.76487926  1
  O2-  O156  1  0.17234897  0.43274965  0.23366547  1
  O2-  O157  1  0.18084382  0.42611844  0.56802639  1
  O2-  O158  1  0.17947704  0.43119035  0.90168384  1
  O2-  O159  1  0.17542428  0.93029771  0.23564652  1
  O2-  O160  1  0.17126501  0.93635251  0.57865642  1
  O2-  O161  1  0.17772753  0.93036737  0.90768297  1
  O2-  O162  1  0.68448880  0.42805299  0.23180031  1
  O2-  O163  1  0.67963829  0.42620421  0.56891056  1
  O2-  O164  1  0.68059777  0.42629729  0.91087893  1
  O2-  O165  1  0.68529894  0.92443131  0.24403612  1
  O2-  O166  1  0.68024612  0.93203635  0.57749658  1
  O2-  O167  1  0.67994188  0.93082845  0.91276180  1
  O2-  O168  1  0.42550356  0.31926950  0.08808561  1
  O2-  O169  1  0.42633964  0.32147245  0.42969920  1
  O2-  O170  1  0.42844712  0.31378103  0.76769681  1
  O2-  O171  1  0.43022059  0.82305231  0.10075201  1
  O2-  O172  1  0.43172884  0.82270012  0.42246919  1
  O2-  O173  1  0.43158979  0.82754251  0.76152799  1
  O2-  O174  1  0.92735776  0.31964091  0.09786915  1
  O2-  O175  1  0.93038605  0.31878076  0.42498772  1
  O2-  O176  1  0.92434330  0.31589508  0.75246630  1
  O2-  O177  1  0.92912069  0.82387901  0.09077606  1
  O2-  O178  1  0.92719788  0.82724127  0.42177573  1
  O2-  O179  1  0.93484210  0.83380733  0.75494417  1
  O2-  O180  1  0.32161524  0.06839175  0.23461210  1
  O2-  O181  1  0.32031235  0.06867766  0.57848831  1
  O2-  O182  1  0.32354127  0.06962260  0.90802311  1
  O2-  O183  1  0.31853241  0.57440678  0.24372603  1
  O2-  O184  1  0.31940066  0.56954164  0.56664979  1
  O2-  O185  1  0.31970303  0.57461700  0.90344207  1
  O2-  O186  1  0.82363926  0.07042425  0.24500568  1
  O2-  O187  1  0.82478795  0.06927592  0.57727873  1
  O2-  O188  1  0.81927953  0.06798830  0.90164703  1
  O2-  O189  1  0.82552546  0.57389596  0.24208492  1
  O2-  O190  1  0.81966237  0.56797460  0.56758928  1
  O2-  O191  1  0.82171126  0.57231375  0.91094871  1
  O2-  O192  1  0.03620199  0.08705396  0.27348184  1
  O2-  O193  1  0.03611209  0.08792681  0.59962179  1
  O2-  O194  1  0.03861982  0.08160964  0.93172835  1
  O2-  O195  1  0.03756910  0.58941165  0.26929723  1
  O2-  O196  1  0.03646857  0.58006569  0.59732410  1
  O2-  O197  1  0.03750357  0.58511701  0.93371551  1
  O2-  O198  1  0.55072269  0.07773041  0.26817979  1
  O2-  O199  1  0.54744083  0.08576487  0.60576867  1
  O2-  O200  1  0.54203094  0.08397894  0.93195935  1
  O2-  O201  1  0.54383335  0.58326346  0.26375958  1
  O2-  O202  1  0.54468404  0.57856640  0.60119274  1
  O2-  O203  1  0.55038353  0.57455109  0.93580308  1
  O2-  O204  1  0.16339396  0.19772344  0.27662936  1
  O2-  O205  1  0.16422681  0.19893081  0.60388114  1
  O2-  O206  1  0.17280660  0.19892139  0.93246774  1
  O2-  O207  1  0.16326690  0.70432005  0.27248576  1
  O2-  O208  1  0.16266630  0.71042737  0.59442008  1
  O2-  O209  1  0.16356369  0.71368243  0.93368909  1
  O2-  O210  1  0.67205921  0.20966997  0.26820675  1
  O2-  O211  1  0.67116699  0.19825877  0.60826874  1
  O2-  O212  1  0.66656228  0.20995840  0.93262652  1
  O2-  O213  1  0.66973383  0.71147751  0.26667111  1
  O2-  O214  1  0.66979882  0.71189824  0.60090410  1
  O2-  O215  1  0.67012347  0.70738949  0.93199577  1
  O2-  O216  1  0.07743900  0.45742388  0.06476995  1
  O2-  O217  1  0.08200981  0.46292027  0.40144899  1
  O2-  O218  1  0.07608198  0.44597702  0.72815723  1
  O2-  O219  1  0.08719805  0.95662582  0.06132284  1
  O2-  O220  1  0.08069825  0.95925338  0.40451601  1
  O2-  O221  1  0.08829551  0.96529145  0.73262876  1
  O2-  O222  1  0.58653237  0.44982918  0.06355079  1
  O2-  O223  1  0.58017151  0.45704196  0.39515373  1
  O2-  O224  1  0.57756810  0.45041921  0.73526005  1
  O2-  O225  1  0.58364852  0.95509590  0.06319715  1
  O2-  O226  1  0.58891705  0.95058307  0.39659259  1
  O2-  O227  1  0.58760168  0.95938935  0.73108716  1
  O2-  O228  1  0.20388209  0.32831225  0.06554388  1
  O2-  O229  1  0.20150014  0.33087501  0.39880950  1
  O2-  O230  1  0.20803970  0.32639729  0.73315571  1
  O2-  O231  1  0.20619181  0.83896953  0.06211976  1
  O2-  O232  1  0.20037394  0.82718255  0.40147652  1
  O2-  O233  1  0.19780842  0.83569704  0.72609241  1
  O2-  O234  1  0.71431404  0.33871742  0.06302765  1
  O2-  O235  1  0.71605332  0.33728595  0.40220313  1
  O2-  O236  1  0.71222661  0.33098307  0.73495346  1
  O2-  O237  1  0.70422284  0.83530691  0.06459843  1
  O2-  O238  1  0.71672872  0.83870149  0.39832119  1
  O2-  O239  1  0.70776049  0.84054451  0.73212924  1
  O2-  O240  1  0.45435311  0.41773310  0.26024863  1
  O2-  O241  1  0.45456728  0.41597191  0.60015933  1
  O2-  O242  1  0.45261739  0.41539188  0.93880716  1
  O2-  O243  1  0.45606237  0.91503753  0.27164199  1
  O2-  O244  1  0.46394320  0.91974727  0.59498370  1
  O2-  O245  1  0.46023783  0.91598843  0.93098538  1
  O2-  O246  1  0.95540507  0.41397869  0.27276838  1
  O2-  O247  1  0.95118147  0.41079922  0.59893449  1
  O2-  O248  1  0.95042779  0.42100280  0.92986853  1
  O2-  O249  1  0.95838229  0.91613469  0.26923945  1
  O2-  O250  1  0.96121405  0.91593914  0.59950586  1
  O2-  O251  1  0.95423957  0.91640042  0.93865968  1
  O2-  O252  1  0.32652738  0.29033241  0.26452749  1
  O2-  O253  1  0.33477738  0.28138710  0.59960247  1
  O2-  O254  1  0.33383470  0.29403967  0.93602362  1
  O2-  O255  1  0.33226519  0.79975168  0.27460167  1
  O2-  O256  1  0.32568075  0.80707211  0.59761833  1
  O2-  O257  1  0.32909362  0.79780867  0.93351737  1
  O2-  O258  1  0.84031238  0.29037541  0.27235972  1
  O2-  O259  1  0.83868778  0.28454061  0.59894792  1
  O2-  O260  1  0.83428831  0.28597427  0.92807465  1
  O2-  O261  1  0.84007579  0.79721513  0.26590115  1
  O2-  O262  1  0.83355736  0.80704601  0.60642188  1
  O2-  O263  1  0.83226168  0.80292819  0.94030529  1
  O2-  O264  1  0.41419069  0.04041182  0.06090944  1
  O2-  O265  1  0.42296451  0.04340450  0.40249046  1
  O2-  O266  1  0.41548402  0.04330289  0.72921379  1
  O2-  O267  1  0.42114104  0.54465020  0.06899374  1
  O2-  O268  1  0.41709996  0.54619761  0.39146282  1
  O2-  O269  1  0.41668666  0.54356123  0.73408395  1
  O2-  O270  1  0.91589473  0.03903898  0.07074757  1
  O2-  O271  1  0.90990951  0.03999891  0.40006305  1
  O2-  O272  1  0.91369785  0.03818527  0.73018279  1
  O2-  O273  1  0.91072070  0.54268961  0.06494025  1
  O2-  O274  1  0.91301426  0.54261605  0.39572850  1
  O2-  O275  1  0.91559682  0.53583307  0.73403423  1
  O2-  O276  1  0.29730739  0.16228668  0.06152875  1
  O2-  O277  1  0.29125733  0.16612156  0.40391785  1
  O2-  O278  1  0.29030778  0.15756303  0.73221824  1
  O2-  O279  1  0.29107933  0.67131846  0.06958107  1
  O2-  O280  1  0.29704997  0.66442209  0.39632699  1
  O2-  O281  1  0.29222373  0.67449176  0.72832047  1
  O2-  O282  1  0.78955999  0.16802015  0.06844840  1
  O2-  O283  1  0.79574796  0.16359632  0.39867089  1
  O2-  O284  1  0.79956745  0.16248129  0.73039271  1
  O2-  O285  1  0.79735371  0.66663305  0.06242555  1
  O2-  O286  1  0.80484478  0.67098362  0.39186390  1
  O2-  O287  1  0.80428912  0.67524428  0.73130950  1
