# generated using pymatgen
data_Ca2Al2SiO7
_symmetry_space_group_name_H-M   'P 1'
_cell_length_a   15.47304573
_cell_length_b   15.47077169
_cell_length_c   15.29395585
_cell_angle_alpha   89.99378615
_cell_angle_beta   90.00587257
_cell_angle_gamma   89.95980004
_symmetry_Int_Tables_number   1
_chemical_formula_structural   Ca2Al2SiO7
_chemical_formula_sum   'Ca48 Al48 Si24 O168'
_cell_volume   3661.06556329
_cell_formula_units_Z   24
loop_
 _symmetry_equiv_pos_site_id
 _symmetry_equiv_pos_as_xyz
  1  'x, y, z'
loop_
 _atom_type_symbol
 _atom_type_oxidation_number
  Ca2+  2.0
  Al0+  0.0
  Si0+  0.0
  O2-  -2.0
loop_
 _atom_site_type_symbol
 _atom_site_label
 _atom_site_symmetry_multiplicity
 _atom_site_fract_x
 _atom_site_fract_y
 _atom_site_fract_z
 _atom_site_occupancy
  Ca2+  Ca0  1  0.16927955  0.08048750  0.17380993  1
  Ca2+  Ca1  1  0.18005302  0.09006497  0.49896337  1
  Ca2+  Ca2  1  0.17180026  0.07954476  0.83926215  1
  Ca2+  Ca3  1  0.17092920  0.57885888  0.17789981  1
  Ca2+  Ca4  1  0.17064552  0.57704304  0.49905595  1
  Ca2+  Ca5  1  0.16399443  0.57502845  0.83956961  1
  Ca2+  Ca6  1  0.67148028  0.09318296  0.17732685  1
  Ca2+  Ca7  1  0.66993110  0.08844342  0.49741380  1
  Ca2+  Ca8  1  0.66832888  0.08774295  0.84000642  1
  Ca2+  Ca9  1  0.65933547  0.58022925  0.17579164  1
  Ca2+  Ca10  1  0.65581777  0.57806183  0.50014026  1
  Ca2+  Ca11  1  0.66315210  0.58713848  0.83862664  1
  Ca2+  Ca12  1  0.09478043  0.31934067  0.16729427  1
  Ca2+  Ca13  1  0.08243091  0.33605193  0.49359662  1
  Ca2+  Ca14  1  0.08254483  0.32876660  0.82591131  1
  Ca2+  Ca15  1  0.08779682  0.82374258  0.16237684  1
  Ca2+  Ca16  1  0.07753707  0.82854252  0.48663987  1
  Ca2+  Ca17  1  0.09206100  0.82859164  0.83792843  1
  Ca2+  Ca18  1  0.57505065  0.32835722  0.16735650  1
  Ca2+  Ca19  1  0.57006953  0.33157415  0.49018608  1
  Ca2+  Ca20  1  0.56932764  0.32935041  0.83256059  1
  Ca2+  Ca21  1  0.56951275  0.82604796  0.16525682  1
  Ca2+  Ca22  1  0.57894047  0.82116265  0.49135451  1
  Ca2+  Ca23  1  0.58041636  0.82594378  0.83151135  1
  Ca2+  Ca24  1  0.33504070  0.42131246  0.17838599  1
  Ca2+  Ca25  1  0.32632423  0.41325184  0.49954343  1
  Ca2+  Ca26  1  0.33443275  0.41306904  0.83298650  1
  Ca2+  Ca27  1  0.33373839  0.91647416  0.17303297  1
  Ca2+  Ca28  1  0.34705558  0.93085545  0.49804719  1
  Ca2+  Ca29  1  0.33259882  0.92228534  0.84126432  1
  Ca2+  Ca30  1  0.82170281  0.41766240  0.17607779  1
  Ca2+  Ca31  1  0.82549662  0.41295236  0.50226581  1
  Ca2+  Ca32  1  0.83302805  0.41566737  0.83655903  1
  Ca2+  Ca33  1  0.83011391  0.92092623  0.17735594  1
  Ca2+  Ca34  1  0.83802612  0.92159674  0.49731596  1
  Ca2+  Ca35  1  0.82926251  0.91773285  0.83976874  1
  Ca2+  Ca36  1  0.41520364  0.17861586  0.16430475  1
  Ca2+  Ca37  1  0.41404940  0.17315378  0.49027082  1
  Ca2+  Ca38  1  0.41175745  0.17529129  0.82910124  1
  Ca2+  Ca39  1  0.41862896  0.67065916  0.16476556  1
  Ca2+  Ca40  1  0.42237503  0.66790680  0.48900773  1
  Ca2+  Ca41  1  0.42513690  0.67169516  0.83304310  1
  Ca2+  Ca42  1  0.92839995  0.16078339  0.16735311  1
  Ca2+  Ca43  1  0.92349134  0.17077919  0.49112620  1
  Ca2+  Ca44  1  0.92535562  0.17184172  0.83049091  1
  Ca2+  Ca45  1  0.92863901  0.66846900  0.16929347  1
  Ca2+  Ca46  1  0.92414994  0.67296221  0.49009972  1
  Ca2+  Ca47  1  0.92427321  0.66505408  0.83233857  1
  Al0+  Al48  1  0.00053488  0.00000090  -0.00123684  1
  Al0+  Al49  1  -0.00207349  0.00188518  0.33239224  1
  Al0+  Al50  1  -0.00004734  -0.00037238  0.66959913  1
  Al0+  Al51  1  -0.00138821  0.50086958  -0.00011777  1
  Al0+  Al52  1  -0.00336197  0.50026507  0.33303685  1
  Al0+  Al53  1  -0.00159190  0.49992036  0.66686211  1
  Al0+  Al54  1  0.50172291  0.00082827  -0.00436680  1
  Al0+  Al55  1  0.50348535  -0.00178863  0.33186101  1
  Al0+  Al56  1  0.50262893  -0.00048635  0.67412004  1
  Al0+  Al57  1  0.49971385  0.49916484  -0.00710475  1
  Al0+  Al58  1  0.49894400  0.49890832  0.33626494  1
  Al0+  Al59  1  0.49924800  0.49784938  0.66195488  1
  Al0+  Al60  1  0.24786719  0.24923301  -0.00917507  1
  Al0+  Al61  1  0.24853380  0.24916505  0.33285616  1
  Al0+  Al62  1  0.24942665  0.24915980  0.67228275  1
  Al0+  Al63  1  0.24961444  0.74889038  -0.00583198  1
  Al0+  Al64  1  0.24942709  0.74891456  0.33291981  1
  Al0+  Al65  1  0.25185473  0.75002565  0.66618111  1
  Al0+  Al66  1  0.74949635  0.25236085  -0.00161390  1
  Al0+  Al67  1  0.75068201  0.25134451  0.34166556  1
  Al0+  Al68  1  0.75127781  0.25085716  0.66726984  1
  Al0+  Al69  1  0.75258392  0.75106463  0.00074801  1
  Al0+  Al70  1  0.75087056  0.75025631  0.32719735  1
  Al0+  Al71  1  0.75116332  0.74931650  0.66404862  1
  Al0+  Al72  1  0.32119383  0.06957623  0.68137426  1
  Al0+  Al73  1  0.42753206  0.31767206  0.65001870  1
  Al0+  Al74  1  0.57227740  0.67983209  0.98565269  1
  Al0+  Al75  1  0.57317861  0.17919800  0.32194109  1
  Al0+  Al76  1  0.07152669  0.67745581  0.31961848  1
  Al0+  Al77  1  0.42717522  0.82204067  0.98376161  1
  Al0+  Al78  1  0.57073185  0.68027031  0.65199174  1
  Al0+  Al79  1  0.32247302  0.06917483  0.34302116  1
  Al0+  Al80  1  0.42682275  0.31935543  0.31966267  1
  Al0+  Al81  1  0.07068533  0.67773816  0.98531577  1
  Al0+  Al82  1  0.67845677  0.43003319  0.34822661  1
  Al0+  Al83  1  0.42784381  0.82261089  0.32007984  1
  Al0+  Al84  1  0.92904949  0.82310855  0.31780765  1
  Al0+  Al85  1  0.18087666  0.92888872  0.01433873  1
  Al0+  Al86  1  0.06983118  0.17752212  0.98465612  1
  Al0+  Al87  1  0.92917783  0.32167123  0.65233562  1
  Al0+  Al88  1  0.56984890  0.67670161  0.31900856  1
  Al0+  Al89  1  0.42756607  0.32051235  0.98365796  1
  Al0+  Al90  1  0.82172177  0.07109068  0.34797402  1
  Al0+  Al91  1  0.07071251  0.18099307  0.32173409  1
  Al0+  Al92  1  0.17819489  0.43209859  0.68165665  1
  Al0+  Al93  1  0.32118970  0.57264210  0.34777490  1
  Al0+  Al94  1  0.17734485  0.42763015  0.34622652  1
  Al0+  Al95  1  0.57393198  0.17967204  0.98545369  1
  Si0+  Si96  1  0.17521028  0.92607220  0.68286633  1
  Si0+  Si97  1  0.92638729  0.32259105  0.31710327  1
  Si0+  Si98  1  0.67781208  0.42890353  0.68415477  1
  Si0+  Si99  1  0.57301743  0.17624734  0.65050282  1
  Si0+  Si100  1  0.92964713  0.82092914  0.65343896  1
  Si0+  Si101  1  0.82283158  0.57255415  0.01662358  1
  Si0+  Si102  1  0.32242647  0.07351697  0.01674309  1
  Si0+  Si103  1  0.92788771  0.32216279  0.98514876  1
  Si0+  Si104  1  0.67911053  0.43162124  0.01398408  1
  Si0+  Si105  1  0.81930528  0.57138663  0.68258586  1
  Si0+  Si106  1  0.82225309  0.07188206  0.68435013  1
  Si0+  Si107  1  0.67894056  0.92772084  0.01598211  1
  Si0+  Si108  1  0.81938230  0.07170724  0.01433593  1
  Si0+  Si109  1  0.92963931  0.82204356  0.98229189  1
  Si0+  Si110  1  0.17729869  0.92785409  0.34822530  1
  Si0+  Si111  1  0.82085814  0.57347157  0.35081661  1
  Si0+  Si112  1  0.07173751  0.67873552  0.65282604  1
  Si0+  Si113  1  0.67941588  0.92615237  0.35082981  1
  Si0+  Si114  1  0.32044358  0.56816600  0.01186711  1
  Si0+  Si115  1  0.32367121  0.57308451  0.68517542  1
  Si0+  Si116  1  0.07033087  0.17718840  0.64955585  1
  Si0+  Si117  1  0.17663589  0.42789539  0.01384866  1
  Si0+  Si118  1  0.68299486  0.92772161  0.68261859  1
  Si0+  Si119  1  0.42820455  0.82409542  0.65014306  1
  O2-  O120  1  0.25714409  0.00165312  0.06094761  1
  O2-  O121  1  0.24958352  -0.00726964  0.39228506  1
  O2-  O122  1  0.24679705  -0.00742700  0.72531153  1
  O2-  O123  1  0.25033902  0.49618302  0.05415167  1
  O2-  O124  1  0.24837134  0.50032693  0.39660775  1
  O2-  O125  1  0.25243114  0.50694226  0.73012550  1
  O2-  O126  1  0.74527968  0.00417165  0.05654343  1
  O2-  O127  1  0.74726362  -0.00379066  0.39543646  1
  O2-  O128  1  0.75056756  0.00174549  0.72660111  1
  O2-  O129  1  0.74748254  0.50540583  0.05660095  1
  O2-  O130  1  0.75042537  0.50767040  0.39614136  1
  O2-  O131  1  0.74802621  0.50130520  0.72648986  1
  O2-  O132  1  -0.00181252  0.25754310  0.27327610  1
  O2-  O133  1  0.00356805  0.24755884  0.60559679  1
  O2-  O134  1  -0.00245187  0.25545810  0.93979868  1
  O2-  O135  1  0.00392079  0.75377273  0.26926918  1
  O2-  O136  1  0.00651391  0.75606818  0.61275763  1
  O2-  O137  1  -0.00246800  0.75344326  0.93671928  1
  O2-  O138  1  0.49813112  0.24623618  0.27059613  1
  O2-  O139  1  0.50183494  0.24115801  0.60630933  1
  O2-  O140  1  0.49641881  0.24443005  0.93437062  1
  O2-  O141  1  0.49568449  0.74658636  0.27059404  1
  O2-  O142  1  0.49289619  0.75171691  0.60690070  1
  O2-  O143  1  0.50271890  0.75300386  0.93412889  1
  O2-  O144  1  0.06923129  0.17726643  0.09743325  1
  O2-  O145  1  0.06950524  0.18066970  0.43481916  1
  O2-  O146  1  0.06624418  0.17646830  0.75549485  1
  O2-  O147  1  0.06855065  0.67556082  0.09727713  1
  O2-  O148  1  0.06796085  0.67877258  0.43401882  1
  O2-  O149  1  0.06855682  0.67766467  0.75817600  1
  O2-  O150  1  0.58057546  0.18571239  0.09784698  1
  O2-  O151  1  0.57237655  0.18159237  0.43586008  1
  O2-  O152  1  0.57474247  0.17872840  0.75620238  1
  O2-  O153  1  0.57106589  0.67864996  0.09813969  1
  O2-  O154  1  0.57044601  0.68012417  0.43289204  1
  O2-  O155  1  0.57333471  0.68405956  0.76508598  1
  O2-  O156  1  0.17916482  0.42764334  0.23209897  1
  O2-  O157  1  0.17547926  0.43456522  0.56936975  1
  O2-  O158  1  0.17341377  0.43070733  0.90849902  1
  O2-  O159  1  0.17592922  0.93002359  0.24265267  1
  O2-  O160  1  0.16781759  0.92601144  0.57811649  1
  O2-  O161  1  0.18134417  0.93137993  0.90064388  1
  O2-  O162  1  0.68136039  0.42933300  0.23456107  1
  O2-  O163  1  0.67954305  0.42857614  0.57956134  1
  O2-  O164  1  0.68231857  0.43156532  0.90851557  1
  O2-  O165  1  0.68110463  0.92546452  0.24534940  1
  O2-  O166  1  0.68558565  0.92644118  0.57817874  1
  O2-  O167  1  0.68464813  0.92460107  0.91029318  1
  O2-  O168  1  0.42791332  0.32342678  0.09654712  1
  O2-  O169  1  0.42637966  0.31728881  0.43325298  1
  O2-  O170  1  0.43056780  0.31826550  0.76323708  1
  O2-  O171  1  0.42684541  0.81946384  0.09667288  1
  O2-  O172  1  0.43320013  0.82469031  0.43396864  1
  O2-  O173  1  0.43006714  0.82447559  0.75571704  1
  O2-  O174  1  0.92493347  0.32153967  0.09011471  1
  O2-  O175  1  0.92613670  0.32055773  0.42296224  1
  O2-  O176  1  0.92888988  0.31931144  0.76591127  1
  O2-  O177  1  0.92910205  0.82218452  0.08691344  1
  O2-  O178  1  0.93071287  0.82170405  0.43260388  1
  O2-  O179  1  0.92612321  0.81939080  0.75852547  1
  O2-  O180  1  0.31952694  0.07042889  0.23028872  1
  O2-  O181  1  0.32153595  0.06905675  0.56824637  1
  O2-  O182  1  0.31861200  0.07306471  0.91072719  1
  O2-  O183  1  0.32113054  0.57158591  0.23349293  1
  O2-  O184  1  0.32213022  0.57482180  0.58027551  1
  O2-  O185  1  0.31922823  0.56681791  0.90637116  1
  O2-  O186  1  0.82084690  0.07147463  0.23452487  1
  O2-  O187  1  0.82434729  0.07074706  0.57991862  1
  O2-  O188  1  0.81906199  0.06971893  0.90856296  1
  O2-  O189  1  0.82211208  0.57037108  0.24506082  1
  O2-  O190  1  0.81997175  0.57282601  0.57817096  1
  O2-  O191  1  0.82530272  0.57079549  0.91100980  1
  O2-  O192  1  0.03656294  0.08639578  0.26681118  1
  O2-  O193  1  0.04214581  0.08354728  0.60533765  1
  O2-  O194  1  0.03488100  0.08318723  0.92859800  1
  O2-  O195  1  0.03705233  0.58135102  0.26539966  1
  O2-  O196  1  0.03624539  0.59042328  0.60543761  1
  O2-  O197  1  0.03473115  0.58274208  0.92985229  1
  O2-  O198  1  0.55554171  0.07826118  0.27188684  1
  O2-  O199  1  0.55311470  0.07956333  0.60924144  1
  O2-  O200  1  0.55690234  0.07812380  0.93476591  1
  O2-  O201  1  0.54401056  0.57784622  0.26793884  1
  O2-  O202  1  0.54358095  0.58212666  0.60122362  1
  O2-  O203  1  0.54291885  0.58296683  0.93006712  1
  O2-  O204  1  0.16542815  0.20952858  0.26417735  1
  O2-  O205  1  0.16520191  0.20135620  0.60833157  1
  O2-  O206  1  0.16421367  0.20676124  0.92678480  1
  O2-  O207  1  0.17016485  0.70124872  0.26691488  1
  O2-  O208  1  0.16612951  0.69972913  0.60811839  1
  O2-  O209  1  0.16529015  0.70724127  0.92768273  1
  O2-  O210  1  0.67109795  0.21267967  0.27140546  1
  O2-  O211  1  0.66704627  0.20346219  0.60677622  1
  O2-  O212  1  0.67002389  0.21377226  0.92865433  1
  O2-  O213  1  0.66828278  0.70413636  0.26675342  1
  O2-  O214  1  0.66720609  0.71301699  0.59891323  1
  O2-  O215  1  0.67279954  0.70698567  0.93463675  1
  O2-  O216  1  0.08539988  0.45715890  0.06108317  1
  O2-  O217  1  0.07708380  0.45448483  0.39732138  1
  O2-  O218  1  0.08099888  0.46351407  0.73645911  1
  O2-  O219  1  0.08272387  0.95966430  0.06543241  1
  O2-  O220  1  0.08481631  0.95716536  0.39471128  1
  O2-  O221  1  0.08291072  0.95323921  0.73305749  1
  O2-  O222  1  0.58615314  0.45740320  0.05901214  1
  O2-  O223  1  0.58287812  0.45891647  0.40453421  1
  O2-  O224  1  0.58561120  0.45655676  0.73053900  1
  O2-  O225  1  0.58451246  0.94881343  0.05980523  1
  O2-  O226  1  0.58683627  0.95036007  0.39912596  1
  O2-  O227  1  0.59124920  0.95170335  0.73220942  1
  O2-  O228  1  0.20181175  0.33340421  0.05609050  1
  O2-  O229  1  0.20519297  0.32998006  0.40089014  1
  O2-  O230  1  0.20680760  0.33457378  0.73545494  1
  O2-  O231  1  0.20802032  0.82926828  0.06415176  1
  O2-  O232  1  0.19642592  0.83283422  0.39346824  1
  O2-  O233  1  0.19958597  0.83116361  0.72825717  1
  O2-  O234  1  0.71146889  0.34134234  0.06156738  1
  O2-  O235  1  0.71363662  0.33726605  0.40695122  1
  O2-  O236  1  0.70890956  0.33777407  0.73193566  1
  O2-  O237  1  0.71285099  0.83856101  0.06466722  1
  O2-  O238  1  0.70878395  0.83324019  0.39714309  1
  O2-  O239  1  0.71670248  0.83779117  0.73138978  1
  O2-  O240  1  0.45734739  0.41719638  0.26899441  1
  O2-  O241  1  0.45920084  0.41411398  0.59772442  1
  O2-  O242  1  0.46091666  0.41588013  0.92696726  1
  O2-  O243  1  0.46095509  0.91782199  0.26409239  1
  O2-  O244  1  0.46043625  0.91672819  0.60633973  1
  O2-  O245  1  0.45377339  0.92116611  0.93138317  1
  O2-  O246  1  0.94442759  0.41762458  0.27202389  1
  O2-  O247  1  0.95657675  0.41923696  0.59936476  1
  O2-  O248  1  0.95184385  0.41604331  0.93863294  1
  O2-  O249  1  0.95177216  0.92259880  0.26633771  1
  O2-  O250  1  0.95208867  0.91523504  0.60842704  1
  O2-  O251  1  0.95469693  0.91493996  0.93429648  1
  O2-  O252  1  0.32963990  0.29154456  0.26538490  1
  O2-  O253  1  0.32900831  0.28778897  0.60086639  1
  O2-  O254  1  0.32940517  0.29502942  0.92833587  1
  O2-  O255  1  0.32783500  0.79993210  0.26964967  1
  O2-  O256  1  0.33233496  0.80480082  0.60632212  1
  O2-  O257  1  0.33169237  0.79010967  0.92714400  1
  O2-  O258  1  0.83438689  0.29226684  0.27189236  1
  O2-  O259  1  0.83218739  0.29054975  0.59962073  1
  O2-  O260  1  0.83597389  0.29530933  0.93597755  1
  O2-  O261  1  0.83277261  0.79345448  0.26251392  1
  O2-  O262  1  0.84123562  0.78826410  0.60359034  1
  O2-  O263  1  0.83668679  0.79509533  0.93488490  1
  O2-  O264  1  0.41952238  0.05424803  0.05732730  1
  O2-  O265  1  0.41956984  0.03991945  0.39847236  1
  O2-  O266  1  0.41848125  0.04150534  0.73711944  1
  O2-  O267  1  0.41315581  0.54097884  0.05748795  1
  O2-  O268  1  0.41826054  0.54416629  0.40249933  1
  O2-  O269  1  0.41664982  0.54276852  0.73042149  1
  O2-  O270  1  0.91063869  0.04106962  0.06027932  1
  O2-  O271  1  0.91709339  0.03931186  0.40525587  1
  O2-  O272  1  0.91319775  0.04226134  0.73365440  1
  O2-  O273  1  0.91228457  0.54020982  0.06591552  1
  O2-  O274  1  0.91290268  0.54575141  0.39921590  1
  O2-  O275  1  0.91021327  0.54201375  0.73176269  1
  O2-  O276  1  0.29117966  0.16706255  0.05937512  1
  O2-  O277  1  0.28724678  0.16344029  0.39897378  1
  O2-  O278  1  0.28738967  0.16379419  0.73813902  1
  O2-  O279  1  0.29143664  0.66011348  0.05680737  1
  O2-  O280  1  0.29342061  0.67091425  0.40317187  1
  O2-  O281  1  0.30158888  0.66869926  0.73022588  1
  O2-  O282  1  0.79516012  0.16529757  0.05948748  1
  O2-  O283  1  0.79159162  0.16583307  0.40605937  1
  O2-  O284  1  0.79470134  0.16388463  0.73222078  1
  O2-  O285  1  0.80089389  0.66621642  0.06217769  1
  O2-  O286  1  0.79944636  0.66903820  0.39458689  1
  O2-  O287  1  0.79229791  0.66353542  0.73114733  1
