# generated using pymatgen
data_Ca2Al2SiO7
_symmetry_space_group_name_H-M   'P 1'
_cell_length_a   15.46615928
_cell_length_b   15.46862829
_cell_length_c   15.28965843
_cell_angle_alpha   90.00980547
_cell_angle_beta   89.99272047
_cell_angle_gamma   90.01403629
_symmetry_Int_Tables_number   1
_chemical_formula_structural   Ca2Al2SiO7
_chemical_formula_sum   'Ca48 Al48 Si24 O168'
_cell_volume   3657.90180112
_cell_formula_units_Z   24
loop_
 _symmetry_equiv_pos_site_id
 _symmetry_equiv_pos_as_xyz
  1  'x, y, z'
loop_
 _atom_type_symbol
 _atom_type_oxidation_number
  Ca2+  2.0
  Al0+  0.0
  Si0+  0.0
  O2-  -2.0
loop_
 _atom_site_type_symbol
 _atom_site_label
 _atom_site_symmetry_multiplicity
 _atom_site_fract_x
 _atom_site_fract_y
 _atom_site_fract_z
 _atom_site_occupancy
  Ca2+  Ca0  1  0.17330635  0.08693127  0.16701395  1
  Ca2+  Ca1  1  0.16521031  0.07531701  0.50723038  1
  Ca2+  Ca2  1  0.16483850  0.07518978  0.83726735  1
  Ca2+  Ca3  1  0.17522659  0.58497451  0.17083166  1
  Ca2+  Ca4  1  0.17727303  0.58021521  0.50764393  1
  Ca2+  Ca5  1  0.17533397  0.58526926  0.83744061  1
  Ca2+  Ca6  1  0.66903817  0.07199349  0.17175423  1
  Ca2+  Ca7  1  0.67085220  0.07771204  0.50758105  1
  Ca2+  Ca8  1  0.66973082  0.08680376  0.83135606  1
  Ca2+  Ca9  1  0.66550831  0.57640934  0.17347448  1
  Ca2+  Ca10  1  0.67379543  0.57762808  0.50012436  1
  Ca2+  Ca11  1  0.67189803  0.57472040  0.83660219  1
  Ca2+  Ca12  1  0.07742488  0.33975268  0.16104758  1
  Ca2+  Ca13  1  0.08149884  0.34409761  0.50065477  1
  Ca2+  Ca14  1  0.07211372  0.33812501  0.82674010  1
  Ca2+  Ca15  1  0.07130692  0.82342072  0.15818998  1
  Ca2+  Ca16  1  0.07340693  0.83361528  0.49785562  1
  Ca2+  Ca17  1  0.07921399  0.82854730  0.82905528  1
  Ca2+  Ca18  1  0.57869430  0.34148654  0.15844189  1
  Ca2+  Ca19  1  0.59214367  0.33418930  0.50066746  1
  Ca2+  Ca20  1  0.57983693  0.33773678  0.82737176  1
  Ca2+  Ca21  1  0.58871172  0.81784013  0.16441817  1
  Ca2+  Ca22  1  0.58335446  0.82537919  0.48981270  1
  Ca2+  Ca23  1  0.58176281  0.82327368  0.83181754  1
  Ca2+  Ca24  1  0.33124222  0.42592398  0.17109004  1
  Ca2+  Ca25  1  0.32360003  0.42649365  0.50345839  1
  Ca2+  Ca26  1  0.33108066  0.42311807  0.83798381  1
  Ca2+  Ca27  1  0.33675460  0.92407886  0.16630090  1
  Ca2+  Ca28  1  0.32450089  0.91512880  0.50912950  1
  Ca2+  Ca29  1  0.32732396  0.92229705  0.83756355  1
  Ca2+  Ca30  1  0.82353734  0.42155424  0.17362082  1
  Ca2+  Ca31  1  0.82888625  0.42910330  0.51062586  1
  Ca2+  Ca32  1  0.82463738  0.40986530  0.83704208  1
  Ca2+  Ca33  1  0.83114343  0.90894678  0.17366804  1
  Ca2+  Ca34  1  0.83193693  0.91610871  0.50602112  1
  Ca2+  Ca35  1  0.84434859  0.92123350  0.83356267  1
  Ca2+  Ca36  1  0.41796702  0.17572739  0.15584713  1
  Ca2+  Ca37  1  0.42609859  0.16716647  0.49785553  1
  Ca2+  Ca38  1  0.42066633  0.17136156  0.82950316  1
  Ca2+  Ca39  1  0.42681589  0.65289071  0.16252946  1
  Ca2+  Ca40  1  0.42085512  0.65727056  0.49497128  1
  Ca2+  Ca41  1  0.42142509  0.65264871  0.83246675  1
  Ca2+  Ca42  1  0.91889421  0.17629496  0.16077051  1
  Ca2+  Ca43  1  0.91095711  0.17359550  0.50419351  1
  Ca2+  Ca44  1  0.91025110  0.17797687  0.82604386  1
  Ca2+  Ca45  1  0.91547876  0.67247120  0.16038551  1
  Ca2+  Ca46  1  0.90421325  0.67399961  0.49546069  1
  Ca2+  Ca47  1  0.91775769  0.67507934  0.82746258  1
  Al0+  Al48  1  0.00000219  0.00077088  0.00125783  1
  Al0+  Al49  1  0.00118362  0.00220012  0.32674312  1
  Al0+  Al50  1  -0.00079430  -0.00043718  0.67083698  1
  Al0+  Al51  1  -0.00108466  0.50148708  -0.00912332  1
  Al0+  Al52  1  -0.00001320  0.50173755  0.33725320  1
  Al0+  Al53  1  0.00149185  0.50340534  0.66789460  1
  Al0+  Al54  1  0.50066244  -0.00099638  0.00467496  1
  Al0+  Al55  1  0.50144099  0.00050005  0.33564318  1
  Al0+  Al56  1  0.50036333  -0.00042170  0.66174785  1
  Al0+  Al57  1  0.49956124  0.49795302  -0.00244567  1
  Al0+  Al58  1  0.49927918  0.49781201  0.33708512  1
  Al0+  Al59  1  0.50053566  0.49880251  0.66891001  1
  Al0+  Al60  1  0.25052026  0.24935329  -0.00086086  1
  Al0+  Al61  1  0.25135929  0.24937231  0.33702162  1
  Al0+  Al62  1  0.25115339  0.25070095  0.66725995  1
  Al0+  Al63  1  0.25033135  0.75140540  0.00356965  1
  Al0+  Al64  1  0.25017346  0.75395757  0.33535114  1
  Al0+  Al65  1  0.25036654  0.75212940  0.67498782  1
  Al0+  Al66  1  0.74907876  0.24724231  0.00380184  1
  Al0+  Al67  1  0.75075325  0.24695657  0.33273959  1
  Al0+  Al68  1  0.74987737  0.24755644  0.66419202  1
  Al0+  Al69  1  0.74845981  0.75025411  -0.01027173  1
  Al0+  Al70  1  0.74624391  0.75048036  0.33179242  1
  Al0+  Al71  1  0.74715973  0.74946841  0.66633845  1
  Al0+  Al72  1  0.32063177  0.57063984  0.68368168  1
  Al0+  Al73  1  0.81916719  0.06838714  0.68001514  1
  Al0+  Al74  1  0.17834290  0.93092601  0.68091538  1
  Al0+  Al75  1  0.56670620  0.67845098  0.32034703  1
  Al0+  Al76  1  0.92731503  0.31988954  0.98796604  1
  Al0+  Al77  1  0.32058965  0.57292847  0.34747398  1
  Al0+  Al78  1  0.93014096  0.32282839  0.65207090  1
  Al0+  Al79  1  0.68252589  0.42806032  0.68232158  1
  Al0+  Al80  1  0.68012267  0.92937572  0.34638228  1
  Al0+  Al81  1  0.07363944  0.67864637  0.98417749  1
  Al0+  Al82  1  0.92798084  0.82166888  0.98323357  1
  Al0+  Al83  1  0.82154687  0.57512609  0.68331872  1
  Al0+  Al84  1  0.17756348  0.42710605  0.68419670  1
  Al0+  Al85  1  0.92943406  0.82041050  0.65134183  1
  Al0+  Al86  1  0.68044600  0.42852562  0.01379382  1
  Al0+  Al87  1  0.67858291  0.42577147  0.34794836  1
  Al0+  Al88  1  0.32022600  0.57060296  0.01502710  1
  Al0+  Al89  1  0.17803184  0.42734632  0.34676851  1
  Al0+  Al90  1  0.57021466  0.17886979  0.65196120  1
  Al0+  Al91  1  0.42909570  0.32014571  0.98624661  1
  Al0+  Al92  1  0.82066960  0.57214435  0.34527929  1
  Al0+  Al93  1  0.32107878  0.07131201  0.01306843  1
  Al0+  Al94  1  0.92935257  0.82009788  0.32057180  1
  Al0+  Al95  1  0.56862226  0.67752327  0.98476312  1
  Si0+  Si96  1  0.07284940  0.17964129  0.31829298  1
  Si0+  Si97  1  0.42878457  0.82135704  0.65262952  1
  Si0+  Si98  1  0.42569221  0.82564207  0.31630531  1
  Si0+  Si99  1  0.07492774  0.68053403  0.64885042  1
  Si0+  Si100  1  0.57124118  0.17501310  0.98478809  1
  Si0+  Si101  1  0.17541097  0.42808616  0.01475610  1
  Si0+  Si102  1  0.92917120  0.32237189  0.31974746  1
  Si0+  Si103  1  0.43007213  0.31700277  0.31883921  1
  Si0+  Si104  1  0.32189769  0.07154073  0.34956627  1
  Si0+  Si105  1  0.17677911  0.92920550  0.02059123  1
  Si0+  Si106  1  0.56891556  0.67782457  0.64980719  1
  Si0+  Si107  1  0.82175329  0.07040092  0.01680829  1
  Si0+  Si108  1  0.42900475  0.82461679  0.98440947  1
  Si0+  Si109  1  0.17846057  0.93221541  0.34688906  1
  Si0+  Si110  1  0.82470479  0.07101113  0.34957480  1
  Si0+  Si111  1  0.82164354  0.57367565  0.01435141  1
  Si0+  Si112  1  0.67943812  0.92764245  0.01423398  1
  Si0+  Si113  1  0.67524982  0.92727365  0.68430940  1
  Si0+  Si114  1  0.07513433  0.67829897  0.31833656  1
  Si0+  Si115  1  0.42787599  0.32318443  0.64673054  1
  Si0+  Si116  1  0.07264697  0.17787146  0.65138525  1
  Si0+  Si117  1  0.57275273  0.17630140  0.31602060  1
  Si0+  Si118  1  0.07256309  0.17878748  0.98385497  1
  Si0+  Si119  1  0.32458453  0.07155989  0.68169264  1
  O2-  O120  1  0.24655296  -0.00192336  0.06357637  1
  O2-  O121  1  0.25290536  -0.00121768  0.39116718  1
  O2-  O122  1  0.25182880  0.00795732  0.72600091  1
  O2-  O123  1  0.24223437  0.49799355  0.06002145  1
  O2-  O124  1  0.24472636  0.50455712  0.39588262  1
  O2-  O125  1  0.24899983  0.49896333  0.73424884  1
  O2-  O126  1  0.75430058  -0.00488419  0.05685853  1
  O2-  O127  1  0.75671634  0.00170985  0.39295131  1
  O2-  O128  1  0.74638010  -0.00721720  0.72897207  1
  O2-  O129  1  0.75567264  0.50298913  0.05972022  1
  O2-  O130  1  0.75402309  0.49502962  0.39530419  1
  O2-  O131  1  0.75630043  0.49716445  0.73367074  1
  O2-  O132  1  0.00399300  0.25384713  0.27789555  1
  O2-  O133  1  0.00949301  0.25105134  0.60585306  1
  O2-  O134  1  0.00446276  0.24757953  0.94066040  1
  O2-  O135  1  0.00186452  0.74298172  0.27480397  1
  O2-  O136  1  0.00094599  0.74324973  0.60336486  1
  O2-  O137  1  0.00040198  0.74992349  0.93463334  1
  O2-  O138  1  0.50510715  0.25038548  0.27462855  1
  O2-  O139  1  0.49680411  0.25384716  0.60313228  1
  O2-  O140  1  0.50470497  0.24527552  0.94104495  1
  O2-  O141  1  0.48961816  0.75219553  0.27346148  1
  O2-  O142  1  0.49657424  0.74871069  0.60894765  1
  O2-  O143  1  0.49105588  0.75092826  0.93899957  1
  O2-  O144  1  0.07178970  0.17852239  0.09012899  1
  O2-  O145  1  0.07315616  0.17381131  0.42275879  1
  O2-  O146  1  0.07070334  0.17562385  0.75678831  1
  O2-  O147  1  0.07283163  0.68030357  0.09858568  1
  O2-  O148  1  0.08018220  0.68313934  0.42336985  1
  O2-  O149  1  0.07816434  0.68590545  0.75405413  1
  O2-  O150  1  0.56956345  0.17294760  0.09074698  1
  O2-  O151  1  0.57048179  0.17272475  0.42077056  1
  O2-  O152  1  0.56593707  0.17538853  0.76493163  1
  O2-  O153  1  0.57001265  0.67914203  0.09804310  1
  O2-  O154  1  0.56560626  0.68177612  0.43347410  1
  O2-  O155  1  0.56802876  0.67930606  0.75497154  1
  O2-  O156  1  0.18088589  0.42339565  0.23300997  1
  O2-  O157  1  0.18160155  0.42853451  0.57042765  1
  O2-  O158  1  0.17793894  0.42598482  0.90980484  1
  O2-  O159  1  0.17876460  0.93591199  0.24218310  1
  O2-  O160  1  0.17988974  0.93215408  0.56697188  1
  O2-  O161  1  0.17643242  0.93181730  0.91511025  1
  O2-  O162  1  0.67872267  0.42643370  0.23397399  1
  O2-  O163  1  0.68291539  0.43023987  0.56875972  1
  O2-  O164  1  0.68094129  0.42635148  0.90131741  1
  O2-  O165  1  0.68061492  0.93070779  0.23281975  1
  O2-  O166  1  0.67426508  0.92903157  0.57854126  1
  O2-  O167  1  0.67479120  0.93056299  0.90958219  1
  O2-  O168  1  0.42978393  0.31875419  0.10007901  1
  O2-  O169  1  0.42811994  0.31203944  0.42354565  1
  O2-  O170  1  0.42802184  0.32161299  0.75232273  1
  O2-  O171  1  0.43403169  0.82946668  0.08982013  1
  O2-  O172  1  0.42628371  0.83040790  0.42188696  1
  O2-  O173  1  0.43186045  0.82613468  0.75740469  1
  O2-  O174  1  0.92842772  0.31733343  0.10186684  1
  O2-  O175  1  0.92754140  0.31891497  0.42432861  1
  O2-  O176  1  0.92781182  0.31626447  0.76505684  1
  O2-  O177  1  0.92761592  0.82045243  0.09742551  1
  O2-  O178  1  0.93208391  0.82409198  0.43344252  1
  O2-  O179  1  0.93342120  0.82213010  0.76389527  1
  O2-  O180  1  0.32102096  0.07288815  0.24446486  1
  O2-  O181  1  0.32525227  0.06747424  0.57555612  1
  O2-  O182  1  0.32114371  0.06800641  0.90030057  1
  O2-  O183  1  0.32137759  0.56923143  0.23388860  1
  O2-  O184  1  0.32037138  0.57177925  0.56995657  1
  O2-  O185  1  0.32062132  0.56764758  0.90260862  1
  O2-  O186  1  0.82347646  0.07262447  0.24361332  1
  O2-  O187  1  0.81857907  0.06696149  0.56668367  1
  O2-  O188  1  0.82060410  0.07278557  0.91209307  1
  O2-  O189  1  0.82070182  0.57055771  0.23123379  1
  O2-  O190  1  0.81521390  0.57684038  0.56962049  1
  O2-  O191  1  0.81867384  0.57377394  0.90922530  1
  O2-  O192  1  0.04295470  0.09111867  0.26481231  1
  O2-  O193  1  0.04119102  0.08623899  0.60397631  1
  O2-  O194  1  0.04643223  0.08487747  0.93936653  1
  O2-  O195  1  0.05445184  0.58260087  0.27439066  1
  O2-  O196  1  0.05758515  0.58446617  0.60565410  1
  O2-  O197  1  0.04977313  0.58074385  0.92923473  1
  O2-  O198  1  0.54069925  0.08579389  0.26755902  1
  O2-  O199  1  0.53743209  0.08302943  0.59473732  1
  O2-  O200  1  0.54337751  0.08235451  0.93828158  1
  O2-  O201  1  0.53733591  0.58044004  0.26714372  1
  O2-  O202  1  0.54070001  0.58606655  0.60298250  1
  O2-  O203  1  0.53784849  0.58219107  0.92986666  1
  O2-  O204  1  0.16627358  0.20476495  0.27166283  1
  O2-  O205  1  0.16913150  0.19565772  0.60650223  1
  O2-  O206  1  0.16653682  0.19978877  0.93769023  1
  O2-  O207  1  0.16667436  0.70982886  0.26972254  1
  O2-  O208  1  0.16717802  0.71418877  0.60334064  1
  O2-  O209  1  0.17226812  0.71066066  0.93303662  1
  O2-  O210  1  0.66674244  0.19745104  0.26940030  1
  O2-  O211  1  0.66647194  0.20631821  0.59613557  1
  O2-  O212  1  0.66612640  0.19773933  0.94140506  1
  O2-  O213  1  0.66123248  0.71281643  0.26431767  1
  O2-  O214  1  0.65940348  0.70809319  0.60195954  1
  O2-  O215  1  0.66185115  0.71193665  0.92717197  1
  O2-  O216  1  0.08010723  0.45232272  0.05859541  1
  O2-  O217  1  0.07803795  0.44879130  0.39806775  1
  O2-  O218  1  0.07820708  0.45299833  0.73438939  1
  O2-  O219  1  0.08396594  0.95763249  0.06752738  1
  O2-  O220  1  0.08824109  0.96582913  0.39396287  1
  O2-  O221  1  0.08428557  0.96281892  0.73752158  1
  O2-  O222  1  0.58376917  0.46094152  0.06604654  1
  O2-  O223  1  0.58135880  0.45431148  0.40140245  1
  O2-  O224  1  0.58357669  0.45758157  0.73272929  1
  O2-  O225  1  0.59038694  0.95868787  0.06553629  1
  O2-  O226  1  0.58411008  0.96150501  0.40131380  1
  O2-  O227  1  0.58264898  0.95719661  0.72988892  1
  O2-  O228  1  0.20079140  0.33376609  0.06006836  1
  O2-  O229  1  0.21050824  0.33058845  0.40189510  1
  O2-  O230  1  0.20368033  0.32665609  0.73479132  1
  O2-  O231  1  0.20274511  0.83666300  0.06754463  1
  O2-  O232  1  0.20187730  0.84035179  0.39558298  1
  O2-  O233  1  0.21247085  0.83834141  0.73876762  1
  O2-  O234  1  0.70774380  0.33044663  0.06844364  1
  O2-  O235  1  0.70281587  0.32452902  0.39682337  1
  O2-  O236  1  0.70666228  0.32772677  0.73245349  1
  O2-  O237  1  0.70616963  0.83451170  0.05946127  1
  O2-  O238  1  0.70729631  0.83337346  0.40122450  1
  O2-  O239  1  0.69672212  0.83288491  0.72862843  1
  O2-  O240  1  0.45485150  0.41007811  0.27321011  1
  O2-  O241  1  0.45574163  0.41606390  0.60081266  1
  O2-  O242  1  0.46087516  0.41413673  0.92995222  1
  O2-  O243  1  0.45615515  0.91824355  0.26952024  1
  O2-  O244  1  0.45678067  0.91140349  0.60103476  1
  O2-  O245  1  0.46082310  0.91567858  0.93590984  1
  O2-  O246  1  0.95301984  0.41520599  0.27231962  1
  O2-  O247  1  0.95723164  0.42144120  0.59950519  1
  O2-  O248  1  0.95166960  0.41647766  0.93256311  1
  O2-  O249  1  0.96150196  0.91648940  0.26497854  1
  O2-  O250  1  0.96306281  0.91760143  0.59922298  1
  O2-  O251  1  0.95728215  0.92199556  0.93457381  1
  O2-  O252  1  0.33972332  0.28415328  0.27076199  1
  O2-  O253  1  0.33418490  0.29660433  0.60062902  1
  O2-  O254  1  0.33327874  0.28769852  0.93188127  1
  O2-  O255  1  0.32983684  0.80785234  0.27143534  1
  O2-  O256  1  0.33503977  0.79655061  0.60738522  1
  O2-  O257  1  0.33208273  0.80731205  0.94357876  1
  O2-  O258  1  0.83916428  0.28908585  0.27054187  1
  O2-  O259  1  0.83632577  0.28449601  0.59742768  1
  O2-  O260  1  0.83227907  0.28197315  0.93528052  1
  O2-  O261  1  0.83184832  0.79180333  0.26743070  1
  O2-  O262  1  0.82934158  0.79380624  0.60081926  1
  O2-  O263  1  0.82990010  0.79822441  0.92853247  1
  O2-  O264  1  0.41666135  0.03930183  0.07013337  1
  O2-  O265  1  0.41434893  0.04588815  0.39615619  1
  O2-  O266  1  0.41574439  0.03974486  0.72832145  1
  O2-  O267  1  0.41558985  0.53393438  0.06750521  1
  O2-  O268  1  0.41582651  0.53849654  0.40192174  1
  O2-  O269  1  0.41886791  0.53998805  0.73455287  1
  O2-  O270  1  0.91511744  0.04781352  0.06438719  1
  O2-  O271  1  0.91945167  0.04745224  0.39324007  1
  O2-  O272  1  0.91497178  0.04017361  0.73620217  1
  O2-  O273  1  0.91744240  0.55120608  0.05711449  1
  O2-  O274  1  0.92062653  0.55236621  0.39857258  1
  O2-  O275  1  0.92419815  0.55828186  0.72923482  1
  O2-  O276  1  0.28940879  0.16712008  0.06951834  1
  O2-  O277  1  0.29207536  0.16081254  0.39953249  1
  O2-  O278  1  0.30567097  0.16719713  0.72444300  1
  O2-  O279  1  0.29645120  0.66984861  0.06811345  1
  O2-  O280  1  0.29924966  0.67456852  0.39794607  1
  O2-  O281  1  0.29601647  0.66982611  0.73660979  1
  O2-  O282  1  0.78991142  0.15884032  0.06875731  1
  O2-  O283  1  0.79719342  0.16354907  0.39609347  1
  O2-  O284  1  0.78513427  0.16316081  0.73463804  1
  O2-  O285  1  0.79300135  0.66796246  0.05779437  1
  O2-  O286  1  0.78555800  0.66789087  0.39852881  1
  O2-  O287  1  0.78616332  0.67109355  0.73712202  1
