# generated using pymatgen
data_Ca2Al2SiO7
_symmetry_space_group_name_H-M   'P 1'
_cell_length_a   15.45356750
_cell_length_b   15.45274660
_cell_length_c   15.27994338
_cell_angle_alpha   90.00025102
_cell_angle_beta   90.00650892
_cell_angle_gamma   90.01153341
_symmetry_Int_Tables_number   1
_chemical_formula_structural   Ca2Al2SiO7
_chemical_formula_sum   'Ca48 Al48 Si24 O168'
_cell_volume   3648.85133857
_cell_formula_units_Z   24
loop_
 _symmetry_equiv_pos_site_id
 _symmetry_equiv_pos_as_xyz
  1  'x, y, z'
loop_
 _atom_type_symbol
 _atom_type_oxidation_number
  Ca2+  2.0
  Al0+  0.0
  Si0+  0.0
  O2-  -2.0
loop_
 _atom_site_type_symbol
 _atom_site_label
 _atom_site_symmetry_multiplicity
 _atom_site_fract_x
 _atom_site_fract_y
 _atom_site_fract_z
 _atom_site_occupancy
  Ca2+  Ca0  1  0.16734265  0.08681003  0.17166517  1
  Ca2+  Ca1  1  0.16781150  0.07927328  0.50208568  1
  Ca2+  Ca2  1  0.17911480  0.08751654  0.83886526  1
  Ca2+  Ca3  1  0.16905293  0.57066206  0.17572889  1
  Ca2+  Ca4  1  0.17621240  0.58256392  0.50249323  1
  Ca2+  Ca5  1  0.17339954  0.58096487  0.83701301  1
  Ca2+  Ca6  1  0.67343607  0.07974604  0.17382359  1
  Ca2+  Ca7  1  0.67012148  0.08425494  0.50604089  1
  Ca2+  Ca8  1  0.65681578  0.06842067  0.83489455  1
  Ca2+  Ca9  1  0.66176282  0.57229833  0.16819323  1
  Ca2+  Ca10  1  0.66637830  0.57208907  0.51012122  1
  Ca2+  Ca11  1  0.66496994  0.58004997  0.83579741  1
  Ca2+  Ca12  1  0.08425400  0.32780262  0.15639962  1
  Ca2+  Ca13  1  0.08335924  0.32773418  0.49146291  1
  Ca2+  Ca14  1  0.08241257  0.33441936  0.83577657  1
  Ca2+  Ca15  1  0.07881320  0.83955394  0.16928938  1
  Ca2+  Ca16  1  0.07267888  0.83814924  0.49205586  1
  Ca2+  Ca17  1  0.07383911  0.83231618  0.82571975  1
  Ca2+  Ca18  1  0.58860350  0.33041669  0.16516146  1
  Ca2+  Ca19  1  0.59058805  0.32621643  0.49519571  1
  Ca2+  Ca20  1  0.58819440  0.32852430  0.82701200  1
  Ca2+  Ca21  1  0.58436137  0.82542481  0.15787153  1
  Ca2+  Ca22  1  0.58090869  0.83065379  0.50331463  1
  Ca2+  Ca23  1  0.58555075  0.82480715  0.82248912  1
  Ca2+  Ca24  1  0.32225168  0.42018274  0.17308987  1
  Ca2+  Ca25  1  0.33120153  0.42601460  0.50036246  1
  Ca2+  Ca26  1  0.33121075  0.42251930  0.83696585  1
  Ca2+  Ca27  1  0.32619162  0.92437305  0.17093390  1
  Ca2+  Ca28  1  0.32937039  0.91819722  0.50737717  1
  Ca2+  Ca29  1  0.34654299  0.92884920  0.83307575  1
  Ca2+  Ca30  1  0.82475358  0.40787373  0.16874776  1
  Ca2+  Ca31  1  0.82242186  0.42005932  0.50714285  1
  Ca2+  Ca32  1  0.82370327  0.41812824  0.83675479  1
  Ca2+  Ca33  1  0.83112415  0.92139723  0.17273405  1
  Ca2+  Ca34  1  0.83355968  0.92060595  0.50457014  1
  Ca2+  Ca35  1  0.82042045  0.90884113  0.83309815  1
  Ca2+  Ca36  1  0.41984354  0.16631622  0.16363626  1
  Ca2+  Ca37  1  0.42938071  0.16107545  0.49928851  1
  Ca2+  Ca38  1  0.41786315  0.16615789  0.82442264  1
  Ca2+  Ca39  1  0.41921167  0.66502559  0.16222336  1
  Ca2+  Ca40  1  0.41566701  0.66344540  0.50002403  1
  Ca2+  Ca41  1  0.42790038  0.67016476  0.82233346  1
  Ca2+  Ca42  1  0.92739377  0.16893032  0.16250215  1
  Ca2+  Ca43  1  0.92067666  0.16543192  0.48848584  1
  Ca2+  Ca44  1  0.91985061  0.17271099  0.83437367  1
  Ca2+  Ca45  1  0.91474610  0.67313771  0.16530122  1
  Ca2+  Ca46  1  0.90534637  0.67853834  0.49999233  1
  Ca2+  Ca47  1  0.91527833  0.66839700  0.82349391  1
  Al0+  Al48  1  0.00101734  0.00070769  -0.00766574  1
  Al0+  Al49  1  -0.00087035  0.00162493  0.33141976  1
  Al0+  Al50  1  0.00068309  0.00053319  0.66499748  1
  Al0+  Al51  1  -0.00065867  0.50133249  -0.00033109  1
  Al0+  Al52  1  -0.00156322  0.50201337  0.33751069  1
  Al0+  Al53  1  -0.00100188  0.49894896  0.66791678  1
  Al0+  Al54  1  0.49964972  -0.00045557  0.01222077  1
  Al0+  Al55  1  0.50050379  -0.00196860  0.32625124  1
  Al0+  Al56  1  0.50033140  0.00022912  0.66456977  1
  Al0+  Al57  1  0.50199754  0.49996882  -0.00013107  1
  Al0+  Al58  1  0.50014787  0.49870052  0.33961486  1
  Al0+  Al59  1  0.49718358  0.49790852  0.67107825  1
  Al0+  Al60  1  0.25232218  0.25043656  0.00357158  1
  Al0+  Al61  1  0.25279122  0.25044871  0.33435929  1
  Al0+  Al62  1  0.24982568  0.24893388  0.66803692  1
  Al0+  Al63  1  0.24987035  0.75392306  -0.00156192  1
  Al0+  Al64  1  0.24895873  0.75175660  0.33843759  1
  Al0+  Al65  1  0.24849409  0.74912661  0.66929019  1
  Al0+  Al66  1  0.75139139  0.24918381  -0.00137825  1
  Al0+  Al67  1  0.75092120  0.24777846  0.33622952  1
  Al0+  Al68  1  0.75249395  0.24982832  0.66684671  1
  Al0+  Al69  1  0.74884961  0.74890567  0.00144690  1
  Al0+  Al70  1  0.74791265  0.75048195  0.32583467  1
  Al0+  Al71  1  0.75031173  0.74973483  0.66353159  1
  Al0+  Al72  1  0.57057999  0.67653095  0.64980156  1
  Al0+  Al73  1  0.57249430  0.17840727  0.31803492  1
  Al0+  Al74  1  0.17919401  0.43172289  0.01257079  1
  Al0+  Al75  1  0.68140387  0.42886382  0.34717238  1
  Al0+  Al76  1  0.17893769  0.93234961  0.34658541  1
  Al0+  Al77  1  0.92872487  0.82105064  0.31797983  1
  Al0+  Al78  1  0.42850680  0.82144504  0.65152744  1
  Al0+  Al79  1  0.57098514  0.18012214  0.65503346  1
  Al0+  Al80  1  0.81979773  0.57121766  0.68109953  1
  Al0+  Al81  1  0.31987699  0.06872072  0.67793095  1
  Al0+  Al82  1  0.92942769  0.82036604  0.65246453  1
  Al0+  Al83  1  0.68083540  0.93173367  0.67676949  1
  Al0+  Al84  1  0.68004375  0.92742284  0.01502096  1
  Al0+  Al85  1  0.92785640  0.32263106  0.98392622  1
  Al0+  Al86  1  0.67974430  0.42793956  0.01486161  1
  Al0+  Al87  1  0.17620255  0.42626742  0.34886848  1
  Al0+  Al88  1  0.67800338  0.42651969  0.68313134  1
  Al0+  Al89  1  0.07413129  0.17936594  0.98250719  1
  Al0+  Al90  1  0.07231558  0.18131266  0.32056951  1
  Al0+  Al91  1  0.81936188  0.06816299  0.34541373  1
  Al0+  Al92  1  0.56934584  0.67892530  0.98606563  1
  Al0+  Al93  1  0.32058581  0.57154791  0.34763173  1
  Al0+  Al94  1  0.32062400  0.07116663  0.01558426  1
  Al0+  Al95  1  0.31983542  0.57196237  0.68326107  1
  Si0+  Si96  1  0.43035535  0.32041164  0.98608844  1
  Si0+  Si97  1  0.42487926  0.32153891  0.64988460  1
  Si0+  Si98  1  0.92841982  0.32388100  0.31885634  1
  Si0+  Si99  1  0.42749641  0.82377424  0.98452532  1
  Si0+  Si100  1  0.32218207  0.57410785  0.01491144  1
  Si0+  Si101  1  0.07201239  0.67905476  0.98601333  1
  Si0+  Si102  1  0.92982595  0.32112205  0.64995035  1
  Si0+  Si103  1  0.57092510  0.17759606  0.98670279  1
  Si0+  Si104  1  0.07219627  0.18027279  0.65055894  1
  Si0+  Si105  1  0.56867192  0.67768643  0.31762840  1
  Si0+  Si106  1  0.32537356  0.07183872  0.35080664  1
  Si0+  Si107  1  0.07350789  0.67865681  0.31685525  1
  Si0+  Si108  1  0.17559951  0.92798150  0.68422675  1
  Si0+  Si109  1  0.82111004  0.57598368  0.34886405  1
  Si0+  Si110  1  0.07200657  0.67563790  0.64950548  1
  Si0+  Si111  1  0.67629134  0.92566577  0.34963106  1
  Si0+  Si112  1  0.17486173  0.92786890  0.01587813  1
  Si0+  Si113  1  0.82595463  0.07310762  0.68478094  1
  Si0+  Si114  1  0.82249654  0.57275661  0.01820584  1
  Si0+  Si115  1  0.82323190  0.07091050  0.01502831  1
  Si0+  Si116  1  0.92895819  0.82062931  0.98448553  1
  Si0+  Si117  1  0.42610897  0.82087236  0.31635243  1
  Si0+  Si118  1  0.17748097  0.42679671  0.68424746  1
  Si0+  Si119  1  0.43067926  0.32312891  0.31606720  1
  O2-  O120  1  0.24262102  -0.00201272  0.05888614  1
  O2-  O121  1  0.25447294  0.00547797  0.39435175  1
  O2-  O122  1  0.24773105  -0.00706355  0.72800966  1
  O2-  O123  1  0.25112213  0.50885090  0.05969146  1
  O2-  O124  1  0.24645423  0.50080166  0.39700890  1
  O2-  O125  1  0.24483921  0.49672875  0.72853183  1
  O2-  O126  1  0.75531486  0.00198475  0.06015669  1
  O2-  O127  1  0.74329901  -0.00435631  0.39323262  1
  O2-  O128  1  0.75534473  0.00555144  0.72725915  1
  O2-  O129  1  0.75627971  0.50119158  0.06159814  1
  O2-  O130  1  0.75619044  0.50388060  0.39225981  1
  O2-  O131  1  0.74650422  0.50204162  0.73305418  1
  O2-  O132  1  0.00377928  0.26247469  0.27475642  1
  O2-  O133  1  0.00015468  0.24952695  0.60786352  1
  O2-  O134  1  0.00201914  0.25217357  0.93344766  1
  O2-  O135  1  0.00264310  0.74493313  0.27128377  1
  O2-  O136  1  0.00417494  0.74538314  0.60561857  1
  O2-  O137  1  0.00094251  0.74995640  0.94347654  1
  O2-  O138  1  0.49761667  0.25285230  0.27071848  1
  O2-  O139  1  0.49888370  0.25737219  0.60740091  1
  O2-  O140  1  0.50159850  0.24958104  0.94365015  1
  O2-  O141  1  0.49726979  0.74895321  0.27537942  1
  O2-  O142  1  0.49635864  0.74654737  0.59917880  1
  O2-  O143  1  0.49418310  0.75363188  0.94060747  1
  O2-  O144  1  0.07248639  0.17914760  0.09617420  1
  O2-  O145  1  0.06864442  0.17989009  0.43416563  1
  O2-  O146  1  0.07362994  0.18154448  0.75539968  1
  O2-  O147  1  0.07228898  0.67926664  0.09099364  1
  O2-  O148  1  0.07509284  0.68043156  0.42206148  1
  O2-  O149  1  0.07100664  0.67665119  0.75586012  1
  O2-  O150  1  0.57022545  0.17921812  0.09189248  1
  O2-  O151  1  0.57147833  0.17839424  0.43114043  1
  O2-  O152  1  0.56729279  0.17830269  0.76873048  1
  O2-  O153  1  0.56652811  0.67860903  0.09994269  1
  O2-  O154  1  0.57022316  0.67833961  0.42212844  1
  O2-  O155  1  0.57078333  0.67940122  0.76366416  1
  O2-  O156  1  0.17792262  0.42733521  0.23495870  1
  O2-  O157  1  0.17784547  0.42548071  0.57884342  1
  O2-  O158  1  0.18223179  0.43399683  0.89937217  1
  O2-  O159  1  0.18093625  0.93296731  0.23310560  1
  O2-  O160  1  0.17241583  0.93173466  0.57864282  1
  O2-  O161  1  0.17347524  0.92485960  0.91059264  1
  O2-  O162  1  0.68108523  0.43011196  0.23367569  1
  O2-  O163  1  0.68266123  0.42436996  0.56942629  1
  O2-  O164  1  0.67868138  0.42799736  0.90255324  1
  O2-  O165  1  0.67858802  0.92537999  0.24365045  1
  O2-  O166  1  0.68187177  0.93425221  0.56379815  1
  O2-  O167  1  0.67952181  0.92737304  0.90177483  1
  O2-  O168  1  0.43047368  0.32033254  0.09122238  1
  O2-  O169  1  0.43148390  0.32395342  0.42150670  1
  O2-  O170  1  0.42056880  0.31802080  0.75588834  1
  O2-  O171  1  0.42587900  0.82136254  0.09051805  1
  O2-  O172  1  0.42639897  0.82367202  0.42093235  1
  O2-  O173  1  0.43316106  0.82295582  0.76539119  1
  O2-  O174  1  0.92763180  0.31986880  0.09772863  1
  O2-  O175  1  0.92754210  0.32005977  0.42472132  1
  O2-  O176  1  0.93068620  0.32105641  0.75486013  1
  O2-  O177  1  0.93024615  0.82110906  0.08967678  1
  O2-  O178  1  0.92862886  0.82011083  0.43080262  1
  O2-  O179  1  0.93127744  0.81960210  0.76624941  1
  O2-  O180  1  0.32540345  0.06965683  0.24495697  1
  O2-  O181  1  0.31716470  0.06886613  0.56505594  1
  O2-  O182  1  0.32343750  0.06978960  0.90235359  1
  O2-  O183  1  0.32014774  0.57006915  0.23333520  1
  O2-  O184  1  0.31735853  0.57049364  0.57039412  1
  O2-  O185  1  0.32083507  0.57279276  0.90951674  1
  O2-  O186  1  0.81913808  0.06683272  0.23205069  1
  O2-  O187  1  0.82798274  0.07238102  0.57901027  1
  O2-  O188  1  0.82264179  0.06981499  0.90937479  1
  O2-  O189  1  0.81968350  0.57780369  0.24308060  1
  O2-  O190  1  0.82022153  0.56818331  0.56728711  1
  O2-  O191  1  0.82180587  0.57583252  0.91299338  1
  O2-  O192  1  0.03571639  0.08758597  0.26489249  1
  O2-  O193  1  0.04563064  0.08761658  0.60422821  1
  O2-  O194  1  0.04656755  0.08110326  0.92755842  1
  O2-  O195  1  0.04823526  0.58377365  0.27180407  1
  O2-  O196  1  0.04753216  0.58145838  0.60410524  1
  O2-  O197  1  0.04520587  0.58833653  0.93649038  1
  O2-  O198  1  0.54306920  0.08149409  0.26253463  1
  O2-  O199  1  0.53742614  0.08612699  0.59823496  1
  O2-  O200  1  0.53981162  0.08463427  0.94356027  1
  O2-  O201  1  0.53962564  0.58535578  0.27136651  1
  O2-  O202  1  0.54196056  0.57600595  0.60104772  1
  O2-  O203  1  0.53989591  0.58217644  0.93182542  1
  O2-  O204  1  0.17216364  0.20452621  0.26887025  1
  O2-  O205  1  0.16330305  0.20905181  0.60217430  1
  O2-  O206  1  0.17331374  0.20991928  0.93183833  1
  O2-  O207  1  0.16600985  0.70702798  0.26953938  1
  O2-  O208  1  0.16586101  0.70064142  0.60468997  1
  O2-  O209  1  0.16375324  0.70742196  0.93726289  1
  O2-  O210  1  0.66931759  0.21029665  0.26460856  1
  O2-  O211  1  0.66972760  0.20695094  0.60220540  1
  O2-  O212  1  0.66321557  0.20176899  0.93942892  1
  O2-  O213  1  0.65908399  0.70568505  0.26680902  1
  O2-  O214  1  0.66810724  0.70666579  0.59668132  1
  O2-  O215  1  0.66689047  0.70971997  0.93424604  1
  O2-  O216  1  0.08183026  0.46028297  0.06611789  1
  O2-  O217  1  0.07676746  0.45206285  0.40144994  1
  O2-  O218  1  0.08363233  0.45160733  0.72986304  1
  O2-  O219  1  0.08048838  0.95279662  0.06087479  1
  O2-  O220  1  0.08322137  0.96461880  0.40048347  1
  O2-  O221  1  0.08385531  0.95824723  0.73222641  1
  O2-  O222  1  0.58340489  0.46061259  0.06941588  1
  O2-  O223  1  0.58550364  0.45833591  0.40178214  1
  O2-  O224  1  0.57713783  0.44695087  0.73320479  1
  O2-  O225  1  0.58529164  0.95709721  0.07269016  1
  O2-  O226  1  0.58084162  0.94908678  0.39169959  1
  O2-  O227  1  0.58529390  0.96317791  0.73247435  1
  O2-  O228  1  0.21298474  0.33662635  0.06660255  1
  O2-  O229  1  0.20800381  0.32908156  0.40261942  1
  O2-  O230  1  0.20505380  0.33402188  0.73091557  1
  O2-  O231  1  0.20161689  0.83482454  0.06400290  1
  O2-  O232  1  0.20655540  0.83590602  0.40160548  1
  O2-  O233  1  0.19418722  0.83242535  0.72831679  1
  O2-  O234  1  0.70994228  0.33004064  0.06767610  1
  O2-  O235  1  0.71272685  0.33296760  0.40119253  1
  O2-  O236  1  0.71241094  0.32941662  0.73624052  1
  O2-  O237  1  0.71172639  0.83152593  0.07015113  1
  O2-  O238  1  0.70284147  0.83162945  0.39322195  1
  O2-  O239  1  0.71237190  0.83530306  0.73053180  1
  O2-  O240  1  0.45796951  0.41622670  0.26925958  1
  O2-  O241  1  0.44513228  0.41673369  0.60631901  1
  O2-  O242  1  0.45738563  0.41230307  0.93831443  1
  O2-  O243  1  0.45423781  0.91119946  0.26537796  1
  O2-  O244  1  0.45942445  0.91805383  0.59645005  1
  O2-  O245  1  0.45694649  0.91811588  0.94264066  1
  O2-  O246  1  0.94346558  0.42127840  0.27612847  1
  O2-  O247  1  0.95758933  0.41284878  0.60211174  1
  O2-  O248  1  0.95441979  0.42236419  0.93203493  1
  O2-  O249  1  0.96308426  0.91576964  0.26271276  1
  O2-  O250  1  0.96090287  0.91777074  0.59917350  1
  O2-  O251  1  0.95498598  0.91150436  0.93469085  1
  O2-  O252  1  0.33663003  0.29786380  0.26989181  1
  O2-  O253  1  0.33343077  0.29102522  0.60154433  1
  O2-  O254  1  0.33947229  0.29223764  0.93760191  1
  O2-  O255  1  0.33398769  0.79317423  0.26893370  1
  O2-  O256  1  0.32662537  0.79718487  0.60307873  1
  O2-  O257  1  0.33245786  0.80455993  0.93781414  1
  O2-  O258  1  0.83781910  0.29003739  0.27179906  1
  O2-  O259  1  0.83863402  0.29299513  0.60179752  1
  O2-  O260  1  0.83095704  0.28998813  0.92882026  1
  O2-  O261  1  0.83245508  0.79091537  0.26123877  1
  O2-  O262  1  0.83422295  0.79079512  0.59602488  1
  O2-  O263  1  0.83736054  0.79043601  0.93867768  1
  O2-  O264  1  0.41379048  0.03845196  0.07530937  1
  O2-  O265  1  0.41864304  0.04127082  0.39452961  1
  O2-  O266  1  0.41631653  0.03933940  0.73303263  1
  O2-  O267  1  0.41449922  0.54494752  0.06095214  1
  O2-  O268  1  0.41679449  0.54046810  0.40290786  1
  O2-  O269  1  0.41501226  0.54027018  0.73880688  1
  O2-  O270  1  0.91785355  0.04424707  0.05887235  1
  O2-  O271  1  0.91461387  0.03637171  0.40065950  1
  O2-  O272  1  0.91900241  0.04616674  0.73137636  1
  O2-  O273  1  0.91735930  0.55186968  0.06375532  1
  O2-  O274  1  0.91631650  0.55822758  0.39441156  1
  O2-  O275  1  0.91884203  0.54222513  0.73410810  1
  O2-  O276  1  0.29313240  0.16770060  0.07086725  1
  O2-  O277  1  0.30517995  0.16696589  0.39457000  1
  O2-  O278  1  0.28765352  0.16467315  0.73347192  1
  O2-  O279  1  0.29983591  0.67000539  0.05826924  1
  O2-  O280  1  0.29391948  0.66972163  0.40128066  1
  O2-  O281  1  0.28894831  0.66821386  0.73887726  1
  O2-  O282  1  0.79732987  0.16392130  0.06135257  1
  O2-  O283  1  0.79088541  0.16386762  0.40205473  1
  O2-  O284  1  0.80258237  0.16718138  0.72952693  1
  O2-  O285  1  0.79350679  0.66466532  0.06638296  1
  O2-  O286  1  0.79013926  0.66859503  0.39380297  1
  O2-  O287  1  0.79572346  0.67096354  0.73278210  1
