# generated using pymatgen
data_Ca2Al2SiO7
_symmetry_space_group_name_H-M   'P 1'
_cell_length_a   15.46122159
_cell_length_b   15.46394923
_cell_length_c   15.28649898
_cell_angle_alpha   90.02030955
_cell_angle_beta   89.98890508
_cell_angle_gamma   90.00029380
_symmetry_Int_Tables_number   1
_chemical_formula_structural   Ca2Al2SiO7
_chemical_formula_sum   'Ca48 Al48 Si24 O168'
_cell_volume   3654.87237051
_cell_formula_units_Z   24
loop_
 _symmetry_equiv_pos_site_id
 _symmetry_equiv_pos_as_xyz
  1  'x, y, z'
loop_
 _atom_type_symbol
 _atom_type_oxidation_number
  Ca2+  2.0
  Al0+  0.0
  Si0+  0.0
  O2-  -2.0
loop_
 _atom_site_type_symbol
 _atom_site_label
 _atom_site_symmetry_multiplicity
 _atom_site_fract_x
 _atom_site_fract_y
 _atom_site_fract_z
 _atom_site_occupancy
  Ca2+  Ca0  1  0.17235330  0.07317357  0.16838461  1
  Ca2+  Ca1  1  0.16416812  0.07796524  0.49937128  1
  Ca2+  Ca2  1  0.17337024  0.07660543  0.84483650  1
  Ca2+  Ca3  1  0.16369826  0.57427980  0.16781483  1
  Ca2+  Ca4  1  0.17593380  0.57061872  0.50468568  1
  Ca2+  Ca5  1  0.16930231  0.57453722  0.83645179  1
  Ca2+  Ca6  1  0.67170390  0.09051811  0.17242425  1
  Ca2+  Ca7  1  0.66577615  0.08698606  0.49263162  1
  Ca2+  Ca8  1  0.67373265  0.08960452  0.84328190  1
  Ca2+  Ca9  1  0.67328525  0.57634618  0.16972724  1
  Ca2+  Ca10  1  0.67405410  0.58504259  0.50039468  1
  Ca2+  Ca11  1  0.67055376  0.57321291  0.84008981  1
  Ca2+  Ca12  1  0.07362793  0.34233046  0.16228668  1
  Ca2+  Ca13  1  0.07863327  0.34231399  0.49545322  1
  Ca2+  Ca14  1  0.07567175  0.34160489  0.83058811  1
  Ca2+  Ca15  1  0.09106602  0.82740893  0.15793604  1
  Ca2+  Ca16  1  0.07920005  0.83332781  0.49418649  1
  Ca2+  Ca17  1  0.08547711  0.82783934  0.83224857  1
  Ca2+  Ca18  1  0.57706842  0.32528311  0.15778175  1
  Ca2+  Ca19  1  0.56889079  0.33061655  0.49041164  1
  Ca2+  Ca20  1  0.57495423  0.33174727  0.83488229  1
  Ca2+  Ca21  1  0.57439349  0.84127181  0.16544408  1
  Ca2+  Ca22  1  0.57845346  0.83301208  0.48837297  1
  Ca2+  Ca23  1  0.57629704  0.83452465  0.83387782  1
  Ca2+  Ca24  1  0.32279877  0.40470873  0.17011599  1
  Ca2+  Ca25  1  0.32697174  0.41221709  0.50926293  1
  Ca2+  Ca26  1  0.32622998  0.41251603  0.84007112  1
  Ca2+  Ca27  1  0.33123925  0.91641630  0.16964206  1
  Ca2+  Ca28  1  0.32982118  0.91327440  0.49831674  1
  Ca2+  Ca29  1  0.33012531  0.92344669  0.84802865  1
  Ca2+  Ca30  1  0.82959582  0.41315238  0.17173038  1
  Ca2+  Ca31  1  0.83897493  0.41751060  0.49955216  1
  Ca2+  Ca32  1  0.82894947  0.40759205  0.84258334  1
  Ca2+  Ca33  1  0.82732147  0.93386130  0.17661396  1
  Ca2+  Ca34  1  0.82963376  0.92186224  0.50274282  1
  Ca2+  Ca35  1  0.83471576  0.92310945  0.84064632  1
  Ca2+  Ca36  1  0.42622233  0.16985431  0.15982945  1
  Ca2+  Ca37  1  0.41936147  0.17780629  0.49092616  1
  Ca2+  Ca38  1  0.41430109  0.17447329  0.83601716  1
  Ca2+  Ca39  1  0.40979711  0.68028840  0.16307248  1
  Ca2+  Ca40  1  0.41471981  0.66838916  0.49522435  1
  Ca2+  Ca41  1  0.41155000  0.66911347  0.83242485  1
  Ca2+  Ca42  1  0.91063239  0.17314179  0.16239519  1
  Ca2+  Ca43  1  0.91755338  0.17787741  0.49310247  1
  Ca2+  Ca44  1  0.91579337  0.17545532  0.83405551  1
  Ca2+  Ca45  1  0.92235416  0.66610211  0.16099674  1
  Ca2+  Ca46  1  0.91548334  0.67039430  0.49406503  1
  Ca2+  Ca47  1  0.92650296  0.67152692  0.83049895  1
  Al0+  Al48  1  -0.00121081  0.00095495  0.00841927  1
  Al0+  Al49  1  -0.00103651  0.00084406  0.34157499  1
  Al0+  Al50  1  -0.00194192  0.00015332  0.66390224  1
  Al0+  Al51  1  0.00115372  0.50287546  -0.00718469  1
  Al0+  Al52  1  0.00132681  0.50153511  0.33820149  1
  Al0+  Al53  1  0.00116956  0.50263230  0.66580077  1
  Al0+  Al54  1  0.50130237  0.00045396  -0.00674870  1
  Al0+  Al55  1  0.49981782  0.00051710  0.33100566  1
  Al0+  Al56  1  0.50102144  -0.00169930  0.66656741  1
  Al0+  Al57  1  0.50025784  0.50112728  0.00216241  1
  Al0+  Al58  1  0.49961007  0.50239288  0.32797016  1
  Al0+  Al59  1  0.50204768  0.50135750  0.66556753  1
  Al0+  Al60  1  0.24870605  0.24792213  0.00642618  1
  Al0+  Al61  1  0.24611658  0.24719594  0.33567525  1
  Al0+  Al62  1  0.24898557  0.24685104  0.66744306  1
  Al0+  Al63  1  0.24951468  0.74760688  -0.00808345  1
  Al0+  Al64  1  0.24938924  0.74861934  0.33509108  1
  Al0+  Al65  1  0.24971368  0.74831242  0.66856815  1
  Al0+  Al66  1  0.74911551  0.25092401  0.00088117  1
  Al0+  Al67  1  0.74985154  0.25197235  0.33395259  1
  Al0+  Al68  1  0.75157221  0.24882768  0.66162668  1
  Al0+  Al69  1  0.74959669  0.75003098  -0.00099309  1
  Al0+  Al70  1  0.75042108  0.75029365  0.33848905  1
  Al0+  Al71  1  0.74941371  0.75096660  0.66542659  1
  Al0+  Al72  1  0.57152148  0.17985488  0.98349938  1
  Al0+  Al73  1  0.42931400  0.32013040  0.65442116  1
  Al0+  Al74  1  0.32376744  0.07121091  0.01619804  1
  Al0+  Al75  1  0.56952480  0.18132415  0.31806866  1
  Al0+  Al76  1  0.92900237  0.82114603  0.65248676  1
  Al0+  Al77  1  0.42546296  0.32214821  0.98539831  1
  Al0+  Al78  1  0.07091445  0.67949209  0.98493959  1
  Al0+  Al79  1  0.93297210  0.32198782  0.31959582  1
  Al0+  Al80  1  0.17811043  0.42942142  0.01385559  1
  Al0+  Al81  1  0.93016883  0.32173590  0.65230490  1
  Al0+  Al82  1  0.82080459  0.07490218  0.35251728  1
  Al0+  Al83  1  0.32407583  0.57081882  0.68262194  1
  Al0+  Al84  1  0.17937115  0.42703314  0.68374381  1
  Al0+  Al85  1  0.82132401  0.57003236  0.34616052  1
  Al0+  Al86  1  0.17994589  0.92639900  0.01356978  1
  Al0+  Al87  1  0.81981507  0.07135975  0.01315667  1
  Al0+  Al88  1  0.67875747  0.42964173  0.01321103  1
  Al0+  Al89  1  0.42898843  0.81849484  0.32071754  1
  Al0+  Al90  1  0.42411237  0.32393967  0.31798651  1
  Al0+  Al91  1  0.43060703  0.81960761  0.98523128  1
  Al0+  Al92  1  0.93082897  0.32017584  0.98792430  1
  Al0+  Al93  1  0.18088951  0.42795796  0.34676502  1
  Al0+  Al94  1  0.17974833  0.92620522  0.34819779  1
  Al0+  Al95  1  0.67777261  0.93044555  0.34833622  1
  Si0+  Si96  1  0.32223737  0.57179635  0.01711188  1
  Si0+  Si97  1  0.81978683  0.07070529  0.68298117  1
  Si0+  Si98  1  0.32273557  0.06854938  0.68102537  1
  Si0+  Si99  1  0.07129888  0.17507745  0.98578227  1
  Si0+  Si100  1  0.67856999  0.92753443  0.68356892  1
  Si0+  Si101  1  0.57280430  0.17630351  0.64885884  1
  Si0+  Si102  1  0.32142430  0.07017317  0.35148093  1
  Si0+  Si103  1  0.67792643  0.92573917  0.01496419  1
  Si0+  Si104  1  0.82258177  0.57332679  0.01381571  1
  Si0+  Si105  1  0.42884648  0.82092360  0.65141849  1
  Si0+  Si106  1  0.92698218  0.82369297  0.98672774  1
  Si0+  Si107  1  0.07096162  0.17361243  0.31546031  1
  Si0+  Si108  1  0.17778334  0.92936508  0.68101443  1
  Si0+  Si109  1  0.07277744  0.67978292  0.64582966  1
  Si0+  Si110  1  0.06880937  0.68193480  0.31936699  1
  Si0+  Si111  1  0.57599199  0.67803365  0.31497796  1
  Si0+  Si112  1  0.57482265  0.67714055  0.98229954  1
  Si0+  Si113  1  0.32214642  0.57233802  0.34744119  1
  Si0+  Si114  1  0.92725413  0.82276982  0.31853686  1
  Si0+  Si115  1  0.68158189  0.42857735  0.67963144  1
  Si0+  Si116  1  0.67633462  0.42931270  0.35075479  1
  Si0+  Si117  1  0.07197236  0.17614389  0.65040238  1
  Si0+  Si118  1  0.82075920  0.57339928  0.68221914  1
  Si0+  Si119  1  0.57170643  0.67963208  0.65116994  1
  O2-  O120  1  0.25329289  -0.00379678  0.06413204  1
  O2-  O121  1  0.25283923  0.00127555  0.39707008  1
  O2-  O122  1  0.25107825  -0.00248442  0.72292090  1
  O2-  O123  1  0.25811572  0.49890251  0.06093106  1
  O2-  O124  1  0.26438288  0.49434892  0.39141727  1
  O2-  O125  1  0.25554896  0.49563517  0.73263164  1
  O2-  O126  1  0.74609473  -0.00518026  0.05776302  1
  O2-  O127  1  0.74941639  0.00105201  0.40163777  1
  O2-  O128  1  0.74772800  0.00045080  0.72550932  1
  O2-  O129  1  0.75478333  0.50446969  0.05781461  1
  O2-  O130  1  0.74528307  0.49786760  0.39554332  1
  O2-  O131  1  0.75611823  0.49624039  0.72345622  1
  O2-  O132  1  0.00417333  0.24451909  0.27229210  1
  O2-  O133  1  0.00902762  0.25077589  0.60706742  1
  O2-  O134  1  0.00697038  0.24735121  0.94011815  1
  O2-  O135  1  0.00032905  0.75479325  0.27546346  1
  O2-  O136  1  0.00347465  0.74813788  0.60214291  1
  O2-  O137  1  -0.00299822  0.75716157  0.94107829  1
  O2-  O138  1  0.49861053  0.25445402  0.26888392  1
  O2-  O139  1  0.50310298  0.24476244  0.60689553  1
  O2-  O140  1  0.49734679  0.25019495  0.93429653  1
  O2-  O141  1  0.50539713  0.74578809  0.27299087  1
  O2-  O142  1  0.49807633  0.74835426  0.60950274  1
  O2-  O143  1  0.50572561  0.74536341  0.93760488  1
  O2-  O144  1  0.06804705  0.17217821  0.09086341  1
  O2-  O145  1  0.07061966  0.17293564  0.42158482  1
  O2-  O146  1  0.06909551  0.16969976  0.75554118  1
  O2-  O147  1  0.06855725  0.67842228  0.09847828  1
  O2-  O148  1  0.06724131  0.68395085  0.42447932  1
  O2-  O149  1  0.07192038  0.68131324  0.75135864  1
  O2-  O150  1  0.57315150  0.18125700  0.09645309  1
  O2-  O151  1  0.56609153  0.18270485  0.43260985  1
  O2-  O152  1  0.57515110  0.17574939  0.75397184  1
  O2-  O153  1  0.57851755  0.67865740  0.08730592  1
  O2-  O154  1  0.57579132  0.67800804  0.42124314  1
  O2-  O155  1  0.57541619  0.68205482  0.75600292  1
  O2-  O156  1  0.17599218  0.43382008  0.23401139  1
  O2-  O157  1  0.17975672  0.43011948  0.56992099  1
  O2-  O158  1  0.17621603  0.43228406  0.90092210  1
  O2-  O159  1  0.18170464  0.92400822  0.23584007  1
  O2-  O160  1  0.17873388  0.92981023  0.57583409  1
  O2-  O161  1  0.17988008  0.92898750  0.89899839  1
  O2-  O162  1  0.67769649  0.43083342  0.24538479  1
  O2-  O163  1  0.68098762  0.43200586  0.57473176  1
  O2-  O164  1  0.68094377  0.43102677  0.89908938  1
  O2-  O165  1  0.68069401  0.92873110  0.23501270  1
  O2-  O166  1  0.67755019  0.92554229  0.57913021  1
  O2-  O167  1  0.68126786  0.92303040  0.90866354  1
  O2-  O168  1  0.42756896  0.32092882  0.09833533  1
  O2-  O169  1  0.42633556  0.32214128  0.43259876  1
  O2-  O170  1  0.43058499  0.31892382  0.76702262  1
  O2-  O171  1  0.43041878  0.81782804  0.09824293  1
  O2-  O172  1  0.42847806  0.81456418  0.43460768  1
  O2-  O173  1  0.43093016  0.82262761  0.75618032  1
  O2-  O174  1  0.93063837  0.32134799  0.10071680  1
  O2-  O175  1  0.93609679  0.32259806  0.43309726  1
  O2-  O176  1  0.92621305  0.31765134  0.76530957  1
  O2-  O177  1  0.92483137  0.82043725  0.09205264  1
  O2-  O178  1  0.92804266  0.81986109  0.42403230  1
  O2-  O179  1  0.93056476  0.82044518  0.76578402  1
  O2-  O180  1  0.32080978  0.06842912  0.24652226  1
  O2-  O181  1  0.32413707  0.06618410  0.57602613  1
  O2-  O182  1  0.32026447  0.06906082  0.90137285  1
  O2-  O183  1  0.31576089  0.58013215  0.24257247  1
  O2-  O184  1  0.32232040  0.57320212  0.56878331  1
  O2-  O185  1  0.32042784  0.57296856  0.91146417  1
  O2-  O186  1  0.82117216  0.07314575  0.23912229  1
  O2-  O187  1  0.81933302  0.07028692  0.57850557  1
  O2-  O188  1  0.82028605  0.06928283  0.89904262  1
  O2-  O189  1  0.82147962  0.56988523  0.23314156  1
  O2-  O190  1  0.81743523  0.57591183  0.57724675  1
  O2-  O191  1  0.82019883  0.57533765  0.90776572  1
  O2-  O192  1  0.04422071  0.07971394  0.27081672  1
  O2-  O193  1  0.04007916  0.08576841  0.60034799  1
  O2-  O194  1  0.04145975  0.08276018  0.93764261  1
  O2-  O195  1  0.03752711  0.59129003  0.27255315  1
  O2-  O196  1  0.04631264  0.58655447  0.60021408  1
  O2-  O197  1  0.03643046  0.58751002  0.92450339  1
  O2-  O198  1  0.54308837  0.08239973  0.26632205  1
  O2-  O199  1  0.54710238  0.08164516  0.60408642  1
  O2-  O200  1  0.54865948  0.08081914  0.92847998  1
  O2-  O201  1  0.55321690  0.58451413  0.26811425  1
  O2-  O202  1  0.54793241  0.58796185  0.60150552  1
  O2-  O203  1  0.54875958  0.58407597  0.93562828  1
  O2-  O204  1  0.16582373  0.19534948  0.27173966  1
  O2-  O205  1  0.16741224  0.19410933  0.60478903  1
  O2-  O206  1  0.16646875  0.19611311  0.94177807  1
  O2-  O207  1  0.16079091  0.70816847  0.27238696  1
  O2-  O208  1  0.16657704  0.70662433  0.60044234  1
  O2-  O209  1  0.16502316  0.70891788  0.92571297  1
  O2-  O210  1  0.66907405  0.20843682  0.26825274  1
  O2-  O211  1  0.66586548  0.20214322  0.60194980  1
  O2-  O212  1  0.66810808  0.21347605  0.92910719  1
  O2-  O213  1  0.66943119  0.70470348  0.26974371  1
  O2-  O214  1  0.66171719  0.71093462  0.60179282  1
  O2-  O215  1  0.66779797  0.70333250  0.93303639  1
  O2-  O216  1  0.08241423  0.46826226  0.06528004  1
  O2-  O217  1  0.08909020  0.46924625  0.40344926  1
  O2-  O218  1  0.08086647  0.46149484  0.73432972  1
  O2-  O219  1  0.08197918  0.95303317  0.06755570  1
  O2-  O220  1  0.08345342  0.95606943  0.40382617  1
  O2-  O221  1  0.08590447  0.95860160  0.72714055  1
  O2-  O222  1  0.58348900  0.46144998  0.06884176  1
  O2-  O223  1  0.58204951  0.45694245  0.39585515  1
  O2-  O224  1  0.59173641  0.46063033  0.72790802  1
  O2-  O225  1  0.58354011  0.95037510  0.05734666  1
  O2-  O226  1  0.57880022  0.95791123  0.40229366  1
  O2-  O227  1  0.58552526  0.95317561  0.73055029  1
  O2-  O228  1  0.20042084  0.33124667  0.06779567  1
  O2-  O229  1  0.19997391  0.32839857  0.40068891  1
  O2-  O230  1  0.20058353  0.32528109  0.73310874  1
  O2-  O231  1  0.20811345  0.82637233  0.06228549  1
  O2-  O232  1  0.21241917  0.83105723  0.40509316  1
  O2-  O233  1  0.20270386  0.83616699  0.72636851  1
  O2-  O234  1  0.71181145  0.33546403  0.06828964  1
  O2-  O235  1  0.70185216  0.33693869  0.39813365  1
  O2-  O236  1  0.70777919  0.33517162  0.72488922  1
  O2-  O237  1  0.70150977  0.83189044  0.06156667  1
  O2-  O238  1  0.70549037  0.83182087  0.40262612  1
  O2-  O239  1  0.70809550  0.83647783  0.73183864  1
  O2-  O240  1  0.44589852  0.42491750  0.26786752  1
  O2-  O241  1  0.46127213  0.41718988  0.60120121  1
  O2-  O242  1  0.45460449  0.42207939  0.93500158  1
  O2-  O243  1  0.45731214  0.91535174  0.26768039  1
  O2-  O244  1  0.45860471  0.91184503  0.60306477  1
  O2-  O245  1  0.46126309  0.91455613  0.92775296  1
  O2-  O246  1  0.96583270  0.41907009  0.26773886  1
  O2-  O247  1  0.95570935  0.42132795  0.60113097  1
  O2-  O248  1  0.95795778  0.41691504  0.93194745  1
  O2-  O249  1  0.95225657  0.91677792  0.27573841  1
  O2-  O250  1  0.95844977  0.91758875  0.59746120  1
  O2-  O251  1  0.95104317  0.91823740  0.94205312  1
  O2-  O252  1  0.32485532  0.29290361  0.26975072  1
  O2-  O253  1  0.33196676  0.28837172  0.60176308  1
  O2-  O254  1  0.32619942  0.29140784  0.93441766  1
  O2-  O255  1  0.33300073  0.78470455  0.26709972  1
  O2-  O256  1  0.33553362  0.79487762  0.60587172  1
  O2-  O257  1  0.33575726  0.78768413  0.92844412  1
  O2-  O258  1  0.83341161  0.29618208  0.27035201  1
  O2-  O259  1  0.83490426  0.28845738  0.59649712  1
  O2-  O260  1  0.83553767  0.28643399  0.93336233  1
  O2-  O261  1  0.83627615  0.79230164  0.27223472  1
  O2-  O262  1  0.83220627  0.78938948  0.59907139  1
  O2-  O263  1  0.83438511  0.79683336  0.93769891  1
  O2-  O264  1  0.42358792  0.04227054  0.06437636  1
  O2-  O265  1  0.41433602  0.04389331  0.39803830  1
  O2-  O266  1  0.41430392  0.03963133  0.72875532  1
  O2-  O267  1  0.41816493  0.55643341  0.06176807  1
  O2-  O268  1  0.42039199  0.55960879  0.38886513  1
  O2-  O269  1  0.42578310  0.55093953  0.73269011  1
  O2-  O270  1  0.91461899  0.04299853  0.07101740  1
  O2-  O271  1  0.91845313  0.04600109  0.40691704  1
  O2-  O272  1  0.91152529  0.04095402  0.72955243  1
  O2-  O273  1  0.91676687  0.54928330  0.05735873  1
  O2-  O274  1  0.91582540  0.53930586  0.40435803  1
  O2-  O275  1  0.91550365  0.55318413  0.72622116  1
  O2-  O276  1  0.29437752  0.16708174  0.07183700  1
  O2-  O277  1  0.29319521  0.16244980  0.39971265  1
  O2-  O278  1  0.29477997  0.15957517  0.72898020  1
  O2-  O279  1  0.28935706  0.66377646  0.06182768  1
  O2-  O280  1  0.28681970  0.66038757  0.39956088  1
  O2-  O281  1  0.29193228  0.66907864  0.73584490  1
  O2-  O282  1  0.78720811  0.16638945  0.06726303  1
  O2-  O283  1  0.79050918  0.17289622  0.40601762  1
  O2-  O284  1  0.79180569  0.16328482  0.72935850  1
  O2-  O285  1  0.79659361  0.66660580  0.06121302  1
  O2-  O286  1  0.79141328  0.66598334  0.40327888  1
  O2-  O287  1  0.78663299  0.66277296  0.73086793  1
