# generated using pymatgen
data_Ca2Al2SiO7
_symmetry_space_group_name_H-M   'P 1'
_cell_length_a   15.46745293
_cell_length_b   15.46461464
_cell_length_c   15.28957990
_cell_angle_alpha   90.01199630
_cell_angle_beta   90.00186702
_cell_angle_gamma   89.98935157
_symmetry_Int_Tables_number   1
_chemical_formula_structural   Ca2Al2SiO7
_chemical_formula_sum   'Ca48 Al48 Si24 O168'
_cell_volume   3657.23983038
_cell_formula_units_Z   24
loop_
 _symmetry_equiv_pos_site_id
 _symmetry_equiv_pos_as_xyz
  1  'x, y, z'
loop_
 _atom_type_symbol
 _atom_type_oxidation_number
  Ca2+  2.0
  Al0+  0.0
  Si0+  0.0
  O2-  -2.0
loop_
 _atom_site_type_symbol
 _atom_site_label
 _atom_site_symmetry_multiplicity
 _atom_site_fract_x
 _atom_site_fract_y
 _atom_site_fract_z
 _atom_site_occupancy
  Ca2+  Ca0  1  0.16130896  0.06983678  0.17042850  1
  Ca2+  Ca1  1  0.16225539  0.08053771  0.50316504  1
  Ca2+  Ca2  1  0.16227154  0.08145156  0.83468081  1
  Ca2+  Ca3  1  0.16279750  0.57761059  0.17809920  1
  Ca2+  Ca4  1  0.16669045  0.57303226  0.50677945  1
  Ca2+  Ca5  1  0.16866492  0.57769884  0.83108565  1
  Ca2+  Ca6  1  0.67167617  0.07546316  0.17216762  1
  Ca2+  Ca7  1  0.66547511  0.07558352  0.50724513  1
  Ca2+  Ca8  1  0.67572616  0.07997514  0.83699866  1
  Ca2+  Ca9  1  0.67337091  0.58690141  0.16965272  1
  Ca2+  Ca10  1  0.67013987  0.58417107  0.50624420  1
  Ca2+  Ca11  1  0.68060380  0.57985902  0.83541726  1
  Ca2+  Ca12  1  0.08046393  0.33277378  0.16281597  1
  Ca2+  Ca13  1  0.08550005  0.33380878  0.50147999  1
  Ca2+  Ca14  1  0.07498921  0.32664151  0.82372909  1
  Ca2+  Ca15  1  0.07611037  0.83573474  0.16192896  1
  Ca2+  Ca16  1  0.06982506  0.82886342  0.49097980  1
  Ca2+  Ca17  1  0.06942075  0.83842282  0.82847334  1
  Ca2+  Ca18  1  0.57993851  0.32749578  0.16703573  1
  Ca2+  Ca19  1  0.57568627  0.32334580  0.49348776  1
  Ca2+  Ca20  1  0.57873006  0.32442871  0.82064308  1
  Ca2+  Ca21  1  0.59423820  0.83225954  0.16641880  1
  Ca2+  Ca22  1  0.58920605  0.83009724  0.49155374  1
  Ca2+  Ca23  1  0.59132267  0.83699490  0.82942123  1
  Ca2+  Ca24  1  0.32738772  0.41597563  0.17822699  1
  Ca2+  Ca25  1  0.32783313  0.41426670  0.50819314  1
  Ca2+  Ca26  1  0.33136342  0.41451829  0.82918031  1
  Ca2+  Ca27  1  0.31906262  0.91376610  0.17201984  1
  Ca2+  Ca28  1  0.32374788  0.91261933  0.50220429  1
  Ca2+  Ca29  1  0.32381745  0.91960742  0.83991294  1
  Ca2+  Ca30  1  0.84189447  0.42435505  0.16736479  1
  Ca2+  Ca31  1  0.83657834  0.42592117  0.51045248  1
  Ca2+  Ca32  1  0.84932974  0.42616260  0.83623554  1
  Ca2+  Ca33  1  0.83136994  0.91664890  0.16868043  1
  Ca2+  Ca34  1  0.82618236  0.91670920  0.50844855  1
  Ca2+  Ca35  1  0.83112904  0.92645993  0.83657017  1
  Ca2+  Ca36  1  0.42068055  0.16561542  0.16980121  1
  Ca2+  Ca37  1  0.42623885  0.17351478  0.49593879  1
  Ca2+  Ca38  1  0.42490682  0.17081589  0.82039380  1
  Ca2+  Ca39  1  0.42552753  0.66590074  0.16702781  1
  Ca2+  Ca40  1  0.42228540  0.66281344  0.49654211  1
  Ca2+  Ca41  1  0.41731348  0.66775755  0.82694377  1
  Ca2+  Ca42  1  0.91373197  0.17234213  0.15834032  1
  Ca2+  Ca43  1  0.91639876  0.16802302  0.50472619  1
  Ca2+  Ca44  1  0.91493619  0.17134500  0.82369324  1
  Ca2+  Ca45  1  0.91832511  0.67901462  0.16435035  1
  Ca2+  Ca46  1  0.91459219  0.67745099  0.49495685  1
  Ca2+  Ca47  1  0.90566522  0.67729360  0.82999994  1
  Al0+  Al48  1  0.00036500  -0.00016047  0.00378948  1
  Al0+  Al49  1  -0.00123288  0.00246325  0.33433844  1
  Al0+  Al50  1  -0.00336390  -0.00044787  0.66099107  1
  Al0+  Al51  1  0.00270009  0.50045935  0.00201509  1
  Al0+  Al52  1  0.00117515  0.50163900  0.33613643  1
  Al0+  Al53  1  0.00230688  0.50051504  0.67365379  1
  Al0+  Al54  1  0.49947990  -0.00056697  0.00299737  1
  Al0+  Al55  1  0.50001411  0.00033450  0.33212349  1
  Al0+  Al56  1  0.49632065  -0.00281068  0.66577130  1
  Al0+  Al57  1  0.50036476  0.50039992  -0.00119760  1
  Al0+  Al58  1  0.50101534  0.50036530  0.32415244  1
  Al0+  Al59  1  0.49955933  0.50164014  0.66817346  1
  Al0+  Al60  1  0.25126089  0.25089491  0.00018099  1
  Al0+  Al61  1  0.24868346  0.25016727  0.33273083  1
  Al0+  Al62  1  0.24898729  0.24855952  0.66487062  1
  Al0+  Al63  1  0.25248540  0.74843852  0.00363401  1
  Al0+  Al64  1  0.25038064  0.74802766  0.33566136  1
  Al0+  Al65  1  0.24970288  0.74835519  0.67062259  1
  Al0+  Al66  1  0.74833895  0.25198747  -0.00171219  1
  Al0+  Al67  1  0.74948497  0.25146679  0.32906218  1
  Al0+  Al68  1  0.75021277  0.24875565  0.65991043  1
  Al0+  Al69  1  0.75144831  0.74711930  0.00232840  1
  Al0+  Al70  1  0.75088284  0.75149868  0.32838304  1
  Al0+  Al71  1  0.74834138  0.74882760  0.66983287  1
  Al0+  Al72  1  0.17965790  0.42599760  0.68480305  1
  Al0+  Al73  1  0.67900359  0.92920589  0.01643724  1
  Al0+  Al74  1  0.68134415  0.93013723  0.34716375  1
  Al0+  Al75  1  0.07032191  0.17773236  0.65100100  1
  Al0+  Al76  1  0.92962385  0.82325355  0.31694486  1
  Al0+  Al77  1  0.42966672  0.32240433  0.65189684  1
  Al0+  Al78  1  0.92704255  0.81869214  0.65374294  1
  Al0+  Al79  1  0.57252496  0.17684035  0.31527108  1
  Al0+  Al80  1  0.92954543  0.32172933  0.98753352  1
  Al0+  Al81  1  0.17879213  0.42897599  0.34807608  1
  Al0+  Al82  1  0.57207377  0.17531203  0.65152308  1
  Al0+  Al83  1  0.82228406  0.56865149  0.01633431  1
  Al0+  Al84  1  0.57137786  0.68031114  0.31934875  1
  Al0+  Al85  1  0.82090612  0.07162144  0.68037143  1
  Al0+  Al86  1  0.92989596  0.82036241  0.98417064  1
  Al0+  Al87  1  0.17732444  0.92747889  0.34907080  1
  Al0+  Al88  1  0.92923592  0.32419197  0.65094659  1
  Al0+  Al89  1  0.82129441  0.07417828  0.01523267  1
  Al0+  Al90  1  0.67643365  0.92834040  0.68076317  1
  Al0+  Al91  1  0.42791227  0.31984960  0.31706373  1
  Al0+  Al92  1  0.32273820  0.57116141  0.68250422  1
  Al0+  Al93  1  0.07130841  0.67840723  0.32061967  1
  Al0+  Al94  1  0.17940427  0.92915589  0.01225138  1
  Al0+  Al95  1  0.82144206  0.57002672  0.67917907  1
  Si0+  Si96  1  0.32240738  0.07347234  0.01670255  1
  Si0+  Si97  1  0.07065666  0.17985208  0.31710389  1
  Si0+  Si98  1  0.32048051  0.07102523  0.35070126  1
  Si0+  Si99  1  0.17754296  0.92846923  0.68006515  1
  Si0+  Si100  1  0.07285978  0.17838453  0.98535895  1
  Si0+  Si101  1  0.42470405  0.82059176  0.65249076  1
  Si0+  Si102  1  0.42649414  0.82271005  0.31665619  1
  Si0+  Si103  1  0.18234073  0.42987122  0.01627782  1
  Si0+  Si104  1  0.67478586  0.42896677  0.01721500  1
  Si0+  Si105  1  0.42842493  0.32163264  0.98379370  1
  Si0+  Si106  1  0.67790277  0.42754715  0.67987430  1
  Si0+  Si107  1  0.82208243  0.07700294  0.35116581  1
  Si0+  Si108  1  0.56926405  0.17798953  0.98442098  1
  Si0+  Si109  1  0.07551595  0.67783483  0.98251600  1
  Si0+  Si110  1  0.67796817  0.42901828  0.34674571  1
  Si0+  Si111  1  0.42801948  0.82034660  0.98534917  1
  Si0+  Si112  1  0.81955292  0.56988653  0.34798451  1
  Si0+  Si113  1  0.56970115  0.68128577  0.65398615  1
  Si0+  Si114  1  0.07451812  0.67941409  0.65220595  1
  Si0+  Si115  1  0.57069034  0.67913499  0.98284006  1
  Si0+  Si116  1  0.92924414  0.32315642  0.31910899  1
  Si0+  Si117  1  0.31982480  0.06952946  0.68001722  1
  Si0+  Si118  1  0.32390855  0.57078903  0.01783391  1
  Si0+  Si119  1  0.32520265  0.57072700  0.34902672  1
  O2-  O120  1  0.25272103  0.00543920  0.05975063  1
  O2-  O121  1  0.25361009  0.00082114  0.39589527  1
  O2-  O122  1  0.24689696  0.00084862  0.72285899  1
  O2-  O123  1  0.25259652  0.50074944  0.05995482  1
  O2-  O124  1  0.25545236  0.50305477  0.39200553  1
  O2-  O125  1  0.25288147  0.49803729  0.73403079  1
  O2-  O126  1  0.75142967  0.00067457  0.06634334  1
  O2-  O127  1  0.75373717  0.00681092  0.39305371  1
  O2-  O128  1  0.74619830  0.00228310  0.73008203  1
  O2-  O129  1  0.74824386  0.49235617  0.06215049  1
  O2-  O130  1  0.74845254  0.49932486  0.39055469  1
  O2-  O131  1  0.75272822  0.48872914  0.72553456  1
  O2-  O132  1  -0.00168708  0.25031688  0.27639123  1
  O2-  O133  1  0.00108016  0.25240308  0.60025488  1
  O2-  O134  1  0.00037359  0.24294786  0.94215162  1
  O2-  O135  1  0.00615318  0.75476814  0.26799689  1
  O2-  O136  1  0.00206139  0.74361490  0.60830796  1
  O2-  O137  1  0.00733642  0.74675154  0.93818800  1
  O2-  O138  1  0.49950281  0.24848516  0.26520111  1
  O2-  O139  1  0.50310690  0.25156407  0.60337821  1
  O2-  O140  1  0.49847494  0.24985655  0.94226477  1
  O2-  O141  1  0.49751614  0.75621964  0.27226954  1
  O2-  O142  1  0.49848343  0.75206013  0.61182361  1
  O2-  O143  1  0.50248785  0.75359528  0.94161378  1
  O2-  O144  1  0.07701845  0.18193723  0.09115975  1
  O2-  O145  1  0.07213806  0.17930577  0.42156689  1
  O2-  O146  1  0.07041366  0.17622905  0.76502379  1
  O2-  O147  1  0.07605017  0.67771507  0.08810887  1
  O2-  O148  1  0.06618743  0.67606950  0.43400054  1
  O2-  O149  1  0.07884562  0.68460625  0.75780471  1
  O2-  O150  1  0.56720870  0.17874416  0.08917188  1
  O2-  O151  1  0.57134748  0.17835174  0.42829963  1
  O2-  O152  1  0.56778993  0.17605547  0.76602326  1
  O2-  O153  1  0.56802426  0.67688500  0.08786019  1
  O2-  O154  1  0.57093662  0.67900272  0.43265221  1
  O2-  O155  1  0.56930942  0.68151062  0.75919194  1
  O2-  O156  1  0.17857790  0.43018652  0.23408438  1
  O2-  O157  1  0.18048152  0.42879628  0.57125616  1
  O2-  O158  1  0.18474479  0.42873994  0.91196570  1
  O2-  O159  1  0.17906192  0.92983954  0.23565071  1
  O2-  O160  1  0.18111226  0.92693561  0.57511804  1
  O2-  O161  1  0.18181376  0.93007736  0.89880110  1
  O2-  O162  1  0.67998686  0.42960213  0.24158008  1
  O2-  O163  1  0.67496675  0.43418884  0.57419592  1
  O2-  O164  1  0.66771119  0.43287730  0.91201678  1
  O2-  O165  1  0.68412542  0.92984599  0.23429537  1
  O2-  O166  1  0.67727922  0.92584516  0.56717952  1
  O2-  O167  1  0.67628106  0.93255368  0.90328969  1
  O2-  O168  1  0.42726663  0.32211955  0.08849637  1
  O2-  O169  1  0.42991982  0.31981219  0.43005106  1
  O2-  O170  1  0.43195064  0.31930313  0.76655099  1
  O2-  O171  1  0.42450064  0.81662355  0.08996090  1
  O2-  O172  1  0.42553099  0.82102237  0.42242815  1
  O2-  O173  1  0.42132288  0.82032394  0.75771136  1
  O2-  O174  1  0.93501817  0.32300101  0.10132859  1
  O2-  O175  1  0.92884898  0.32502845  0.42352287  1
  O2-  O176  1  0.93225249  0.32318657  0.76465806  1
  O2-  O177  1  0.93123616  0.81935398  0.09702795  1
  O2-  O178  1  0.92716028  0.81923917  0.43058285  1
  O2-  O179  1  0.92840887  0.81939738  0.76710146  1
  O2-  O180  1  0.31767812  0.07023700  0.24462258  1
  O2-  O181  1  0.32151110  0.06603608  0.57528710  1
  O2-  O182  1  0.32322792  0.07317231  0.91091742  1
  O2-  O183  1  0.32561729  0.56918197  0.24287894  1
  O2-  O184  1  0.32251955  0.57404202  0.56935394  1
  O2-  O185  1  0.32559347  0.57084180  0.91320782  1
  O2-  O186  1  0.82184021  0.07978019  0.24546351  1
  O2-  O187  1  0.82249628  0.06757175  0.56697797  1
  O2-  O188  1  0.81977887  0.07551821  0.90208540  1
  O2-  O189  1  0.81970243  0.56723600  0.24283030  1
  O2-  O190  1  0.81637049  0.57285546  0.56575625  1
  O2-  O191  1  0.81915034  0.56857580  0.90331670  1
  O2-  O192  1  0.04310417  0.08840735  0.26880050  1
  O2-  O193  1  0.04050312  0.08105787  0.59505520  1
  O2-  O194  1  0.05302688  0.08296661  0.94202950  1
  O2-  O195  1  0.03818310  0.58171864  0.26538144  1
  O2-  O196  1  0.05338649  0.58324177  0.61171934  1
  O2-  O197  1  0.04977286  0.58382262  0.93805222  1
  O2-  O198  1  0.54167477  0.07913807  0.26163086  1
  O2-  O199  1  0.53644807  0.07861019  0.59922978  1
  O2-  O200  1  0.53980929  0.08619963  0.93798998  1
  O2-  O201  1  0.54107631  0.58584770  0.26020872  1
  O2-  O202  1  0.54238837  0.58982184  0.60575776  1
  O2-  O203  1  0.53832533  0.58869510  0.93501271  1
  O2-  O204  1  0.16126693  0.20804102  0.26781835  1
  O2-  O205  1  0.16971235  0.20206423  0.59826921  1
  O2-  O206  1  0.16586558  0.20745760  0.93831007  1
  O2-  O207  1  0.17333821  0.69755755  0.27056333  1
  O2-  O208  1  0.16643051  0.70766355  0.60390270  1
  O2-  O209  1  0.17085526  0.70126287  0.93851201  1
  O2-  O210  1  0.66962686  0.20944771  0.26109413  1
  O2-  O211  1  0.67022341  0.19845070  0.59748668  1
  O2-  O212  1  0.66052092  0.20622833  0.93697465  1
  O2-  O213  1  0.66645401  0.71089345  0.26260464  1
  O2-  O214  1  0.66024461  0.70860656  0.60468618  1
  O2-  O215  1  0.66359255  0.70313593  0.93688959  1
  O2-  O216  1  0.09115969  0.45776528  0.06443608  1
  O2-  O217  1  0.08326286  0.46150781  0.40312459  1
  O2-  O218  1  0.08338930  0.45677256  0.74075351  1
  O2-  O219  1  0.08485775  0.95928253  0.06949158  1
  O2-  O220  1  0.08133116  0.96135776  0.40169666  1
  O2-  O221  1  0.08560101  0.95675707  0.72549045  1
  O2-  O222  1  0.58358684  0.46052636  0.06625851  1
  O2-  O223  1  0.58586651  0.45857801  0.39176023  1
  O2-  O224  1  0.58779743  0.45953342  0.72977158  1
  O2-  O225  1  0.57877299  0.95487829  0.06859811  1
  O2-  O226  1  0.58100101  0.95490693  0.39735403  1
  O2-  O227  1  0.57476484  0.95004667  0.73134697  1
  O2-  O228  1  0.21032948  0.33758680  0.06388870  1
  O2-  O229  1  0.20748166  0.33136787  0.40013727  1
  O2-  O230  1  0.20819672  0.32704734  0.73734852  1
  O2-  O231  1  0.21376268  0.83354568  0.06678175  1
  O2-  O232  1  0.20842701  0.83055369  0.40250279  1
  O2-  O233  1  0.20813314  0.83875942  0.72940642  1
  O2-  O234  1  0.69496556  0.33362711  0.06073199  1
  O2-  O235  1  0.70460462  0.33680031  0.39323873  1
  O2-  O236  1  0.69458419  0.33072906  0.72123045  1
  O2-  O237  1  0.70582270  0.82892756  0.06553991  1
  O2-  O238  1  0.71204374  0.83203254  0.39899260  1
  O2-  O239  1  0.70619324  0.83093936  0.73473525  1
  O2-  O240  1  0.45682714  0.41721442  0.26154164  1
  O2-  O241  1  0.45545429  0.42236805  0.60143383  1
  O2-  O242  1  0.45654409  0.41383477  0.93739754  1
  O2-  O243  1  0.44736187  0.91703242  0.27097147  1
  O2-  O244  1  0.44709692  0.91233853  0.60358676  1
  O2-  O245  1  0.45014001  0.91471900  0.93998872  1
  O2-  O246  1  0.96050454  0.41380133  0.27137383  1
  O2-  O247  1  0.95836464  0.42438297  0.60105174  1
  O2-  O248  1  0.96627233  0.41701180  0.93476410  1
  O2-  O249  1  0.95450450  0.92372936  0.26668113  1
  O2-  O250  1  0.95817654  0.91318438  0.59791638  1
  O2-  O251  1  0.96160528  0.91850723  0.93315835  1
  O2-  O252  1  0.32941783  0.29009990  0.26347691  1
  O2-  O253  1  0.33175654  0.29245284  0.60130988  1
  O2-  O254  1  0.33636210  0.29422860  0.93633322  1
  O2-  O255  1  0.33418411  0.79356600  0.26935302  1
  O2-  O256  1  0.33463265  0.78935760  0.60318929  1
  O2-  O257  1  0.33817435  0.78838900  0.93548150  1
  O2-  O258  1  0.83722703  0.29904223  0.27009376  1
  O2-  O259  1  0.83022329  0.30012624  0.59725396  1
  O2-  O260  1  0.82952566  0.30117491  0.93599658  1
  O2-  O261  1  0.83468282  0.78814108  0.26190583  1
  O2-  O262  1  0.83102887  0.78467602  0.60061524  1
  O2-  O263  1  0.83354589  0.78463455  0.93262957  1
  O2-  O264  1  0.41435710  0.04632009  0.06459569  1
  O2-  O265  1  0.41511432  0.04797273  0.39491856  1
  O2-  O266  1  0.40897958  0.03860462  0.73127933  1
  O2-  O267  1  0.41549502  0.54137696  0.06511625  1
  O2-  O268  1  0.41961137  0.54441818  0.39302248  1
  O2-  O269  1  0.42143161  0.54560517  0.73789051  1
  O2-  O270  1  0.92090213  0.04947403  0.06752932  1
  O2-  O271  1  0.91654876  0.05368400  0.39550919  1
  O2-  O272  1  0.91899306  0.04009909  0.73336826  1
  O2-  O273  1  0.91948295  0.53850741  0.07011516  1
  O2-  O274  1  0.91018396  0.54103383  0.39613180  1
  O2-  O275  1  0.91865412  0.54753356  0.73543833  1
  O2-  O276  1  0.29788091  0.16753180  0.06293618  1
  O2-  O277  1  0.29170285  0.16369084  0.39580127  1
  O2-  O278  1  0.29469155  0.16112506  0.72874731  1
  O2-  O279  1  0.29935889  0.66296414  0.06572372  1
  O2-  O280  1  0.30434592  0.66522965  0.39461890  1
  O2-  O281  1  0.29204876  0.66877660  0.73857822  1
  O2-  O282  1  0.79153313  0.17339754  0.06741485  1
  O2-  O283  1  0.79614304  0.17124064  0.39610312  1
  O2-  O284  1  0.79662067  0.17268456  0.73038879  1
  O2-  O285  1  0.78765241  0.66303665  0.07122983  1
  O2-  O286  1  0.79011193  0.66195125  0.39259840  1
  O2-  O287  1  0.78175212  0.66201811  0.73609561  1
