# generated using pymatgen
data_Ca2Al2SiO7
_symmetry_space_group_name_H-M   'P 1'
_cell_length_a   15.46111446
_cell_length_b   15.46092801
_cell_length_c   15.28650441
_cell_angle_alpha   90.00680841
_cell_angle_beta   89.99805372
_cell_angle_gamma   89.99806251
_symmetry_Int_Tables_number   1
_chemical_formula_structural   Ca2Al2SiO7
_chemical_formula_sum   'Ca48 Al48 Si24 O168'
_cell_volume   3654.13455797
_cell_formula_units_Z   24
loop_
 _symmetry_equiv_pos_site_id
 _symmetry_equiv_pos_as_xyz
  1  'x, y, z'
loop_
 _atom_type_symbol
 _atom_type_oxidation_number
  Ca2+  2.0
  Al0+  0.0
  Si0+  0.0
  O2-  -2.0
loop_
 _atom_site_type_symbol
 _atom_site_label
 _atom_site_symmetry_multiplicity
 _atom_site_fract_x
 _atom_site_fract_y
 _atom_site_fract_z
 _atom_site_occupancy
  Ca2+  Ca0  1  0.17207285  0.07535347  0.16981041  1
  Ca2+  Ca1  1  0.15814070  0.07278086  0.50404143  1
  Ca2+  Ca2  1  0.16414077  0.07953585  0.83540985  1
  Ca2+  Ca3  1  0.17616239  0.58783354  0.17153831  1
  Ca2+  Ca4  1  0.17191648  0.58629965  0.50964380  1
  Ca2+  Ca5  1  0.16844544  0.57665475  0.83384003  1
  Ca2+  Ca6  1  0.67500012  0.07207355  0.17870477  1
  Ca2+  Ca7  1  0.67304631  0.07551641  0.50454725  1
  Ca2+  Ca8  1  0.66499955  0.07882439  0.83167667  1
  Ca2+  Ca9  1  0.66535739  0.58637192  0.16883587  1
  Ca2+  Ca10  1  0.67809483  0.58107488  0.50771606  1
  Ca2+  Ca11  1  0.67229909  0.58820841  0.83376836  1
  Ca2+  Ca12  1  0.08137910  0.33589921  0.16487306  1
  Ca2+  Ca13  1  0.07919810  0.33317186  0.50030992  1
  Ca2+  Ca14  1  0.08786849  0.33142748  0.82219258  1
  Ca2+  Ca15  1  0.07843947  0.83470589  0.16778987  1
  Ca2+  Ca16  1  0.08346524  0.82651120  0.49363865  1
  Ca2+  Ca17  1  0.07318074  0.83096756  0.82115265  1
  Ca2+  Ca18  1  0.57415858  0.33351154  0.16568401  1
  Ca2+  Ca19  1  0.57945611  0.32711948  0.49525477  1
  Ca2+  Ca20  1  0.57857626  0.32473762  0.82368838  1
  Ca2+  Ca21  1  0.57978109  0.82834095  0.15802599  1
  Ca2+  Ca22  1  0.58526826  0.83623046  0.49804835  1
  Ca2+  Ca23  1  0.57600100  0.83185914  0.83200094  1
  Ca2+  Ca24  1  0.32888557  0.42584558  0.17244410  1
  Ca2+  Ca25  1  0.33058944  0.42781812  0.50697685  1
  Ca2+  Ca26  1  0.32117672  0.42486085  0.83872401  1
  Ca2+  Ca27  1  0.33461016  0.91960418  0.17142651  1
  Ca2+  Ca28  1  0.31690373  0.91358044  0.50503319  1
  Ca2+  Ca29  1  0.32611981  0.91948722  0.83739676  1
  Ca2+  Ca30  1  0.83157284  0.41669437  0.17372708  1
  Ca2+  Ca31  1  0.84267817  0.42012783  0.50741703  1
  Ca2+  Ca32  1  0.84269236  0.42478328  0.83061251  1
  Ca2+  Ca33  1  0.83177319  0.91553881  0.17853143  1
  Ca2+  Ca34  1  0.82639959  0.90768598  0.50445215  1
  Ca2+  Ca35  1  0.82999317  0.90641168  0.83398535  1
  Ca2+  Ca36  1  0.41048685  0.17108989  0.16173501  1
  Ca2+  Ca37  1  0.42208815  0.17173810  0.49634021  1
  Ca2+  Ca38  1  0.41852920  0.16296029  0.82619958  1
  Ca2+  Ca39  1  0.41814583  0.66941089  0.15861070  1
  Ca2+  Ca40  1  0.41374729  0.66295240  0.49547939  1
  Ca2+  Ca41  1  0.41491895  0.66298733  0.83443434  1
  Ca2+  Ca42  1  0.91383467  0.16765296  0.16859916  1
  Ca2+  Ca43  1  0.91781950  0.17413639  0.49725424  1
  Ca2+  Ca44  1  0.92564334  0.17734402  0.82111201  1
  Ca2+  Ca45  1  0.92286746  0.67914430  0.16448415  1
  Ca2+  Ca46  1  0.92892914  0.67220739  0.49909076  1
  Ca2+  Ca47  1  0.92236580  0.67327895  0.82369246  1
  Al0+  Al48  1  -0.00162981  0.00312966  -0.00376972  1
  Al0+  Al49  1  0.00034227  0.00218892  0.33609026  1
  Al0+  Al50  1  -0.00406534  0.00222832  0.66480375  1
  Al0+  Al51  1  -0.00307895  0.50071267  0.00575115  1
  Al0+  Al52  1  0.00173284  0.49907844  0.32342531  1
  Al0+  Al53  1  0.00163008  0.50259721  0.66866004  1
  Al0+  Al54  1  0.50042430  -0.00054447  0.00155041  1
  Al0+  Al55  1  0.50187715  0.00016628  0.33731166  1
  Al0+  Al56  1  0.50173233  -0.00121446  0.66495151  1
  Al0+  Al57  1  0.50031750  0.49832580  -0.00223781  1
  Al0+  Al58  1  0.49952589  0.49887002  0.33288172  1
  Al0+  Al59  1  0.50163909  0.50102552  0.67031669  1
  Al0+  Al60  1  0.24857062  0.24875309  0.00729261  1
  Al0+  Al61  1  0.25009360  0.25145854  0.32890327  1
  Al0+  Al62  1  0.25173733  0.25057176  0.66250849  1
  Al0+  Al63  1  0.24804507  0.74938983  -0.00062777  1
  Al0+  Al64  1  0.25265042  0.74979675  0.33600114  1
  Al0+  Al65  1  0.25114974  0.75324853  0.67401103  1
  Al0+  Al66  1  0.74957274  0.25020503  -0.00034669  1
  Al0+  Al67  1  0.74889058  0.24847332  0.33182863  1
  Al0+  Al68  1  0.74799141  0.24852418  0.65957706  1
  Al0+  Al69  1  0.74924997  0.74929651  -0.00515936  1
  Al0+  Al70  1  0.75057546  0.74753111  0.33438031  1
  Al0+  Al71  1  0.74706401  0.74887973  0.67267226  1
  Al0+  Al72  1  0.17989667  0.42875080  0.67926821  1
  Al0+  Al73  1  0.92517388  0.82104173  0.65164720  1
  Al0+  Al74  1  0.07431880  0.17809930  0.65092457  1
  Al0+  Al75  1  0.82197534  0.07262379  0.34994709  1
  Al0+  Al76  1  0.82138544  0.56968788  0.67951114  1
  Al0+  Al77  1  0.93076530  0.82272234  0.98590724  1
  Al0+  Al78  1  0.68003092  0.92579809  0.34894512  1
  Al0+  Al79  1  0.92887735  0.82102943  0.31987696  1
  Al0+  Al80  1  0.67906369  0.92917145  0.68394629  1
  Al0+  Al81  1  0.42690374  0.82291206  0.98519915  1
  Al0+  Al82  1  0.07502883  0.67920486  0.31717430  1
  Al0+  Al83  1  0.42935253  0.32081735  0.31871405  1
  Al0+  Al84  1  0.32178987  0.06823829  0.01263484  1
  Al0+  Al85  1  0.32393287  0.57367300  0.68398595  1
  Al0+  Al86  1  0.92854265  0.31994993  0.31783266  1
  Al0+  Al87  1  0.07385232  0.68183054  0.65368210  1
  Al0+  Al88  1  0.93027743  0.32281516  0.65295500  1
  Al0+  Al89  1  0.18114419  0.92989613  0.34533557  1
  Al0+  Al90  1  0.32165853  0.57126667  0.01721491  1
  Al0+  Al91  1  0.17500660  0.93133474  0.68072435  1
  Al0+  Al92  1  0.32120376  0.56981932  0.34762846  1
  Al0+  Al93  1  0.17693356  0.42835883  0.01779693  1
  Al0+  Al94  1  0.57015281  0.67688314  0.98338090  1
  Al0+  Al95  1  0.57019753  0.17691487  0.65163117  1
  Si0+  Si96  1  0.42742141  0.31874109  0.98446907  1
  Si0+  Si97  1  0.32210764  0.07047450  0.67923852  1
  Si0+  Si98  1  0.07065354  0.18172593  0.98574790  1
  Si0+  Si99  1  0.32293663  0.07460647  0.35040715  1
  Si0+  Si100  1  0.57041255  0.17707993  0.31396237  1
  Si0+  Si101  1  0.17469872  0.92888560  0.01514349  1
  Si0+  Si102  1  0.17691181  0.42774042  0.35048805  1
  Si0+  Si103  1  0.67971153  0.42618423  0.01480538  1
  Si0+  Si104  1  0.43007297  0.82098814  0.65129216  1
  Si0+  Si105  1  0.81834540  0.57219708  0.01715893  1
  Si0+  Si106  1  0.67868030  0.42919230  0.34683864  1
  Si0+  Si107  1  0.92665539  0.32155698  0.98556526  1
  Si0+  Si108  1  0.57129415  0.67812838  0.32089641  1
  Si0+  Si109  1  0.43053721  0.82151391  0.32121649  1
  Si0+  Si110  1  0.57134688  0.17943497  0.98579554  1
  Si0+  Si111  1  0.67824518  0.42608648  0.68261098  1
  Si0+  Si112  1  0.68099657  0.92911703  0.01490279  1
  Si0+  Si113  1  0.81983537  0.07468917  0.68535708  1
  Si0+  Si114  1  0.56992820  0.67793022  0.65070492  1
  Si0+  Si115  1  0.82257484  0.56879904  0.34653172  1
  Si0+  Si116  1  0.42950575  0.32356170  0.65020887  1
  Si0+  Si117  1  0.07301531  0.17732571  0.31356439  1
  Si0+  Si118  1  0.07085598  0.67628521  0.98313777  1
  Si0+  Si119  1  0.82034213  0.07330693  0.01405251  1
  O2-  O120  1  0.25071603  -0.00997625  0.05938592  1
  O2-  O121  1  0.25426638  0.00625800  0.39346438  1
  O2-  O122  1  0.24740087  0.00992857  0.72529460  1
  O2-  O123  1  0.24757176  0.50174272  0.06800112  1
  O2-  O124  1  0.24426856  0.49773512  0.39391102  1
  O2-  O125  1  0.25118715  0.50082180  0.73047042  1
  O2-  O126  1  0.75366473  -0.00162550  0.05659636  1
  O2-  O127  1  0.75454332  -0.00458564  0.39857053  1
  O2-  O128  1  0.75578409  0.00190916  0.73107915  1
  O2-  O129  1  0.74753895  0.49977058  0.05832526  1
  O2-  O130  1  0.75461668  0.49428660  0.38882635  1
  O2-  O131  1  0.74977599  0.49120662  0.72712951  1
  O2-  O132  1  0.00299385  0.24555012  0.26950090  1
  O2-  O133  1  0.00224776  0.25120542  0.60263594  1
  O2-  O134  1  0.00262583  0.25618443  0.94448035  1
  O2-  O135  1  0.00261528  0.75189542  0.26792274  1
  O2-  O136  1  0.00385407  0.75581923  0.60332146  1
  O2-  O137  1  0.00735198  0.75021000  0.93990449  1
  O2-  O138  1  0.49967254  0.24292120  0.26860226  1
  O2-  O139  1  0.49737930  0.25379969  0.60614824  1
  O2-  O140  1  0.49786687  0.24698681  0.94197138  1
  O2-  O141  1  0.50411375  0.75288520  0.27966504  1
  O2-  O142  1  0.49620170  0.74535634  0.60841448  1
  O2-  O143  1  0.49515256  0.74688536  0.93473736  1
  O2-  O144  1  0.06808106  0.17860933  0.09062619  1
  O2-  O145  1  0.07586867  0.17928066  0.41864967  1
  O2-  O146  1  0.07298773  0.17975772  0.76556351  1
  O2-  O147  1  0.06800204  0.67589954  0.08879562  1
  O2-  O148  1  0.07472386  0.67876921  0.43040507  1
  O2-  O149  1  0.07101361  0.68125134  0.76762614  1
  O2-  O150  1  0.57297161  0.18237480  0.09058897  1
  O2-  O151  1  0.56970089  0.17856495  0.41935226  1
  O2-  O152  1  0.56741193  0.17844345  0.76578423  1
  O2-  O153  1  0.57385616  0.68014990  0.09771134  1
  O2-  O154  1  0.57101809  0.67555979  0.42595052  1
  O2-  O155  1  0.57072011  0.67856296  0.75548116  1
  O2-  O156  1  0.17942707  0.42756808  0.24476000  1
  O2-  O157  1  0.18196699  0.42819453  0.56579480  1
  O2-  O158  1  0.17832269  0.42531916  0.90458404  1
  O2-  O159  1  0.18480269  0.93131061  0.23167934  1
  O2-  O160  1  0.17979965  0.92913905  0.56766828  1
  O2-  O161  1  0.17200384  0.93542006  0.90984617  1
  O2-  O162  1  0.67747952  0.43164152  0.24116039  1
  O2-  O163  1  0.67441819  0.42959378  0.57689668  1
  O2-  O164  1  0.68290308  0.42028657  0.91030693  1
  O2-  O165  1  0.67770307  0.92646591  0.23455317  1
  O2-  O166  1  0.67786538  0.92949923  0.57130401  1
  O2-  O167  1  0.67975741  0.93120157  0.90995595  1
  O2-  O168  1  0.43073996  0.31822915  0.08964309  1
  O2-  O169  1  0.43507609  0.32057651  0.43152456  1
  O2-  O170  1  0.43109485  0.32207988  0.75619595  1
  O2-  O171  1  0.43349195  0.82616950  0.09937366  1
  O2-  O172  1  0.43029596  0.82022403  0.42638422  1
  O2-  O173  1  0.43274911  0.82423039  0.75611474  1
  O2-  O174  1  0.92229154  0.31733468  0.09045474  1
  O2-  O175  1  0.92921344  0.32156008  0.43010993  1
  O2-  O176  1  0.92912029  0.32036832  0.76736098  1
  O2-  O177  1  0.92948019  0.82291683  0.09903777  1
  O2-  O178  1  0.92588624  0.81538008  0.43242723  1
  O2-  O179  1  0.92603035  0.81631005  0.76582835  1
  O2-  O180  1  0.32379427  0.07238984  0.24439241  1
  O2-  O181  1  0.32505625  0.06638980  0.57382560  1
  O2-  O182  1  0.32040891  0.07115970  0.89963064  1
  O2-  O183  1  0.32462845  0.56927827  0.23492953  1
  O2-  O184  1  0.32666201  0.57031003  0.57014440  1
  O2-  O185  1  0.32243512  0.56619270  0.90430930  1
  O2-  O186  1  0.81701163  0.07281541  0.23506161  1
  O2-  O187  1  0.81607171  0.07858374  0.58039842  1
  O2-  O188  1  0.81713429  0.07806154  0.90950873  1
  O2-  O189  1  0.81743156  0.56949651  0.24103632  1
  O2-  O190  1  0.81811845  0.56876996  0.56607996  1
  O2-  O191  1  0.81915115  0.57049092  0.91224835  1
  O2-  O192  1  0.04793169  0.08405881  0.26641570  1
  O2-  O193  1  0.04263803  0.08119791  0.59797383  1
  O2-  O194  1  0.03981555  0.09216974  0.93564497  1
  O2-  O195  1  0.04678138  0.58199946  0.26185905  1
  O2-  O196  1  0.04378803  0.58413561  0.60127227  1
  O2-  O197  1  0.03721827  0.58406834  0.93847458  1
  O2-  O198  1  0.54718096  0.08190458  0.26936947  1
  O2-  O199  1  0.53730836  0.08211108  0.59622008  1
  O2-  O200  1  0.54645891  0.08664993  0.93966320  1
  O2-  O201  1  0.54128017  0.58798752  0.27129715  1
  O2-  O202  1  0.54694774  0.58450650  0.60342392  1
  O2-  O203  1  0.54833252  0.57619388  0.93125050  1
  O2-  O204  1  0.16615433  0.20382105  0.26590381  1
  O2-  O205  1  0.17335446  0.20229809  0.59693296  1
  O2-  O206  1  0.16383141  0.20660988  0.93995540  1
  O2-  O207  1  0.17329564  0.71069544  0.26468650  1
  O2-  O208  1  0.17381914  0.70950611  0.60342672  1
  O2-  O209  1  0.16683778  0.69342366  0.94008915  1
  O2-  O210  1  0.66246327  0.20590572  0.26672537  1
  O2-  O211  1  0.66462817  0.20714813  0.59460740  1
  O2-  O212  1  0.66165773  0.21107051  0.93689825  1
  O2-  O213  1  0.66337445  0.70225154  0.27207729  1
  O2-  O214  1  0.66044640  0.70905028  0.60340502  1
  O2-  O215  1  0.66694976  0.70859864  0.92925966  1
  O2-  O216  1  0.07609997  0.45258508  0.06888012  1
  O2-  O217  1  0.08113713  0.45099489  0.39189912  1
  O2-  O218  1  0.08234400  0.45607096  0.73436869  1
  O2-  O219  1  0.08440730  0.96475947  0.06286279  1
  O2-  O220  1  0.08448959  0.95843029  0.39884986  1
  O2-  O221  1  0.07722514  0.95963059  0.73395781  1
  O2-  O222  1  0.58688125  0.45135639  0.06146589  1
  O2-  O223  1  0.58985589  0.46176461  0.39621898  1
  O2-  O224  1  0.58721363  0.45518843  0.73223521  1
  O2-  O225  1  0.59030757  0.95888911  0.06313517  1
  O2-  O226  1  0.58194010  0.95623569  0.40232762  1
  O2-  O227  1  0.58326566  0.96476833  0.73758833  1
  O2-  O228  1  0.20640098  0.33066434  0.07221415  1
  O2-  O229  1  0.20347990  0.33333399  0.39393142  1
  O2-  O230  1  0.20981529  0.32947685  0.73200490  1
  O2-  O231  1  0.19042457  0.83205915  0.05679338  1
  O2-  O232  1  0.21592004  0.83575022  0.40095681  1
  O2-  O233  1  0.21068393  0.83862239  0.73844035  1
  O2-  O234  1  0.71055785  0.33634443  0.06594612  1
  O2-  O235  1  0.69996092  0.33509966  0.39139617  1
  O2-  O236  1  0.69885635  0.33037618  0.72616656  1
  O2-  O237  1  0.70730762  0.83601543  0.06032036  1
  O2-  O238  1  0.70456901  0.82589441  0.40149362  1
  O2-  O239  1  0.70586707  0.83239642  0.73932007  1
  O2-  O240  1  0.46679055  0.41495567  0.26286218  1
  O2-  O241  1  0.45933828  0.41649473  0.60510366  1
  O2-  O242  1  0.45744438  0.40903864  0.93666422  1
  O2-  O243  1  0.45559761  0.91496648  0.27479470  1
  O2-  O244  1  0.46315250  0.90963317  0.60149530  1
  O2-  O245  1  0.46098826  0.91998755  0.93143458  1
  O2-  O246  1  0.95704855  0.41545155  0.25962653  1
  O2-  O247  1  0.95743886  0.42151758  0.60140643  1
  O2-  O248  1  0.94802429  0.41674117  0.94274962  1
  O2-  O249  1  0.95399112  0.92192313  0.26956127  1
  O2-  O250  1  0.94124797  0.92367539  0.60511729  1
  O2-  O251  1  0.95597881  0.92102504  0.93190768  1
  O2-  O252  1  0.33258741  0.29354897  0.26305417  1
  O2-  O253  1  0.33721395  0.29966329  0.60200553  1
  O2-  O254  1  0.33517581  0.28917512  0.93996423  1
  O2-  O255  1  0.34097857  0.79208852  0.27169912  1
  O2-  O256  1  0.33682542  0.79686900  0.60594519  1
  O2-  O257  1  0.32559261  0.80172257  0.93518768  1
  O2-  O258  1  0.83037242  0.29029490  0.26371750  1
  O2-  O259  1  0.83087553  0.29659849  0.60071685  1
  O2-  O260  1  0.83688000  0.28943049  0.93645031  1
  O2-  O261  1  0.83077629  0.78827409  0.26578899  1
  O2-  O262  1  0.82742705  0.78547356  0.60212760  1
  O2-  O263  1  0.83463670  0.78929141  0.93328669  1
  O2-  O264  1  0.41959185  0.04291295  0.06880036  1
  O2-  O265  1  0.41706270  0.05041112  0.39557507  1
  O2-  O266  1  0.41274815  0.03785961  0.72762524  1
  O2-  O267  1  0.42191674  0.54093633  0.06720511  1
  O2-  O268  1  0.41759270  0.53601172  0.40147810  1
  O2-  O269  1  0.42273787  0.54432862  0.73653416  1
  O2-  O270  1  0.91375706  0.04969492  0.06006903  1
  O2-  O271  1  0.92338247  0.05614256  0.39881888  1
  O2-  O272  1  0.91499763  0.05538337  0.73020250  1
  O2-  O273  1  0.90880143  0.54480461  0.06690972  1
  O2-  O274  1  0.91591688  0.54184881  0.38979898  1
  O2-  O275  1  0.91669016  0.54163602  0.73706770  1
  O2-  O276  1  0.28805209  0.16235485  0.07005030  1
  O2-  O277  1  0.29832801  0.16930548  0.39390199  1
  O2-  O278  1  0.30640023  0.16747672  0.72177072  1
  O2-  O279  1  0.29689755  0.67259929  0.06763629  1
  O2-  O280  1  0.29559857  0.66727389  0.40142186  1
  O2-  O281  1  0.29858555  0.67207561  0.73696566  1
  O2-  O282  1  0.78839332  0.16328816  0.06385365  1
  O2-  O283  1  0.78660150  0.16939871  0.40223145  1
  O2-  O284  1  0.78761158  0.16679178  0.73241739  1
  O2-  O285  1  0.78737849  0.66326177  0.06440533  1
  O2-  O286  1  0.79041837  0.65770196  0.39570811  1
  O2-  O287  1  0.78325440  0.66180359  0.73716778  1
