# generated using pymatgen
data_Ca2Al2SiO7
_symmetry_space_group_name_H-M   'P 1'
_cell_length_a   15.45472508
_cell_length_b   15.45470867
_cell_length_c   15.28192639
_cell_angle_alpha   90.00355675
_cell_angle_beta   90.00789774
_cell_angle_gamma   90.00451933
_symmetry_Int_Tables_number   1
_chemical_formula_structural   Ca2Al2SiO7
_chemical_formula_sum   'Ca48 Al48 Si24 O168'
_cell_volume   3650.06168317
_cell_formula_units_Z   24
loop_
 _symmetry_equiv_pos_site_id
 _symmetry_equiv_pos_as_xyz
  1  'x, y, z'
loop_
 _atom_type_symbol
 _atom_type_oxidation_number
  Ca2+  2.0
  Al0+  0.0
  Si0+  0.0
  O2-  -2.0
loop_
 _atom_site_type_symbol
 _atom_site_label
 _atom_site_symmetry_multiplicity
 _atom_site_fract_x
 _atom_site_fract_y
 _atom_site_fract_z
 _atom_site_occupancy
  Ca2+  Ca0  1  0.16645998  0.08358387  0.17340232  1
  Ca2+  Ca1  1  0.16363158  0.07516941  0.50369023  1
  Ca2+  Ca2  1  0.17569244  0.08327648  0.83929473  1
  Ca2+  Ca3  1  0.16890217  0.58643310  0.17245140  1
  Ca2+  Ca4  1  0.15667570  0.57072120  0.49977384  1
  Ca2+  Ca5  1  0.16612131  0.57660756  0.83966002  1
  Ca2+  Ca6  1  0.67299092  0.07844724  0.18036578  1
  Ca2+  Ca7  1  0.66914147  0.07903498  0.49782057  1
  Ca2+  Ca8  1  0.66592427  0.07655170  0.83443148  1
  Ca2+  Ca9  1  0.66525595  0.58003243  0.17317705  1
  Ca2+  Ca10  1  0.67515040  0.56969862  0.50593793  1
  Ca2+  Ca11  1  0.67010574  0.58152613  0.83485842  1
  Ca2+  Ca12  1  0.08452429  0.32467315  0.16870844  1
  Ca2+  Ca13  1  0.07517224  0.33312503  0.49018122  1
  Ca2+  Ca14  1  0.08332193  0.32946165  0.82591863  1
  Ca2+  Ca15  1  0.08326804  0.82860265  0.16679392  1
  Ca2+  Ca16  1  0.08186793  0.83029259  0.48775522  1
  Ca2+  Ca17  1  0.09080224  0.82577700  0.83045464  1
  Ca2+  Ca18  1  0.58296595  0.32968881  0.17079949  1
  Ca2+  Ca19  1  0.58041373  0.33148067  0.48772805  1
  Ca2+  Ca20  1  0.58101953  0.33368467  0.82636943  1
  Ca2+  Ca21  1  0.57945037  0.82977725  0.15861354  1
  Ca2+  Ca22  1  0.58717412  0.83759161  0.49571108  1
  Ca2+  Ca23  1  0.57879582  0.83168543  0.83076104  1
  Ca2+  Ca24  1  0.32994639  0.42341262  0.17431793  1
  Ca2+  Ca25  1  0.32014974  0.40753858  0.49918071  1
  Ca2+  Ca26  1  0.32572130  0.42137934  0.83816949  1
  Ca2+  Ca27  1  0.33030079  0.91936226  0.17011539  1
  Ca2+  Ca28  1  0.31927735  0.92316919  0.50527395  1
  Ca2+  Ca29  1  0.33209778  0.92571046  0.83733590  1
  Ca2+  Ca30  1  0.82927657  0.41588779  0.17652281  1
  Ca2+  Ca31  1  0.82942388  0.41315929  0.50677411  1
  Ca2+  Ca32  1  0.83350666  0.41714251  0.82840204  1
  Ca2+  Ca33  1  0.83031212  0.92101872  0.18046366  1
  Ca2+  Ca34  1  0.82913367  0.91999718  0.49877890  1
  Ca2+  Ca35  1  0.82648545  0.91302733  0.83392266  1
  Ca2+  Ca36  1  0.41644544  0.17056018  0.16642279  1
  Ca2+  Ca37  1  0.42117740  0.16954391  0.49212854  1
  Ca2+  Ca38  1  0.41359767  0.16104360  0.82930248  1
  Ca2+  Ca39  1  0.42033025  0.67329696  0.15426622  1
  Ca2+  Ca40  1  0.41959487  0.66895303  0.49489581  1
  Ca2+  Ca41  1  0.41595107  0.66861552  0.83634034  1
  Ca2+  Ca42  1  0.92623784  0.16437879  0.16949121  1
  Ca2+  Ca43  1  0.91826797  0.17596051  0.48878154  1
  Ca2+  Ca44  1  0.92551050  0.17261294  0.82785068  1
  Ca2+  Ca45  1  0.92864236  0.66978921  0.16756939  1
  Ca2+  Ca46  1  0.91877603  0.67139840  0.49236426  1
  Ca2+  Ca47  1  0.92039734  0.66320450  0.82938036  1
  Al0+  Al48  1  -0.00105500  0.00165067  -0.00665564  1
  Al0+  Al49  1  -0.00082635  0.00018305  0.33470694  1
  Al0+  Al50  1  0.00003089  -0.00259038  0.67159268  1
  Al0+  Al51  1  -0.00362999  0.50002161  -0.00230577  1
  Al0+  Al52  1  0.00154849  0.50129321  0.32743485  1
  Al0+  Al53  1  0.00013414  0.49914541  0.67117819  1
  Al0+  Al54  1  0.49899753  0.00084950  0.00131490  1
  Al0+  Al55  1  0.50018760  0.00017481  0.33286374  1
  Al0+  Al56  1  0.50047629  -0.00060920  0.67205942  1
  Al0+  Al57  1  0.49906494  0.49930900  -0.00056564  1
  Al0+  Al58  1  0.50047700  0.50148044  0.33419245  1
  Al0+  Al59  1  0.50067824  0.50015625  0.66744650  1
  Al0+  Al60  1  0.24954740  0.24890216  0.00026922  1
  Al0+  Al61  1  0.25137717  0.25338859  0.32935379  1
  Al0+  Al62  1  0.25114894  0.25001362  0.67356857  1
  Al0+  Al63  1  0.24950976  0.75008600  -0.00554268  1
  Al0+  Al64  1  0.25272885  0.75134191  0.33476517  1
  Al0+  Al65  1  0.25161742  0.75058248  0.66659363  1
  Al0+  Al66  1  0.74913053  0.24946932  -0.00119388  1
  Al0+  Al67  1  0.74872924  0.24958089  0.33243789  1
  Al0+  Al68  1  0.74997498  0.24927043  0.66800448  1
  Al0+  Al69  1  0.74981366  0.74734049  -0.00209282  1
  Al0+  Al70  1  0.75016598  0.74971150  0.33256997  1
  Al0+  Al71  1  0.75085747  0.74939276  0.67366301  1
  Al0+  Al72  1  0.07012568  0.67911496  0.98466278  1
  Al0+  Al73  1  0.67914534  0.42964576  0.34544510  1
  Al0+  Al74  1  0.07129923  0.17983467  0.98423765  1
  Al0+  Al75  1  0.17955852  0.92919383  0.34455867  1
  Al0+  Al76  1  0.17638398  0.92652331  0.68334988  1
  Al0+  Al77  1  0.68016712  0.92972424  0.68211701  1
  Al0+  Al78  1  0.32087856  0.07124585  0.01790960  1
  Al0+  Al79  1  0.67733467  0.92682692  0.34659729  1
  Al0+  Al80  1  0.82230658  0.07190734  0.34810067  1
  Al0+  Al81  1  0.42915148  0.82305166  0.98331845  1
  Al0+  Al82  1  0.07346471  0.67935228  0.31949476  1
  Al0+  Al83  1  0.42867324  0.32329967  0.31777862  1
  Al0+  Al84  1  0.82112234  0.57025048  0.68200147  1
  Al0+  Al85  1  0.17928791  0.43016106  0.34454897  1
  Al0+  Al86  1  0.17957936  0.43033252  0.68022740  1
  Al0+  Al87  1  0.67764051  0.42661534  0.68237486  1
  Al0+  Al88  1  0.93091408  0.31988444  0.65285159  1
  Al0+  Al89  1  0.57169339  0.67675650  0.98317670  1
  Al0+  Al90  1  0.31932665  0.57085764  0.01300134  1
  Al0+  Al91  1  0.57042254  0.17755102  0.31845670  1
  Al0+  Al92  1  0.92761622  0.82163285  0.32003344  1
  Al0+  Al93  1  0.92722596  0.32246691  0.31841052  1
  Al0+  Al94  1  0.31954653  0.07010050  0.68058048  1
  Al0+  Al95  1  0.07215533  0.17798588  0.32114847  1
  Si0+  Si96  1  0.92529179  0.32144130  0.98164377  1
  Si0+  Si97  1  0.68029805  0.92878510  0.01451647  1
  Si0+  Si98  1  0.43092965  0.82175735  0.64968819  1
  Si0+  Si99  1  0.57092756  0.67955871  0.32067848  1
  Si0+  Si100  1  0.32405671  0.57340172  0.68265299  1
  Si0+  Si101  1  0.57253767  0.67935827  0.65042765  1
  Si0+  Si102  1  0.82091248  0.57098870  0.01790324  1
  Si0+  Si103  1  0.07190821  0.67956052  0.65184537  1
  Si0+  Si104  1  0.07393833  0.17733566  0.65104676  1
  Si0+  Si105  1  0.82275071  0.07295149  0.68522373  1
  Si0+  Si106  1  0.57020643  0.17770202  0.65287005  1
  Si0+  Si107  1  0.17568418  0.42845660  0.01751213  1
  Si0+  Si108  1  0.17637743  0.92874060  0.01666025  1
  Si0+  Si109  1  0.82078300  0.07131301  0.01395336  1
  Si0+  Si110  1  0.42931894  0.82147730  0.31996195  1
  Si0+  Si111  1  0.42932477  0.32038035  0.98385514  1
  Si0+  Si112  1  0.57169852  0.17993971  0.98377776  1
  Si0+  Si113  1  0.67857501  0.42790938  0.01587880  1
  Si0+  Si114  1  0.42869049  0.32220540  0.65297388  1
  Si0+  Si115  1  0.92736491  0.82067473  0.65238705  1
  Si0+  Si116  1  0.92763277  0.82233207  0.98169600  1
  Si0+  Si117  1  0.32300796  0.57348994  0.35047569  1
  Si0+  Si118  1  0.82297763  0.57154168  0.34763186  1
  Si0+  Si119  1  0.32189503  0.07348540  0.34833293  1
  O2-  O120  1  0.24489259  -0.00305731  0.06224673  1
  O2-  O121  1  0.24987327  0.00815384  0.39180247  1
  O2-  O122  1  0.24567276  0.00116961  0.73253325  1
  O2-  O123  1  0.24213728  0.49978846  0.06089864  1
  O2-  O124  1  0.25335312  0.50526074  0.39341858  1
  O2-  O125  1  0.25457578  0.50527553  0.72601674  1
  O2-  O126  1  0.75289855  -0.00249803  0.05636732  1
  O2-  O127  1  0.74950751  -0.00117081  0.39607684  1
  O2-  O128  1  0.75509227  0.00331778  0.73041452  1
  O2-  O129  1  0.74882845  0.49990215  0.05797746  1
  O2-  O130  1  0.75864954  0.49899749  0.39204266  1
  O2-  O131  1  0.74882773  0.49858634  0.73337627  1
  O2-  O132  1  -0.00023467  0.24993270  0.27019866  1
  O2-  O133  1  0.00411978  0.24399345  0.60635037  1
  O2-  O134  1  -0.00195258  0.25658812  0.93837177  1
  O2-  O135  1  0.00231531  0.75260402  0.26997957  1
  O2-  O136  1  0.00279374  0.75346080  0.61112732  1
  O2-  O137  1  -0.00270663  0.75518320  0.93647534  1
  O2-  O138  1  0.49893903  0.24968566  0.26713894  1
  O2-  O139  1  0.50144321  0.25193180  0.61235355  1
  O2-  O140  1  0.49931379  0.24872341  0.94029952  1
  O2-  O141  1  0.50271884  0.75281117  0.27866679  1
  O2-  O142  1  0.50108222  0.74959975  0.60687641  1
  O2-  O143  1  0.50078217  0.74996033  0.93286768  1
  O2-  O144  1  0.06955026  0.17842551  0.09684902  1
  O2-  O145  1  0.07247719  0.17933179  0.43489598  1
  O2-  O146  1  0.07278790  0.18033722  0.75705959  1
  O2-  O147  1  0.06903934  0.67953788  0.09724977  1
  O2-  O148  1  0.07150461  0.67899851  0.43358504  1
  O2-  O149  1  0.07124614  0.67975918  0.75720920  1
  O2-  O150  1  0.57492346  0.18164947  0.08813409  1
  O2-  O151  1  0.56723674  0.17670363  0.43257271  1
  O2-  O152  1  0.56871605  0.17738281  0.75869285  1
  O2-  O153  1  0.57199081  0.67861904  0.09727294  1
  O2-  O154  1  0.56919033  0.67836912  0.42604042  1
  O2-  O155  1  0.57088562  0.67974723  0.75529472  1
  O2-  O156  1  0.18131020  0.43151123  0.23161533  1
  O2-  O157  1  0.17911262  0.42972036  0.56724933  1
  O2-  O158  1  0.17802383  0.42894928  0.91130450  1
  O2-  O159  1  0.18424189  0.92592991  0.23160532  1
  O2-  O160  1  0.17769449  0.92489276  0.56962223  1
  O2-  O161  1  0.17759181  0.93090017  0.91102417  1
  O2-  O162  1  0.67745658  0.43459243  0.23177405  1
  O2-  O163  1  0.67593289  0.42794964  0.56918103  1
  O2-  O164  1  0.67978790  0.42608302  0.91086958  1
  O2-  O165  1  0.67733969  0.92606626  0.23255680  1
  O2-  O166  1  0.68001243  0.93044493  0.56968721  1
  O2-  O167  1  0.68113379  0.93076764  0.90904888  1
  O2-  O168  1  0.43161990  0.32113021  0.08842919  1
  O2-  O169  1  0.42887398  0.32178818  0.43200457  1
  O2-  O170  1  0.42943422  0.32270698  0.75849936  1
  O2-  O171  1  0.43248133  0.82254392  0.09747974  1
  O2-  O172  1  0.42793456  0.81947599  0.42538282  1
  O2-  O173  1  0.43207958  0.82119638  0.75448143  1
  O2-  O174  1  0.92126078  0.32014755  0.08664062  1
  O2-  O175  1  0.92895548  0.32308402  0.43225107  1
  O2-  O176  1  0.93301264  0.31774563  0.76647740  1
  O2-  O177  1  0.92646644  0.82231091  0.08685375  1
  O2-  O178  1  0.92621131  0.81788096  0.43407565  1
  O2-  O179  1  0.92572162  0.81820047  0.75771138  1
  O2-  O180  1  0.32314975  0.06990610  0.24266749  1
  O2-  O181  1  0.32076984  0.06876201  0.56701973  1
  O2-  O182  1  0.32112294  0.07081874  0.90492871  1
  O2-  O183  1  0.32431244  0.57437432  0.24484035  1
  O2-  O184  1  0.32595542  0.57455032  0.57719415  1
  O2-  O185  1  0.31910020  0.56583262  0.89966174  1
  O2-  O186  1  0.82076485  0.06933850  0.23361520  1
  O2-  O187  1  0.82206224  0.07329446  0.58028343  1
  O2-  O188  1  0.81738302  0.07192104  0.90860056  1
  O2-  O189  1  0.81889257  0.57299293  0.24168998  1
  O2-  O190  1  0.81950734  0.57152426  0.56850415  1
  O2-  O191  1  0.82181138  0.57101159  0.91296615  1
  O2-  O192  1  0.04412032  0.08028052  0.26668676  1
  O2-  O193  1  0.05004358  0.08085980  0.61030690  1
  O2-  O194  1  0.03890542  0.08468064  0.92727592  1
  O2-  O195  1  0.04476652  0.58362144  0.26216691  1
  O2-  O196  1  0.04097421  0.58801014  0.60650828  1
  O2-  O197  1  0.03645673  0.58249734  0.93082536  1
  O2-  O198  1  0.54255472  0.07919494  0.26401574  1
  O2-  O199  1  0.53968781  0.08652369  0.60611799  1
  O2-  O200  1  0.54465219  0.08743349  0.93742397  1
  O2-  O201  1  0.54099229  0.58979005  0.27101559  1
  O2-  O202  1  0.54455784  0.58701030  0.60328401  1
  O2-  O203  1  0.54229383  0.57827250  0.93048167  1
  O2-  O204  1  0.16939521  0.20738775  0.26627739  1
  O2-  O205  1  0.16852389  0.20319461  0.60819569  1
  O2-  O206  1  0.16839005  0.21039012  0.93035681  1
  O2-  O207  1  0.17273482  0.70812916  0.26812866  1
  O2-  O208  1  0.16520816  0.70370355  0.60548027  1
  O2-  O209  1  0.16628008  0.70689477  0.92841680  1
  O2-  O210  1  0.66767864  0.20605734  0.26400754  1
  O2-  O211  1  0.66340462  0.20162836  0.60744351  1
  O2-  O212  1  0.66244412  0.20900753  0.93373115  1
  O2-  O213  1  0.66270784  0.70379427  0.27190620  1
  O2-  O214  1  0.66475712  0.70880985  0.60548434  1
  O2-  O215  1  0.67062032  0.70436934  0.93036060  1
  O2-  O216  1  0.07964547  0.45071045  0.05906105  1
  O2-  O217  1  0.08252728  0.46194556  0.39846658  1
  O2-  O218  1  0.08541482  0.46182689  0.73761239  1
  O2-  O219  1  0.08100991  0.95465560  0.05890736  1
  O2-  O220  1  0.08238548  0.95442590  0.39899724  1
  O2-  O221  1  0.07661550  0.94736631  0.73702148  1
  O2-  O222  1  0.58627765  0.45451173  0.06197024  1
  O2-  O223  1  0.58447343  0.46496962  0.40107631  1
  O2-  O224  1  0.57926188  0.45652526  0.73553203  1
  O2-  O225  1  0.58895930  0.95802182  0.06068424  1
  O2-  O226  1  0.57899602  0.95526392  0.40055972  1
  O2-  O227  1  0.58537930  0.96238188  0.73844393  1
  O2-  O228  1  0.20513960  0.33567029  0.06159374  1
  O2-  O229  1  0.21145249  0.33433862  0.40004733  1
  O2-  O230  1  0.21149282  0.33558082  0.73705954  1
  O2-  O231  1  0.20178491  0.83400635  0.05938321  1
  O2-  O232  1  0.21546974  0.83507760  0.40159810  1
  O2-  O233  1  0.21014702  0.82907350  0.73542479  1
  O2-  O234  1  0.70772290  0.33577380  0.06245465  1
  O2-  O235  1  0.70248532  0.33146202  0.39781954  1
  O2-  O236  1  0.70487063  0.32809401  0.73640166  1
  O2-  O237  1  0.70526530  0.83486371  0.05880473  1
  O2-  O238  1  0.70506085  0.82829967  0.40033767  1
  O2-  O239  1  0.71073633  0.83426555  0.73825421  1
  O2-  O240  1  0.45950102  0.42173161  0.26534590  1
  O2-  O241  1  0.45371012  0.41465487  0.60547779  1
  O2-  O242  1  0.45852469  0.41101423  0.93484549  1
  O2-  O243  1  0.45415586  0.91326638  0.27195817  1
  O2-  O244  1  0.46173530  0.91309584  0.60350526  1
  O2-  O245  1  0.46105771  0.92100603  0.93039681  1
  O2-  O246  1  0.95489073  0.42009386  0.26362110  1
  O2-  O247  1  0.96127970  0.41772333  0.60166491  1
  O2-  O248  1  0.94638943  0.41656609  0.93686452  1
  O2-  O249  1  0.95301419  0.92006848  0.26731690  1
  O2-  O250  1  0.94983311  0.91503377  0.60761730  1
  O2-  O251  1  0.94869989  0.91644403  0.93424952  1
  O2-  O252  1  0.33150446  0.29796350  0.26179518  1
  O2-  O253  1  0.33689105  0.29211415  0.60667889  1
  O2-  O254  1  0.33698645  0.29360944  0.93706644  1
  O2-  O255  1  0.34005388  0.79111304  0.26981974  1
  O2-  O256  1  0.33876309  0.79382756  0.60214761  1
  O2-  O257  1  0.33127736  0.79559088  0.92953972  1
  O2-  O258  1  0.82898712  0.29520945  0.26532814  1
  O2-  O259  1  0.83190147  0.29113993  0.60212586  1
  O2-  O260  1  0.83337131  0.29073617  0.93340084  1
  O2-  O261  1  0.83042235  0.79086802  0.26444418  1
  O2-  O262  1  0.83626069  0.78946071  0.60566777  1
  O2-  O263  1  0.83472137  0.79299697  0.93539688  1
  O2-  O264  1  0.41871410  0.04144261  0.07056988  1
  O2-  O265  1  0.41380670  0.04383258  0.39536757  1
  O2-  O266  1  0.41643141  0.03863277  0.73588676  1
  O2-  O267  1  0.41621621  0.53883109  0.06665860  1
  O2-  O268  1  0.41600232  0.54761571  0.39777262  1
  O2-  O269  1  0.41686350  0.54707862  0.72981241  1
  O2-  O270  1  0.91421795  0.04600048  0.05855049  1
  O2-  O271  1  0.91930483  0.04455796  0.40354979  1
  O2-  O272  1  0.91597953  0.04732384  0.73243048  1
  O2-  O273  1  0.91228727  0.54225586  0.06566425  1
  O2-  O274  1  0.91855367  0.55202015  0.39077914  1
  O2-  O275  1  0.91786123  0.54056095  0.73786627  1
  O2-  O276  1  0.29123351  0.16918729  0.06963663  1
  O2-  O277  1  0.30203305  0.16921640  0.39124744  1
  O2-  O278  1  0.29622947  0.16849539  0.73672681  1
  O2-  O279  1  0.29272805  0.66991500  0.06422874  1
  O2-  O280  1  0.29961755  0.66689511  0.39796142  1
  O2-  O281  1  0.29973712  0.66712419  0.72837530  1
  O2-  O282  1  0.78978389  0.16226288  0.06082022  1
  O2-  O283  1  0.79154779  0.16916470  0.40119015  1
  O2-  O284  1  0.79479105  0.16483450  0.73354570  1
  O2-  O285  1  0.79325935  0.66319447  0.06475530  1
  O2-  O286  1  0.79270793  0.66294796  0.39527242  1
  O2-  O287  1  0.79226050  0.66688822  0.73877161  1
