# generated using pymatgen
data_Ca2Al2SiO7
_symmetry_space_group_name_H-M   'P 1'
_cell_length_a   15.46436751
_cell_length_b   15.46401132
_cell_length_c   15.28857864
_cell_angle_alpha   89.99034322
_cell_angle_beta   90.00075928
_cell_angle_gamma   89.98259301
_symmetry_Int_Tables_number   1
_chemical_formula_structural   Ca2Al2SiO7
_chemical_formula_sum   'Ca48 Al48 Si24 O168'
_cell_volume   3656.12812113
_cell_formula_units_Z   24
loop_
 _symmetry_equiv_pos_site_id
 _symmetry_equiv_pos_as_xyz
  1  'x, y, z'
loop_
 _atom_type_symbol
 _atom_type_oxidation_number
  Ca2+  2.0
  Al0+  0.0
  Si0+  0.0
  O2-  -2.0
loop_
 _atom_site_type_symbol
 _atom_site_label
 _atom_site_symmetry_multiplicity
 _atom_site_fract_x
 _atom_site_fract_y
 _atom_site_fract_z
 _atom_site_occupancy
  Ca2+  Ca0  1  0.16678412  0.08736864  0.16757749  1
  Ca2+  Ca1  1  0.17250206  0.07854539  0.51395231  1
  Ca2+  Ca2  1  0.16821925  0.09423273  0.83282180  1
  Ca2+  Ca3  1  0.17679303  0.57858230  0.17702893  1
  Ca2+  Ca4  1  0.17025984  0.57947103  0.50790325  1
  Ca2+  Ca5  1  0.16379181  0.57516452  0.83172819  1
  Ca2+  Ca6  1  0.66945269  0.08359635  0.17816240  1
  Ca2+  Ca7  1  0.66948360  0.07876342  0.50648394  1
  Ca2+  Ca8  1  0.66563277  0.08746142  0.83118647  1
  Ca2+  Ca9  1  0.66581776  0.58160820  0.17554731  1
  Ca2+  Ca10  1  0.67320166  0.58787529  0.50065801  1
  Ca2+  Ca11  1  0.66625257  0.58016312  0.83956804  1
  Ca2+  Ca12  1  0.07135195  0.32883333  0.16204362  1
  Ca2+  Ca13  1  0.07694998  0.33066712  0.50244745  1
  Ca2+  Ca14  1  0.07618106  0.32649937  0.82430682  1
  Ca2+  Ca15  1  0.07418333  0.83416184  0.16733283  1
  Ca2+  Ca16  1  0.08359092  0.83089733  0.49659726  1
  Ca2+  Ca17  1  0.08891284  0.82568636  0.82375796  1
  Ca2+  Ca18  1  0.58303374  0.32007627  0.16175852  1
  Ca2+  Ca19  1  0.58209626  0.31911017  0.49980562  1
  Ca2+  Ca20  1  0.57304172  0.32268463  0.82751189  1
  Ca2+  Ca21  1  0.58745442  0.82481352  0.17066206  1
  Ca2+  Ca22  1  0.58157945  0.83631808  0.48949546  1
  Ca2+  Ca23  1  0.58971721  0.82869397  0.82866384  1
  Ca2+  Ca24  1  0.33610278  0.41846166  0.17218181  1
  Ca2+  Ca25  1  0.33179081  0.42200701  0.50887270  1
  Ca2+  Ca26  1  0.32919953  0.40195052  0.83373246  1
  Ca2+  Ca27  1  0.33193096  0.91392532  0.17288214  1
  Ca2+  Ca28  1  0.33112199  0.91986871  0.50891958  1
  Ca2+  Ca29  1  0.32796647  0.92480046  0.82826354  1
  Ca2+  Ca30  1  0.83706859  0.42062835  0.17546633  1
  Ca2+  Ca31  1  0.83990485  0.41793136  0.50153368  1
  Ca2+  Ca32  1  0.83806655  0.41262501  0.83484416  1
  Ca2+  Ca33  1  0.82678464  0.92571383  0.18152044  1
  Ca2+  Ca34  1  0.82506235  0.92608657  0.50369173  1
  Ca2+  Ca35  1  0.83181170  0.92742574  0.82978597  1
  Ca2+  Ca36  1  0.43124111  0.16825463  0.16061343  1
  Ca2+  Ca37  1  0.42516069  0.15981137  0.49918231  1
  Ca2+  Ca38  1  0.42343031  0.17001955  0.82413569  1
  Ca2+  Ca39  1  0.42564650  0.66686361  0.16863893  1
  Ca2+  Ca40  1  0.42176839  0.67432742  0.48858850  1
  Ca2+  Ca41  1  0.42294145  0.66746213  0.83086642  1
  Ca2+  Ca42  1  0.91439386  0.17688256  0.16188466  1
  Ca2+  Ca43  1  0.90979053  0.17209385  0.49718905  1
  Ca2+  Ca44  1  0.92303672  0.17468939  0.82351582  1
  Ca2+  Ca45  1  0.90378234  0.67561807  0.17050705  1
  Ca2+  Ca46  1  0.92134748  0.67256716  0.49366940  1
  Ca2+  Ca47  1  0.92380734  0.67097554  0.82396505  1
  Al0+  Al48  1  -0.00117702  -0.00058592  -0.00084676  1
  Al0+  Al49  1  0.00125762  -0.00067723  0.33270739  1
  Al0+  Al50  1  -0.00239056  -0.00179863  0.67199823  1
  Al0+  Al51  1  0.00095317  0.50264341  0.00155334  1
  Al0+  Al52  1  0.00068011  0.49832977  0.33324714  1
  Al0+  Al53  1  0.00312119  0.50232342  0.66337826  1
  Al0+  Al54  1  0.49823755  -0.00311228  -0.00147571  1
  Al0+  Al55  1  0.49838689  -0.00056784  0.32624550  1
  Al0+  Al56  1  0.49913205  -0.00278593  0.67344657  1
  Al0+  Al57  1  0.50061423  0.50204416  -0.00576983  1
  Al0+  Al58  1  0.49904447  0.49938497  0.33705697  1
  Al0+  Al59  1  0.50251886  0.50107786  0.66349021  1
  Al0+  Al60  1  0.24856254  0.24966472  0.00175326  1
  Al0+  Al61  1  0.24855241  0.24910234  0.33441835  1
  Al0+  Al62  1  0.24848533  0.25283625  0.66713503  1
  Al0+  Al63  1  0.25014349  0.75030587  0.00247763  1
  Al0+  Al64  1  0.25107211  0.74821905  0.33271805  1
  Al0+  Al65  1  0.25272324  0.74874438  0.66748005  1
  Al0+  Al66  1  0.74882847  0.25124797  -0.00545289  1
  Al0+  Al67  1  0.75082978  0.25211017  0.32772565  1
  Al0+  Al68  1  0.74816361  0.25234433  0.66394649  1
  Al0+  Al69  1  0.74973092  0.75072725  -0.00447756  1
  Al0+  Al70  1  0.75076230  0.74930809  0.33417061  1
  Al0+  Al71  1  0.75243516  0.74960912  0.67133014  1
  Al0+  Al72  1  0.06908459  0.17789635  0.98545810  1
  Al0+  Al73  1  0.57061686  0.68174923  0.98535538  1
  Al0+  Al74  1  0.92901409  0.32449682  0.98484889  1
  Al0+  Al75  1  0.17733444  0.92694030  0.68052312  1
  Al0+  Al76  1  0.57235656  0.67738047  0.32061736  1
  Al0+  Al77  1  0.42731460  0.82162662  0.31827308  1
  Al0+  Al78  1  0.32200164  0.57008237  0.34778726  1
  Al0+  Al79  1  0.07261685  0.68126872  0.65295580  1
  Al0+  Al80  1  0.82255239  0.07413522  0.34662794  1
  Al0+  Al81  1  0.81987800  0.07496999  0.68294758  1
  Al0+  Al82  1  0.17985544  0.43109170  0.68102858  1
  Al0+  Al83  1  0.67861200  0.92791861  0.68308163  1
  Al0+  Al84  1  0.93035821  0.32063722  0.31892630  1
  Al0+  Al85  1  0.07056086  0.17609322  0.65087975  1
  Al0+  Al86  1  0.31944180  0.07221916  0.68168539  1
  Al0+  Al87  1  0.67770827  0.93036723  0.34600030  1
  Al0+  Al88  1  0.57008236  0.17939078  0.32026888  1
  Al0+  Al89  1  0.42954246  0.32161268  0.98741672  1
  Al0+  Al90  1  0.92855263  0.32149207  0.64972732  1
  Al0+  Al91  1  0.57136881  0.17529278  0.98386854  1
  Al0+  Al92  1  0.56865378  0.17640239  0.65025863  1
  Al0+  Al93  1  0.42747258  0.32257612  0.64985462  1
  Al0+  Al94  1  0.82091294  0.57066833  0.34725569  1
  Al0+  Al95  1  0.93037229  0.82105889  0.32139597  1
  Si0+  Si96  1  0.07221477  0.67731053  0.31581763  1
  Si0+  Si97  1  0.32028622  0.07096976  0.01707363  1
  Si0+  Si98  1  0.07418207  0.17651437  0.31695105  1
  Si0+  Si99  1  0.32011353  0.07040697  0.34540586  1
  Si0+  Si100  1  0.43113910  0.81837719  0.65344855  1
  Si0+  Si101  1  0.67886575  0.92673955  0.01625653  1
  Si0+  Si102  1  0.42546283  0.32124388  0.31884830  1
  Si0+  Si103  1  0.17819844  0.92716318  0.01730667  1
  Si0+  Si104  1  0.17881317  0.92789201  0.34650512  1
  Si0+  Si105  1  0.17863964  0.42911925  0.01704086  1
  Si0+  Si106  1  0.32147194  0.57223863  0.01555573  1
  Si0+  Si107  1  0.67808017  0.43103447  0.68236229  1
  Si0+  Si108  1  0.92626595  0.82134016  0.65023164  1
  Si0+  Si109  1  0.57448489  0.67906777  0.65135299  1
  Si0+  Si110  1  0.82163359  0.57247645  0.01462131  1
  Si0+  Si111  1  0.81943360  0.07082397  0.01490794  1
  Si0+  Si112  1  0.17830111  0.42714541  0.35091934  1
  Si0+  Si113  1  0.67864804  0.43091389  0.01365123  1
  Si0+  Si114  1  0.67720398  0.42726437  0.35040761  1
  Si0+  Si115  1  0.07315137  0.68122930  0.98687210  1
  Si0+  Si116  1  0.92865312  0.82027434  0.98435811  1
  Si0+  Si117  1  0.82197866  0.57016559  0.68234013  1
  Si0+  Si118  1  0.32488987  0.57138137  0.68537877  1
  Si0+  Si119  1  0.42411634  0.82102188  0.98045661  1
  O2-  O120  1  0.24827289  -0.00045750  0.05911156  1
  O2-  O121  1  0.24994507  -0.00132495  0.38715515  1
  O2-  O122  1  0.24133917  0.00552204  0.73229005  1
  O2-  O123  1  0.25287671  0.49829553  0.05772624  1
  O2-  O124  1  0.24836933  0.49486434  0.39404630  1
  O2-  O125  1  0.25905538  0.50070229  0.73059964  1
  O2-  O126  1  0.74452312  0.00326653  0.05724466  1
  O2-  O127  1  0.74820953  0.00376468  0.39525939  1
  O2-  O128  1  0.74649556  0.00363445  0.73363827  1
  O2-  O129  1  0.75364969  0.49836991  0.05599069  1
  O2-  O130  1  0.74480048  0.49783608  0.39432742  1
  O2-  O131  1  0.75194529  0.49929262  0.72563666  1
  O2-  O132  1  0.00246081  0.24269989  0.27389604  1
  O2-  O133  1  -0.00447533  0.24439994  0.60003300  1
  O2-  O134  1  -0.00145624  0.25066859  0.93569890  1
  O2-  O135  1  0.00218562  0.74433609  0.27070924  1
  O2-  O136  1  0.00179575  0.75949098  0.60730177  1
  O2-  O137  1  0.00166753  0.75073464  0.94349234  1
  O2-  O138  1  0.49516010  0.25455021  0.27406009  1
  O2-  O139  1  0.49390615  0.24581005  0.59999624  1
  O2-  O140  1  0.49697922  0.24620195  0.93681257  1
  O2-  O141  1  0.50059697  0.74963164  0.26996958  1
  O2-  O142  1  0.50527283  0.75135868  0.61078906  1
  O2-  O143  1  0.49696526  0.75638569  0.93700124  1
  O2-  O144  1  0.06741331  0.17836069  0.09962536  1
  O2-  O145  1  0.08008743  0.17690849  0.42152335  1
  O2-  O146  1  0.06959766  0.18146845  0.76450060  1
  O2-  O147  1  0.07521945  0.68272528  0.09171416  1
  O2-  O148  1  0.07315510  0.67959116  0.42110889  1
  O2-  O149  1  0.06939696  0.68029425  0.76704585  1
  O2-  O150  1  0.57204157  0.17681352  0.09790748  1
  O2-  O151  1  0.56842928  0.17765953  0.43261767  1
  O2-  O152  1  0.56791963  0.17967478  0.76376237  1
  O2-  O153  1  0.57136812  0.68086861  0.09787736  1
  O2-  O154  1  0.57093581  0.67911493  0.43421403  1
  O2-  O155  1  0.57335925  0.67834198  0.75687494  1
  O2-  O156  1  0.17952019  0.42823484  0.24455451  1
  O2-  O157  1  0.17800022  0.43682544  0.56819456  1
  O2-  O158  1  0.17617273  0.43188671  0.91245239  1
  O2-  O159  1  0.17814361  0.92826747  0.24079798  1
  O2-  O160  1  0.18447508  0.92295619  0.56686297  1
  O2-  O161  1  0.17971468  0.92149830  0.91315937  1
  O2-  O162  1  0.67756826  0.42792811  0.24415310  1
  O2-  O163  1  0.67603097  0.43513522  0.57751863  1
  O2-  O164  1  0.67813090  0.43474825  0.90862748  1
  O2-  O165  1  0.68041265  0.93097748  0.23155936  1
  O2-  O166  1  0.68007581  0.92328742  0.57008532  1
  O2-  O167  1  0.68338180  0.92249455  0.91168400  1
  O2-  O168  1  0.43283716  0.32174473  0.10159967  1
  O2-  O169  1  0.42333115  0.31876225  0.42376107  1
  O2-  O170  1  0.43265071  0.32352707  0.76346998  1
  O2-  O171  1  0.42008059  0.81851444  0.08560396  1
  O2-  O172  1  0.42513329  0.82109233  0.43185722  1
  O2-  O173  1  0.42951271  0.81452547  0.75875190  1
  O2-  O174  1  0.93076617  0.32582064  0.09858955  1
  O2-  O175  1  0.93293872  0.32357878  0.43101615  1
  O2-  O176  1  0.93151841  0.32443417  0.76337634  1
  O2-  O177  1  0.92798244  0.81929026  0.08953990  1
  O2-  O178  1  0.93503769  0.82042696  0.43372394  1
  O2-  O179  1  0.92310438  0.81455404  0.75644159  1
  O2-  O180  1  0.31769442  0.07155352  0.23994954  1
  O2-  O181  1  0.32240324  0.06575640  0.56764247  1
  O2-  O182  1  0.31975757  0.07056069  0.91266113  1
  O2-  O183  1  0.32059382  0.56808540  0.23370084  1
  O2-  O184  1  0.32326128  0.57269968  0.57993865  1
  O2-  O185  1  0.31857040  0.57722169  0.91099479  1
  O2-  O186  1  0.82179562  0.07243915  0.23191342  1
  O2-  O187  1  0.81825959  0.07294588  0.56954709  1
  O2-  O188  1  0.82163875  0.06777803  0.91042309  1
  O2-  O189  1  0.81985926  0.56916199  0.23336949  1
  O2-  O190  1  0.81997148  0.57285929  0.57754826  1
  O2-  O191  1  0.82186950  0.57472994  0.90948037  1
  O2-  O192  1  0.05292849  0.08198930  0.27090315  1
  O2-  O193  1  0.04987001  0.07308594  0.60433331  1
  O2-  O194  1  0.04427383  0.07802211  0.93423004  1
  O2-  O195  1  0.04922194  0.58309603  0.27063118  1
  O2-  O196  1  0.03821138  0.58815670  0.59660236  1
  O2-  O197  1  0.04566112  0.58936073  0.94016262  1
  O2-  O198  1  0.53778585  0.08526230  0.26249388  1
  O2-  O199  1  0.54158279  0.07534167  0.60239438  1
  O2-  O200  1  0.54492707  0.07536731  0.93388559  1
  O2-  O201  1  0.54220954  0.57852560  0.26800545  1
  O2-  O202  1  0.54701733  0.58851914  0.60300897  1
  O2-  O203  1  0.53931532  0.58686418  0.92872080  1
  O2-  O204  1  0.16598858  0.20636601  0.26719445  1
  O2-  O205  1  0.16870392  0.20673138  0.59943217  1
  O2-  O206  1  0.16874274  0.20534310  0.93679396  1
  O2-  O207  1  0.16461796  0.70521641  0.26835420  1
  O2-  O208  1  0.17076621  0.70800013  0.60027375  1
  O2-  O209  1  0.16393455  0.70999383  0.93827575  1
  O2-  O210  1  0.66492761  0.21223730  0.26384635  1
  O2-  O211  1  0.66522919  0.21052860  0.59826516  1
  O2-  O212  1  0.66825610  0.20588363  0.93087520  1
  O2-  O213  1  0.67042847  0.70420983  0.26612507  1
  O2-  O214  1  0.66803783  0.70465414  0.60737940  1
  O2-  O215  1  0.66696220  0.71160733  0.92929568  1
  O2-  O216  1  0.08869356  0.46235546  0.06636636  1
  O2-  O217  1  0.08598861  0.45505350  0.39662830  1
  O2-  O218  1  0.08564361  0.47006771  0.73623085  1
  O2-  O219  1  0.08515036  0.95383430  0.06412042  1
  O2-  O220  1  0.08789544  0.95422284  0.39499868  1
  O2-  O221  1  0.07552400  0.93992036  0.73139272  1
  O2-  O222  1  0.58841019  0.46380465  0.06142632  1
  O2-  O223  1  0.58332403  0.44915786  0.39690166  1
  O2-  O224  1  0.58856591  0.46414781  0.73197414  1
  O2-  O225  1  0.58277571  0.94544596  0.05911188  1
  O2-  O226  1  0.57704894  0.95616212  0.39515203  1
  O2-  O227  1  0.57962190  0.94909115  0.73801933  1
  O2-  O228  1  0.20342929  0.33712846  0.06609816  1
  O2-  O229  1  0.20197979  0.33290262  0.39595113  1
  O2-  O230  1  0.20499405  0.33432750  0.73689279  1
  O2-  O231  1  0.20792324  0.83646656  0.06743591  1
  O2-  O232  1  0.20549393  0.83553611  0.39259244  1
  O2-  O233  1  0.21572232  0.83129005  0.73613871  1
  O2-  O234  1  0.70224739  0.33717550  0.05977556  1
  O2-  O235  1  0.70689795  0.33521726  0.39581393  1
  O2-  O236  1  0.70268274  0.33896612  0.72960622  1
  O2-  O237  1  0.71311233  0.83636001  0.06358016  1
  O2-  O238  1  0.70584334  0.83181917  0.39731847  1
  O2-  O239  1  0.71306531  0.83071330  0.73844652  1
  O2-  O240  1  0.44932263  0.41597800  0.27489739  1
  O2-  O241  1  0.46165214  0.42019042  0.59742823  1
  O2-  O242  1  0.45708754  0.41894065  0.93290700  1
  O2-  O243  1  0.45285226  0.91830376  0.26072303  1
  O2-  O244  1  0.45475816  0.91121543  0.60784035  1
  O2-  O245  1  0.44563827  0.91579204  0.93644104  1
  O2-  O246  1  0.96422427  0.41646862  0.26329303  1
  O2-  O247  1  0.96234117  0.41918765  0.59839589  1
  O2-  O248  1  0.95798780  0.42420023  0.93433584  1
  O2-  O249  1  0.96383758  0.91566609  0.26340720  1
  O2-  O250  1  0.94236861  0.91756889  0.60892257  1
  O2-  O251  1  0.95548319  0.91195273  0.93774253  1
  O2-  O252  1  0.33200360  0.29557039  0.27132294  1
  O2-  O253  1  0.32592723  0.30469229  0.60148736  1
  O2-  O254  1  0.32868774  0.29687854  0.93945631  1
  O2-  O255  1  0.32982562  0.79035177  0.26327606  1
  O2-  O256  1  0.34145974  0.78725701  0.60446099  1
  O2-  O257  1  0.33227874  0.79012647  0.93360694  1
  O2-  O258  1  0.83374961  0.29524609  0.26194665  1
  O2-  O259  1  0.82765171  0.30142826  0.59914188  1
  O2-  O260  1  0.82950531  0.30061296  0.93397726  1
  O2-  O261  1  0.83483213  0.78944304  0.26538631  1
  O2-  O262  1  0.83648609  0.78582646  0.60283635  1
  O2-  O263  1  0.83946149  0.78924176  0.93482947  1
  O2-  O264  1  0.41218645  0.04093010  0.06431785  1
  O2-  O265  1  0.41173064  0.04227435  0.39132860  1
  O2-  O266  1  0.41375427  0.03591491  0.73858102  1
  O2-  O267  1  0.41481125  0.54587124  0.06066168  1
  O2-  O268  1  0.41820572  0.54306306  0.40391700  1
  O2-  O269  1  0.42061557  0.54934831  0.72908419  1
  O2-  O270  1  0.91039587  0.03928641  0.06285370  1
  O2-  O271  1  0.92116141  0.04402016  0.39759538  1
  O2-  O272  1  0.91668857  0.04326316  0.73862903  1
  O2-  O273  1  0.91470341  0.55010109  0.06282085  1
  O2-  O274  1  0.91849893  0.54031323  0.39952361  1
  O2-  O275  1  0.91431295  0.54379713  0.72912546  1
  O2-  O276  1  0.29231282  0.16207971  0.06673185  1
  O2-  O277  1  0.29295661  0.16173073  0.39372548  1
  O2-  O278  1  0.29672248  0.17234763  0.73317653  1
  O2-  O279  1  0.28986467  0.66226495  0.06526409  1
  O2-  O280  1  0.28973341  0.66657284  0.40111971  1
  O2-  O281  1  0.29646051  0.66345702  0.73297468  1
  O2-  O282  1  0.79476925  0.16529199  0.05923317  1
  O2-  O283  1  0.79630246  0.17408353  0.39544007  1
  O2-  O284  1  0.79223713  0.17449047  0.73466266  1
  O2-  O285  1  0.78959658  0.66395888  0.06109178  1
  O2-  O286  1  0.79293013  0.66697000  0.40256655  1
  O2-  O287  1  0.79373014  0.66050051  0.73312743  1
