# generated using pymatgen
data_Ca2Al2SiO7
_symmetry_space_group_name_H-M   'P 1'
_cell_length_a   15.45756726
_cell_length_b   15.45627185
_cell_length_c   15.28265101
_cell_angle_alpha   89.99219905
_cell_angle_beta   89.98612178
_cell_angle_gamma   89.99472301
_symmetry_Int_Tables_number   1
_chemical_formula_structural   Ca2Al2SiO7
_chemical_formula_sum   'Ca48 Al48 Si24 O168'
_cell_volume   3651.27521946
_cell_formula_units_Z   24
loop_
 _symmetry_equiv_pos_site_id
 _symmetry_equiv_pos_as_xyz
  1  'x, y, z'
loop_
 _atom_type_symbol
 _atom_type_oxidation_number
  Ca2+  2.0
  Al0+  0.0
  Si0+  0.0
  O2-  -2.0
loop_
 _atom_site_type_symbol
 _atom_site_label
 _atom_site_symmetry_multiplicity
 _atom_site_fract_x
 _atom_site_fract_y
 _atom_site_fract_z
 _atom_site_occupancy
  Ca2+  Ca0  1  0.17319898  0.08908190  0.17035236  1
  Ca2+  Ca1  1  0.16973158  0.08229725  0.50621572  1
  Ca2+  Ca2  1  0.17952888  0.08396314  0.83473817  1
  Ca2+  Ca3  1  0.17903898  0.57356486  0.17551834  1
  Ca2+  Ca4  1  0.17503913  0.58285722  0.50325193  1
  Ca2+  Ca5  1  0.17985392  0.58890216  0.83534595  1
  Ca2+  Ca6  1  0.66233897  0.08713388  0.17074274  1
  Ca2+  Ca7  1  0.66840775  0.07802694  0.51121810  1
  Ca2+  Ca8  1  0.66330264  0.07887726  0.83300454  1
  Ca2+  Ca9  1  0.67343682  0.58569365  0.16788568  1
  Ca2+  Ca10  1  0.67089742  0.58162537  0.50780605  1
  Ca2+  Ca11  1  0.66187883  0.57830269  0.83749363  1
  Ca2+  Ca12  1  0.08386297  0.33598248  0.16617101  1
  Ca2+  Ca13  1  0.08079376  0.33039340  0.49585882  1
  Ca2+  Ca14  1  0.06906512  0.34024587  0.82857737  1
  Ca2+  Ca15  1  0.07460866  0.83272767  0.16669847  1
  Ca2+  Ca16  1  0.07932549  0.82639331  0.49673778  1
  Ca2+  Ca17  1  0.08268501  0.82563651  0.82583966  1
  Ca2+  Ca18  1  0.57999051  0.32237675  0.15887984  1
  Ca2+  Ca19  1  0.57964360  0.33265102  0.50169378  1
  Ca2+  Ca20  1  0.57272764  0.33465683  0.82797595  1
  Ca2+  Ca21  1  0.57545968  0.82543527  0.16354851  1
  Ca2+  Ca22  1  0.57533630  0.83411022  0.50070866  1
  Ca2+  Ca23  1  0.58223324  0.82054552  0.82528709  1
  Ca2+  Ca24  1  0.33723277  0.42489478  0.17147535  1
  Ca2+  Ca25  1  0.33173015  0.42470539  0.50635294  1
  Ca2+  Ca26  1  0.34281612  0.42530238  0.83686341  1
  Ca2+  Ca27  1  0.33651968  0.92098514  0.16927306  1
  Ca2+  Ca28  1  0.34169779  0.92095630  0.50824314  1
  Ca2+  Ca29  1  0.34546584  0.92808523  0.83258074  1
  Ca2+  Ca30  1  0.83846978  0.42740024  0.16921175  1
  Ca2+  Ca31  1  0.82646261  0.41701902  0.50713782  1
  Ca2+  Ca32  1  0.82859170  0.41605898  0.83719081  1
  Ca2+  Ca33  1  0.82971545  0.91584902  0.17458811  1
  Ca2+  Ca34  1  0.82899257  0.92248511  0.50892878  1
  Ca2+  Ca35  1  0.82727424  0.92047817  0.83251856  1
  Ca2+  Ca36  1  0.42569786  0.17091563  0.15686122  1
  Ca2+  Ca37  1  0.41930187  0.17071076  0.49589978  1
  Ca2+  Ca38  1  0.41295719  0.17534626  0.82958590  1
  Ca2+  Ca39  1  0.41512093  0.66661802  0.16091747  1
  Ca2+  Ca40  1  0.41643264  0.67161839  0.49920222  1
  Ca2+  Ca41  1  0.42388719  0.66522929  0.82191207  1
  Ca2+  Ca42  1  0.92696476  0.17494023  0.16065591  1
  Ca2+  Ca43  1  0.91700637  0.17032967  0.49652643  1
  Ca2+  Ca44  1  0.91213598  0.17718667  0.82646786  1
  Ca2+  Ca45  1  0.90892653  0.66750176  0.16301302  1
  Ca2+  Ca46  1  0.92092936  0.66739698  0.49417746  1
  Ca2+  Ca47  1  0.92532105  0.65876408  0.82717630  1
  Al0+  Al48  1  -0.00126233  -0.00052951  -0.00082420  1
  Al0+  Al49  1  0.00054258  0.00073570  0.32470298  1
  Al0+  Al50  1  0.00080256  0.00074679  0.67335693  1
  Al0+  Al51  1  0.00003196  0.50116034  0.00079280  1
  Al0+  Al52  1  0.00114466  0.50038873  0.34130006  1
  Al0+  Al53  1  0.00034463  0.49863348  0.65509777  1
  Al0+  Al54  1  0.50007915  -0.00143319  0.00309640  1
  Al0+  Al55  1  0.50025804  -0.00191494  0.32522043  1
  Al0+  Al56  1  0.50134994  -0.00086469  0.67348212  1
  Al0+  Al57  1  0.50173891  0.49897556  0.00119592  1
  Al0+  Al58  1  0.50210091  0.50059189  0.33723927  1
  Al0+  Al59  1  0.50109704  0.49911663  0.66418460  1
  Al0+  Al60  1  0.24953167  0.24867888  0.00100517  1
  Al0+  Al61  1  0.25003519  0.25055147  0.33320815  1
  Al0+  Al62  1  0.24794577  0.25119365  0.66725473  1
  Al0+  Al63  1  0.24747369  0.75137526  0.00579207  1
  Al0+  Al64  1  0.24872918  0.75183899  0.33079701  1
  Al0+  Al65  1  0.24923548  0.74968952  0.66222761  1
  Al0+  Al66  1  0.75086112  0.24757566  -0.00511690  1
  Al0+  Al67  1  0.75118445  0.25049082  0.32849567  1
  Al0+  Al68  1  0.74960480  0.25226145  0.67016125  1
  Al0+  Al69  1  0.74835348  0.75130151  -0.00045473  1
  Al0+  Al70  1  0.74895010  0.75107335  0.33511550  1
  Al0+  Al71  1  0.75161295  0.75028219  0.66770539  1
  Al0+  Al72  1  0.42835142  0.32051087  0.98571223  1
  Al0+  Al73  1  0.57089555  0.17902010  0.32187319  1
  Al0+  Al74  1  0.81927948  0.57247409  0.34833273  1
  Al0+  Al75  1  0.32038947  0.07036010  0.01581068  1
  Al0+  Al76  1  0.82223380  0.07242857  0.68180171  1
  Al0+  Al77  1  0.18049262  0.42682476  0.35053532  1
  Al0+  Al78  1  0.42777809  0.81969030  0.31783280  1
  Al0+  Al79  1  0.42666447  0.32119247  0.65162210  1
  Al0+  Al80  1  0.32324144  0.57356891  0.35053480  1
  Al0+  Al81  1  0.31922859  0.57050543  0.67977682  1
  Al0+  Al82  1  0.93194319  0.32197924  0.98712595  1
  Al0+  Al83  1  0.07138705  0.67878042  0.65181159  1
  Al0+  Al84  1  0.07193811  0.17949871  0.31988636  1
  Al0+  Al85  1  0.57029409  0.67988059  0.98756685  1
  Al0+  Al86  1  0.92839843  0.81945720  0.32059981  1
  Al0+  Al87  1  0.32320236  0.57079965  0.01283938  1
  Al0+  Al88  1  0.32095712  0.07259852  0.67825087  1
  Al0+  Al89  1  0.57345299  0.67700080  0.65033495  1
  Al0+  Al90  1  0.43035957  0.82181665  0.65345251  1
  Al0+  Al91  1  0.82086681  0.57019898  0.01168159  1
  Al0+  Al92  1  0.67879241  0.43071730  0.68099379  1
  Al0+  Al93  1  0.57159154  0.17555363  0.98201520  1
  Al0+  Al94  1  0.92674564  0.31972398  0.65074264  1
  Al0+  Al95  1  0.67869047  0.92705926  0.68313517  1
  Si0+  Si96  1  0.17624011  0.42829885  0.68391503  1
  Si0+  Si97  1  0.17464061  0.92792470  0.01939752  1
  Si0+  Si98  1  0.92840459  0.32336265  0.31627216  1
  Si0+  Si99  1  0.32192672  0.06837501  0.34691304  1
  Si0+  Si100  1  0.57229385  0.67717532  0.31690630  1
  Si0+  Si101  1  0.82223982  0.07101085  0.34469832  1
  Si0+  Si102  1  0.07096922  0.67688618  0.31445168  1
  Si0+  Si103  1  0.57032041  0.17866300  0.65203987  1
  Si0+  Si104  1  0.92710206  0.82209647  0.98378301  1
  Si0+  Si105  1  0.06986356  0.68094767  0.98712974  1
  Si0+  Si106  1  0.92906411  0.82404605  0.65182188  1
  Si0+  Si107  1  0.42493867  0.81987930  0.98395198  1
  Si0+  Si108  1  0.67878167  0.42565939  0.01743517  1
  Si0+  Si109  1  0.42870896  0.32296900  0.31809329  1
  Si0+  Si110  1  0.82197877  0.07149136  0.01799927  1
  Si0+  Si111  1  0.17623905  0.93094389  0.34730964  1
  Si0+  Si112  1  0.17782957  0.92716938  0.68240259  1
  Si0+  Si113  1  0.82420305  0.57125577  0.68163720  1
  Si0+  Si114  1  0.07128502  0.17734876  0.65173706  1
  Si0+  Si115  1  0.17668404  0.42943011  0.01440602  1
  Si0+  Si116  1  0.07217141  0.17565397  0.98110709  1
  Si0+  Si117  1  0.67971548  0.42497227  0.34960940  1
  Si0+  Si118  1  0.68068021  0.92912554  0.01842319  1
  Si0+  Si119  1  0.67829029  0.93094399  0.34740381  1
  O2-  O120  1  0.24365146  -0.00308043  0.06267236  1
  O2-  O121  1  0.24998339  -0.00128716  0.39007555  1
  O2-  O122  1  0.24809263  -0.00488543  0.72491881  1
  O2-  O123  1  0.25129874  0.49221140  0.05796654  1
  O2-  O124  1  0.25239557  0.49949676  0.39938133  1
  O2-  O125  1  0.24575437  0.49529989  0.72894184  1
  O2-  O126  1  0.74936879  0.00268217  0.06151614  1
  O2-  O127  1  0.74890818  0.00332985  0.38819880  1
  O2-  O128  1  0.75081944  -0.00000842  0.73257667  1
  O2-  O129  1  0.74821278  0.49459575  0.06080559  1
  O2-  O130  1  0.74623705  0.49604929  0.39346293  1
  O2-  O131  1  0.75234571  0.50743882  0.72709239  1
  O2-  O132  1  -0.00030702  0.25670155  0.27301517  1
  O2-  O133  1  0.00007263  0.24246866  0.60644605  1
  O2-  O134  1  0.00506495  0.24627837  0.93837885  1
  O2-  O135  1  -0.00147317  0.74204739  0.26989929  1
  O2-  O136  1  -0.00491246  0.75349223  0.60723120  1
  O2-  O137  1  -0.00138075  0.75129238  0.94313011  1
  O2-  O138  1  0.49808097  0.25480586  0.27439017  1
  O2-  O139  1  0.49929850  0.24358169  0.60584697  1
  O2-  O140  1  0.49921717  0.24787275  0.93406426  1
  O2-  O141  1  0.49734870  0.73937184  0.27261083  1
  O2-  O142  1  0.50145200  0.74995568  0.60167903  1
  O2-  O143  1  0.48933746  0.74743856  0.94070695  1
  O2-  O144  1  0.06991263  0.17418192  0.08704837  1
  O2-  O145  1  0.06791194  0.17538917  0.43267255  1
  O2-  O146  1  0.07204912  0.17878309  0.75727922  1
  O2-  O147  1  0.06852122  0.68258896  0.09198853  1
  O2-  O148  1  0.07096919  0.68099591  0.41987640  1
  O2-  O149  1  0.07065256  0.68003623  0.76595601  1
  O2-  O150  1  0.57070072  0.17791472  0.09639709  1
  O2-  O151  1  0.56973170  0.17639822  0.43476384  1
  O2-  O152  1  0.56907132  0.18022604  0.75726491  1
  O2-  O153  1  0.57293459  0.68410830  0.10096054  1
  O2-  O154  1  0.57553333  0.68037800  0.42187705  1
  O2-  O155  1  0.57167386  0.67709411  0.76427556  1
  O2-  O156  1  0.18129108  0.42823280  0.23617201  1
  O2-  O157  1  0.17743307  0.42805342  0.57851317  1
  O2-  O158  1  0.17104768  0.43470726  0.90926912  1
  O2-  O159  1  0.17499162  0.93323400  0.24215361  1
  O2-  O160  1  0.17338435  0.92981296  0.57673857  1
  O2-  O161  1  0.17168531  0.92613275  0.91408161  1
  O2-  O162  1  0.68124829  0.42286021  0.24393181  1
  O2-  O163  1  0.68164941  0.42885388  0.56748898  1
  O2-  O164  1  0.67870589  0.42728774  0.91207504  1
  O2-  O165  1  0.67995820  0.93067862  0.24197559  1
  O2-  O166  1  0.67921752  0.93061913  0.56871348  1
  O2-  O167  1  0.68411958  0.92737769  0.91393879  1
  O2-  O168  1  0.43077088  0.32016717  0.09994265  1
  O2-  O169  1  0.42878565  0.32046028  0.42366983  1
  O2-  O170  1  0.42721350  0.32099433  0.76440435  1
  O2-  O171  1  0.42711266  0.81953554  0.09007347  1
  O2-  O172  1  0.43206936  0.82657060  0.43005432  1
  O2-  O173  1  0.43079079  0.82088210  0.76714794  1
  O2-  O174  1  0.93532996  0.32189149  0.10052342  1
  O2-  O175  1  0.92459077  0.31896654  0.42142584  1
  O2-  O176  1  0.92955432  0.32170335  0.76410192  1
  O2-  O177  1  0.92707572  0.82274280  0.08906264  1
  O2-  O178  1  0.93162393  0.82174774  0.43333058  1
  O2-  O179  1  0.93167896  0.82417648  0.75787528  1
  O2-  O180  1  0.32088281  0.06665169  0.24179947  1
  O2-  O181  1  0.31941136  0.07170595  0.56448747  1
  O2-  O182  1  0.31897319  0.06885913  0.90279380  1
  O2-  O183  1  0.32209448  0.57138250  0.23625207  1
  O2-  O184  1  0.31676945  0.57092948  0.56707019  1
  O2-  O185  1  0.32050553  0.57413020  0.89996048  1
  O2-  O186  1  0.82157699  0.06905300  0.23943842  1
  O2-  O187  1  0.82279115  0.06988437  0.56719035  1
  O2-  O188  1  0.82518705  0.06867617  0.91345654  1
  O2-  O189  1  0.81720321  0.57224072  0.23463735  1
  O2-  O190  1  0.82355832  0.56944231  0.57587950  1
  O2-  O191  1  0.82393648  0.56905685  0.89915001  1
  O2-  O192  1  0.03905584  0.08613315  0.26039623  1
  O2-  O193  1  0.04928730  0.08165480  0.60783551  1
  O2-  O194  1  0.04463196  0.08222685  0.93568274  1
  O2-  O195  1  0.04853479  0.58110910  0.27211117  1
  O2-  O196  1  0.04132597  0.58461526  0.59386820  1
  O2-  O197  1  0.04203941  0.59009317  0.93882828  1
  O2-  O198  1  0.53979433  0.08451119  0.26383675  1
  O2-  O199  1  0.54809287  0.08333270  0.60851030  1
  O2-  O200  1  0.54396120  0.07533132  0.93342879  1
  O2-  O201  1  0.55507311  0.58052859  0.27312497  1
  O2-  O202  1  0.54545863  0.57971966  0.59653075  1
  O2-  O203  1  0.54737377  0.58069531  0.93696971  1
  O2-  O204  1  0.16913359  0.20822323  0.26484378  1
  O2-  O205  1  0.16305909  0.20507363  0.60338132  1
  O2-  O206  1  0.16684916  0.19818456  0.93751271  1
  O2-  O207  1  0.16252980  0.70706738  0.26698390  1
  O2-  O208  1  0.16475708  0.71264974  0.59456700  1
  O2-  O209  1  0.16119027  0.71111523  0.93950612  1
  O2-  O210  1  0.66804428  0.20722853  0.26572560  1
  O2-  O211  1  0.66335560  0.20687001  0.60657411  1
  O2-  O212  1  0.67187331  0.19853776  0.93170934  1
  O2-  O213  1  0.66288053  0.71111063  0.26906050  1
  O2-  O214  1  0.67356830  0.70495727  0.59987942  1
  O2-  O215  1  0.66463460  0.71633365  0.93255976  1
  O2-  O216  1  0.08714888  0.46194804  0.06547014  1
  O2-  O217  1  0.08166727  0.45289875  0.40375377  1
  O2-  O218  1  0.08175195  0.45727391  0.72656126  1
  O2-  O219  1  0.08033222  0.95378508  0.06547570  1
  O2-  O220  1  0.08554403  0.96258013  0.39483074  1
  O2-  O221  1  0.08634040  0.95319007  0.73357876  1
  O2-  O222  1  0.58674769  0.45204419  0.06604512  1
  O2-  O223  1  0.58534040  0.44714575  0.39516656  1
  O2-  O224  1  0.58253983  0.46020340  0.73564401  1
  O2-  O225  1  0.58783034  0.95345511  0.06582695  1
  O2-  O226  1  0.58633003  0.95997630  0.39320596  1
  O2-  O227  1  0.58247470  0.95532546  0.73986632  1
  O2-  O228  1  0.19425420  0.33274098  0.05729119  1
  O2-  O229  1  0.20653542  0.32737219  0.40356636  1
  O2-  O230  1  0.19707527  0.33391236  0.73001457  1
  O2-  O231  1  0.19963786  0.83546359  0.06871022  1
  O2-  O232  1  0.19905250  0.83729292  0.39242231  1
  O2-  O233  1  0.20178551  0.83339668  0.72801605  1
  O2-  O234  1  0.70520229  0.33093796  0.06134568  1
  O2-  O235  1  0.70879316  0.33233949  0.39686764  1
  O2-  O236  1  0.71051734  0.33584903  0.73685610  1
  O2-  O237  1  0.71281952  0.83935816  0.06787408  1
  O2-  O238  1  0.70642219  0.84022292  0.39550442  1
  O2-  O239  1  0.70987529  0.82950618  0.73745888  1
  O2-  O240  1  0.45420136  0.41747507  0.27352020  1
  O2-  O241  1  0.46185586  0.41488321  0.59609322  1
  O2-  O242  1  0.45884699  0.41859730  0.93374416  1
  O2-  O243  1  0.46459661  0.91263099  0.25919369  1
  O2-  O244  1  0.46057595  0.92101483  0.60132171  1
  O2-  O245  1  0.45584889  0.91262932  0.94076918  1
  O2-  O246  1  0.95424149  0.41845575  0.27350623  1
  O2-  O247  1  0.95879674  0.41345438  0.59293327  1
  O2-  O248  1  0.96330791  0.41820030  0.93236938  1
  O2-  O249  1  0.96201169  0.91352499  0.26200091  1
  O2-  O250  1  0.95722830  0.91754863  0.60656478  1
  O2-  O251  1  0.95551893  0.91364711  0.93612995  1
  O2-  O252  1  0.33555799  0.29726428  0.27209968  1
  O2-  O253  1  0.32901284  0.29204013  0.59881066  1
  O2-  O254  1  0.32818309  0.29486031  0.93470331  1
  O2-  O255  1  0.32871530  0.79740790  0.26384636  1
  O2-  O256  1  0.33116695  0.79756779  0.60041030  1
  O2-  O257  1  0.32819967  0.80192628  0.94209290  1
  O2-  O258  1  0.83682500  0.29623564  0.26682323  1
  O2-  O259  1  0.83013673  0.28905389  0.59682312  1
  O2-  O260  1  0.83546989  0.29163038  0.93386210  1
  O2-  O261  1  0.83054728  0.79203918  0.26615997  1
  O2-  O262  1  0.83468114  0.80269414  0.60663948  1
  O2-  O263  1  0.83582025  0.79491433  0.93675024  1
  O2-  O264  1  0.41644994  0.03736917  0.07079566  1
  O2-  O265  1  0.41364751  0.03759748  0.39237341  1
  O2-  O266  1  0.41608007  0.04315843  0.73499548  1
  O2-  O267  1  0.41984496  0.54232086  0.06837048  1
  O2-  O268  1  0.42343708  0.54885582  0.40130634  1
  O2-  O269  1  0.41656121  0.53947966  0.73084688  1
  O2-  O270  1  0.91375865  0.04119160  0.06536720  1
  O2-  O271  1  0.91334819  0.03993198  0.39091246  1
  O2-  O272  1  0.92011934  0.04515559  0.73790161  1
  O2-  O273  1  0.91732537  0.54097624  0.06834654  1
  O2-  O274  1  0.91693651  0.54604264  0.40138706  1
  O2-  O275  1  0.91771629  0.54040529  0.72515648  1
  O2-  O276  1  0.28977609  0.16712081  0.07092847  1
  O2-  O277  1  0.29638826  0.16136604  0.39216635  1
  O2-  O278  1  0.28588089  0.16713095  0.73423939  1
  O2-  O279  1  0.28850376  0.66641069  0.06781301  1
  O2-  O280  1  0.29163661  0.67314795  0.39932515  1
  O2-  O281  1  0.28639803  0.66744665  0.73264721  1
  O2-  O282  1  0.79688058  0.16455072  0.06457987  1
  O2-  O283  1  0.79854490  0.16475323  0.39000137  1
  O2-  O284  1  0.79313832  0.16974560  0.73494882  1
  O2-  O285  1  0.78903303  0.66761901  0.06510555  1
  O2-  O286  1  0.78874997  0.66911054  0.40259146  1
  O2-  O287  1  0.80769861  0.66750189  0.72533882  1
