# generated using pymatgen
data_Ca2Al2SiO7
_symmetry_space_group_name_H-M   'P 1'
_cell_length_a   15.45728610
_cell_length_b   15.45689530
_cell_length_c   15.28320625
_cell_angle_alpha   90.00964106
_cell_angle_beta   90.00861821
_cell_angle_gamma   89.98943200
_symmetry_Int_Tables_number   1
_chemical_formula_structural   Ca2Al2SiO7
_chemical_formula_sum   'Ca48 Al48 Si24 O168'
_cell_volume   3651.48874610
_cell_formula_units_Z   24
loop_
 _symmetry_equiv_pos_site_id
 _symmetry_equiv_pos_as_xyz
  1  'x, y, z'
loop_
 _atom_type_symbol
 _atom_type_oxidation_number
  Ca2+  2.0
  Al0+  0.0
  Si0+  0.0
  O2-  -2.0
loop_
 _atom_site_type_symbol
 _atom_site_label
 _atom_site_symmetry_multiplicity
 _atom_site_fract_x
 _atom_site_fract_y
 _atom_site_fract_z
 _atom_site_occupancy
  Ca2+  Ca0  1  0.16403837  0.07957175  0.16956264  1
  Ca2+  Ca1  1  0.16173133  0.08509556  0.51054887  1
  Ca2+  Ca2  1  0.15766484  0.07270696  0.83555820  1
  Ca2+  Ca3  1  0.16974183  0.58990590  0.16714398  1
  Ca2+  Ca4  1  0.16581186  0.57779272  0.50602424  1
  Ca2+  Ca5  1  0.16989801  0.57801897  0.83892794  1
  Ca2+  Ca6  1  0.66960251  0.08427098  0.16610363  1
  Ca2+  Ca7  1  0.66317106  0.08094677  0.50785046  1
  Ca2+  Ca8  1  0.66773933  0.07651831  0.83967133  1
  Ca2+  Ca9  1  0.66671749  0.57301723  0.16688841  1
  Ca2+  Ca10  1  0.67446341  0.57662675  0.51571119  1
  Ca2+  Ca11  1  0.67068149  0.57670166  0.83158700  1
  Ca2+  Ca12  1  0.07033227  0.32999408  0.16082482  1
  Ca2+  Ca13  1  0.07718956  0.33006073  0.49814555  1
  Ca2+  Ca14  1  0.07268999  0.33020402  0.82241129  1
  Ca2+  Ca15  1  0.08999032  0.82347613  0.15875048  1
  Ca2+  Ca16  1  0.07708609  0.83221017  0.50063934  1
  Ca2+  Ca17  1  0.08313660  0.83084477  0.82867346  1
  Ca2+  Ca18  1  0.58341076  0.32815719  0.15748660  1
  Ca2+  Ca19  1  0.58744987  0.32484966  0.50264079  1
  Ca2+  Ca20  1  0.57659978  0.33837302  0.82532621  1
  Ca2+  Ca21  1  0.57684788  0.83246335  0.15636138  1
  Ca2+  Ca22  1  0.59200162  0.82569813  0.50269900  1
  Ca2+  Ca23  1  0.58385327  0.83325574  0.82570002  1
  Ca2+  Ca24  1  0.33743847  0.42179875  0.16478143  1
  Ca2+  Ca25  1  0.32610903  0.41322254  0.51060219  1
  Ca2+  Ca26  1  0.33113362  0.41531369  0.83853541  1
  Ca2+  Ca27  1  0.32948301  0.91257798  0.16418094  1
  Ca2+  Ca28  1  0.32345828  0.92255176  0.50889550  1
  Ca2+  Ca29  1  0.32444470  0.91453491  0.83940871  1
  Ca2+  Ca30  1  0.83294084  0.40793320  0.16584821  1
  Ca2+  Ca31  1  0.83634501  0.42102336  0.51065536  1
  Ca2+  Ca32  1  0.82481566  0.40932175  0.83597723  1
  Ca2+  Ca33  1  0.83061321  0.92349812  0.16412596  1
  Ca2+  Ca34  1  0.83087568  0.91939620  0.51355266  1
  Ca2+  Ca35  1  0.82548069  0.92107849  0.83793663  1
  Ca2+  Ca36  1  0.42345240  0.17228373  0.16085913  1
  Ca2+  Ca37  1  0.42683106  0.16973740  0.50272774  1
  Ca2+  Ca38  1  0.42310628  0.17731397  0.82561083  1
  Ca2+  Ca39  1  0.41464505  0.67181977  0.15378014  1
  Ca2+  Ca40  1  0.42483167  0.66507940  0.50345591  1
  Ca2+  Ca41  1  0.42073881  0.66822674  0.83274652  1
  Ca2+  Ca42  1  0.91500589  0.17352305  0.16262469  1
  Ca2+  Ca43  1  0.92538058  0.17788010  0.49783564  1
  Ca2+  Ca44  1  0.91486706  0.17314947  0.82851810  1
  Ca2+  Ca45  1  0.93201704  0.66496200  0.16093353  1
  Ca2+  Ca46  1  0.91647433  0.67081778  0.50088509  1
  Ca2+  Ca47  1  0.91625625  0.67211035  0.82713891  1
  Al0+  Al48  1  -0.00057601  -0.00223698  0.01162124  1
  Al0+  Al49  1  -0.00237138  0.00026381  0.33204685  1
  Al0+  Al50  1  -0.00077440  -0.00166664  0.66399123  1
  Al0+  Al51  1  0.00034181  0.49850789  -0.00860523  1
  Al0+  Al52  1  0.00017213  0.50213411  0.32603131  1
  Al0+  Al53  1  0.00255591  0.50257847  0.67219734  1
  Al0+  Al54  1  0.49751701  -0.00116801  -0.00038263  1
  Al0+  Al55  1  0.49825325  0.00021850  0.33091336  1
  Al0+  Al56  1  0.49711652  0.00043589  0.66706684  1
  Al0+  Al57  1  0.50012792  0.50021040  0.00563932  1
  Al0+  Al58  1  0.50052746  0.50116341  0.33634358  1
  Al0+  Al59  1  0.50039198  0.50261068  0.66028919  1
  Al0+  Al60  1  0.24954086  0.24895342  -0.00177061  1
  Al0+  Al61  1  0.25088068  0.25004556  0.33009448  1
  Al0+  Al62  1  0.25116072  0.25032328  0.66545535  1
  Al0+  Al63  1  0.25194496  0.74866041  -0.00183061  1
  Al0+  Al64  1  0.25042235  0.75082662  0.33501680  1
  Al0+  Al65  1  0.25069656  0.75098979  0.66878798  1
  Al0+  Al66  1  0.75070784  0.24865537  0.00422755  1
  Al0+  Al67  1  0.74814752  0.24795407  0.32802541  1
  Al0+  Al68  1  0.75005854  0.25067787  0.66217793  1
  Al0+  Al69  1  0.75183511  0.74802971  0.00749315  1
  Al0+  Al70  1  0.74899919  0.74888330  0.33075789  1
  Al0+  Al71  1  0.75030683  0.75045615  0.66658605  1
  Al0+  Al72  1  0.92916638  0.81969145  0.65578664  1
  Al0+  Al73  1  0.82012350  0.07068403  0.01625196  1
  Al0+  Al74  1  0.92838088  0.31836049  0.98329503  1
  Al0+  Al75  1  0.57106443  0.68138610  0.65450964  1
  Al0+  Al76  1  0.82319901  0.57253509  0.68165084  1
  Al0+  Al77  1  0.07068250  0.68238225  0.32055609  1
  Al0+  Al78  1  0.06997261  0.17821003  0.65493186  1
  Al0+  Al79  1  0.56872066  0.17855020  0.31738253  1
  Al0+  Al80  1  0.18070458  0.92878263  0.01492949  1
  Al0+  Al81  1  0.67996381  0.43053514  0.01383534  1
  Al0+  Al82  1  0.42967515  0.32221806  0.98726969  1
  Al0+  Al83  1  0.07329845  0.17720336  0.31683739  1
  Al0+  Al84  1  0.42891653  0.32374369  0.65138769  1
  Al0+  Al85  1  0.31895707  0.56808918  0.01264965  1
  Al0+  Al86  1  0.57183526  0.17725554  0.65392693  1
  Al0+  Al87  1  0.17755122  0.93005613  0.67979381  1
  Al0+  Al88  1  0.67770194  0.92988907  0.67822122  1
  Al0+  Al89  1  0.67598368  0.92656359  0.01575542  1
  Al0+  Al90  1  0.07210148  0.67980671  0.98376832  1
  Al0+  Al91  1  0.43064717  0.82097490  0.98536842  1
  Al0+  Al92  1  0.17993609  0.42792634  0.67983724  1
  Al0+  Al93  1  0.92850934  0.32431225  0.65253313  1
  Al0+  Al94  1  0.92960316  0.32155008  0.31741894  1
  Al0+  Al95  1  0.67957126  0.42752558  0.67971649  1
  Si0+  Si96  1  0.82552157  0.57158622  0.01869594  1
  Si0+  Si97  1  0.92488180  0.82282864  0.31513436  1
  Si0+  Si98  1  0.82118301  0.57066438  0.34706130  1
  Si0+  Si99  1  0.17606587  0.42589038  0.01729741  1
  Si0+  Si100  1  0.07186194  0.17496098  0.98449072  1
  Si0+  Si101  1  0.17955471  0.43059843  0.34534551  1
  Si0+  Si102  1  0.57145659  0.17825577  0.98352695  1
  Si0+  Si103  1  0.81954226  0.07100139  0.35112955  1
  Si0+  Si104  1  0.32183488  0.07245582  0.68451392  1
  Si0+  Si105  1  0.82177749  0.07200090  0.68024360  1
  Si0+  Si106  1  0.57191333  0.67781412  0.31705800  1
  Si0+  Si107  1  0.43004249  0.81889080  0.31942002  1
  Si0+  Si108  1  0.32120713  0.07149370  0.34849413  1
  Si0+  Si109  1  0.57420285  0.67750594  0.98542397  1
  Si0+  Si110  1  0.32189286  0.57331891  0.35018085  1
  Si0+  Si111  1  0.92775449  0.82193667  0.98517422  1
  Si0+  Si112  1  0.17898671  0.92890697  0.34914945  1
  Si0+  Si113  1  0.42575469  0.82252998  0.64892619  1
  Si0+  Si114  1  0.32147976  0.07402764  0.01764577  1
  Si0+  Si115  1  0.07494552  0.67893396  0.65085481  1
  Si0+  Si116  1  0.32280907  0.57274888  0.68275299  1
  Si0+  Si117  1  0.67753497  0.92886121  0.34872567  1
  Si0+  Si118  1  0.67883036  0.42807235  0.34910757  1
  Si0+  Si119  1  0.42795128  0.32431877  0.31590489  1
  O2-  O120  1  0.25264093  0.00570194  0.06319093  1
  O2-  O121  1  0.24398234  0.00616754  0.39048698  1
  O2-  O122  1  0.25038660  0.00590141  0.72716310  1
  O2-  O123  1  0.24516789  0.49394161  0.06288729  1
  O2-  O124  1  0.25316979  0.49916777  0.38944480  1
  O2-  O125  1  0.25643868  0.50172176  0.72546183  1
  O2-  O126  1  0.74650310  -0.00072557  0.06687524  1
  O2-  O127  1  0.75033191  -0.00292164  0.39228294  1
  O2-  O128  1  0.74813301  0.00818755  0.72391362  1
  O2-  O129  1  0.75657181  0.50285761  0.06306383  1
  O2-  O130  1  0.75139708  0.49850574  0.38943154  1
  O2-  O131  1  0.75541491  0.49553167  0.72993950  1
  O2-  O132  1  0.00100260  0.24854967  0.26721152  1
  O2-  O133  1  0.00217141  0.25333895  0.60344555  1
  O2-  O134  1  0.00486547  0.24410485  0.93982445  1
  O2-  O135  1  -0.00267177  0.75763130  0.27213974  1
  O2-  O136  1  0.00412336  0.74568227  0.60734588  1
  O2-  O137  1  -0.00482153  0.75316184  0.93985685  1
  O2-  O138  1  0.49739545  0.25693827  0.27157340  1
  O2-  O139  1  0.50291576  0.25257762  0.60310622  1
  O2-  O140  1  0.50372080  0.24768951  0.94026925  1
  O2-  O141  1  0.50020397  0.74785246  0.27558036  1
  O2-  O142  1  0.49755459  0.75702061  0.60473547  1
  O2-  O143  1  0.51220614  0.75250666  0.94183608  1
  O2-  O144  1  0.07225879  0.17750138  0.09030038  1
  O2-  O145  1  0.07266768  0.17836214  0.43008758  1
  O2-  O146  1  0.06629124  0.17562317  0.76835125  1
  O2-  O147  1  0.07218213  0.68194008  0.09769786  1
  O2-  O148  1  0.07081016  0.68287844  0.43339888  1
  O2-  O149  1  0.07835175  0.68199767  0.75595223  1
  O2-  O150  1  0.56892951  0.17939426  0.08986514  1
  O2-  O151  1  0.56730256  0.17622452  0.42994838  1
  O2-  O152  1  0.56846205  0.17346999  0.76695680  1
  O2-  O153  1  0.57002285  0.67682259  0.09202628  1
  O2-  O154  1  0.57314890  0.67836527  0.42192309  1
  O2-  O155  1  0.56936348  0.68203234  0.76728378  1
  O2-  O156  1  0.18113040  0.43270830  0.24038824  1
  O2-  O157  1  0.18000089  0.43106410  0.56551471  1
  O2-  O158  1  0.17813614  0.42648889  0.91199197  1
  O2-  O159  1  0.18432847  0.92479027  0.24430026  1
  O2-  O160  1  0.18001031  0.92957555  0.56584338  1
  O2-  O161  1  0.18059894  0.92991461  0.90211134  1
  O2-  O162  1  0.67601520  0.43120827  0.24385671  1
  O2-  O163  1  0.67974609  0.43044195  0.56526450  1
  O2-  O164  1  0.67798347  0.43227403  0.90149308  1
  O2-  O165  1  0.67711038  0.92883813  0.24396739  1
  O2-  O166  1  0.68096006  0.92931612  0.56413363  1
  O2-  O167  1  0.67737757  0.92739538  0.90240039  1
  O2-  O168  1  0.43230079  0.32073806  0.10108339  1
  O2-  O169  1  0.42682619  0.32453133  0.42098386  1
  O2-  O170  1  0.42954284  0.32304163  0.76499848  1
  O2-  O171  1  0.42936288  0.81725556  0.09957781  1
  O2-  O172  1  0.42960723  0.81795217  0.42432046  1
  O2-  O173  1  0.42345981  0.82035626  0.75409128  1
  O2-  O174  1  0.92991142  0.31786293  0.09670784  1
  O2-  O175  1  0.93176755  0.32424992  0.43057430  1
  O2-  O176  1  0.92788941  0.31987532  0.76577284  1
  O2-  O177  1  0.92902747  0.81966464  0.09132815  1
  O2-  O178  1  0.92255170  0.82135600  0.42076348  1
  O2-  O179  1  0.92974432  0.82055822  0.76853405  1
  O2-  O180  1  0.32395382  0.06794189  0.24359900  1
  O2-  O181  1  0.32348484  0.06926203  0.57811653  1
  O2-  O182  1  0.32152312  0.07440792  0.91262345  1
  O2-  O183  1  0.32301314  0.57611590  0.24526059  1
  O2-  O184  1  0.31984838  0.57515451  0.57630509  1
  O2-  O185  1  0.31941705  0.56736524  0.90007470  1
  O2-  O186  1  0.81847240  0.07001662  0.24626068  1
  O2-  O187  1  0.82287415  0.06828442  0.57412132  1
  O2-  O188  1  0.82007317  0.06954404  0.90262400  1
  O2-  O189  1  0.81875294  0.57251702  0.24208839  1
  O2-  O190  1  0.82081987  0.57366051  0.56684541  1
  O2-  O191  1  0.82390649  0.57510240  0.91386614  1
  O2-  O192  1  0.04565106  0.07724598  0.26608895  1
  O2-  O193  1  0.04003914  0.08152943  0.59871807  1
  O2-  O194  1  0.04493061  0.07943611  0.94386309  1
  O2-  O195  1  0.04044857  0.58773389  0.26281504  1
  O2-  O196  1  0.05120231  0.58508307  0.60539774  1
  O2-  O197  1  0.04492830  0.58275693  0.93045279  1
  O2-  O198  1  0.53434150  0.08292032  0.26280074  1
  O2-  O199  1  0.53764998  0.08055683  0.59793286  1
  O2-  O200  1  0.54482636  0.08437428  0.93968405  1
  O2-  O201  1  0.54398238  0.58533050  0.27094070  1
  O2-  O202  1  0.53914474  0.58817151  0.59402089  1
  O2-  O203  1  0.54055877  0.58695398  0.94004717  1
  O2-  O204  1  0.17293948  0.20263877  0.26440046  1
  O2-  O205  1  0.16999039  0.20187409  0.60314334  1
  O2-  O206  1  0.16658380  0.19646701  0.93936528  1
  O2-  O207  1  0.16831711  0.71359332  0.26730213  1
  O2-  O208  1  0.16748989  0.70687901  0.60266546  1
  O2-  O209  1  0.16738267  0.71267776  0.93052070  1
  O2-  O210  1  0.66491870  0.20703907  0.26232747  1
  O2-  O211  1  0.66973618  0.20174738  0.59782429  1
  O2-  O212  1  0.66605684  0.20146947  0.94132253  1
  O2-  O213  1  0.66300072  0.70512760  0.26801059  1
  O2-  O214  1  0.66576791  0.71333960  0.59682881  1
  O2-  O215  1  0.67123135  0.69553494  0.94467112  1
  O2-  O216  1  0.08227532  0.45382646  0.06146460  1
  O2-  O217  1  0.08843119  0.46270460  0.39153116  1
  O2-  O218  1  0.08601661  0.46003036  0.73701830  1
  O2-  O219  1  0.08487436  0.95397446  0.07337439  1
  O2-  O220  1  0.08320457  0.94897873  0.39196791  1
  O2-  O221  1  0.08071899  0.95860734  0.73388153  1
  O2-  O222  1  0.58597753  0.46386598  0.07271682  1
  O2-  O223  1  0.58732843  0.45774845  0.39675204  1
  O2-  O224  1  0.58108324  0.46201710  0.72902194  1
  O2-  O225  1  0.57629242  0.95386560  0.06803927  1
  O2-  O226  1  0.58516761  0.95734508  0.39477997  1
  O2-  O227  1  0.57865368  0.95414046  0.72999845  1
  O2-  O228  1  0.20080738  0.33160198  0.06297831  1
  O2-  O229  1  0.20572160  0.33752659  0.39169511  1
  O2-  O230  1  0.20919128  0.33125410  0.73404039  1
  O2-  O231  1  0.21797875  0.83386523  0.06876492  1
  O2-  O232  1  0.21352894  0.83997074  0.39882449  1
  O2-  O233  1  0.21082802  0.83417122  0.73350331  1
  O2-  O234  1  0.70927038  0.33385657  0.06880464  1
  O2-  O235  1  0.70365409  0.33407979  0.39241021  1
  O2-  O236  1  0.70194593  0.32727602  0.73141637  1
  O2-  O237  1  0.70418880  0.82828161  0.07146820  1
  O2-  O238  1  0.70333738  0.83430456  0.39308305  1
  O2-  O239  1  0.71080861  0.83517383  0.73225143  1
  O2-  O240  1  0.45304217  0.41981696  0.27228105  1
  O2-  O241  1  0.45219498  0.42224507  0.59621342  1
  O2-  O242  1  0.46065183  0.41942059  0.93600099  1
  O2-  O243  1  0.45723245  0.91019945  0.27121990  1
  O2-  O244  1  0.44693691  0.91701497  0.60345721  1
  O2-  O245  1  0.45238354  0.91969534  0.93194176  1
  O2-  O246  1  0.95777246  0.41927565  0.26234919  1
  O2-  O247  1  0.95805255  0.42421590  0.60281374  1
  O2-  O248  1  0.95607487  0.41518680  0.92975856  1
  O2-  O249  1  0.94684083  0.91757398  0.27101959  1
  O2-  O250  1  0.96096627  0.91367707  0.59670585  1
  O2-  O251  1  0.95395186  0.91644615  0.94291264  1
  O2-  O252  1  0.33510198  0.29867059  0.26856857  1
  O2-  O253  1  0.33221246  0.29156480  0.59657997  1
  O2-  O254  1  0.33169910  0.29346983  0.93504465  1
  O2-  O255  1  0.33838465  0.79041553  0.27201627  1
  O2-  O256  1  0.33419364  0.79224994  0.59981837  1
  O2-  O257  1  0.33748037  0.78373154  0.93060724  1
  O2-  O258  1  0.83103346  0.29178147  0.26557430  1
  O2-  O259  1  0.83111192  0.29716748  0.59736467  1
  O2-  O260  1  0.83101960  0.28573492  0.93262778  1
  O2-  O261  1  0.83250149  0.79399887  0.26773670  1
  O2-  O262  1  0.83452260  0.78873117  0.59783822  1
  O2-  O263  1  0.83276783  0.79659583  0.94181528  1
  O2-  O264  1  0.41436320  0.04670155  0.06488528  1
  O2-  O265  1  0.41007864  0.03600005  0.39776991  1
  O2-  O266  1  0.41300280  0.04328167  0.73287696  1
  O2-  O267  1  0.41446402  0.53943532  0.07158750  1
  O2-  O268  1  0.41502773  0.54835126  0.39749643  1
  O2-  O269  1  0.41791399  0.55125978  0.72577404  1
  O2-  O270  1  0.91597707  0.04061326  0.07501045  1
  O2-  O271  1  0.91265830  0.04476139  0.39754706  1
  O2-  O272  1  0.91228383  0.03999118  0.72760258  1
  O2-  O273  1  0.91961246  0.54312794  0.06282711  1
  O2-  O274  1  0.91452060  0.54549237  0.39262265  1
  O2-  O275  1  0.92366464  0.55529293  0.73322430  1
  O2-  O276  1  0.29627949  0.16730965  0.06615154  1
  O2-  O277  1  0.30040208  0.16604086  0.39381947  1
  O2-  O278  1  0.30062553  0.16704397  0.72885090  1
  O2-  O279  1  0.28710029  0.66405928  0.06841937  1
  O2-  O280  1  0.29181489  0.66377620  0.39928435  1
  O2-  O281  1  0.29590220  0.66556588  0.72959120  1
  O2-  O282  1  0.79035363  0.16710060  0.07306296  1
  O2-  O283  1  0.78898359  0.16274670  0.39669144  1
  O2-  O284  1  0.80116982  0.16714082  0.72371387  1
  O2-  O285  1  0.80199483  0.66424907  0.06890241  1
  O2-  O286  1  0.79162339  0.66297751  0.39396052  1
  O2-  O287  1  0.78769566  0.66806291  0.73558736  1
