# generated using pymatgen
data_Ca2Al2SiO7
_symmetry_space_group_name_H-M   'P 1'
_cell_length_a   15.45729149
_cell_length_b   15.45691466
_cell_length_c   15.28306198
_cell_angle_alpha   89.99918448
_cell_angle_beta   89.99939938
_cell_angle_gamma   90.01795498
_symmetry_Int_Tables_number   1
_chemical_formula_structural   Ca2Al2SiO7
_chemical_formula_sum   'Ca48 Al48 Si24 O168'
_cell_volume   3651.46009734
_cell_formula_units_Z   24
loop_
 _symmetry_equiv_pos_site_id
 _symmetry_equiv_pos_as_xyz
  1  'x, y, z'
loop_
 _atom_type_symbol
 _atom_type_oxidation_number
  Ca2+  2.0
  Al0+  0.0
  Si0+  0.0
  O2-  -2.0
loop_
 _atom_site_type_symbol
 _atom_site_label
 _atom_site_symmetry_multiplicity
 _atom_site_fract_x
 _atom_site_fract_y
 _atom_site_fract_z
 _atom_site_occupancy
  Ca2+  Ca0  1  0.17249733  0.07824611  0.18176839  1
  Ca2+  Ca1  1  0.17091653  0.08469666  0.50161923  1
  Ca2+  Ca2  1  0.17095431  0.09055862  0.82895807  1
  Ca2+  Ca3  1  0.17271370  0.57176648  0.17261956  1
  Ca2+  Ca4  1  0.17682962  0.57459727  0.50389765  1
  Ca2+  Ca5  1  0.17262432  0.57460820  0.83932258  1
  Ca2+  Ca6  1  0.67029600  0.08823020  0.17444119  1
  Ca2+  Ca7  1  0.67125090  0.08040502  0.50242055  1
  Ca2+  Ca8  1  0.66174899  0.07733392  0.83630219  1
  Ca2+  Ca9  1  0.67880852  0.58519422  0.17047080  1
  Ca2+  Ca10  1  0.66997079  0.58164462  0.50761874  1
  Ca2+  Ca11  1  0.66802515  0.57737243  0.83366618  1
  Ca2+  Ca12  1  0.08589304  0.33400036  0.16433139  1
  Ca2+  Ca13  1  0.09030584  0.32734262  0.49792151  1
  Ca2+  Ca14  1  0.07698151  0.34125716  0.82581733  1
  Ca2+  Ca15  1  0.07926166  0.83721222  0.16914200  1
  Ca2+  Ca16  1  0.07933335  0.83442324  0.48927057  1
  Ca2+  Ca17  1  0.08070913  0.82877026  0.82909368  1
  Ca2+  Ca18  1  0.58456053  0.32033224  0.16440912  1
  Ca2+  Ca19  1  0.58221075  0.33040588  0.49425106  1
  Ca2+  Ca20  1  0.58648133  0.32922200  0.82710167  1
  Ca2+  Ca21  1  0.56722992  0.83223895  0.16289270  1
  Ca2+  Ca22  1  0.58011048  0.82960850  0.49672911  1
  Ca2+  Ca23  1  0.57862984  0.82516898  0.82611063  1
  Ca2+  Ca24  1  0.32455711  0.42369375  0.17473848  1
  Ca2+  Ca25  1  0.32443412  0.42110236  0.50657170  1
  Ca2+  Ca26  1  0.32307609  0.42641854  0.83917304  1
  Ca2+  Ca27  1  0.33017137  0.91605088  0.17673304  1
  Ca2+  Ca28  1  0.33648680  0.92600011  0.49687682  1
  Ca2+  Ca29  1  0.33744180  0.92095087  0.83459657  1
  Ca2+  Ca30  1  0.84071937  0.42566232  0.16836929  1
  Ca2+  Ca31  1  0.82895842  0.41788061  0.50377789  1
  Ca2+  Ca32  1  0.83329514  0.41412516  0.83787809  1
  Ca2+  Ca33  1  0.83087481  0.92413886  0.17936428  1
  Ca2+  Ca34  1  0.83320607  0.92271782  0.50118514  1
  Ca2+  Ca35  1  0.82317470  0.91567076  0.83388274  1
  Ca2+  Ca36  1  0.42820123  0.15762586  0.16504727  1
  Ca2+  Ca37  1  0.41883672  0.16209886  0.49213675  1
  Ca2+  Ca38  1  0.41938443  0.16658602  0.82960581  1
  Ca2+  Ca39  1  0.40033829  0.67618041  0.16467003  1
  Ca2+  Ca40  1  0.41952234  0.66329349  0.49370041  1
  Ca2+  Ca41  1  0.41332120  0.66750777  0.82672487  1
  Ca2+  Ca42  1  0.92365760  0.17116519  0.16352612  1
  Ca2+  Ca43  1  0.92713170  0.17081667  0.49322256  1
  Ca2+  Ca44  1  0.92638053  0.18238971  0.82317528  1
  Ca2+  Ca45  1  0.91228195  0.66747283  0.16564793  1
  Ca2+  Ca46  1  0.91588865  0.67252725  0.49088128  1
  Ca2+  Ca47  1  0.91489425  0.66306782  0.83151746  1
  Al0+  Al48  1  -0.00149243  0.00053264  -0.00451534  1
  Al0+  Al49  1  -0.00128205  0.00129593  0.33196020  1
  Al0+  Al50  1  0.00046936  0.00168232  0.66596024  1
  Al0+  Al51  1  -0.00073129  0.50061266  0.00395681  1
  Al0+  Al52  1  -0.00094826  0.50063372  0.34274143  1
  Al0+  Al53  1  -0.00083242  0.50287794  0.66292319  1
  Al0+  Al54  1  0.49972821  -0.00330890  -0.00882816  1
  Al0+  Al55  1  0.50076289  -0.00315600  0.32791817  1
  Al0+  Al56  1  0.50025323  -0.00125420  0.67458539  1
  Al0+  Al57  1  0.50117821  0.49981020  0.00646541  1
  Al0+  Al58  1  0.50220523  0.49856521  0.33140916  1
  Al0+  Al59  1  0.50289846  0.50030962  0.67039435  1
  Al0+  Al60  1  0.25299989  0.24769249  0.00467312  1
  Al0+  Al61  1  0.25126626  0.24995144  0.33383511  1
  Al0+  Al62  1  0.25069431  0.24979496  0.67267839  1
  Al0+  Al63  1  0.24723170  0.75237351  -0.00383567  1
  Al0+  Al64  1  0.24855304  0.74867372  0.33727437  1
  Al0+  Al65  1  0.24930111  0.75408617  0.66751264  1
  Al0+  Al66  1  0.75174385  0.24759079  -0.00962773  1
  Al0+  Al67  1  0.75127486  0.24998967  0.33277774  1
  Al0+  Al68  1  0.75187333  0.25046475  0.66617320  1
  Al0+  Al69  1  0.74652163  0.75068737  0.00390693  1
  Al0+  Al70  1  0.74965852  0.75006797  0.33167360  1
  Al0+  Al71  1  0.74733422  0.75142844  0.66691558  1
  Al0+  Al72  1  0.92831141  0.82118928  0.31961230  1
  Al0+  Al73  1  0.81861943  0.57013215  0.01321695  1
  Al0+  Al74  1  0.68010627  0.92981437  0.68030768  1
  Al0+  Al75  1  0.81935679  0.57240788  0.34854083  1
  Al0+  Al76  1  0.57043547  0.17969702  0.98335562  1
  Al0+  Al77  1  0.17865561  0.42726637  0.35060753  1
  Al0+  Al78  1  0.57100967  0.17893055  0.32228455  1
  Al0+  Al79  1  0.17825153  0.42987682  0.68283308  1
  Al0+  Al80  1  0.32090852  0.07006137  0.68131298  1
  Al0+  Al81  1  0.42689378  0.81722194  0.98341155  1
  Al0+  Al82  1  0.56931097  0.67857075  0.65327401  1
  Al0+  Al83  1  0.32283089  0.57171097  0.34903681  1
  Al0+  Al84  1  0.92788928  0.32428408  0.64810740  1
  Al0+  Al85  1  0.07302702  0.18029501  0.64990124  1
  Al0+  Al86  1  0.32204236  0.57389751  0.01550809  1
  Al0+  Al87  1  0.93320710  0.32148910  0.98709656  1
  Al0+  Al88  1  0.32247855  0.57307443  0.68159873  1
  Al0+  Al89  1  0.82117294  0.07283026  0.34574640  1
  Al0+  Al90  1  0.68062684  0.42767560  0.67949280  1
  Al0+  Al91  1  0.32407948  0.06957038  0.34554552  1
  Al0+  Al92  1  0.17728418  0.92915807  0.34745035  1
  Al0+  Al93  1  0.07247781  0.18038513  0.31871611  1
  Al0+  Al94  1  0.17881499  0.42781041  0.01622102  1
  Al0+  Al95  1  0.42886363  0.81718444  0.32133769  1
  Si0+  Si96  1  0.92496698  0.82304786  0.98433944  1
  Si0+  Si97  1  0.07201840  0.68094289  0.65128529  1
  Si0+  Si98  1  0.67798282  0.92849198  0.34818569  1
  Si0+  Si99  1  0.17469423  0.92876658  0.68509099  1
  Si0+  Si100  1  0.82349119  0.07208391  0.68500293  1
  Si0+  Si101  1  0.57415981  0.67745118  0.98410557  1
  Si0+  Si102  1  0.82019616  0.06991890  0.01316408  1
  Si0+  Si103  1  0.07023099  0.67711168  0.31701599  1
  Si0+  Si104  1  0.17594536  0.93020375  0.01346438  1
  Si0+  Si105  1  0.57059776  0.17661246  0.65199072  1
  Si0+  Si106  1  0.92787063  0.82077092  0.65304012  1
  Si0+  Si107  1  0.82070254  0.57384422  0.68213617  1
  Si0+  Si108  1  0.57289516  0.67514271  0.31486384  1
  Si0+  Si109  1  0.06722031  0.68152877  0.98617669  1
  Si0+  Si110  1  0.42771379  0.82337443  0.64858348  1
  Si0+  Si111  1  0.67837576  0.42289217  0.01714516  1
  Si0+  Si112  1  0.92837268  0.32304888  0.31634930  1
  Si0+  Si113  1  0.67925690  0.42711281  0.34830519  1
  Si0+  Si114  1  0.67822775  0.92990182  0.01678693  1
  Si0+  Si115  1  0.07489091  0.17585474  0.98344043  1
  Si0+  Si116  1  0.43106262  0.32029204  0.65440480  1
  Si0+  Si117  1  0.42779268  0.32297329  0.98386234  1
  Si0+  Si118  1  0.32243137  0.06780923  0.01491210  1
  Si0+  Si119  1  0.42824192  0.32322896  0.31643977  1
  O2-  O120  1  0.24528300  0.00279397  0.05516957  1
  O2-  O121  1  0.24898137  0.00163770  0.39663130  1
  O2-  O122  1  0.24439033  -0.00321973  0.72854932  1
  O2-  O123  1  0.25458842  0.49715016  0.06428103  1
  O2-  O124  1  0.25343562  0.49762734  0.39850893  1
  O2-  O125  1  0.24888608  0.50348238  0.73228166  1
  O2-  O126  1  0.74946629  0.00033182  0.05871266  1
  O2-  O127  1  0.74687309  -0.00280621  0.39184686  1
  O2-  O128  1  0.75311168  0.00511040  0.72985259  1
  O2-  O129  1  0.74474995  0.49443129  0.06055318  1
  O2-  O130  1  0.74361294  0.49899571  0.39358089  1
  O2-  O131  1  0.75762718  0.50021874  0.72627347  1
  O2-  O132  1  -0.00019308  0.25731301  0.27178252  1
  O2-  O133  1  0.00208831  0.25350978  0.60001063  1
  O2-  O134  1  0.01213269  0.25054009  0.94092007  1
  O2-  O135  1  0.00216238  0.74642146  0.27116193  1
  O2-  O136  1  0.00039951  0.75228436  0.61048978  1
  O2-  O137  1  -0.00544129  0.75111695  0.94209227  1
  O2-  O138  1  0.49483542  0.25106262  0.27352474  1
  O2-  O139  1  0.50093841  0.24834050  0.61010899  1
  O2-  O140  1  0.49842054  0.25713690  0.93706800  1
  O2-  O141  1  0.49880177  0.73862489  0.27184897  1
  O2-  O142  1  0.49089826  0.74914070  0.60589716  1
  O2-  O143  1  0.49755947  0.73711023  0.93980341  1
  O2-  O144  1  0.07075733  0.16965742  0.08860058  1
  O2-  O145  1  0.07098150  0.17919810  0.43123649  1
  O2-  O146  1  0.06982710  0.17885864  0.76417399  1
  O2-  O147  1  0.06668653  0.68457503  0.09085095  1
  O2-  O148  1  0.06779522  0.67944705  0.42279210  1
  O2-  O149  1  0.07034984  0.68223433  0.75716298  1
  O2-  O150  1  0.57095568  0.17784103  0.09654250  1
  O2-  O151  1  0.57124008  0.18026256  0.43561773  1
  O2-  O152  1  0.56872543  0.17697412  0.75737491  1
  O2-  O153  1  0.58180604  0.68481374  0.08897343  1
  O2-  O154  1  0.57547187  0.67686052  0.42046391  1
  O2-  O155  1  0.57241481  0.68119068  0.76652236  1
  O2-  O156  1  0.17839942  0.42954281  0.23677748  1
  O2-  O157  1  0.18198998  0.42979813  0.56988421  1
  O2-  O158  1  0.17678843  0.43196290  0.90280861  1
  O2-  O159  1  0.17807431  0.93029437  0.23289934  1
  O2-  O160  1  0.17173694  0.92680515  0.58035235  1
  O2-  O161  1  0.17410048  0.92976692  0.90830410  1
  O2-  O162  1  0.68138225  0.42551394  0.24259160  1
  O2-  O163  1  0.67930426  0.42889079  0.56650702  1
  O2-  O164  1  0.67982878  0.42330834  0.91143485  1
  O2-  O165  1  0.67870467  0.92972117  0.24210763  1
  O2-  O166  1  0.68140246  0.93099145  0.56739190  1
  O2-  O167  1  0.68063382  0.92882216  0.91152367  1
  O2-  O168  1  0.42847274  0.31900445  0.08924836  1
  O2-  O169  1  0.43166971  0.32548866  0.42221452  1
  O2-  O170  1  0.43377474  0.31842335  0.75970853  1
  O2-  O171  1  0.42791996  0.82078535  0.09645781  1
  O2-  O172  1  0.43462396  0.82051395  0.43402342  1
  O2-  O173  1  0.43025311  0.82356239  0.75457556  1
  O2-  O174  1  0.93117626  0.31875236  0.10016026  1
  O2-  O175  1  0.92485079  0.32013320  0.42139668  1
  O2-  O176  1  0.92818024  0.32282396  0.76235921  1
  O2-  O177  1  0.92562358  0.82622800  0.08887683  1
  O2-  O178  1  0.92751234  0.81960110  0.43310314  1
  O2-  O179  1  0.92795272  0.81890051  0.75894464  1
  O2-  O180  1  0.32525253  0.06492747  0.23144097  1
  O2-  O181  1  0.32540799  0.06740510  0.56891924  1
  O2-  O182  1  0.32256760  0.06690803  0.90962004  1
  O2-  O183  1  0.31838707  0.57151421  0.23542359  1
  O2-  O184  1  0.32212645  0.57052659  0.56842430  1
  O2-  O185  1  0.31799932  0.57426056  0.90196252  1
  O2-  O186  1  0.81894715  0.07239731  0.23179119  1
  O2-  O187  1  0.82299754  0.06971082  0.57947077  1
  O2-  O188  1  0.81956119  0.06534143  0.90824023  1
  O2-  O189  1  0.81878018  0.57166149  0.23503784  1
  O2-  O190  1  0.81670976  0.57791634  0.57690973  1
  O2-  O191  1  0.81771990  0.57189159  0.90018361  1
  O2-  O192  1  0.03811953  0.08507006  0.26370319  1
  O2-  O193  1  0.04377339  0.08051097  0.59931827  1
  O2-  O194  1  0.04315624  0.08515754  0.93326195  1
  O2-  O195  1  0.04127451  0.58367233  0.27248471  1
  O2-  O196  1  0.04488057  0.59060480  0.60209299  1
  O2-  O197  1  0.03850889  0.59025575  0.93870658  1
  O2-  O198  1  0.54295537  0.08270481  0.26514929  1
  O2-  O199  1  0.54150111  0.08425519  0.60717884  1
  O2-  O200  1  0.53657813  0.08408023  0.92865969  1
  O2-  O201  1  0.55630508  0.57932471  0.26956480  1
  O2-  O202  1  0.54463649  0.58031641  0.59951800  1
  O2-  O203  1  0.55939957  0.57877235  0.94493857  1
  O2-  O204  1  0.17064832  0.20675565  0.26442689  1
  O2-  O205  1  0.17398250  0.20565754  0.60110220  1
  O2-  O206  1  0.17215432  0.19427777  0.94229361  1
  O2-  O207  1  0.16376196  0.70222629  0.27133009  1
  O2-  O208  1  0.16315220  0.71046142  0.60393829  1
  O2-  O209  1  0.15619813  0.71279874  0.93506516  1
  O2-  O210  1  0.66650992  0.21241045  0.26587976  1
  O2-  O211  1  0.66395169  0.20186219  0.60735635  1
  O2-  O212  1  0.66706386  0.20578282  0.92678787  1
  O2-  O213  1  0.66386223  0.70774252  0.26706079  1
  O2-  O214  1  0.66447474  0.71484675  0.59848966  1
  O2-  O215  1  0.66363735  0.71257553  0.93404163  1
  O2-  O216  1  0.08219934  0.46054264  0.06989223  1
  O2-  O217  1  0.08144205  0.45610352  0.40454147  1
  O2-  O218  1  0.07836061  0.46119044  0.73190572  1
  O2-  O219  1  0.08219751  0.95518852  0.05938258  1
  O2-  O220  1  0.07880511  0.95668788  0.39926328  1
  O2-  O221  1  0.08143777  0.95419826  0.73358409  1
  O2-  O222  1  0.58402384  0.44327647  0.06383763  1
  O2-  O223  1  0.58432058  0.44777930  0.39322778  1
  O2-  O224  1  0.58659993  0.45966051  0.73763207  1
  O2-  O225  1  0.58549376  0.95927366  0.06060891  1
  O2-  O226  1  0.58563664  0.95488519  0.39455799  1
  O2-  O227  1  0.58568846  0.95980707  0.73875514  1
  O2-  O228  1  0.20422341  0.32724170  0.06713615  1
  O2-  O229  1  0.20728877  0.32874531  0.40190087  1
  O2-  O230  1  0.20652685  0.33231461  0.73683985  1
  O2-  O231  1  0.20418319  0.83902382  0.06049964  1
  O2-  O232  1  0.20305935  0.83095219  0.40060021  1
  O2-  O233  1  0.20053458  0.83576882  0.73317037  1
  O2-  O234  1  0.70782933  0.32903025  0.06033274  1
  O2-  O235  1  0.70791232  0.33551582  0.39640484  1
  O2-  O236  1  0.70848373  0.33024554  0.73463779  1
  O2-  O237  1  0.70526988  0.83905493  0.06550726  1
  O2-  O238  1  0.70397676  0.83527293  0.39378363  1
  O2-  O239  1  0.71382926  0.83497526  0.73724036  1
  O2-  O240  1  0.45771014  0.41450276  0.26645996  1
  O2-  O241  1  0.46091689  0.41112071  0.60699049  1
  O2-  O242  1  0.44996515  0.41903326  0.94095672  1
  O2-  O243  1  0.46341532  0.91089233  0.26259913  1
  O2-  O244  1  0.46226939  0.91513955  0.60467762  1
  O2-  O245  1  0.46424795  0.91049391  0.92665204  1
  O2-  O246  1  0.95252750  0.41902725  0.27428056  1
  O2-  O247  1  0.94920390  0.42547134  0.59800340  1
  O2-  O248  1  0.95899506  0.42007883  0.93377620  1
  O2-  O249  1  0.95854079  0.91692359  0.26343089  1
  O2-  O250  1  0.95343717  0.91375495  0.60758315  1
  O2-  O251  1  0.95401468  0.91322445  0.93345553  1
  O2-  O252  1  0.33441432  0.30071497  0.27071926  1
  O2-  O253  1  0.33904824  0.29255613  0.60871864  1
  O2-  O254  1  0.33496926  0.29343812  0.93733493  1
  O2-  O255  1  0.33013981  0.79043133  0.26794828  1
  O2-  O256  1  0.33073421  0.80763047  0.60648796  1
  O2-  O257  1  0.32852783  0.79422762  0.92822166  1
  O2-  O258  1  0.83611225  0.29509154  0.26839089  1
  O2-  O259  1  0.82939897  0.29271451  0.59613470  1
  O2-  O260  1  0.83877842  0.28741582  0.93007906  1
  O2-  O261  1  0.83177967  0.79081578  0.26391950  1
  O2-  O262  1  0.83696029  0.79212374  0.60541139  1
  O2-  O263  1  0.83254087  0.79447114  0.93822653  1
  O2-  O264  1  0.41335562  0.03314150  0.05938950  1
  O2-  O265  1  0.42129152  0.03645785  0.39869935  1
  O2-  O266  1  0.41521990  0.03687863  0.73947538  1
  O2-  O267  1  0.42364483  0.55495756  0.06657559  1
  O2-  O268  1  0.42455254  0.54638827  0.39646998  1
  O2-  O269  1  0.42037526  0.54418730  0.73464069  1
  O2-  O270  1  0.91273426  0.04186545  0.05950717  1
  O2-  O271  1  0.91532970  0.03961753  0.40081313  1
  O2-  O272  1  0.91581839  0.04362162  0.73225950  1
  O2-  O273  1  0.91455605  0.54154693  0.06905024  1
  O2-  O274  1  0.91460182  0.54448911  0.40488039  1
  O2-  O275  1  0.91665165  0.55482732  0.72546430  1
  O2-  O276  1  0.30398624  0.16135266  0.06226629  1
  O2-  O277  1  0.30242999  0.16976089  0.39567548  1
  O2-  O278  1  0.29243447  0.16558417  0.73909790  1
  O2-  O279  1  0.28542508  0.67180459  0.06502882  1
  O2-  O280  1  0.29386578  0.66869066  0.40338601  1
  O2-  O281  1  0.29501420  0.67386694  0.73107389  1
  O2-  O282  1  0.79247085  0.16231827  0.05822203  1
  O2-  O283  1  0.78934265  0.16777504  0.40123511  1
  O2-  O284  1  0.79858648  0.16599966  0.72977632  1
  O2-  O285  1  0.78754632  0.66724829  0.06786663  1
  O2-  O286  1  0.78889080  0.66963868  0.40143083  1
  O2-  O287  1  0.79075263  0.66534229  0.73061344  1
