# generated using pymatgen
data_Ca2Al2SiO7
_symmetry_space_group_name_H-M   'P 1'
_cell_length_a   15.46876643
_cell_length_b   15.46683505
_cell_length_c   15.29125337
_cell_angle_alpha   89.99214016
_cell_angle_beta   90.02224858
_cell_angle_gamma   89.99285935
_symmetry_Int_Tables_number   1
_chemical_formula_structural   Ca2Al2SiO7
_chemical_formula_sum   'Ca48 Al48 Si24 O168'
_cell_volume   3658.47574399
_cell_formula_units_Z   24
loop_
 _symmetry_equiv_pos_site_id
 _symmetry_equiv_pos_as_xyz
  1  'x, y, z'
loop_
 _atom_type_symbol
 _atom_type_oxidation_number
  Ca2+  2.0
  Al0+  0.0
  Si0+  0.0
  O2-  -2.0
loop_
 _atom_site_type_symbol
 _atom_site_label
 _atom_site_symmetry_multiplicity
 _atom_site_fract_x
 _atom_site_fract_y
 _atom_site_fract_z
 _atom_site_occupancy
  Ca2+  Ca0  1  0.16799265  0.07475952  0.18052658  1
  Ca2+  Ca1  1  0.16488266  0.07748394  0.50867678  1
  Ca2+  Ca2  1  0.15433498  0.07052059  0.83315429  1
  Ca2+  Ca3  1  0.15961935  0.58058144  0.17434906  1
  Ca2+  Ca4  1  0.15868449  0.57558687  0.50720133  1
  Ca2+  Ca5  1  0.16200683  0.58278102  0.83141779  1
  Ca2+  Ca6  1  0.67464777  0.08854613  0.17232506  1
  Ca2+  Ca7  1  0.67246861  0.09031418  0.50730121  1
  Ca2+  Ca8  1  0.67808418  0.09260017  0.83308849  1
  Ca2+  Ca9  1  0.67031958  0.57569006  0.18022847  1
  Ca2+  Ca10  1  0.66491934  0.58018791  0.50320356  1
  Ca2+  Ca11  1  0.66912247  0.58336219  0.83473540  1
  Ca2+  Ca12  1  0.07768939  0.33129017  0.16583191  1
  Ca2+  Ca13  1  0.08080488  0.32924969  0.49192708  1
  Ca2+  Ca14  1  0.07090241  0.32785950  0.82061934  1
  Ca2+  Ca15  1  0.09262611  0.82762463  0.16627790  1
  Ca2+  Ca16  1  0.08888364  0.82781394  0.49409364  1
  Ca2+  Ca17  1  0.09526717  0.82683277  0.82906765  1
  Ca2+  Ca18  1  0.58593438  0.32993540  0.17073052  1
  Ca2+  Ca19  1  0.57981508  0.32373132  0.49385480  1
  Ca2+  Ca20  1  0.57752594  0.32759403  0.82408628  1
  Ca2+  Ca21  1  0.58249969  0.82780477  0.16713071  1
  Ca2+  Ca22  1  0.58202107  0.82151679  0.49361953  1
  Ca2+  Ca23  1  0.57940002  0.82725700  0.82261289  1
  Ca2+  Ca24  1  0.32413053  0.42071001  0.17633863  1
  Ca2+  Ca25  1  0.31680897  0.42063759  0.50453564  1
  Ca2+  Ca26  1  0.32469473  0.41921905  0.82701708  1
  Ca2+  Ca27  1  0.32207126  0.92133082  0.17372564  1
  Ca2+  Ca28  1  0.32269957  0.92554885  0.50245983  1
  Ca2+  Ca29  1  0.32343523  0.92150996  0.83033633  1
  Ca2+  Ca30  1  0.83360857  0.41306181  0.17508855  1
  Ca2+  Ca31  1  0.82979535  0.40366341  0.50090385  1
  Ca2+  Ca32  1  0.83721663  0.41235168  0.83622919  1
  Ca2+  Ca33  1  0.83761826  0.92163751  0.17189075  1
  Ca2+  Ca34  1  0.83679849  0.92214380  0.50570481  1
  Ca2+  Ca35  1  0.83761498  0.93329391  0.83569893  1
  Ca2+  Ca36  1  0.41989505  0.15925100  0.17090730  1
  Ca2+  Ca37  1  0.42464128  0.15190841  0.49482706  1
  Ca2+  Ca38  1  0.42421434  0.16047435  0.82321639  1
  Ca2+  Ca39  1  0.42201570  0.66359273  0.16609558  1
  Ca2+  Ca40  1  0.42316454  0.65836425  0.49908039  1
  Ca2+  Ca41  1  0.41957689  0.66605416  0.82118778  1
  Ca2+  Ca42  1  0.92002945  0.17484066  0.16683146  1
  Ca2+  Ca43  1  0.92938123  0.17156501  0.50008347  1
  Ca2+  Ca44  1  0.91466345  0.17309885  0.82545493  1
  Ca2+  Ca45  1  0.92894772  0.67392995  0.16891002  1
  Ca2+  Ca46  1  0.92790541  0.67561594  0.49371161  1
  Ca2+  Ca47  1  0.93038850  0.67051971  0.82790871  1
  Al0+  Al48  1  -0.00106735  -0.00057973  0.01201843  1
  Al0+  Al49  1  -0.00111242  0.00122241  0.33198583  1
  Al0+  Al50  1  -0.00342172  0.00237226  0.67417260  1
  Al0+  Al51  1  -0.00102749  0.50098546  -0.00670061  1
  Al0+  Al52  1  -0.00210896  0.50324434  0.33113503  1
  Al0+  Al53  1  -0.00535589  0.50234099  0.66395575  1
  Al0+  Al54  1  0.50052798  -0.00218882  -0.00151762  1
  Al0+  Al55  1  0.50237335  -0.00252702  0.32932066  1
  Al0+  Al56  1  0.49904124  -0.00353466  0.66531631  1
  Al0+  Al57  1  0.50005505  0.49791662  -0.00072803  1
  Al0+  Al58  1  0.50203181  0.49742242  0.33277948  1
  Al0+  Al59  1  0.49993363  0.49798179  0.66687603  1
  Al0+  Al60  1  0.25135797  0.25088004  -0.00103311  1
  Al0+  Al61  1  0.25369321  0.25173724  0.33643464  1
  Al0+  Al62  1  0.25058990  0.25106534  0.67371783  1
  Al0+  Al63  1  0.25375366  0.74997330  -0.00017936  1
  Al0+  Al64  1  0.25376667  0.75173558  0.33304214  1
  Al0+  Al65  1  0.25197455  0.75004647  0.66783026  1
  Al0+  Al66  1  0.74881849  0.25017300  0.00171950  1
  Al0+  Al67  1  0.74815864  0.24999827  0.33104284  1
  Al0+  Al68  1  0.74669565  0.25036282  0.66469291  1
  Al0+  Al69  1  0.75181572  0.74931906  -0.00031560  1
  Al0+  Al70  1  0.75064980  0.74919975  0.32495659  1
  Al0+  Al71  1  0.74908603  0.74810529  0.66476590  1
  Al0+  Al72  1  0.07403585  0.68116690  0.31954724  1
  Al0+  Al73  1  0.57151820  0.67728213  0.65288869  1
  Al0+  Al74  1  0.07227747  0.17826555  0.65510818  1
  Al0+  Al75  1  0.56707288  0.17830255  0.65370551  1
  Al0+  Al76  1  0.07558932  0.17971657  0.31975888  1
  Al0+  Al77  1  0.57013133  0.67650509  0.31849503  1
  Al0+  Al78  1  0.81831955  0.07187180  0.01713584  1
  Al0+  Al79  1  0.81752523  0.07182449  0.67924689  1
  Al0+  Al80  1  0.32306005  0.07132996  0.34716893  1
  Al0+  Al81  1  0.17647945  0.43172446  0.34471688  1
  Al0+  Al82  1  0.07194969  0.68166551  0.65315024  1
  Al0+  Al83  1  0.92954246  0.32042626  0.31891137  1
  Al0+  Al84  1  0.92737356  0.32189171  0.65129525  1
  Al0+  Al85  1  0.17268981  0.42897064  0.68236421  1
  Al0+  Al86  1  0.17752804  0.93057375  0.68200193  1
  Al0+  Al87  1  0.32335060  0.07266504  0.68178907  1
  Al0+  Al88  1  0.07173704  0.68174860  0.98498789  1
  Al0+  Al89  1  0.17688590  0.92970889  0.34990088  1
  Al0+  Al90  1  0.92865162  0.82379920  0.31901180  1
  Al0+  Al91  1  0.92937615  0.31885886  0.98606918  1
  Al0+  Al92  1  0.57017467  0.17761204  0.31878568  1
  Al0+  Al93  1  0.32051431  0.56922164  0.68038391  1
  Al0+  Al94  1  0.68052904  0.42834787  0.34885696  1
  Al0+  Al95  1  0.18156351  0.92898027  0.01568384  1
  Si0+  Si96  1  0.43072770  0.82159831  0.31382828  1
  Si0+  Si97  1  0.82050309  0.57356393  0.35112270  1
  Si0+  Si98  1  0.92691639  0.82407056  0.98223742  1
  Si0+  Si99  1  0.57162653  0.67705325  0.98472689  1
  Si0+  Si100  1  0.67827417  0.92468962  0.68144689  1
  Si0+  Si101  1  0.67679685  0.92561249  0.01703583  1
  Si0+  Si102  1  0.42701185  0.32262810  0.64996657  1
  Si0+  Si103  1  0.32375561  0.57233963  0.34767856  1
  Si0+  Si104  1  0.68026785  0.92650669  0.34699144  1
  Si0+  Si105  1  0.81914124  0.57448881  0.68328355  1
  Si0+  Si106  1  0.32530223  0.07311785  0.01663444  1
  Si0+  Si107  1  0.43129305  0.81965081  0.98291760  1
  Si0+  Si108  1  0.17782261  0.43063164  0.01367337  1
  Si0+  Si109  1  0.68004357  0.42984157  0.68264803  1
  Si0+  Si110  1  0.42770723  0.32324829  0.98347466  1
  Si0+  Si111  1  0.42893243  0.32273857  0.31582917  1
  Si0+  Si112  1  0.82212762  0.57143890  0.01556716  1
  Si0+  Si113  1  0.56881978  0.17980822  0.98544066  1
  Si0+  Si114  1  0.07335905  0.17652820  0.98561027  1
  Si0+  Si115  1  0.32314700  0.56930425  0.01475228  1
  Si0+  Si116  1  0.92724594  0.82310579  0.65398261  1
  Si0+  Si117  1  0.81911671  0.07159522  0.34946253  1
  Si0+  Si118  1  0.67852173  0.43092243  0.01522160  1
  Si0+  Si119  1  0.42823160  0.82058270  0.64714213  1
  O2-  O120  1  0.25140163  0.01001279  0.05950545  1
  O2-  O121  1  0.24420690  0.00757168  0.39726286  1
  O2-  O122  1  0.24562332  0.00715691  0.73260197  1
  O2-  O123  1  0.24967648  0.50115239  0.05652684  1
  O2-  O124  1  0.24817497  0.51082198  0.38953052  1
  O2-  O125  1  0.24455959  0.50253165  0.73258657  1
  O2-  O126  1  0.74496849  -0.00600215  0.06200209  1
  O2-  O127  1  0.75134581  -0.00383854  0.39008788  1
  O2-  O128  1  0.74341192  -0.00418877  0.72682287  1
  O2-  O129  1  0.74971143  0.50137113  0.05735760  1
  O2-  O130  1  0.75545697  0.50183932  0.39652665  1
  O2-  O131  1  0.75104175  0.50008616  0.72591258  1
  O2-  O132  1  0.00478858  0.25261283  0.26805694  1
  O2-  O133  1  0.00765318  0.25728650  0.60506293  1
  O2-  O134  1  0.00437162  0.24451664  0.94072341  1
  O2-  O135  1  0.00632283  0.75734230  0.26915796  1
  O2-  O136  1  0.00083146  0.76073241  0.60935264  1
  O2-  O137  1  -0.00073921  0.75931376  0.93837451  1
  O2-  O138  1  0.49392683  0.25014207  0.27116482  1
  O2-  O139  1  0.48597805  0.24515488  0.60665399  1
  O2-  O140  1  0.49426214  0.24684722  0.94328272  1
  O2-  O141  1  0.49558217  0.74896295  0.26881345  1
  O2-  O142  1  0.49670536  0.75020738  0.60507746  1
  O2-  O143  1  0.50375309  0.74942754  0.94103196  1
  O2-  O144  1  0.07501092  0.18060849  0.09094655  1
  O2-  O145  1  0.07349826  0.17940043  0.43300155  1
  O2-  O146  1  0.06445985  0.17581703  0.76922802  1
  O2-  O147  1  0.07047492  0.67984911  0.09766128  1
  O2-  O148  1  0.07120813  0.68043658  0.43275745  1
  O2-  O149  1  0.06941543  0.68240736  0.76677306  1
  O2-  O150  1  0.56903291  0.18112247  0.09035592  1
  O2-  O151  1  0.57078736  0.17827550  0.43148656  1
  O2-  O152  1  0.57003418  0.18331599  0.76769463  1
  O2-  O153  1  0.56936821  0.67548741  0.08951618  1
  O2-  O154  1  0.56910887  0.67777546  0.43127875  1
  O2-  O155  1  0.57159337  0.67963369  0.76696812  1
  O2-  O156  1  0.17918912  0.43274156  0.23049882  1
  O2-  O157  1  0.17382348  0.43123098  0.56889570  1
  O2-  O158  1  0.17904607  0.43170966  0.90915802  1
  O2-  O159  1  0.18255914  0.92792016  0.23590597  1
  O2-  O160  1  0.17798122  0.92878984  0.56924392  1
  O2-  O161  1  0.18425566  0.92737871  0.90287531  1
  O2-  O162  1  0.68078775  0.43021348  0.23486193  1
  O2-  O163  1  0.68000371  0.42967291  0.57802080  1
  O2-  O164  1  0.67583164  0.43237603  0.91004051  1
  O2-  O165  1  0.68007205  0.92772347  0.24152826  1
  O2-  O166  1  0.68129176  0.92169251  0.57602346  1
  O2-  O167  1  0.67497643  0.92418156  0.91163598  1
  O2-  O168  1  0.42884663  0.32871704  0.08793477  1
  O2-  O169  1  0.43243011  0.32824878  0.42052181  1
  O2-  O170  1  0.43463439  0.32691723  0.75620869  1
  O2-  O171  1  0.43307856  0.81840789  0.08779650  1
  O2-  O172  1  0.43432611  0.82324674  0.41875048  1
  O2-  O173  1  0.43142850  0.82032413  0.75354488  1
  O2-  O174  1  0.92925495  0.32030464  0.09868226  1
  O2-  O175  1  0.92779458  0.31591570  0.43173379  1
  O2-  O176  1  0.92429401  0.31798062  0.76548112  1
  O2-  O177  1  0.92256232  0.82005629  0.08716745  1
  O2-  O178  1  0.92302889  0.81997490  0.43248694  1
  O2-  O179  1  0.92322098  0.81925577  0.75968430  1
  O2-  O180  1  0.32463823  0.06582508  0.23281934  1
  O2-  O181  1  0.32885106  0.06489764  0.56935869  1
  O2-  O182  1  0.33192639  0.07016495  0.91186611  1
  O2-  O183  1  0.32668665  0.56844714  0.24121867  1
  O2-  O184  1  0.32481168  0.56497644  0.56732169  1
  O2-  O185  1  0.32834194  0.56732221  0.91037645  1
  O2-  O186  1  0.81521073  0.07262461  0.24402685  1
  O2-  O187  1  0.81635455  0.07028542  0.56646567  1
  O2-  O188  1  0.81435488  0.07353094  0.90399843  1
  O2-  O189  1  0.81734272  0.57308426  0.24485477  1
  O2-  O190  1  0.81572095  0.58084349  0.57911074  1
  O2-  O191  1  0.81921843  0.57229435  0.91036749  1
  O2-  O192  1  0.04414334  0.08239235  0.26674609  1
  O2-  O193  1  0.03536515  0.08183489  0.60303598  1
  O2-  O194  1  0.04592800  0.08107727  0.94523228  1
  O2-  O195  1  0.03920669  0.58561676  0.26385560  1
  O2-  O196  1  0.03499869  0.58731327  0.60012143  1
  O2-  O197  1  0.03678408  0.58702512  0.92977679  1
  O2-  O198  1  0.54318865  0.08083200  0.26228638  1
  O2-  O199  1  0.54625686  0.07827794  0.60242365  1
  O2-  O200  1  0.54628456  0.08580395  0.93942787  1
  O2-  O201  1  0.53990013  0.58012214  0.26316937  1
  O2-  O202  1  0.54171065  0.58009712  0.60071913  1
  O2-  O203  1  0.54219233  0.58539523  0.93755597  1
  O2-  O204  1  0.17530495  0.20565489  0.26757933  1
  O2-  O205  1  0.17557771  0.19592292  0.60944671  1
  O2-  O206  1  0.16815429  0.19959182  0.94020811  1
  O2-  O207  1  0.17487508  0.70343288  0.26727366  1
  O2-  O208  1  0.17057081  0.70608788  0.60170760  1
  O2-  O209  1  0.17102163  0.70882534  0.93396316  1
  O2-  O210  1  0.66352640  0.21405039  0.26208404  1
  O2-  O211  1  0.66019666  0.21622226  0.59898711  1
  O2-  O212  1  0.65866965  0.21296365  0.93799056  1
  O2-  O213  1  0.66459482  0.70867895  0.26149370  1
  O2-  O214  1  0.66697614  0.70863539  0.59797575  1
  O2-  O215  1  0.66512218  0.70210385  0.93910379  1
  O2-  O216  1  0.08591797  0.46044045  0.05933435  1
  O2-  O217  1  0.07934566  0.46031831  0.39780465  1
  O2-  O218  1  0.07359613  0.45886308  0.73406818  1
  O2-  O219  1  0.08315014  0.95069385  0.06953477  1
  O2-  O220  1  0.07561702  0.95117905  0.39907857  1
  O2-  O221  1  0.07853660  0.95474680  0.73773141  1
  O2-  O222  1  0.58695053  0.45933905  0.06346323  1
  O2-  O223  1  0.58400293  0.45987417  0.40177242  1
  O2-  O224  1  0.58927669  0.45874237  0.73201662  1
  O2-  O225  1  0.58289988  0.95115012  0.06314383  1
  O2-  O226  1  0.58849045  0.95332361  0.39350809  1
  O2-  O227  1  0.58371782  0.94656911  0.72652941  1
  O2-  O228  1  0.20599313  0.33799008  0.06004439  1
  O2-  O229  1  0.21176576  0.33732419  0.39941131  1
  O2-  O230  1  0.20226709  0.33205515  0.73884026  1
  O2-  O231  1  0.22029352  0.83376985  0.06853337  1
  O2-  O232  1  0.21234474  0.83202422  0.40081471  1
  O2-  O233  1  0.21342816  0.83390484  0.73494273  1
  O2-  O234  1  0.70498770  0.33887765  0.06200196  1
  O2-  O235  1  0.70941346  0.33100166  0.40201076  1
  O2-  O236  1  0.70723146  0.33863827  0.73180102  1
  O2-  O237  1  0.70160115  0.83092500  0.06254906  1
  O2-  O238  1  0.70620077  0.83328390  0.39216800  1
  O2-  O239  1  0.70516174  0.83218350  0.73036519  1
  O2-  O240  1  0.46065549  0.41303326  0.26518986  1
  O2-  O241  1  0.46423979  0.41074320  0.60149317  1
  O2-  O242  1  0.46282105  0.41175098  0.93324162  1
  O2-  O243  1  0.46304264  0.91095942  0.26295843  1
  O2-  O244  1  0.45671823  0.91198011  0.59965148  1
  O2-  O245  1  0.45879602  0.91141869  0.93461670  1
  O2-  O246  1  0.95089881  0.42144013  0.26799872  1
  O2-  O247  1  0.94158854  0.42417240  0.60230120  1
  O2-  O248  1  0.95743528  0.41584434  0.93138417  1
  O2-  O249  1  0.94824826  0.92380795  0.26661806  1
  O2-  O250  1  0.94556178  0.91920508  0.61208046  1
  O2-  O251  1  0.94908641  0.92075521  0.94189118  1
  O2-  O252  1  0.33543047  0.30115174  0.26811360  1
  O2-  O253  1  0.32913819  0.31007726  0.61089214  1
  O2-  O254  1  0.33455995  0.30103265  0.93606056  1
  O2-  O255  1  0.33727915  0.79797856  0.26690829  1
  O2-  O256  1  0.33570389  0.79482116  0.60126493  1
  O2-  O257  1  0.34154558  0.78922901  0.93430499  1
  O2-  O258  1  0.83208599  0.28817299  0.26524590  1
  O2-  O259  1  0.83088630  0.28657537  0.59942786  1
  O2-  O260  1  0.83057847  0.28956262  0.93426852  1
  O2-  O261  1  0.83360867  0.78998494  0.26055709  1
  O2-  O262  1  0.83604092  0.79230861  0.60600977  1
  O2-  O263  1  0.83405097  0.79541134  0.93476906  1
  O2-  O264  1  0.41757708  0.04168500  0.06386785  1
  O2-  O265  1  0.42054446  0.03384471  0.39716387  1
  O2-  O266  1  0.42006547  0.03519169  0.73692339  1
  O2-  O267  1  0.41393673  0.53793958  0.06402316  1
  O2-  O268  1  0.41474623  0.53948439  0.39415699  1
  O2-  O269  1  0.41822924  0.53628420  0.73575489  1
  O2-  O270  1  0.91425457  0.04442723  0.07329053  1
  O2-  O271  1  0.91189567  0.04787476  0.39543744  1
  O2-  O272  1  0.91102574  0.04218910  0.73968831  1
  O2-  O273  1  0.91345531  0.54144331  0.06176867  1
  O2-  O274  1  0.91524181  0.55331146  0.39527800  1
  O2-  O275  1  0.91048812  0.54886461  0.73209578  1
  O2-  O276  1  0.30692019  0.17026928  0.05914138  1
  O2-  O277  1  0.31119705  0.17412217  0.39513257  1
  O2-  O278  1  0.31037758  0.17470701  0.73282153  1
  O2-  O279  1  0.30037026  0.66236897  0.06120512  1
  O2-  O280  1  0.30966859  0.66887928  0.39016738  1
  O2-  O281  1  0.29915414  0.66919335  0.73322400  1
  O2-  O282  1  0.78160064  0.16678379  0.07141410  1
  O2-  O283  1  0.78387970  0.16061692  0.39589482  1
  O2-  O284  1  0.78053877  0.16653379  0.73461260  1
  O2-  O285  1  0.79490899  0.66352246  0.06292646  1
  O2-  O286  1  0.78892502  0.66603210  0.39537524  1
  O2-  O287  1  0.78650793  0.66334425  0.73501293  1
