# generated using pymatgen
data_Ca2Al2SiO7
_symmetry_space_group_name_H-M   'P 1'
_cell_length_a   15.45744419
_cell_length_b   15.45748733
_cell_length_c   15.28367821
_cell_angle_alpha   90.00131394
_cell_angle_beta   90.00046377
_cell_angle_gamma   89.98145473
_symmetry_Int_Tables_number   1
_chemical_formula_structural   Ca2Al2SiO7
_chemical_formula_sum   'Ca48 Al48 Si24 O168'
_cell_volume   3651.77868106
_cell_formula_units_Z   24
loop_
 _symmetry_equiv_pos_site_id
 _symmetry_equiv_pos_as_xyz
  1  'x, y, z'
loop_
 _atom_type_symbol
 _atom_type_oxidation_number
  Ca2+  2.0
  Al0+  0.0
  Si0+  0.0
  O2-  -2.0
loop_
 _atom_site_type_symbol
 _atom_site_label
 _atom_site_symmetry_multiplicity
 _atom_site_fract_x
 _atom_site_fract_y
 _atom_site_fract_z
 _atom_site_occupancy
  Ca2+  Ca0  1  0.15955461  0.08150048  0.16781828  1
  Ca2+  Ca1  1  0.16567391  0.08014270  0.50747670  1
  Ca2+  Ca2  1  0.16016850  0.07617725  0.83637938  1
  Ca2+  Ca3  1  0.16674202  0.58112455  0.17424031  1
  Ca2+  Ca4  1  0.17224075  0.58666939  0.50806642  1
  Ca2+  Ca5  1  0.17796341  0.58456528  0.83591912  1
  Ca2+  Ca6  1  0.68023965  0.08436831  0.17174871  1
  Ca2+  Ca7  1  0.67298525  0.08593677  0.50558836  1
  Ca2+  Ca8  1  0.66771450  0.07714297  0.84224083  1
  Ca2+  Ca9  1  0.66492505  0.57868257  0.17045980  1
  Ca2+  Ca10  1  0.66536838  0.57538495  0.51016198  1
  Ca2+  Ca11  1  0.66462080  0.58448399  0.83225873  1
  Ca2+  Ca12  1  0.07541510  0.31936365  0.15633308  1
  Ca2+  Ca13  1  0.08643470  0.32015372  0.49533141  1
  Ca2+  Ca14  1  0.07710434  0.32081027  0.83039644  1
  Ca2+  Ca15  1  0.07904931  0.83319221  0.16824240  1
  Ca2+  Ca16  1  0.07461471  0.83072907  0.49714602  1
  Ca2+  Ca17  1  0.07848482  0.84176720  0.82611674  1
  Ca2+  Ca18  1  0.57496002  0.34029146  0.16401579  1
  Ca2+  Ca19  1  0.57848776  0.34106017  0.50080622  1
  Ca2+  Ca20  1  0.57707708  0.32955880  0.82375813  1
  Ca2+  Ca21  1  0.58274468  0.83107009  0.15966551  1
  Ca2+  Ca22  1  0.57305700  0.82792547  0.49741462  1
  Ca2+  Ca23  1  0.58442462  0.82559261  0.82473578  1
  Ca2+  Ca24  1  0.33654409  0.41464427  0.17190293  1
  Ca2+  Ca25  1  0.33731675  0.41983453  0.50793869  1
  Ca2+  Ca26  1  0.34413046  0.41945156  0.83271463  1
  Ca2+  Ca27  1  0.32841813  0.91586731  0.17079741  1
  Ca2+  Ca28  1  0.32743346  0.91032177  0.50928464  1
  Ca2+  Ca29  1  0.32179528  0.91157128  0.83623634  1
  Ca2+  Ca30  1  0.82730713  0.41248990  0.17494259  1
  Ca2+  Ca31  1  0.82121456  0.42374918  0.51032665  1
  Ca2+  Ca32  1  0.83018670  0.41874781  0.83499514  1
  Ca2+  Ca33  1  0.83192730  0.92495115  0.16878765  1
  Ca2+  Ca34  1  0.84242923  0.91880455  0.50221041  1
  Ca2+  Ca35  1  0.82861056  0.92115985  0.84089938  1
  Ca2+  Ca36  1  0.41609775  0.18034694  0.16131123  1
  Ca2+  Ca37  1  0.42446098  0.17659052  0.49817375  1
  Ca2+  Ca38  1  0.42135610  0.17655453  0.82426479  1
  Ca2+  Ca39  1  0.42400072  0.67373586  0.16331811  1
  Ca2+  Ca40  1  0.41438661  0.67368826  0.50250823  1
  Ca2+  Ca41  1  0.42737740  0.66998421  0.82458570  1
  Ca2+  Ca42  1  0.92108328  0.16172602  0.16137795  1
  Ca2+  Ca43  1  0.92776476  0.16079778  0.49458876  1
  Ca2+  Ca44  1  0.92281254  0.16135690  0.83253209  1
  Ca2+  Ca45  1  0.92006126  0.66970425  0.16584940  1
  Ca2+  Ca46  1  0.91464082  0.67655387  0.49652067  1
  Ca2+  Ca47  1  0.91498427  0.67507599  0.82258924  1
  Al0+  Al48  1  0.00039203  -0.00208116  0.00515921  1
  Al0+  Al49  1  0.00035144  -0.00201765  0.32982950  1
  Al0+  Al50  1  0.00095308  -0.00064352  0.66303195  1
  Al0+  Al51  1  0.00153747  0.49946140  -0.00310844  1
  Al0+  Al52  1  0.00049738  0.49885870  0.33323903  1
  Al0+  Al53  1  0.00000900  0.49916270  0.67179488  1
  Al0+  Al54  1  0.49578779  -0.00030579  0.00504524  1
  Al0+  Al55  1  0.49983732  0.00138557  0.32879433  1
  Al0+  Al56  1  0.49959020  0.00196151  0.65994427  1
  Al0+  Al57  1  0.50090600  0.50340033  -0.00570083  1
  Al0+  Al58  1  0.49875408  0.50082840  0.33398879  1
  Al0+  Al59  1  0.50000115  0.50037672  0.66896933  1
  Al0+  Al60  1  0.24868842  0.25099300  -0.00869275  1
  Al0+  Al61  1  0.25110374  0.24892396  0.32578783  1
  Al0+  Al62  1  0.24991134  0.24888508  0.66021953  1
  Al0+  Al63  1  0.25091210  0.74916311  0.00711281  1
  Al0+  Al64  1  0.25084540  0.74942104  0.32614871  1
  Al0+  Al65  1  0.24869146  0.74889118  0.67500704  1
  Al0+  Al66  1  0.74901167  0.25200646  0.00203940  1
  Al0+  Al67  1  0.75020208  0.24877459  0.34546954  1
  Al0+  Al68  1  0.75183342  0.25051710  0.66919954  1
  Al0+  Al69  1  0.75092110  0.74845748  0.00165007  1
  Al0+  Al70  1  0.74917768  0.75080585  0.32901952  1
  Al0+  Al71  1  0.75018009  0.75125203  0.65996434  1
  Al0+  Al72  1  0.17973982  0.92874973  0.01695772  1
  Al0+  Al73  1  0.06818508  0.17636915  0.98298253  1
  Al0+  Al74  1  0.17988262  0.93048217  0.67876855  1
  Al0+  Al75  1  0.42872254  0.82303886  0.31823641  1
  Al0+  Al76  1  0.42572204  0.82139688  0.65459142  1
  Al0+  Al77  1  0.06852535  0.17946152  0.65179297  1
  Al0+  Al78  1  0.81886153  0.07178080  0.01446328  1
  Al0+  Al79  1  0.43213412  0.32107123  0.31906962  1
  Al0+  Al80  1  0.67825477  0.43096251  0.34771943  1
  Al0+  Al81  1  0.67635896  0.92603851  0.01385519  1
  Al0+  Al82  1  0.57177950  0.68263149  0.98591917  1
  Al0+  Al83  1  0.31948326  0.56975528  0.68129057  1
  Al0+  Al84  1  0.43028228  0.32124951  0.65060487  1
  Al0+  Al85  1  0.57496286  0.17758277  0.65234749  1
  Al0+  Al86  1  0.92923074  0.82064760  0.65489362  1
  Al0+  Al87  1  0.82173255  0.06762208  0.35017815  1
  Al0+  Al88  1  0.42983358  0.32159743  0.98504668  1
  Al0+  Al89  1  0.92768404  0.82057894  0.31508512  1
  Al0+  Al90  1  0.92548040  0.32331414  0.98499801  1
  Al0+  Al91  1  0.57141060  0.67975683  0.65030999  1
  Al0+  Al92  1  0.07148520  0.67704174  0.31964290  1
  Al0+  Al93  1  0.82154916  0.57396932  0.68193124  1
  Al0+  Al94  1  0.67929756  0.42913884  0.68550120  1
  Al0+  Al95  1  0.07088690  0.17932713  0.31828013  1
  Si0+  Si96  1  0.93165167  0.81788479  0.98526396  1
  Si0+  Si97  1  0.32218759  0.56894412  0.01801105  1
  Si0+  Si98  1  0.67543250  0.92688018  0.35113481  1
  Si0+  Si99  1  0.82257116  0.06949679  0.68092459  1
  Si0+  Si100  1  0.07366836  0.67742399  0.98431599  1
  Si0+  Si101  1  0.32195686  0.07337700  0.34787916  1
  Si0+  Si102  1  0.17899636  0.42911035  0.01489792  1
  Si0+  Si103  1  0.92677141  0.32086709  0.32075268  1
  Si0+  Si104  1  0.92810975  0.32437449  0.64894352  1
  Si0+  Si105  1  0.57504241  0.17831589  0.31602663  1
  Si0+  Si106  1  0.42589509  0.82300654  0.98398474  1
  Si0+  Si107  1  0.31854363  0.57038689  0.34774648  1
  Si0+  Si108  1  0.17899583  0.42634130  0.34633609  1
  Si0+  Si109  1  0.18233367  0.92891012  0.34876767  1
  Si0+  Si110  1  0.67873588  0.43176745  0.01486697  1
  Si0+  Si111  1  0.32052519  0.07553785  0.01695714  1
  Si0+  Si112  1  0.57143608  0.17688392  0.98689679  1
  Si0+  Si113  1  0.17736484  0.42378166  0.68408742  1
  Si0+  Si114  1  0.82393006  0.57336714  0.34920563  1
  Si0+  Si115  1  0.07213331  0.67610639  0.65472219  1
  Si0+  Si116  1  0.32322579  0.07319919  0.68152860  1
  Si0+  Si117  1  0.57008123  0.67855005  0.31667940  1
  Si0+  Si118  1  0.67699575  0.93059832  0.67805309  1
  Si0+  Si119  1  0.82408848  0.57107441  0.01593467  1
  O2-  O120  1  0.25363356  0.00530418  0.06250195  1
  O2-  O121  1  0.25390724  -0.00051928  0.39087213  1
  O2-  O122  1  0.25687851  0.00252466  0.72636342  1
  O2-  O123  1  0.25112676  0.49790969  0.06012004  1
  O2-  O124  1  0.24586239  0.50073868  0.38950530  1
  O2-  O125  1  0.24576793  0.49321318  0.72833995  1
  O2-  O126  1  0.74380714  0.00218509  0.06426613  1
  O2-  O127  1  0.74595833  -0.00690883  0.39656168  1
  O2-  O128  1  0.74590780  0.00362551  0.72118287  1
  O2-  O129  1  0.75496053  0.49754678  0.05777762  1
  O2-  O130  1  0.75484482  0.50496458  0.39230067  1
  O2-  O131  1  0.75111645  0.50214678  0.73500448  1
  O2-  O132  1  -0.00493029  0.25382248  0.27366814  1
  O2-  O133  1  -0.00301071  0.25647258  0.60387424  1
  O2-  O134  1  -0.00631133  0.24729407  0.93526539  1
  O2-  O135  1  -0.00235647  0.74521489  0.26669007  1
  O2-  O136  1  -0.00011341  0.74056872  0.61080681  1
  O2-  O137  1  0.00336133  0.74822766  0.94168276  1
  O2-  O138  1  0.50770012  0.24810934  0.27103625  1
  O2-  O139  1  0.50482788  0.25135525  0.60172369  1
  O2-  O140  1  0.50210493  0.24381779  0.94135109  1
  O2-  O141  1  0.50748211  0.75250456  0.27185799  1
  O2-  O142  1  0.49792769  0.75121968  0.60214003  1
  O2-  O143  1  0.50170741  0.76250885  0.94091303  1
  O2-  O144  1  0.06829531  0.17902667  0.09674087  1
  O2-  O145  1  0.07229067  0.17989382  0.43138892  1
  O2-  O146  1  0.06537147  0.17697127  0.76446737  1
  O2-  O147  1  0.07177764  0.67587880  0.08939693  1
  O2-  O148  1  0.07481508  0.67914717  0.43308724  1
  O2-  O149  1  0.07307089  0.67860718  0.76060370  1
  O2-  O150  1  0.57098224  0.18036288  0.09263017  1
  O2-  O151  1  0.57239645  0.17715725  0.42119994  1
  O2-  O152  1  0.57210919  0.17535255  0.76644969  1
  O2-  O153  1  0.56781099  0.67903327  0.09947438  1
  O2-  O154  1  0.56741239  0.67719585  0.42167373  1
  O2-  O155  1  0.57158618  0.68345812  0.76409030  1
  O2-  O156  1  0.18118468  0.42692153  0.24101690  1
  O2-  O157  1  0.17737585  0.42491911  0.57798207  1
  O2-  O158  1  0.17829299  0.43249649  0.91018198  1
  O2-  O159  1  0.18374044  0.92970823  0.24342647  1
  O2-  O160  1  0.17890386  0.93079083  0.56539347  1
  O2-  O161  1  0.17971451  0.92750593  0.90386753  1
  O2-  O162  1  0.67797191  0.43330701  0.23362160  1
  O2-  O163  1  0.68070069  0.43136210  0.57163002  1
  O2-  O164  1  0.67725512  0.43408374  0.91060230  1
  O2-  O165  1  0.67532097  0.92920797  0.24552642  1
  O2-  O166  1  0.67745444  0.93112626  0.57300614  1
  O2-  O167  1  0.67994634  0.92552493  0.89967627  1
  O2-  O168  1  0.43161739  0.32337586  0.09867050  1
  O2-  O169  1  0.43056247  0.32155584  0.43119297  1
  O2-  O170  1  0.43061841  0.31819452  0.76433128  1
  O2-  O171  1  0.42386091  0.81824218  0.08984439  1
  O2-  O172  1  0.42523631  0.81900455  0.43086554  1
  O2-  O173  1  0.42661549  0.82034723  0.76817564  1
  O2-  O174  1  0.92907279  0.32703953  0.09901589  1
  O2-  O175  1  0.93073891  0.32097337  0.42605248  1
  O2-  O176  1  0.92929811  0.32308805  0.75448006  1
  O2-  O177  1  0.93208893  0.81532782  0.09016075  1
  O2-  O178  1  0.93145499  0.82059624  0.42869188  1
  O2-  O179  1  0.93089231  0.82335230  0.76843184  1
  O2-  O180  1  0.31962343  0.07454182  0.24263963  1
  O2-  O181  1  0.32035180  0.07389123  0.57567256  1
  O2-  O182  1  0.32191246  0.07478895  0.91165371  1
  O2-  O183  1  0.31948843  0.56816248  0.24222855  1
  O2-  O184  1  0.31556242  0.57168730  0.56767093  1
  O2-  O185  1  0.32086706  0.57019552  0.91320554  1
  O2-  O186  1  0.82054477  0.06868759  0.23724352  1
  O2-  O187  1  0.82509002  0.06622657  0.57578410  1
  O2-  O188  1  0.81928424  0.06779016  0.90041923  1
  O2-  O189  1  0.82446922  0.57108697  0.24305673  1
  O2-  O190  1  0.82203006  0.57216909  0.56814759  1
  O2-  O191  1  0.82398020  0.57411621  0.91148048  1
  O2-  O192  1  0.04029119  0.08288176  0.26554376  1
  O2-  O193  1  0.03507582  0.08485697  0.59594480  1
  O2-  O194  1  0.04023711  0.07636558  0.93298708  1
  O2-  O195  1  0.04719444  0.57670223  0.26608324  1
  O2-  O196  1  0.05362779  0.58027324  0.61028834  1
  O2-  O197  1  0.04859879  0.58583168  0.93624189  1
  O2-  O198  1  0.54965543  0.08552170  0.26846444  1
  O2-  O199  1  0.54603744  0.08159732  0.59455346  1
  O2-  O200  1  0.54736499  0.08161415  0.94311077  1
  O2-  O201  1  0.53698396  0.58806603  0.26833551  1
  O2-  O202  1  0.54187574  0.58131066  0.60039882  1
  O2-  O203  1  0.53543718  0.58940423  0.93007284  1
  O2-  O204  1  0.16588411  0.21058033  0.26189405  1
  O2-  O205  1  0.16542150  0.20706552  0.59686761  1
  O2-  O206  1  0.16538684  0.20681795  0.92939922  1
  O2-  O207  1  0.16764173  0.70715440  0.26249429  1
  O2-  O208  1  0.16382960  0.70630090  0.60843623  1
  O2-  O209  1  0.16721797  0.70520389  0.94077970  1
  O2-  O210  1  0.67012602  0.20438657  0.27389886  1
  O2-  O211  1  0.67515339  0.20264601  0.60154242  1
  O2-  O212  1  0.66483615  0.20207699  0.94133694  1
  O2-  O213  1  0.66554633  0.69700717  0.27116655  1
  O2-  O214  1  0.66787554  0.70844434  0.59471056  1
  O2-  O215  1  0.67051671  0.70724218  0.93337642  1
  O2-  O216  1  0.08792397  0.45883233  0.06366511  1
  O2-  O217  1  0.08566074  0.44842397  0.39374813  1
  O2-  O218  1  0.08380934  0.44723109  0.73113048  1
  O2-  O219  1  0.08377719  0.95802017  0.07245368  1
  O2-  O220  1  0.08974520  0.95663029  0.39350251  1
  O2-  O221  1  0.08440832  0.96574491  0.73328313  1
  O2-  O222  1  0.58856334  0.46699497  0.06248943  1
  O2-  O223  1  0.58222722  0.46497957  0.40117759  1
  O2-  O224  1  0.58049698  0.45649595  0.73716402  1
  O2-  O225  1  0.57481652  0.94628307  0.06472629  1
  O2-  O226  1  0.58099339  0.95362837  0.39552772  1
  O2-  O227  1  0.58445283  0.95589569  0.72586730  1
  O2-  O228  1  0.20577157  0.33589511  0.06003996  1
  O2-  O229  1  0.21123938  0.33550818  0.39305745  1
  O2-  O230  1  0.20411801  0.33005052  0.72903776  1
  O2-  O231  1  0.21155519  0.83245687  0.07268453  1
  O2-  O232  1  0.21111806  0.83595444  0.39322484  1
  O2-  O233  1  0.20617159  0.83465314  0.73680363  1
  O2-  O234  1  0.69937106  0.33863426  0.06318307  1
  O2-  O235  1  0.70513547  0.33475918  0.40365649  1
  O2-  O236  1  0.70850349  0.32994515  0.73779955  1
  O2-  O237  1  0.71010244  0.82966961  0.06894632  1
  O2-  O238  1  0.69793404  0.83089754  0.39385860  1
  O2-  O239  1  0.70750171  0.83933450  0.72432216  1
  O2-  O240  1  0.46155820  0.41838767  0.26450333  1
  O2-  O241  1  0.45641660  0.42060563  0.59982574  1
  O2-  O242  1  0.46313342  0.41721778  0.93207700  1
  O2-  O243  1  0.45381237  0.92097191  0.26362324  1
  O2-  O244  1  0.44999429  0.91979029  0.60040632  1
  O2-  O245  1  0.43929607  0.92067696  0.94301592  1
  O2-  O246  1  0.94875769  0.41533306  0.27453027  1
  O2-  O247  1  0.95267999  0.41893229  0.60409872  1
  O2-  O248  1  0.95893534  0.41987949  0.93030226  1
  O2-  O249  1  0.96247570  0.91591147  0.26086725  1
  O2-  O250  1  0.96656745  0.91300506  0.59757769  1
  O2-  O251  1  0.95938751  0.91006519  0.93979810  1
  O2-  O252  1  0.33686381  0.28882883  0.26270464  1
  O2-  O253  1  0.33218401  0.29325033  0.59692553  1
  O2-  O254  1  0.33280612  0.29589716  0.93056194  1
  O2-  O255  1  0.33561720  0.78729206  0.26082641  1
  O2-  O256  1  0.32748531  0.78823163  0.60306690  1
  O2-  O257  1  0.33454481  0.78811874  0.93902358  1
  O2-  O258  1  0.83205677  0.29463826  0.27758505  1
  O2-  O259  1  0.83448897  0.29871684  0.60444252  1
  O2-  O260  1  0.82484683  0.30114750  0.93447950  1
  O2-  O261  1  0.82791285  0.79650784  0.26229024  1
  O2-  O262  1  0.83402506  0.79520633  0.59657755  1
  O2-  O263  1  0.83989568  0.78918733  0.93889251  1
  O2-  O264  1  0.41393947  0.05323543  0.06611678  1
  O2-  O265  1  0.41605547  0.04988045  0.39256812  1
  O2-  O266  1  0.41822674  0.05133390  0.72635722  1
  O2-  O267  1  0.41417798  0.54003249  0.06460761  1
  O2-  O268  1  0.40927911  0.54128825  0.39539768  1
  O2-  O269  1  0.41546683  0.54035153  0.73656162  1
  O2-  O270  1  0.91537822  0.03834627  0.06808886  1
  O2-  O271  1  0.91911922  0.03405924  0.40224233  1
  O2-  O272  1  0.91142518  0.03435790  0.72909602  1
  O2-  O273  1  0.91757444  0.54598368  0.06227255  1
  O2-  O274  1  0.91813206  0.54953825  0.39539738  1
  O2-  O275  1  0.92116228  0.54817311  0.73583459  1
  O2-  O276  1  0.29259336  0.16966827  0.06186504  1
  O2-  O277  1  0.29062026  0.16430596  0.39513991  1
  O2-  O278  1  0.29450032  0.16608635  0.72748933  1
  O2-  O279  1  0.29380585  0.65986841  0.06736178  1
  O2-  O280  1  0.29070460  0.66302348  0.39336981  1
  O2-  O281  1  0.28664662  0.66332363  0.74081103  1
  O2-  O282  1  0.79418322  0.17162927  0.06837187  1
  O2-  O283  1  0.79397692  0.16371167  0.40702037  1
  O2-  O284  1  0.80311590  0.16348598  0.72680952  1
  O2-  O285  1  0.79358577  0.66084898  0.06597951  1
  O2-  O286  1  0.79859013  0.66840912  0.39209971  1
  O2-  O287  1  0.79293816  0.67403014  0.73253226  1
