# generated using pymatgen
data_Ca2Al2SiO7
_symmetry_space_group_name_H-M   'P 1'
_cell_length_a   15.45406134
_cell_length_b   15.45451103
_cell_length_c   15.28116500
_cell_angle_alpha   89.98949184
_cell_angle_beta   89.99660482
_cell_angle_gamma   89.98090862
_symmetry_Int_Tables_number   1
_chemical_formula_structural   Ca2Al2SiO7
_chemical_formula_sum   'Ca48 Al48 Si24 O168'
_cell_volume   3649.67618282
_cell_formula_units_Z   24
loop_
 _symmetry_equiv_pos_site_id
 _symmetry_equiv_pos_as_xyz
  1  'x, y, z'
loop_
 _atom_type_symbol
 _atom_type_oxidation_number
  Ca2+  2.0
  Al0+  0.0
  Si0+  0.0
  O2-  -2.0
loop_
 _atom_site_type_symbol
 _atom_site_label
 _atom_site_symmetry_multiplicity
 _atom_site_fract_x
 _atom_site_fract_y
 _atom_site_fract_z
 _atom_site_occupancy
  Ca2+  Ca0  1  0.16918322  0.08204113  0.17889151  1
  Ca2+  Ca1  1  0.16613925  0.07962360  0.49808057  1
  Ca2+  Ca2  1  0.16870005  0.08455498  0.83858321  1
  Ca2+  Ca3  1  0.17200268  0.58769119  0.16451020  1
  Ca2+  Ca4  1  0.16756819  0.58268177  0.50646783  1
  Ca2+  Ca5  1  0.16967680  0.58772387  0.84285254  1
  Ca2+  Ca6  1  0.66440925  0.07968814  0.17051369  1
  Ca2+  Ca7  1  0.67703263  0.09413236  0.50325782  1
  Ca2+  Ca8  1  0.66938117  0.07949897  0.83961104  1
  Ca2+  Ca9  1  0.68048581  0.58692836  0.17285065  1
  Ca2+  Ca10  1  0.66751531  0.58286281  0.50527474  1
  Ca2+  Ca11  1  0.66548051  0.57740964  0.83922975  1
  Ca2+  Ca12  1  0.07910230  0.31998545  0.15914570  1
  Ca2+  Ca13  1  0.07332364  0.32671560  0.49520501  1
  Ca2+  Ca14  1  0.06946006  0.33259381  0.83364044  1
  Ca2+  Ca15  1  0.07484827  0.83401477  0.15775164  1
  Ca2+  Ca16  1  0.08576931  0.83063295  0.49831424  1
  Ca2+  Ca17  1  0.07883559  0.82081130  0.83367267  1
  Ca2+  Ca18  1  0.58106125  0.31770269  0.16024474  1
  Ca2+  Ca19  1  0.58005792  0.33389959  0.49829553  1
  Ca2+  Ca20  1  0.57678423  0.33711336  0.82937557  1
  Ca2+  Ca21  1  0.58082445  0.83212556  0.15862895  1
  Ca2+  Ca22  1  0.58427820  0.82418949  0.49793680  1
  Ca2+  Ca23  1  0.57621923  0.83032289  0.83045803  1
  Ca2+  Ca24  1  0.33799258  0.41881414  0.16414331  1
  Ca2+  Ca25  1  0.33291309  0.41510142  0.50718296  1
  Ca2+  Ca26  1  0.33760953  0.42269605  0.84251940  1
  Ca2+  Ca27  1  0.32578430  0.92088128  0.17380319  1
  Ca2+  Ca28  1  0.33367828  0.91963357  0.49953802  1
  Ca2+  Ca29  1  0.33684742  0.91212245  0.84035051  1
  Ca2+  Ca30  1  0.84350266  0.42768649  0.16733740  1
  Ca2+  Ca31  1  0.82539840  0.41868701  0.50881705  1
  Ca2+  Ca32  1  0.83219658  0.41704688  0.83788339  1
  Ca2+  Ca33  1  0.82863070  0.91853314  0.17011134  1
  Ca2+  Ca34  1  0.83386336  0.93242547  0.50388268  1
  Ca2+  Ca35  1  0.82726351  0.91847322  0.84144298  1
  Ca2+  Ca36  1  0.42423500  0.16434401  0.15948765  1
  Ca2+  Ca37  1  0.42103016  0.17096850  0.49184104  1
  Ca2+  Ca38  1  0.42432854  0.17700316  0.83259397  1
  Ca2+  Ca39  1  0.42198922  0.67160072  0.15952534  1
  Ca2+  Ca40  1  0.43115583  0.66847285  0.49968365  1
  Ca2+  Ca41  1  0.41630897  0.67768261  0.82647550  1
  Ca2+  Ca42  1  0.92647572  0.16388883  0.16028158  1
  Ca2+  Ca43  1  0.91148004  0.17024901  0.49379758  1
  Ca2+  Ca44  1  0.91575639  0.17295928  0.83040823  1
  Ca2+  Ca45  1  0.91883320  0.66949459  0.15571665  1
  Ca2+  Ca46  1  0.92088808  0.66374650  0.49573831  1
  Ca2+  Ca47  1  0.92172362  0.66426463  0.83442158  1
  Al0+  Al48  1  -0.00015747  -0.00177940  -0.00928115  1
  Al0+  Al49  1  -0.00108941  -0.00089775  0.33926781  1
  Al0+  Al50  1  0.00245835  -0.00106943  0.67443886  1
  Al0+  Al51  1  0.00232435  0.49745055  -0.00081348  1
  Al0+  Al52  1  0.00112931  0.50154615  0.33787688  1
  Al0+  Al53  1  0.00009428  0.49760995  0.65729982  1
  Al0+  Al54  1  0.50025638  -0.00097215  -0.00383854  1
  Al0+  Al55  1  0.49825771  -0.00061707  0.33526122  1
  Al0+  Al56  1  0.49988517  0.00103206  0.66237802  1
  Al0+  Al57  1  0.50105609  0.49912453  0.00679172  1
  Al0+  Al58  1  0.50064923  0.50215451  0.32775613  1
  Al0+  Al59  1  0.49923764  0.50037619  0.66342167  1
  Al0+  Al60  1  0.25097664  0.25022301  -0.00634191  1
  Al0+  Al61  1  0.24761277  0.25174415  0.33439406  1
  Al0+  Al62  1  0.24939646  0.24912804  0.66498946  1
  Al0+  Al63  1  0.25050004  0.75022413  0.00012119  1
  Al0+  Al64  1  0.25038914  0.74863522  0.33904177  1
  Al0+  Al65  1  0.24947455  0.75103623  0.65768517  1
  Al0+  Al66  1  0.75080224  0.24809190  -0.00467726  1
  Al0+  Al67  1  0.74684471  0.25357477  0.33014742  1
  Al0+  Al68  1  0.75073099  0.25268456  0.67357388  1
  Al0+  Al69  1  0.74918701  0.75056050  0.00469449  1
  Al0+  Al70  1  0.75161610  0.74947932  0.33600695  1
  Al0+  Al71  1  0.75255397  0.75210161  0.66353553  1
  Al0+  Al72  1  0.17771833  0.92798167  0.34901092  1
  Al0+  Al73  1  0.42829290  0.82389046  0.64841151  1
  Al0+  Al74  1  0.82218457  0.57155650  0.34905629  1
  Al0+  Al75  1  0.57270495  0.67887102  0.65403910  1
  Al0+  Al76  1  0.06811748  0.17843164  0.32219558  1
  Al0+  Al77  1  0.42944555  0.81906867  0.98963646  1
  Al0+  Al78  1  0.67798696  0.93022051  0.01339415  1
  Al0+  Al79  1  0.43072431  0.32263613  0.98581637  1
  Al0+  Al80  1  0.57061020  0.17891365  0.32076896  1
  Al0+  Al81  1  0.82114849  0.56829377  0.01184698  1
  Al0+  Al82  1  0.81848848  0.07193345  0.34386788  1
  Al0+  Al83  1  0.57164735  0.17652965  0.98337427  1
  Al0+  Al84  1  0.07256217  0.17607888  0.98430765  1
  Al0+  Al85  1  0.42820425  0.32083227  0.65298127  1
  Al0+  Al86  1  0.06874283  0.67928696  0.65161279  1
  Al0+  Al87  1  0.07110282  0.67944060  0.98831275  1
  Al0+  Al88  1  0.92471937  0.82065172  0.98526185  1
  Al0+  Al89  1  0.32170064  0.57240384  0.01336822  1
  Al0+  Al90  1  0.57281976  0.68018612  0.31665842  1
  Al0+  Al91  1  0.67790916  0.43260825  0.68104975  1
  Al0+  Al92  1  0.82130966  0.07151276  0.68248720  1
  Al0+  Al93  1  0.92934959  0.32114371  0.98642204  1
  Al0+  Al94  1  0.32187112  0.07317996  0.34834677  1
  Al0+  Al95  1  0.92811222  0.31817561  0.65097024  1
  Si0+  Si96  1  0.92710598  0.32355791  0.31726153  1
  Si0+  Si97  1  0.92861085  0.82451934  0.64857139  1
  Si0+  Si98  1  0.82331924  0.07165243  0.01650439  1
  Si0+  Si99  1  0.18158745  0.92726640  0.68527901  1
  Si0+  Si100  1  0.67676765  0.92752421  0.35105226  1
  Si0+  Si101  1  0.31970615  0.07158872  0.01248648  1
  Si0+  Si102  1  0.17894837  0.92922778  0.01263118  1
  Si0+  Si103  1  0.93101989  0.82020802  0.32058687  1
  Si0+  Si104  1  0.32200818  0.07164365  0.68327678  1
  Si0+  Si105  1  0.31829474  0.56999701  0.67964077  1
  Si0+  Si106  1  0.67715419  0.43025353  0.34913965  1
  Si0+  Si107  1  0.67714801  0.42492672  0.01952368  1
  Si0+  Si108  1  0.42561398  0.32271468  0.31646933  1
  Si0+  Si109  1  0.57188139  0.17966211  0.65052616  1
  Si0+  Si110  1  0.67739748  0.92726741  0.68256420  1
  Si0+  Si111  1  0.17745781  0.42779572  0.68117357  1
  Si0+  Si112  1  0.57313744  0.67759212  0.98643864  1
  Si0+  Si113  1  0.32238053  0.57043518  0.35038565  1
  Si0+  Si114  1  0.82449472  0.57281167  0.68256187  1
  Si0+  Si115  1  0.17925605  0.42654509  0.01726092  1
  Si0+  Si116  1  0.07196961  0.17579798  0.64892082  1
  Si0+  Si117  1  0.17922250  0.42985854  0.34968823  1
  Si0+  Si118  1  0.42727023  0.82042231  0.31587493  1
  Si0+  Si119  1  0.07250455  0.67762273  0.31799295  1
  O2-  O120  1  0.24528757  0.00430818  0.05521313  1
  O2-  O121  1  0.25018951  0.00042869  0.39862069  1
  O2-  O122  1  0.25337678  -0.00171393  0.72665062  1
  O2-  O123  1  0.24875565  0.49547768  0.06109127  1
  O2-  O124  1  0.25241450  0.49850708  0.39287311  1
  O2-  O125  1  0.24796721  0.49918575  0.72358873  1
  O2-  O126  1  0.75351063  0.00418621  0.06087306  1
  O2-  O127  1  0.73996458  0.00219849  0.39386620  1
  O2-  O128  1  0.74618965  -0.00417343  0.72667643  1
  O2-  O129  1  0.74776308  0.49314403  0.06188168  1
  O2-  O130  1  0.74679952  0.49747379  0.39453403  1
  O2-  O131  1  0.75101091  0.50986080  0.72681526  1
  O2-  O132  1  -0.00865041  0.25023849  0.27452088  1
  O2-  O133  1  -0.00022017  0.24041934  0.60438755  1
  O2-  O134  1  -0.00213008  0.24589961  0.93585188  1
  O2-  O135  1  0.00218533  0.74931058  0.27736810  1
  O2-  O136  1  -0.00719541  0.75197233  0.60325478  1
  O2-  O137  1  -0.00461822  0.74629001  0.93709894  1
  O2-  O138  1  0.49097505  0.24964905  0.27515723  1
  O2-  O139  1  0.50169490  0.24623620  0.60524787  1
  O2-  O140  1  0.50522979  0.25446914  0.93456738  1
  O2-  O141  1  0.49908089  0.75603960  0.27059999  1
  O2-  O142  1  0.50396655  0.75363094  0.60233390  1
  O2-  O143  1  0.50104755  0.74209643  0.94211253  1
  O2-  O144  1  0.07320785  0.17566880  0.09845537  1
  O2-  O145  1  0.06748327  0.18161760  0.43524625  1
  O2-  O146  1  0.07402383  0.17882709  0.75425083  1
  O2-  O147  1  0.07208839  0.68341114  0.10234458  1
  O2-  O148  1  0.07143851  0.67684793  0.42325032  1
  O2-  O149  1  0.07065455  0.67977898  0.76432605  1
  O2-  O150  1  0.56778597  0.17492372  0.09737368  1
  O2-  O151  1  0.57264129  0.18440478  0.43397450  1
  O2-  O152  1  0.56868857  0.17873523  0.75573852  1
  O2-  O153  1  0.57273339  0.68150177  0.09226674  1
  O2-  O154  1  0.57104844  0.67973273  0.42974429  1
  O2-  O155  1  0.56903137  0.67802130  0.76767945  1
  O2-  O156  1  0.17752843  0.43076432  0.24495915  1
  O2-  O157  1  0.17933629  0.42890782  0.57551290  1
  O2-  O158  1  0.17905338  0.42769040  0.91152838  1
  O2-  O159  1  0.17751547  0.92726842  0.23499095  1
  O2-  O160  1  0.17985936  0.92864718  0.58029637  1
  O2-  O161  1  0.18290077  0.92697201  0.90748044  1
  O2-  O162  1  0.67753195  0.43069591  0.24388577  1
  O2-  O163  1  0.67901488  0.43163376  0.56756920  1
  O2-  O164  1  0.67411336  0.42881384  0.91386157  1
  O2-  O165  1  0.67889497  0.92611780  0.24541512  1
  O2-  O166  1  0.67886517  0.92729343  0.57675821  1
  O2-  O167  1  0.67739150  0.93054750  0.90016495  1
  O2-  O168  1  0.42986868  0.31856549  0.09966321  1
  O2-  O169  1  0.42709998  0.32465024  0.42240927  1
  O2-  O170  1  0.42805225  0.32135119  0.76547860  1
  O2-  O171  1  0.42866010  0.81960495  0.10268009  1
  O2-  O172  1  0.42724735  0.81733005  0.42131118  1
  O2-  O173  1  0.42621104  0.82102062  0.76220516  1
  O2-  O174  1  0.93406751  0.32188822  0.10042041  1
  O2-  O175  1  0.92861604  0.32338379  0.42310988  1
  O2-  O176  1  0.93089037  0.32031119  0.76345952  1
  O2-  O177  1  0.92811259  0.82229368  0.09957303  1
  O2-  O178  1  0.93216882  0.81910576  0.42578748  1
  O2-  O179  1  0.92989116  0.82371029  0.75376472  1
  O2-  O180  1  0.32043265  0.07144764  0.23420705  1
  O2-  O181  1  0.31974580  0.07344717  0.57845670  1
  O2-  O182  1  0.31944941  0.06989479  0.90707137  1
  O2-  O183  1  0.32061286  0.57183399  0.24541899  1
  O2-  O184  1  0.31715819  0.56721462  0.57400666  1
  O2-  O185  1  0.31945091  0.57413177  0.89994971  1
  O2-  O186  1  0.82149457  0.06734275  0.23128886  1
  O2-  O187  1  0.81988140  0.07165299  0.56858738  1
  O2-  O188  1  0.82241081  0.06956355  0.91086779  1
  O2-  O189  1  0.82552357  0.57091441  0.23595517  1
  O2-  O190  1  0.82472822  0.56924761  0.57666583  1
  O2-  O191  1  0.81952803  0.56792789  0.89871666  1
  O2-  O192  1  0.03998003  0.08031738  0.27031267  1
  O2-  O193  1  0.05044286  0.07942337  0.60761655  1
  O2-  O194  1  0.04813013  0.07853971  0.92833092  1
  O2-  O195  1  0.04429660  0.58569311  0.27151388  1
  O2-  O196  1  0.04148193  0.58305082  0.59449520  1
  O2-  O197  1  0.04934022  0.57961167  0.93689329  1
  O2-  O198  1  0.54418302  0.07965256  0.26939032  1
  O2-  O199  1  0.54948182  0.08590946  0.60331623  1
  O2-  O200  1  0.53679827  0.08194778  0.92764750  1
  O2-  O201  1  0.54070982  0.58456179  0.26172065  1
  O2-  O202  1  0.53871881  0.58381777  0.59720716  1
  O2-  O203  1  0.55171985  0.58164306  0.94537729  1
  O2-  O204  1  0.16436454  0.21158746  0.26849659  1
  O2-  O205  1  0.16418604  0.20484245  0.60193766  1
  O2-  O206  1  0.16927152  0.20639184  0.92945651  1
  O2-  O207  1  0.16641470  0.70289589  0.27400157  1
  O2-  O208  1  0.16343848  0.71181532  0.59450471  1
  O2-  O209  1  0.16666738  0.71309016  0.93325778  1
  O2-  O210  1  0.66466553  0.21281836  0.26284548  1
  O2-  O211  1  0.66524090  0.20942637  0.60747758  1
  O2-  O212  1  0.67198855  0.19738027  0.93286283  1
  O2-  O213  1  0.67125097  0.70985712  0.26590153  1
  O2-  O214  1  0.67255024  0.70381931  0.60057664  1
  O2-  O215  1  0.66460826  0.70578547  0.93947121  1
  O2-  O216  1  0.08708861  0.45226191  0.06582494  1
  O2-  O217  1  0.08951214  0.46091020  0.40016495  1
  O2-  O218  1  0.08496011  0.45665964  0.72584328  1
  O2-  O219  1  0.08438009  0.95259520  0.05678236  1
  O2-  O220  1  0.08120417  0.95681167  0.40592568  1
  O2-  O221  1  0.09054104  0.95386823  0.73487162  1
  O2-  O222  1  0.58473221  0.44943864  0.06871122  1
  O2-  O223  1  0.58310897  0.45773345  0.39436830  1
  O2-  O224  1  0.58032356  0.46272769  0.73467481  1
  O2-  O225  1  0.58156566  0.96237058  0.06835313  1
  O2-  O226  1  0.58095124  0.94530085  0.39494339  1
  O2-  O227  1  0.58259369  0.95304010  0.72654804  1
  O2-  O228  1  0.20695638  0.33274348  0.06295322  1
  O2-  O229  1  0.20404338  0.33830090  0.39926217  1
  O2-  O230  1  0.20404582  0.33543041  0.72747420  1
  O2-  O231  1  0.21001819  0.83997672  0.06291605  1
  O2-  O232  1  0.20692839  0.82971072  0.40377153  1
  O2-  O233  1  0.21029606  0.83424257  0.72966808  1
  O2-  O234  1  0.70201488  0.32941082  0.06211110  1
  O2-  O235  1  0.70122157  0.33673230  0.39631664  1
  O2-  O236  1  0.70951585  0.33780401  0.73722753  1
  O2-  O237  1  0.70737026  0.83444572  0.07035047  1
  O2-  O238  1  0.71006467  0.83704884  0.39894241  1
  O2-  O239  1  0.70315113  0.83345114  0.72881247  1
  O2-  O240  1  0.45388122  0.41520128  0.26964963  1
  O2-  O241  1  0.45816718  0.41650929  0.59708151  1
  O2-  O242  1  0.45658575  0.42329818  0.93565020  1
  O2-  O243  1  0.44708372  0.91646483  0.27292974  1
  O2-  O244  1  0.45428162  0.92291460  0.59527151  1
  O2-  O245  1  0.46083470  0.91322360  0.93249902  1
  O2-  O246  1  0.96120424  0.41578800  0.27320276  1
  O2-  O247  1  0.96152227  0.41212882  0.59305958  1
  O2-  O248  1  0.96231578  0.41669902  0.93041201  1
  O2-  O249  1  0.95899979  0.91155168  0.27315261  1
  O2-  O250  1  0.96140817  0.91693765  0.60388639  1
  O2-  O251  1  0.95476922  0.91595467  0.92839860  1
  O2-  O252  1  0.33022654  0.30272505  0.27233678  1
  O2-  O253  1  0.33122218  0.29057747  0.59848798  1
  O2-  O254  1  0.33341073  0.29507279  0.93113270  1
  O2-  O255  1  0.33375191  0.79010852  0.27176305  1
  O2-  O256  1  0.33215753  0.79252146  0.59345319  1
  O2-  O257  1  0.33398768  0.78908912  0.93350345  1
  O2-  O258  1  0.83193130  0.30604608  0.27263848  1
  O2-  O259  1  0.83007287  0.28946845  0.59872624  1
  O2-  O260  1  0.83020355  0.29848495  0.93349685  1
  O2-  O261  1  0.83918223  0.79272693  0.27369335  1
  O2-  O262  1  0.83368331  0.80644129  0.60217991  1
  O2-  O263  1  0.82649750  0.79275150  0.93290160  1
  O2-  O264  1  0.41029350  0.03976502  0.05921272  1
  O2-  O265  1  0.41979735  0.04482264  0.40351553  1
  O2-  O266  1  0.41556094  0.04641790  0.72864323  1
  O2-  O267  1  0.41757829  0.54317939  0.07099725  1
  O2-  O268  1  0.41507163  0.54232248  0.39598623  1
  O2-  O269  1  0.41010257  0.54312504  0.72613584  1
  O2-  O270  1  0.91815633  0.04351205  0.05944241  1
  O2-  O271  1  0.91185003  0.03782791  0.40243208  1
  O2-  O272  1  0.91847634  0.04193375  0.73619688  1
  O2-  O273  1  0.91879881  0.53807227  0.06631219  1
  O2-  O274  1  0.91889037  0.54131974  0.40398170  1
  O2-  O275  1  0.91737798  0.54049085  0.72588696  1
  O2-  O276  1  0.29561374  0.16473561  0.05895153  1
  O2-  O277  1  0.29336177  0.17226612  0.40072092  1
  O2-  O278  1  0.29096006  0.16283223  0.73107782  1
  O2-  O279  1  0.28696836  0.66698074  0.07037692  1
  O2-  O280  1  0.29353214  0.66052751  0.40034064  1
  O2-  O281  1  0.28910643  0.66326175  0.72310347  1
  O2-  O282  1  0.80126991  0.16668854  0.06103685  1
  O2-  O283  1  0.78975535  0.17086959  0.39599331  1
  O2-  O284  1  0.79033994  0.16695878  0.73737467  1
  O2-  O285  1  0.79072976  0.66452815  0.06783993  1
  O2-  O286  1  0.79248643  0.66799016  0.40408341  1
  O2-  O287  1  0.80735292  0.67031832  0.72359278  1
