# generated using pymatgen
data_Ca2Al2SiO7
_symmetry_space_group_name_H-M   'P 1'
_cell_length_a   15.46998842
_cell_length_b   15.47421239
_cell_length_c   15.29460743
_cell_angle_alpha   90.00710328
_cell_angle_beta   89.99381968
_cell_angle_gamma   89.99925746
_symmetry_Int_Tables_number   1
_chemical_formula_structural   Ca2Al2SiO7
_chemical_formula_sum   'Ca48 Al48 Si24 O168'
_cell_volume   3661.31310770
_cell_formula_units_Z   24
loop_
 _symmetry_equiv_pos_site_id
 _symmetry_equiv_pos_as_xyz
  1  'x, y, z'
loop_
 _atom_type_symbol
 _atom_type_oxidation_number
  Ca2+  2.0
  Al0+  0.0
  Si0+  0.0
  O2-  -2.0
loop_
 _atom_site_type_symbol
 _atom_site_label
 _atom_site_symmetry_multiplicity
 _atom_site_fract_x
 _atom_site_fract_y
 _atom_site_fract_z
 _atom_site_occupancy
  Ca2+  Ca0  1  0.17421533  0.07906997  0.17435603  1
  Ca2+  Ca1  1  0.17107323  0.07431453  0.50456374  1
  Ca2+  Ca2  1  0.16510228  0.07532331  0.83269256  1
  Ca2+  Ca3  1  0.17513295  0.59832354  0.16942646  1
  Ca2+  Ca4  1  0.17658210  0.58749548  0.50582393  1
  Ca2+  Ca5  1  0.17943340  0.58700423  0.83524973  1
  Ca2+  Ca6  1  0.66771429  0.07714284  0.17295463  1
  Ca2+  Ca7  1  0.67287002  0.07199470  0.51005935  1
  Ca2+  Ca8  1  0.66866235  0.07579908  0.82905594  1
  Ca2+  Ca9  1  0.66359190  0.57825195  0.16914694  1
  Ca2+  Ca10  1  0.66056307  0.57748375  0.50389725  1
  Ca2+  Ca11  1  0.66400572  0.57740483  0.84047015  1
  Ca2+  Ca12  1  0.07654344  0.33581670  0.16573114  1
  Ca2+  Ca13  1  0.07091439  0.34263159  0.49854987  1
  Ca2+  Ca14  1  0.07735737  0.33651173  0.82125789  1
  Ca2+  Ca15  1  0.07546822  0.82278376  0.16535666  1
  Ca2+  Ca16  1  0.08043442  0.83121684  0.49398509  1
  Ca2+  Ca17  1  0.08129500  0.82901669  0.83187199  1
  Ca2+  Ca18  1  0.58713176  0.33930479  0.16541354  1
  Ca2+  Ca19  1  0.58153581  0.33910771  0.49990663  1
  Ca2+  Ca20  1  0.58262450  0.33954580  0.82380896  1
  Ca2+  Ca21  1  0.57874842  0.81772858  0.16444070  1
  Ca2+  Ca22  1  0.58064139  0.82104197  0.49598777  1
  Ca2+  Ca23  1  0.58044517  0.81832631  0.82295970  1
  Ca2+  Ca24  1  0.32978642  0.43121418  0.17215084  1
  Ca2+  Ca25  1  0.33007757  0.43010246  0.50952890  1
  Ca2+  Ca26  1  0.33734843  0.42855853  0.83258761  1
  Ca2+  Ca27  1  0.33891965  0.92231053  0.17832336  1
  Ca2+  Ca28  1  0.33654267  0.91537952  0.50710747  1
  Ca2+  Ca29  1  0.32792307  0.90449117  0.83072729  1
  Ca2+  Ca30  1  0.82552258  0.42362719  0.17123765  1
  Ca2+  Ca31  1  0.82526790  0.41167198  0.50557330  1
  Ca2+  Ca32  1  0.82355782  0.42232250  0.83644273  1
  Ca2+  Ca33  1  0.83901817  0.91071800  0.16962605  1
  Ca2+  Ca34  1  0.83150603  0.92023204  0.51127254  1
  Ca2+  Ca35  1  0.83214809  0.91717118  0.83512291  1
  Ca2+  Ca36  1  0.41690817  0.16800237  0.16421169  1
  Ca2+  Ca37  1  0.41082120  0.17428983  0.49708730  1
  Ca2+  Ca38  1  0.41930970  0.17905199  0.82471521  1
  Ca2+  Ca39  1  0.42426835  0.65607528  0.16695972  1
  Ca2+  Ca40  1  0.42135731  0.67021228  0.49714183  1
  Ca2+  Ca41  1  0.42524782  0.66087939  0.82525426  1
  Ca2+  Ca42  1  0.91372879  0.17527500  0.16677162  1
  Ca2+  Ca43  1  0.91120636  0.17589704  0.49987252  1
  Ca2+  Ca44  1  0.91452244  0.17301791  0.82332362  1
  Ca2+  Ca45  1  0.92540513  0.66996792  0.15668394  1
  Ca2+  Ca46  1  0.92726668  0.67137692  0.48829980  1
  Ca2+  Ca47  1  0.91890455  0.66266738  0.83422433  1
  Al0+  Al48  1  0.00044173  0.00148346  -0.00107176  1
  Al0+  Al49  1  0.00163273  0.00323012  0.33038972  1
  Al0+  Al50  1  0.00266055  0.00174434  0.67446792  1
  Al0+  Al51  1  -0.00070349  0.49873674  -0.00265374  1
  Al0+  Al52  1  -0.00079793  0.49962913  0.32220368  1
  Al0+  Al53  1  -0.00035203  0.49944307  0.66337668  1
  Al0+  Al54  1  0.50072800  0.00141221  -0.00116373  1
  Al0+  Al55  1  0.50203300  0.00259215  0.33629386  1
  Al0+  Al56  1  0.50106475  0.00071397  0.67045019  1
  Al0+  Al57  1  0.49693025  0.49854179  0.00428906  1
  Al0+  Al58  1  0.49770819  0.49821057  0.33814997  1
  Al0+  Al59  1  0.50032596  0.49838334  0.66467559  1
  Al0+  Al60  1  0.25036932  0.24904593  -0.00018753  1
  Al0+  Al61  1  0.24929401  0.24979306  0.33660417  1
  Al0+  Al62  1  0.24834226  0.24862826  0.66432404  1
  Al0+  Al63  1  0.24753875  0.75133807  0.00329495  1
  Al0+  Al64  1  0.24942066  0.75378181  0.33162750  1
  Al0+  Al65  1  0.25072109  0.75069581  0.67203295  1
  Al0+  Al66  1  0.74925790  0.24653867  0.00277644  1
  Al0+  Al67  1  0.74919921  0.24945588  0.33249246  1
  Al0+  Al68  1  0.75075944  0.25012692  0.67018928  1
  Al0+  Al69  1  0.74901562  0.75065174  -0.00402780  1
  Al0+  Al70  1  0.74802786  0.74878982  0.32704513  1
  Al0+  Al71  1  0.75111845  0.74953221  0.66566353  1
  Al0+  Al72  1  0.42786220  0.32012426  0.65199509  1
  Al0+  Al73  1  0.82091621  0.07014225  0.68181184  1
  Al0+  Al74  1  0.07247065  0.67740117  0.98103260  1
  Al0+  Al75  1  0.68049972  0.43144974  0.67870356  1
  Al0+  Al76  1  0.07211253  0.67881190  0.31909949  1
  Al0+  Al77  1  0.57342455  0.67693686  0.65122177  1
  Al0+  Al78  1  0.18103345  0.92927838  0.68110488  1
  Al0+  Al79  1  0.68105749  0.42919044  0.34937495  1
  Al0+  Al80  1  0.56848708  0.67491385  0.31672001  1
  Al0+  Al81  1  0.31808815  0.57103347  0.01517945  1
  Al0+  Al82  1  0.92675186  0.32011661  0.31776685  1
  Al0+  Al83  1  0.92918642  0.32068399  0.65360114  1
  Al0+  Al84  1  0.17625849  0.42826876  0.67916207  1
  Al0+  Al85  1  0.82165313  0.57258162  0.01491701  1
  Al0+  Al86  1  0.92762796  0.82342282  0.32141139  1
  Al0+  Al87  1  0.42790085  0.82067755  0.65364973  1
  Al0+  Al88  1  0.31818742  0.57253067  0.34855398  1
  Al0+  Al89  1  0.56755929  0.67758409  0.98611294  1
  Al0+  Al90  1  0.32045115  0.57014783  0.68165052  1
  Al0+  Al91  1  0.32346616  0.07187086  0.34825187  1
  Al0+  Al92  1  0.92917810  0.82206543  0.98191676  1
  Al0+  Al93  1  0.43055871  0.82377223  0.32011358  1
  Al0+  Al94  1  0.67861876  0.42783814  0.01533281  1
  Al0+  Al95  1  0.67784200  0.92529333  0.68226009  1
  Si0+  Si96  1  0.82167761  0.07061713  0.34680201  1
  Si0+  Si97  1  0.92742660  0.31870373  0.98401850  1
  Si0+  Si98  1  0.82336346  0.57276632  0.34815821  1
  Si0+  Si99  1  0.82480736  0.57365621  0.68001255  1
  Si0+  Si100  1  0.17805182  0.93100705  0.01762411  1
  Si0+  Si101  1  0.17777838  0.42424874  0.01594961  1
  Si0+  Si102  1  0.68009002  0.92833832  0.34627271  1
  Si0+  Si103  1  0.42703483  0.31992754  0.31803036  1
  Si0+  Si104  1  0.07190302  0.17549069  0.64871130  1
  Si0+  Si105  1  0.07212177  0.18058322  0.98468456  1
  Si0+  Si106  1  0.32353988  0.07386356  0.68502028  1
  Si0+  Si107  1  0.93084426  0.82331628  0.65397931  1
  Si0+  Si108  1  0.17819305  0.93114246  0.34949426  1
  Si0+  Si109  1  0.17554799  0.42692170  0.34870253  1
  Si0+  Si110  1  0.07312303  0.17951824  0.31567965  1
  Si0+  Si111  1  0.32095515  0.07156711  0.01447125  1
  Si0+  Si112  1  0.57231331  0.17635059  0.98390604  1
  Si0+  Si113  1  0.42846594  0.82584226  0.98497569  1
  Si0+  Si114  1  0.67808370  0.92986534  0.01615428  1
  Si0+  Si115  1  0.57267033  0.17859260  0.64977009  1
  Si0+  Si116  1  0.57057527  0.18043235  0.31880332  1
  Si0+  Si117  1  0.82184832  0.06954784  0.01768494  1
  Si0+  Si118  1  0.42994173  0.31834447  0.98671167  1
  Si0+  Si119  1  0.07045883  0.67988669  0.65275357  1
  O2-  O120  1  0.25441416  -0.00240408  0.05835496  1
  O2-  O121  1  0.25156676  -0.00518745  0.39381517  1
  O2-  O122  1  0.25868310  0.00147987  0.72914100  1
  O2-  O123  1  0.23905263  0.49900426  0.06067149  1
  O2-  O124  1  0.23951617  0.49985017  0.39193467  1
  O2-  O125  1  0.24935251  0.49663035  0.73171719  1
  O2-  O126  1  0.75297927  -0.00313109  0.06005651  1
  O2-  O127  1  0.75910037  -0.00812605  0.38712344  1
  O2-  O128  1  0.75170237  -0.00399037  0.73264977  1
  O2-  O129  1  0.74880546  0.50123905  0.06548929  1
  O2-  O130  1  0.75522418  0.50500565  0.39476209  1
  O2-  O131  1  0.75157216  0.50951291  0.72372738  1
  O2-  O132  1  0.00489239  0.24835643  0.27097856  1
  O2-  O133  1  0.00600988  0.24760162  0.60624078  1
  O2-  O134  1  0.00308909  0.25246327  0.94206758  1
  O2-  O135  1  -0.00523323  0.74711967  0.27151138  1
  O2-  O136  1  -0.00124327  0.75050872  0.61077659  1
  O2-  O137  1  -0.00202381  0.74739437  0.93112736  1
  O2-  O138  1  0.49906279  0.25007400  0.27492376  1
  O2-  O139  1  0.50110195  0.24351311  0.60470128  1
  O2-  O140  1  0.50516333  0.25161390  0.94422863  1
  O2-  O141  1  0.49541927  0.74709326  0.26751679  1
  O2-  O142  1  0.50255943  0.75191863  0.60396621  1
  O2-  O143  1  0.49240954  0.75310378  0.94173084  1
  O2-  O144  1  0.07300526  0.18107943  0.08984736  1
  O2-  O145  1  0.07290430  0.17659231  0.42055117  1
  O2-  O146  1  0.07066237  0.17411499  0.75475339  1
  O2-  O147  1  0.07355729  0.68278925  0.09426375  1
  O2-  O148  1  0.07156621  0.68099006  0.43340300  1
  O2-  O149  1  0.06942710  0.68000805  0.75753592  1
  O2-  O150  1  0.57008927  0.17113996  0.08912376  1
  O2-  O151  1  0.57212967  0.18001833  0.42324790  1
  O2-  O152  1  0.57207436  0.18058122  0.75591758  1
  O2-  O153  1  0.56590831  0.67765784  0.09907606  1
  O2-  O154  1  0.57017300  0.67627742  0.42964687  1
  O2-  O155  1  0.57204514  0.67555034  0.76515285  1
  O2-  O156  1  0.18019732  0.42059360  0.24303512  1
  O2-  O157  1  0.17445623  0.43383105  0.56563883  1
  O2-  O158  1  0.18321725  0.41679750  0.91125049  1
  O2-  O159  1  0.17622791  0.93657927  0.24382578  1
  O2-  O160  1  0.17786605  0.93166185  0.56829393  1
  O2-  O161  1  0.17767935  0.93376129  0.91255798  1
  O2-  O162  1  0.68260364  0.42680061  0.23640192  1
  O2-  O163  1  0.68288296  0.42870226  0.56571516  1
  O2-  O164  1  0.67987825  0.42520791  0.90197847  1
  O2-  O165  1  0.67745269  0.93371956  0.24091164  1
  O2-  O166  1  0.68164395  0.92732423  0.56805712  1
  O2-  O167  1  0.67599397  0.93527679  0.91176522  1
  O2-  O168  1  0.42719997  0.31376518  0.09193204  1
  O2-  O169  1  0.42671964  0.31770477  0.42266784  1
  O2-  O170  1  0.43011524  0.31879615  0.76581352  1
  O2-  O171  1  0.43370346  0.83378677  0.09004405  1
  O2-  O172  1  0.43510938  0.82631302  0.43300345  1
  O2-  O173  1  0.42757962  0.81654382  0.76766740  1
  O2-  O174  1  0.92707469  0.31441352  0.08926992  1
  O2-  O175  1  0.92575048  0.31626302  0.43051689  1
  O2-  O176  1  0.92970597  0.31804625  0.76691374  1
  O2-  O177  1  0.93443505  0.82599137  0.09531642  1
  O2-  O178  1  0.93114098  0.82606037  0.43551622  1
  O2-  O179  1  0.93293284  0.82361397  0.75862597  1
  O2-  O180  1  0.32150543  0.07278247  0.23421493  1
  O2-  O181  1  0.32087311  0.07518304  0.57954479  1
  O2-  O182  1  0.31903082  0.07544343  0.91009966  1
  O2-  O183  1  0.31871322  0.56784335  0.23512220  1
  O2-  O184  1  0.31805169  0.57179745  0.56820552  1
  O2-  O185  1  0.32145159  0.56779059  0.90270602  1
  O2-  O186  1  0.81847039  0.07324227  0.24133702  1
  O2-  O187  1  0.82025330  0.06880669  0.56758419  1
  O2-  O188  1  0.82140380  0.07246619  0.91326218  1
  O2-  O189  1  0.82268972  0.57037976  0.24283598  1
  O2-  O190  1  0.82900551  0.57222429  0.57453618  1
  O2-  O191  1  0.82113834  0.56778836  0.90110383  1
  O2-  O192  1  0.04646147  0.08777360  0.26589394  1
  O2-  O193  1  0.04180582  0.08340291  0.60194048  1
  O2-  O194  1  0.04227138  0.08985540  0.93714306  1
  O2-  O195  1  0.05134214  0.57999086  0.26354941  1
  O2-  O196  1  0.04314114  0.58911518  0.60386766  1
  O2-  O197  1  0.04875949  0.57631628  0.93088864  1
  O2-  O198  1  0.54278142  0.08956925  0.26908409  1
  O2-  O199  1  0.55137357  0.08312576  0.60611181  1
  O2-  O200  1  0.53975857  0.08771643  0.93319837  1
  O2-  O201  1  0.53715128  0.57618650  0.26529584  1
  O2-  O202  1  0.54272585  0.57994477  0.59829092  1
  O2-  O203  1  0.53573091  0.57978387  0.93479165  1
  O2-  O204  1  0.16674355  0.20563484  0.26863376  1
  O2-  O205  1  0.16643764  0.19513774  0.60308862  1
  O2-  O206  1  0.16480901  0.20482295  0.93696787  1
  O2-  O207  1  0.16728067  0.71403634  0.26412289  1
  O2-  O208  1  0.16188694  0.71048298  0.60754991  1
  O2-  O209  1  0.17053639  0.71174483  0.92974161  1
  O2-  O210  1  0.66108713  0.20823618  0.26827505  1
  O2-  O211  1  0.66515884  0.20701786  0.60400243  1
  O2-  O212  1  0.66588358  0.19940485  0.93841986  1
  O2-  O213  1  0.66672256  0.70332968  0.26320292  1
  O2-  O214  1  0.67313236  0.70336144  0.59820320  1
  O2-  O215  1  0.66412340  0.70800391  0.93315865  1
  O2-  O216  1  0.08065696  0.44159234  0.05701241  1
  O2-  O217  1  0.07836368  0.44782224  0.38843571  1
  O2-  O218  1  0.07806805  0.45672195  0.73253831  1
  O2-  O219  1  0.08906723  0.96701128  0.06519409  1
  O2-  O220  1  0.08662828  0.96378569  0.39691310  1
  O2-  O221  1  0.08791549  0.96420728  0.73969525  1
  O2-  O222  1  0.57922637  0.45295786  0.06784664  1
  O2-  O223  1  0.58253998  0.45561230  0.40097199  1
  O2-  O224  1  0.58299433  0.45715888  0.73225401  1
  O2-  O225  1  0.58833516  0.96481364  0.06440405  1
  O2-  O226  1  0.59369492  0.96636558  0.39626445  1
  O2-  O227  1  0.58131305  0.95721258  0.73763937  1
  O2-  O228  1  0.20968757  0.33313342  0.06582945  1
  O2-  O229  1  0.20309431  0.33489256  0.39668695  1
  O2-  O230  1  0.19819002  0.32653273  0.72824247  1
  O2-  O231  1  0.19993963  0.83845603  0.06468701  1
  O2-  O232  1  0.19708854  0.83654884  0.39421670  1
  O2-  O233  1  0.20968536  0.83435791  0.73920341  1
  O2-  O234  1  0.70653568  0.32768276  0.06722969  1
  O2-  O235  1  0.71270608  0.33140401  0.40129457  1
  O2-  O236  1  0.71234900  0.33586420  0.73390825  1
  O2-  O237  1  0.70194891  0.83707325  0.06197664  1
  O2-  O238  1  0.69904548  0.83368368  0.39059989  1
  O2-  O239  1  0.70624930  0.82722917  0.73504156  1
  O2-  O240  1  0.45547538  0.41093453  0.27079103  1
  O2-  O241  1  0.46039817  0.41449687  0.59657898  1
  O2-  O242  1  0.45429696  0.41052915  0.94039630  1
  O2-  O243  1  0.46362082  0.92205195  0.26707982  1
  O2-  O244  1  0.44964755  0.92361981  0.60707445  1
  O2-  O245  1  0.45536846  0.91832786  0.93610695  1
  O2-  O246  1  0.95429661  0.41524106  0.25994670  1
  O2-  O247  1  0.95819943  0.41656338  0.59662191  1
  O2-  O248  1  0.94946196  0.41151655  0.93762623  1
  O2-  O249  1  0.95856393  0.92138279  0.26712788  1
  O2-  O250  1  0.96180833  0.91517968  0.60865506  1
  O2-  O251  1  0.96160768  0.92121193  0.93080896  1
  O2-  O252  1  0.33592283  0.28985712  0.27010231  1
  O2-  O253  1  0.33101543  0.28962612  0.59778221  1
  O2-  O254  1  0.34033335  0.28473802  0.93825081  1
  O2-  O255  1  0.32874278  0.80674975  0.27056851  1
  O2-  O256  1  0.32892939  0.79263524  0.60140275  1
  O2-  O257  1  0.33147063  0.80476254  0.94583436  1
  O2-  O258  1  0.83315106  0.28163951  0.26243325  1
  O2-  O259  1  0.83394590  0.28499545  0.59977689  1
  O2-  O260  1  0.83714264  0.28369829  0.93827813  1
  O2-  O261  1  0.82783667  0.80265586  0.26869622  1
  O2-  O262  1  0.83789701  0.80074486  0.60727830  1
  O2-  O263  1  0.82843845  0.80069644  0.93158530  1
  O2-  O264  1  0.41466204  0.04750867  0.06089087  1
  O2-  O265  1  0.42111564  0.04704583  0.40239578  1
  O2-  O266  1  0.41881549  0.05617100  0.73038411  1
  O2-  O267  1  0.41122745  0.53309247  0.07121775  1
  O2-  O268  1  0.41231176  0.53625113  0.40272679  1
  O2-  O269  1  0.41800528  0.53772573  0.73316168  1
  O2-  O270  1  0.91509042  0.04539753  0.06465154  1
  O2-  O271  1  0.91668554  0.05243207  0.39133887  1
  O2-  O272  1  0.91927577  0.04595880  0.73639028  1
  O2-  O273  1  0.92098442  0.54232294  0.06643410  1
  O2-  O274  1  0.91871657  0.54704086  0.39095487  1
  O2-  O275  1  0.91540661  0.54236035  0.72862829  1
  O2-  O276  1  0.28966234  0.16150763  0.06465879  1
  O2-  O277  1  0.28910926  0.16711431  0.40253893  1
  O2-  O278  1  0.29266559  0.16546795  0.73254186  1
  O2-  O279  1  0.29119260  0.66929563  0.06864968  1
  O2-  O280  1  0.29073429  0.67148482  0.39902472  1
  O2-  O281  1  0.29035375  0.66653894  0.73670155  1
  O2-  O282  1  0.79028578  0.15933872  0.06747819  1
  O2-  O283  1  0.78576297  0.15873081  0.39528198  1
  O2-  O284  1  0.78864114  0.16616915  0.73706156  1
  O2-  O285  1  0.79698542  0.67343146  0.06424708  1
  O2-  O286  1  0.80003025  0.66802354  0.39211801  1
  O2-  O287  1  0.80601129  0.66855607  0.72543594  1
