# generated using pymatgen
data_Ca2Al2SiO7
_symmetry_space_group_name_H-M   'P 1'
_cell_length_a   15.45884077
_cell_length_b   15.45830153
_cell_length_c   15.28398525
_cell_angle_alpha   90.00174111
_cell_angle_beta   89.99648223
_cell_angle_gamma   90.00478497
_symmetry_Int_Tables_number   1
_chemical_formula_structural   Ca2Al2SiO7
_chemical_formula_sum   'Ca48 Al48 Si24 O168'
_cell_volume   3652.37453027
_cell_formula_units_Z   24
loop_
 _symmetry_equiv_pos_site_id
 _symmetry_equiv_pos_as_xyz
  1  'x, y, z'
loop_
 _atom_type_symbol
 _atom_type_oxidation_number
  Ca2+  2.0
  Al0+  0.0
  Si0+  0.0
  O2-  -2.0
loop_
 _atom_site_type_symbol
 _atom_site_label
 _atom_site_symmetry_multiplicity
 _atom_site_fract_x
 _atom_site_fract_y
 _atom_site_fract_z
 _atom_site_occupancy
  Ca2+  Ca0  1  0.17438271  0.08772278  0.16799003  1
  Ca2+  Ca1  1  0.17270645  0.07748710  0.50405111  1
  Ca2+  Ca2  1  0.17051699  0.07901673  0.84011301  1
  Ca2+  Ca3  1  0.17662156  0.59053727  0.16610991  1
  Ca2+  Ca4  1  0.16655773  0.57812909  0.50918783  1
  Ca2+  Ca5  1  0.17290555  0.57762674  0.83724940  1
  Ca2+  Ca6  1  0.67100434  0.06624624  0.17535545  1
  Ca2+  Ca7  1  0.67007775  0.07373519  0.50441853  1
  Ca2+  Ca8  1  0.65870371  0.07127109  0.83517405  1
  Ca2+  Ca9  1  0.67224987  0.58591444  0.17339786  1
  Ca2+  Ca10  1  0.67537318  0.58827238  0.50097116  1
  Ca2+  Ca11  1  0.67339118  0.59410257  0.83640453  1
  Ca2+  Ca12  1  0.07547963  0.32636652  0.16242785  1
  Ca2+  Ca13  1  0.07104667  0.33932327  0.49691594  1
  Ca2+  Ca14  1  0.08191848  0.32984661  0.82731643  1
  Ca2+  Ca15  1  0.06651104  0.83796561  0.16280421  1
  Ca2+  Ca16  1  0.07817640  0.83428634  0.49524990  1
  Ca2+  Ca17  1  0.07665941  0.83672156  0.82940922  1
  Ca2+  Ca18  1  0.58789017  0.33217586  0.16712330  1
  Ca2+  Ca19  1  0.59082245  0.32669025  0.49517498  1
  Ca2+  Ca20  1  0.58192053  0.32429885  0.82562733  1
  Ca2+  Ca21  1  0.58896864  0.82525068  0.15983505  1
  Ca2+  Ca22  1  0.59230402  0.82610509  0.49965656  1
  Ca2+  Ca23  1  0.57751837  0.82959800  0.82944785  1
  Ca2+  Ca24  1  0.33511284  0.42491321  0.16749534  1
  Ca2+  Ca25  1  0.32465559  0.41858610  0.50582884  1
  Ca2+  Ca26  1  0.32959329  0.42180946  0.83838726  1
  Ca2+  Ca27  1  0.33966946  0.92629166  0.16817174  1
  Ca2+  Ca28  1  0.33076189  0.91726543  0.50702754  1
  Ca2+  Ca29  1  0.33397581  0.91483771  0.83863274  1
  Ca2+  Ca30  1  0.82853518  0.42738376  0.17623693  1
  Ca2+  Ca31  1  0.83651688  0.42488650  0.50450837  1
  Ca2+  Ca32  1  0.83691825  0.42769388  0.83475507  1
  Ca2+  Ca33  1  0.82635803  0.91294406  0.17364787  1
  Ca2+  Ca34  1  0.82348349  0.91225971  0.49988099  1
  Ca2+  Ca35  1  0.81890935  0.91029817  0.84017968  1
  Ca2+  Ca36  1  0.41189335  0.16474229  0.16218563  1
  Ca2+  Ca37  1  0.42281541  0.16172992  0.49910588  1
  Ca2+  Ca38  1  0.42078606  0.16238990  0.83040706  1
  Ca2+  Ca39  1  0.42999670  0.67238531  0.15461818  1
  Ca2+  Ca40  1  0.42889003  0.67335100  0.49546027  1
  Ca2+  Ca41  1  0.42689507  0.67274731  0.82639578  1
  Ca2+  Ca42  1  0.91396033  0.17044496  0.16307481  1
  Ca2+  Ca43  1  0.91054168  0.17818137  0.49150125  1
  Ca2+  Ca44  1  0.92256592  0.17332493  0.82697851  1
  Ca2+  Ca45  1  0.90515150  0.67510024  0.16451727  1
  Ca2+  Ca46  1  0.91242396  0.66810616  0.49390989  1
  Ca2+  Ca47  1  0.90764338  0.66956697  0.83316222  1
  Al0+  Al48  1  -0.00055746  0.00141730  -0.00990480  1
  Al0+  Al49  1  0.00201464  0.00077429  0.33217258  1
  Al0+  Al50  1  0.00122883  0.00147284  0.66907367  1
  Al0+  Al51  1  -0.00116965  0.50015436  0.00573891  1
  Al0+  Al52  1  0.00154719  0.49922921  0.32839846  1
  Al0+  Al53  1  0.00080682  0.50055722  0.67299601  1
  Al0+  Al54  1  0.49943352  -0.00079214  0.00629119  1
  Al0+  Al55  1  0.49948643  -0.00019088  0.34196330  1
  Al0+  Al56  1  0.49978510  0.00090048  0.66216411  1
  Al0+  Al57  1  0.49966305  0.49836775  -0.00123402  1
  Al0+  Al58  1  0.49979031  0.49901298  0.33330251  1
  Al0+  Al59  1  0.50169285  0.49987823  0.66174570  1
  Al0+  Al60  1  0.24840566  0.24871868  -0.00112701  1
  Al0+  Al61  1  0.25122662  0.25015983  0.33817204  1
  Al0+  Al62  1  0.24944947  0.24935386  0.66989897  1
  Al0+  Al63  1  0.24751919  0.75024514  0.00351092  1
  Al0+  Al64  1  0.25179851  0.75111248  0.33300439  1
  Al0+  Al65  1  0.24932574  0.75097483  0.66714493  1
  Al0+  Al66  1  0.74984851  0.25060669  -0.00312742  1
  Al0+  Al67  1  0.74909572  0.24937444  0.33059484  1
  Al0+  Al68  1  0.75097478  0.25155904  0.65979408  1
  Al0+  Al69  1  0.74999941  0.74933937  0.00004382  1
  Al0+  Al70  1  0.75068797  0.74851005  0.33307869  1
  Al0+  Al71  1  0.74984583  0.75153739  0.67126530  1
  Al0+  Al72  1  0.32031929  0.07181416  0.34942192  1
  Al0+  Al73  1  0.42776070  0.82312493  0.98694705  1
  Al0+  Al74  1  0.67691790  0.42829747  0.34849082  1
  Al0+  Al75  1  0.81923563  0.56950707  0.01535190  1
  Al0+  Al76  1  0.42697551  0.82101190  0.65051290  1
  Al0+  Al77  1  0.32153922  0.57148464  0.01269903  1
  Al0+  Al78  1  0.82406222  0.07177377  0.34652767  1
  Al0+  Al79  1  0.17775175  0.92804835  0.68123687  1
  Al0+  Al80  1  0.67990584  0.93052614  0.01366862  1
  Al0+  Al81  1  0.17939918  0.42912155  0.68038004  1
  Al0+  Al82  1  0.57097668  0.67743698  0.98392872  1
  Al0+  Al83  1  0.82188422  0.56938804  0.34887263  1
  Al0+  Al84  1  0.07112788  0.18035150  0.98506307  1
  Al0+  Al85  1  0.93222597  0.32213141  0.65324781  1
  Al0+  Al86  1  0.31909390  0.06925350  0.01293541  1
  Al0+  Al87  1  0.68044980  0.92725919  0.34991459  1
  Al0+  Al88  1  0.67992736  0.93134244  0.68258594  1
  Al0+  Al89  1  0.81945453  0.57020053  0.68167827  1
  Al0+  Al90  1  0.93105858  0.82013884  0.32183235  1
  Al0+  Al91  1  0.92752834  0.32108290  0.31713209  1
  Al0+  Al92  1  0.56967703  0.67933756  0.31853375  1
  Al0+  Al93  1  0.57373861  0.67912236  0.64915875  1
  Al0+  Al94  1  0.92933323  0.81947510  0.98473923  1
  Al0+  Al95  1  0.57036548  0.17952687  0.65236282  1
  Si0+  Si96  1  0.07041961  0.67968344  0.65441543  1
  Si0+  Si97  1  0.32174031  0.57235551  0.34842161  1
  Si0+  Si98  1  0.07279116  0.67603523  0.98312632  1
  Si0+  Si99  1  0.07569694  0.67643871  0.31653188  1
  Si0+  Si100  1  0.42783214  0.32049177  0.98563420  1
  Si0+  Si101  1  0.32369994  0.57175418  0.68153702  1
  Si0+  Si102  1  0.67681675  0.42381206  0.01494922  1
  Si0+  Si103  1  0.17367997  0.92785676  0.01751551  1
  Si0+  Si104  1  0.42642831  0.82317223  0.31580365  1
  Si0+  Si105  1  0.82325140  0.07390655  0.01302158  1
  Si0+  Si106  1  0.07316684  0.17722256  0.64784505  1
  Si0+  Si107  1  0.67722585  0.42574918  0.68321959  1
  Si0+  Si108  1  0.07415292  0.17951478  0.31796115  1
  Si0+  Si109  1  0.17868221  0.42731101  0.01856035  1
  Si0+  Si110  1  0.42704257  0.31961354  0.31812294  1
  Si0+  Si111  1  0.32127347  0.07071911  0.68446219  1
  Si0+  Si112  1  0.92739591  0.32318128  0.98235575  1
  Si0+  Si113  1  0.56965148  0.17737716  0.31698233  1
  Si0+  Si114  1  0.42627224  0.32244809  0.64999329  1
  Si0+  Si115  1  0.18095222  0.43002231  0.34685075  1
  Si0+  Si116  1  0.57050873  0.17871937  0.98798448  1
  Si0+  Si117  1  0.92921892  0.82205427  0.65262825  1
  Si0+  Si118  1  0.82211812  0.07551858  0.68346484  1
  Si0+  Si119  1  0.17817461  0.92719026  0.34885885  1
  O2-  O120  1  0.24589781  -0.00659632  0.06104998  1
  O2-  O121  1  0.24774764  -0.00557558  0.39370248  1
  O2-  O122  1  0.25337062  0.00155943  0.72813431  1
  O2-  O123  1  0.24544645  0.49827468  0.06227392  1
  O2-  O124  1  0.24711820  0.50501095  0.39048880  1
  O2-  O125  1  0.25813497  0.49981198  0.72594587  1
  O2-  O126  1  0.75662096  0.00467309  0.05801034  1
  O2-  O127  1  0.75369204  -0.00043388  0.39838586  1
  O2-  O128  1  0.75457655  0.00696596  0.72920712  1
  O2-  O129  1  0.74348472  0.49413779  0.05829249  1
  O2-  O130  1  0.75086515  0.49701652  0.39999814  1
  O2-  O131  1  0.74204809  0.49713910  0.72808302  1
  O2-  O132  1  0.00011025  0.24220871  0.27298979  1
  O2-  O133  1  0.00422232  0.24534251  0.60414375  1
  O2-  O134  1  -0.00422887  0.25443962  0.93833862  1
  O2-  O135  1  0.00606073  0.74491958  0.27466863  1
  O2-  O136  1  0.00151807  0.75180056  0.61114608  1
  O2-  O137  1  0.00495560  0.74474233  0.93799274  1
  O2-  O138  1  0.49852211  0.24931413  0.27495254  1
  O2-  O139  1  0.49682446  0.25633309  0.60553098  1
  O2-  O140  1  0.50044293  0.25073176  0.94486997  1
  O2-  O141  1  0.49575860  0.75554928  0.27250350  1
  O2-  O142  1  0.50055113  0.75086888  0.60011353  1
  O2-  O143  1  0.49593776  0.74802336  0.93645831  1
  O2-  O144  1  0.07223874  0.18333655  0.09836599  1
  O2-  O145  1  0.07739632  0.18349269  0.42330606  1
  O2-  O146  1  0.07321363  0.17849763  0.75351520  1
  O2-  O147  1  0.07378620  0.67690525  0.08870173  1
  O2-  O148  1  0.07910957  0.67562958  0.42235053  1
  O2-  O149  1  0.07094353  0.67921495  0.75924727  1
  O2-  O150  1  0.57020266  0.18089108  0.09295387  1
  O2-  O151  1  0.56782718  0.17862896  0.42195760  1
  O2-  O152  1  0.56698905  0.18018020  0.76638464  1
  O2-  O153  1  0.57070047  0.67752487  0.09770715  1
  O2-  O154  1  0.56800607  0.67946334  0.43134057  1
  O2-  O155  1  0.57205694  0.67970313  0.76253080  1
  O2-  O156  1  0.18484365  0.42776458  0.24192461  1
  O2-  O157  1  0.17948403  0.43281763  0.56672993  1
  O2-  O158  1  0.18042175  0.42707417  0.91289729  1
  O2-  O159  1  0.17752534  0.92705130  0.24346125  1
  O2-  O160  1  0.17629542  0.93055180  0.56785450  1
  O2-  O161  1  0.17313378  0.93016114  0.91190268  1
  O2-  O162  1  0.67654453  0.42999189  0.23435593  1
  O2-  O163  1  0.67951874  0.42349176  0.57813292  1
  O2-  O164  1  0.67797260  0.41697775  0.90973578  1
  O2-  O165  1  0.68021557  0.92825285  0.23610563  1
  O2-  O166  1  0.68405425  0.93034237  0.56992363  1
  O2-  O167  1  0.67815534  0.93334358  0.90041812  1
  O2-  O168  1  0.42605411  0.32047163  0.09092764  1
  O2-  O169  1  0.42317142  0.31877424  0.42285762  1
  O2-  O170  1  0.42576235  0.32195577  0.75589953  1
  O2-  O171  1  0.43135989  0.82376286  0.10068313  1
  O2-  O172  1  0.42038868  0.81951406  0.42092285  1
  O2-  O173  1  0.42580870  0.81892217  0.76404421  1
  O2-  O174  1  0.92706657  0.32124497  0.08783896  1
  O2-  O175  1  0.93260180  0.32401169  0.43017889  1
  O2-  O176  1  0.93502738  0.32101134  0.76659484  1
  O2-  O177  1  0.93006058  0.82011973  0.09789785  1
  O2-  O178  1  0.93413578  0.81873066  0.43539120  1
  O2-  O179  1  0.92965946  0.82062652  0.75774521  1
  O2-  O180  1  0.31778751  0.07424398  0.23622740  1
  O2-  O181  1  0.31829601  0.07297148  0.57884445  1
  O2-  O182  1  0.31870838  0.07127539  0.90020777  1
  O2-  O183  1  0.32094415  0.57047875  0.24323144  1
  O2-  O184  1  0.31995969  0.57080207  0.57548007  1
  O2-  O185  1  0.32005260  0.56619265  0.89977468  1
  O2-  O186  1  0.82102516  0.07098029  0.23235020  1
  O2-  O187  1  0.82201570  0.07495011  0.57806328  1
  O2-  O188  1  0.82051906  0.07657021  0.90751639  1
  O2-  O189  1  0.82010150  0.56923055  0.23536788  1
  O2-  O190  1  0.82344058  0.56969936  0.56911761  1
  O2-  O191  1  0.82033416  0.56722946  0.90209920  1
  O2-  O192  1  0.05738281  0.08378671  0.27318230  1
  O2-  O193  1  0.04883312  0.08290803  0.60263072  1
  O2-  O194  1  0.04322525  0.08528046  0.92715627  1
  O2-  O195  1  0.05414234  0.58295505  0.26876008  1
  O2-  O196  1  0.04123161  0.58841244  0.60660029  1
  O2-  O197  1  0.04747725  0.58084472  0.93950758  1
  O2-  O198  1  0.53923124  0.08520469  0.27182862  1
  O2-  O199  1  0.53746971  0.08577334  0.59525812  1
  O2-  O200  1  0.53894777  0.08849397  0.94088824  1
  O2-  O201  1  0.53681840  0.58218382  0.26589417  1
  O2-  O202  1  0.54885559  0.57879410  0.59747693  1
  O2-  O203  1  0.54547183  0.57700197  0.93245843  1
  O2-  O204  1  0.16546934  0.21357149  0.27071734  1
  O2-  O205  1  0.16772292  0.20310341  0.60358855  1
  O2-  O206  1  0.16659379  0.21311441  0.92904597  1
  O2-  O207  1  0.16917256  0.70396298  0.26952990  1
  O2-  O208  1  0.16202090  0.70461727  0.60473458  1
  O2-  O209  1  0.16696035  0.69927310  0.93705378  1
  O2-  O210  1  0.66035856  0.20418885  0.26729816  1
  O2-  O211  1  0.66657402  0.20852517  0.59715715  1
  O2-  O212  1  0.66191615  0.20476580  0.93812478  1
  O2-  O213  1  0.66679806  0.70918087  0.26597968  1
  O2-  O214  1  0.67204185  0.71230019  0.59839415  1
  O2-  O215  1  0.66806383  0.70946294  0.93213189  1
  O2-  O216  1  0.08444196  0.44985780  0.06437071  1
  O2-  O217  1  0.08822319  0.45526345  0.39278238  1
  O2-  O218  1  0.08717034  0.46409284  0.73874279  1
  O2-  O219  1  0.08117709  0.96027277  0.06233879  1
  O2-  O220  1  0.08586618  0.95368150  0.39666430  1
  O2-  O221  1  0.08181252  0.96000351  0.73692542  1
  O2-  O222  1  0.58153044  0.44478353  0.05941862  1
  O2-  O223  1  0.57697575  0.45268325  0.40098950  1
  O2-  O224  1  0.58046907  0.44560871  0.72628298  1
  O2-  O225  1  0.58589782  0.96337156  0.07075016  1
  O2-  O226  1  0.58255077  0.95558421  0.40325015  1
  O2-  O227  1  0.58206465  0.96437501  0.73272964  1
  O2-  O228  1  0.20835236  0.33526645  0.06482841  1
  O2-  O229  1  0.21285056  0.34129235  0.39753599  1
  O2-  O230  1  0.20722822  0.33176266  0.73476280  1
  O2-  O231  1  0.19155574  0.83267757  0.06298479  1
  O2-  O232  1  0.20251227  0.83292427  0.39555163  1
  O2-  O233  1  0.20447855  0.83039190  0.73513035  1
  O2-  O234  1  0.70430866  0.33106251  0.06383059  1
  O2-  O235  1  0.70147377  0.32751329  0.39685781  1
  O2-  O236  1  0.70542572  0.33260124  0.72985361  1
  O2-  O237  1  0.71248230  0.83452246  0.06608886  1
  O2-  O238  1  0.71249088  0.83042049  0.40273652  1
  O2-  O239  1  0.71243703  0.83625857  0.73778052  1
  O2-  O240  1  0.45348295  0.41153832  0.26985503  1
  O2-  O241  1  0.44680598  0.41672988  0.60327530  1
  O2-  O242  1  0.45395149  0.41112556  0.93564360  1
  O2-  O243  1  0.45106348  0.91931809  0.27507202  1
  O2-  O244  1  0.45091178  0.92076418  0.59933836  1
  O2-  O245  1  0.45826454  0.92153572  0.93465297  1
  O2-  O246  1  0.96369914  0.41544091  0.26106134  1
  O2-  O247  1  0.96832975  0.41811105  0.60074290  1
  O2-  O248  1  0.95541839  0.41707963  0.93848356  1
  O2-  O249  1  0.96183287  0.91681485  0.26620767  1
  O2-  O250  1  0.95668554  0.91479983  0.60677629  1
  O2-  O251  1  0.95752304  0.91574580  0.92850384  1
  O2-  O252  1  0.33610209  0.28987861  0.26909844  1
  O2-  O253  1  0.33281702  0.29400407  0.60391180  1
  O2-  O254  1  0.33722607  0.29111157  0.93703315  1
  O2-  O255  1  0.33263274  0.79845553  0.26823229  1
  O2-  O256  1  0.32807007  0.79160322  0.59702869  1
  O2-  O257  1  0.32524736  0.80070200  0.93968453  1
  O2-  O258  1  0.83073368  0.29237973  0.26223320  1
  O2-  O259  1  0.83524615  0.29594579  0.59850762  1
  O2-  O260  1  0.83379328  0.29848168  0.93515495  1
  O2-  O261  1  0.83559077  0.78845439  0.26679562  1
  O2-  O262  1  0.83849495  0.79197722  0.60633715  1
  O2-  O263  1  0.83429999  0.78573062  0.93034675  1
  O2-  O264  1  0.41481417  0.04190562  0.07049264  1
  O2-  O265  1  0.41606523  0.04385695  0.40516203  1
  O2-  O266  1  0.41561807  0.04693105  0.72858582  1
  O2-  O267  1  0.41655676  0.53610409  0.06790652  1
  O2-  O268  1  0.41047705  0.53930363  0.39681745  1
  O2-  O269  1  0.41834139  0.54745100  0.72576511  1
  O2-  O270  1  0.91855517  0.05078018  0.05598076  1
  O2-  O271  1  0.92481219  0.05008530  0.39787459  1
  O2-  O272  1  0.91696097  0.05164488  0.72804708  1
  O2-  O273  1  0.91649197  0.54138294  0.07037117  1
  O2-  O274  1  0.92365363  0.54345259  0.39739596  1
  O2-  O275  1  0.91491698  0.53786608  0.73747278  1
  O2-  O276  1  0.28677722  0.16626831  0.06699090  1
  O2-  O277  1  0.28799651  0.16721921  0.40544528  1
  O2-  O278  1  0.29625934  0.16464234  0.73106618  1
  O2-  O279  1  0.29076510  0.66706816  0.06967652  1
  O2-  O280  1  0.29692556  0.66520049  0.39513451  1
  O2-  O281  1  0.29344253  0.66312269  0.72788784  1
  O2-  O282  1  0.79724140  0.16793490  0.05916716  1
  O2-  O283  1  0.79318029  0.16975453  0.39791069  1
  O2-  O284  1  0.79683513  0.16993379  0.72824465  1
  O2-  O285  1  0.78826845  0.66587672  0.06821364  1
  O2-  O286  1  0.79302310  0.66721832  0.40135830  1
  O2-  O287  1  0.79008801  0.66686482  0.73621343  1
