# generated using pymatgen
data_Ca2Al2SiO7
_symmetry_space_group_name_H-M   'P 1'
_cell_length_a   15.45827798
_cell_length_b   15.45824375
_cell_length_c   15.28318683
_cell_angle_alpha   89.99871158
_cell_angle_beta   90.00542730
_cell_angle_gamma   89.99723918
_symmetry_Int_Tables_number   1
_chemical_formula_structural   Ca2Al2SiO7
_chemical_formula_sum   'Ca48 Al48 Si24 O168'
_cell_volume   3652.03712112
_cell_formula_units_Z   24
loop_
 _symmetry_equiv_pos_site_id
 _symmetry_equiv_pos_as_xyz
  1  'x, y, z'
loop_
 _atom_type_symbol
 _atom_type_oxidation_number
  Ca2+  2.0
  Al0+  0.0
  Si0+  0.0
  O2-  -2.0
loop_
 _atom_site_type_symbol
 _atom_site_label
 _atom_site_symmetry_multiplicity
 _atom_site_fract_x
 _atom_site_fract_y
 _atom_site_fract_z
 _atom_site_occupancy
  Ca2+  Ca0  1  0.16830348  0.07920195  0.16946467  1
  Ca2+  Ca1  1  0.16307524  0.07677161  0.50516805  1
  Ca2+  Ca2  1  0.17399155  0.06786504  0.84297168  1
  Ca2+  Ca3  1  0.17434179  0.59318893  0.17256750  1
  Ca2+  Ca4  1  0.16927944  0.58662144  0.50292192  1
  Ca2+  Ca5  1  0.16891005  0.58572163  0.83788213  1
  Ca2+  Ca6  1  0.67489805  0.07949066  0.17772239  1
  Ca2+  Ca7  1  0.66579374  0.08092956  0.49367371  1
  Ca2+  Ca8  1  0.67322990  0.07955850  0.84154215  1
  Ca2+  Ca9  1  0.66710763  0.58025100  0.17301369  1
  Ca2+  Ca10  1  0.67335158  0.58249099  0.50446819  1
  Ca2+  Ca11  1  0.65411033  0.57542192  0.83786432  1
  Ca2+  Ca12  1  0.07662500  0.32922852  0.16957748  1
  Ca2+  Ca13  1  0.08219970  0.32776733  0.48862142  1
  Ca2+  Ca14  1  0.08311835  0.33339308  0.82690261  1
  Ca2+  Ca15  1  0.08180262  0.82535778  0.16504879  1
  Ca2+  Ca16  1  0.08145792  0.82464619  0.49343365  1
  Ca2+  Ca17  1  0.09339119  0.82578279  0.83079888  1
  Ca2+  Ca18  1  0.58279925  0.33293991  0.16585869  1
  Ca2+  Ca19  1  0.58134420  0.32982802  0.49258751  1
  Ca2+  Ca20  1  0.58527181  0.33664339  0.82990484  1
  Ca2+  Ca21  1  0.58104803  0.83020480  0.16455125  1
  Ca2+  Ca22  1  0.57293945  0.83495184  0.49229203  1
  Ca2+  Ca23  1  0.57696960  0.81896584  0.82385726  1
  Ca2+  Ca24  1  0.33581063  0.43003525  0.17442355  1
  Ca2+  Ca25  1  0.33014939  0.42108720  0.50149166  1
  Ca2+  Ca26  1  0.32554729  0.42421155  0.83907667  1
  Ca2+  Ca27  1  0.32840315  0.91328715  0.17047580  1
  Ca2+  Ca28  1  0.33163603  0.91244480  0.50414558  1
  Ca2+  Ca29  1  0.32577985  0.91141128  0.83647111  1
  Ca2+  Ca30  1  0.83013383  0.42126523  0.17418953  1
  Ca2+  Ca31  1  0.83405971  0.42036588  0.50056153  1
  Ca2+  Ca32  1  0.82012817  0.42015637  0.83798762  1
  Ca2+  Ca33  1  0.82970190  0.92196974  0.17928089  1
  Ca2+  Ca34  1  0.83381535  0.91659646  0.49470759  1
  Ca2+  Ca35  1  0.83342228  0.92334323  0.84005134  1
  Ca2+  Ca36  1  0.41960362  0.17019936  0.16618237  1
  Ca2+  Ca37  1  0.42201667  0.17689831  0.48569714  1
  Ca2+  Ca38  1  0.41354079  0.16602447  0.83224772  1
  Ca2+  Ca39  1  0.41539949  0.66817735  0.16289200  1
  Ca2+  Ca40  1  0.41823736  0.67542014  0.49567212  1
  Ca2+  Ca41  1  0.42195774  0.66623720  0.83049982  1
  Ca2+  Ca42  1  0.91400245  0.16378354  0.16799217  1
  Ca2+  Ca43  1  0.92219466  0.17334240  0.48616932  1
  Ca2+  Ca44  1  0.91464114  0.16608530  0.83278311  1
  Ca2+  Ca45  1  0.92320188  0.66693052  0.16548424  1
  Ca2+  Ca46  1  0.92752780  0.66665819  0.48849987  1
  Ca2+  Ca47  1  0.93044393  0.66600009  0.82900622  1
  Al0+  Al48  1  0.00033117  0.00072150  0.00628613  1
  Al0+  Al49  1  0.00003234  -0.00131581  0.33153328  1
  Al0+  Al50  1  0.00143793  0.00052073  0.67273923  1
  Al0+  Al51  1  -0.00227091  0.49862177  -0.00676798  1
  Al0+  Al52  1  0.00123993  0.49750869  0.32851097  1
  Al0+  Al53  1  -0.00053463  0.49982721  0.66770027  1
  Al0+  Al54  1  0.49971059  0.00153318  0.00005445  1
  Al0+  Al55  1  0.49887045  0.00027368  0.32858481  1
  Al0+  Al56  1  0.50256711  0.00140642  0.66499092  1
  Al0+  Al57  1  0.49753661  0.49836451  0.00411193  1
  Al0+  Al58  1  0.49839254  0.50131111  0.33776250  1
  Al0+  Al59  1  0.50079371  0.49934009  0.66536438  1
  Al0+  Al60  1  0.24860698  0.24955353  0.00127932  1
  Al0+  Al61  1  0.25047152  0.25075467  0.32412337  1
  Al0+  Al62  1  0.25003442  0.25075321  0.67019310  1
  Al0+  Al63  1  0.24916741  0.74949378  0.00287943  1
  Al0+  Al64  1  0.25233374  0.75013746  0.33212383  1
  Al0+  Al65  1  0.25066402  0.75044697  0.66348067  1
  Al0+  Al66  1  0.74848181  0.25078617  0.00597266  1
  Al0+  Al67  1  0.75029832  0.24914570  0.33092213  1
  Al0+  Al68  1  0.75042483  0.25215500  0.67039510  1
  Al0+  Al69  1  0.75070499  0.74855314  -0.00790555  1
  Al0+  Al70  1  0.74967390  0.74926390  0.34013905  1
  Al0+  Al71  1  0.75238845  0.75135508  0.66592166  1
  Al0+  Al72  1  0.82251489  0.07130783  0.35063019  1
  Al0+  Al73  1  0.92819093  0.32122703  0.31816914  1
  Al0+  Al74  1  0.31789671  0.56851870  0.01288518  1
  Al0+  Al75  1  0.07178392  0.67845258  0.31829491  1
  Al0+  Al76  1  0.17789136  0.42793998  0.67914891  1
  Al0+  Al77  1  0.07086293  0.67974746  0.98492272  1
  Al0+  Al78  1  0.07205459  0.17606313  0.31796860  1
  Al0+  Al79  1  0.67836489  0.43150573  0.01553938  1
  Al0+  Al80  1  0.68026915  0.43096993  0.67980715  1
  Al0+  Al81  1  0.18037513  0.92888244  0.67920628  1
  Al0+  Al82  1  0.43063423  0.82158986  0.65155187  1
  Al0+  Al83  1  0.42889585  0.32446345  0.31719681  1
  Al0+  Al84  1  0.32100526  0.57281978  0.35004190  1
  Al0+  Al85  1  0.06982511  0.67887535  0.65231821  1
  Al0+  Al86  1  0.18069621  0.92775539  0.01844379  1
  Al0+  Al87  1  0.57077096  0.67749443  0.98784650  1
  Al0+  Al88  1  0.57275236  0.67580271  0.64952591  1
  Al0+  Al89  1  0.57066907  0.17952191  0.31719513  1
  Al0+  Al90  1  0.82301340  0.57031603  0.34590112  1
  Al0+  Al91  1  0.67652872  0.92820202  0.34890577  1
  Al0+  Al92  1  0.32297575  0.07306322  0.01688310  1
  Al0+  Al93  1  0.42961674  0.82085437  0.31782889  1
  Al0+  Al94  1  0.81919519  0.06990764  0.01447862  1
  Al0+  Al95  1  0.92671877  0.81957595  0.31936768  1
  Si0+  Si96  1  0.42776858  0.31955937  0.65358403  1
  Si0+  Si97  1  0.57250688  0.67809651  0.31875991  1
  Si0+  Si98  1  0.07078443  0.17847167  0.98249178  1
  Si0+  Si99  1  0.92855092  0.82615615  0.65089845  1
  Si0+  Si100  1  0.67722283  0.92888690  0.68286638  1
  Si0+  Si101  1  0.32020518  0.07277247  0.34770266  1
  Si0+  Si102  1  0.92835315  0.82420451  0.98259397  1
  Si0+  Si103  1  0.42849993  0.82276495  0.98359437  1
  Si0+  Si104  1  0.07078308  0.17935567  0.65536608  1
  Si0+  Si105  1  0.42826288  0.32072417  0.98320405  1
  Si0+  Si106  1  0.17370021  0.42682205  0.01701536  1
  Si0+  Si107  1  0.32070967  0.57116195  0.68292210  1
  Si0+  Si108  1  0.92679962  0.31925860  0.98197996  1
  Si0+  Si109  1  0.17953453  0.42717277  0.34771946  1
  Si0+  Si110  1  0.81981871  0.07125600  0.68179261  1
  Si0+  Si111  1  0.57371672  0.18040144  0.65341867  1
  Si0+  Si112  1  0.32413188  0.07338964  0.68076650  1
  Si0+  Si113  1  0.18025448  0.92945661  0.34937272  1
  Si0+  Si114  1  0.67792864  0.42847566  0.35053305  1
  Si0+  Si115  1  0.82333654  0.57417918  0.68459284  1
  Si0+  Si116  1  0.67817849  0.92485514  0.01336618  1
  Si0+  Si117  1  0.92824916  0.31935269  0.65360574  1
  Si0+  Si118  1  0.82357601  0.57236656  0.01453397  1
  Si0+  Si119  1  0.57168560  0.18033638  0.98360698  1
  O2-  O120  1  0.25385438  -0.00068285  0.06764554  1
  O2-  O121  1  0.24823122  0.00397915  0.39179731  1
  O2-  O122  1  0.25844127  0.00165163  0.72423881  1
  O2-  O123  1  0.23980143  0.49745935  0.06039927  1
  O2-  O124  1  0.24574698  0.49702621  0.39405047  1
  O2-  O125  1  0.25026479  0.50386862  0.72724672  1
  O2-  O126  1  0.74736568  -0.00802268  0.05821676  1
  O2-  O127  1  0.75010496  -0.00075397  0.40028111  1
  O2-  O128  1  0.75054752  -0.00152222  0.72439203  1
  O2-  O129  1  0.75072541  0.50895181  0.05935750  1
  O2-  O130  1  0.74843719  0.49551513  0.39404105  1
  O2-  O131  1  0.74891844  0.51079169  0.72831032  1
  O2-  O132  1  -0.00348412  0.24520846  0.26852026  1
  O2-  O133  1  0.00320241  0.25247863  0.61209940  1
  O2-  O134  1  -0.00034396  0.24962782  0.93911226  1
  O2-  O135  1  -0.00308965  0.74718983  0.26808935  1
  O2-  O136  1  -0.00641633  0.75336394  0.60849480  1
  O2-  O137  1  -0.00298973  0.75565860  0.93762087  1
  O2-  O138  1  0.50168193  0.25389715  0.26630664  1
  O2-  O139  1  0.49853333  0.24760531  0.61274407  1
  O2-  O140  1  0.49755578  0.24772414  0.93957098  1
  O2-  O141  1  0.50545716  0.74706809  0.27284544  1
  O2-  O142  1  0.50401481  0.75129411  0.60082664  1
  O2-  O143  1  0.49945139  0.75567636  0.94045148  1
  O2-  O144  1  0.07077122  0.17990219  0.08687718  1
  O2-  O145  1  0.07401966  0.17889930  0.43285193  1
  O2-  O146  1  0.06820779  0.17943152  0.76060856  1
  O2-  O147  1  0.06890783  0.67905828  0.09713727  1
  O2-  O148  1  0.07225115  0.68046385  0.43229128  1
  O2-  O149  1  0.06989809  0.67972961  0.76580557  1
  O2-  O150  1  0.57335267  0.18226955  0.08770216  1
  O2-  O151  1  0.56765319  0.18126021  0.43208216  1
  O2-  O152  1  0.57524327  0.18088116  0.75892586  1
  O2-  O153  1  0.57115586  0.67847689  0.10059560  1
  O2-  O154  1  0.57061555  0.67815693  0.42429130  1
  O2-  O155  1  0.56729985  0.67528349  0.76366386  1
  O2-  O156  1  0.18087369  0.42688451  0.24216902  1
  O2-  O157  1  0.18116473  0.42202796  0.56688689  1
  O2-  O158  1  0.17628068  0.42578436  0.91066805  1
  O2-  O159  1  0.18264709  0.92875679  0.24458443  1
  O2-  O160  1  0.17696947  0.93302162  0.56635815  1
  O2-  O161  1  0.18252033  0.92815362  0.90404846  1
  O2-  O162  1  0.67675069  0.43138578  0.24484595  1
  O2-  O163  1  0.68500308  0.42486662  0.56760762  1
  O2-  O164  1  0.67942296  0.42997561  0.90184948  1
  O2-  O165  1  0.67676285  0.92890126  0.23493225  1
  O2-  O166  1  0.67405793  0.93142930  0.57863096  1
  O2-  O167  1  0.67939131  0.92824292  0.90696037  1
  O2-  O168  1  0.43037880  0.32147639  0.08748042  1
  O2-  O169  1  0.42841741  0.32145568  0.43189034  1
  O2-  O170  1  0.42701166  0.31840720  0.75903749  1
  O2-  O171  1  0.42959837  0.82231723  0.08896488  1
  O2-  O172  1  0.42817290  0.82080253  0.43094198  1
  O2-  O173  1  0.43162306  0.82164471  0.76554063  1
  O2-  O174  1  0.92712300  0.32010671  0.08627687  1
  O2-  O175  1  0.93164554  0.32140142  0.43278396  1
  O2-  O176  1  0.92627535  0.31545305  0.75907248  1
  O2-  O177  1  0.92592145  0.82283891  0.08744465  1
  O2-  O178  1  0.93155292  0.81940890  0.43353359  1
  O2-  O179  1  0.92884487  0.82881260  0.75675330  1
  O2-  O180  1  0.31930710  0.07155583  0.24298014  1
  O2-  O181  1  0.32194066  0.07799343  0.57546583  1
  O2-  O182  1  0.32005009  0.07416428  0.90237871  1
  O2-  O183  1  0.32053207  0.57250519  0.23686396  1
  O2-  O184  1  0.32002736  0.56920284  0.57757173  1
  O2-  O185  1  0.31855944  0.56599402  0.89916160  1
  O2-  O186  1  0.82004399  0.06911220  0.23721115  1
  O2-  O187  1  0.82048875  0.07369543  0.57770620  1
  O2-  O188  1  0.81716267  0.07058569  0.89993167  1
  O2-  O189  1  0.82011394  0.56929575  0.23253921  1
  O2-  O190  1  0.82623264  0.56966927  0.57934253  1
  O2-  O191  1  0.82639827  0.56808479  0.90877981  1
  O2-  O192  1  0.04701375  0.07774191  0.26509075  1
  O2-  O193  1  0.04071519  0.08822073  0.60840107  1
  O2-  O194  1  0.04171016  0.08617728  0.93596996  1
  O2-  O195  1  0.04900754  0.57908824  0.26638458  1
  O2-  O196  1  0.04021605  0.58089612  0.60003127  1
  O2-  O197  1  0.03992102  0.58255097  0.92960004  1
  O2-  O198  1  0.53936702  0.08345818  0.26290338  1
  O2-  O199  1  0.55159652  0.08758609  0.60636238  1
  O2-  O200  1  0.54766792  0.08699941  0.93538434  1
  O2-  O201  1  0.54564713  0.58458182  0.27404838  1
  O2-  O202  1  0.54460759  0.57737264  0.59683634  1
  O2-  O203  1  0.53408370  0.58155178  0.93464826  1
  O2-  O204  1  0.16751575  0.20723999  0.26134179  1
  O2-  O205  1  0.16398451  0.20390573  0.60934867  1
  O2-  O206  1  0.16269513  0.20653742  0.93433026  1
  O2-  O207  1  0.16812837  0.71296604  0.26624068  1
  O2-  O208  1  0.16630857  0.70915314  0.59932096  1
  O2-  O209  1  0.16812968  0.71078755  0.93134127  1
  O2-  O210  1  0.66969208  0.20402713  0.26548367  1
  O2-  O211  1  0.66350387  0.21358335  0.60575246  1
  O2-  O212  1  0.66248947  0.21224854  0.93521315  1
  O2-  O213  1  0.66667231  0.70151902  0.27404718  1
  O2-  O214  1  0.67489438  0.70001043  0.60321339  1
  O2-  O215  1  0.66806401  0.70187398  0.92994371  1
  O2-  O216  1  0.07772987  0.44875010  0.05833671  1
  O2-  O217  1  0.08490124  0.44877821  0.39284692  1
  O2-  O218  1  0.08024966  0.45471375  0.73399059  1
  O2-  O219  1  0.08260930  0.95751118  0.06957259  1
  O2-  O220  1  0.08766523  0.95442179  0.39607653  1
  O2-  O221  1  0.08603213  0.96235609  0.73739320  1
  O2-  O222  1  0.58163783  0.45841955  0.06932990  1
  O2-  O223  1  0.58530325  0.45485286  0.39829519  1
  O2-  O224  1  0.58125558  0.45577213  0.73367030  1
  O2-  O225  1  0.58426878  0.95050672  0.05730597  1
  O2-  O226  1  0.57855054  0.96231457  0.40140827  1
  O2-  O227  1  0.58731333  0.95973642  0.73314083  1
  O2-  O228  1  0.20000811  0.33351813  0.06171184  1
  O2-  O229  1  0.20746076  0.33326115  0.39323042  1
  O2-  O230  1  0.20982565  0.33250965  0.73734958  1
  O2-  O231  1  0.20846574  0.83007184  0.07143085  1
  O2-  O232  1  0.21293333  0.83946703  0.39694191  1
  O2-  O233  1  0.21149357  0.83230088  0.73340078  1
  O2-  O234  1  0.71158254  0.33650053  0.06946075  1
  O2-  O235  1  0.70165735  0.33370328  0.39445024  1
  O2-  O236  1  0.71540024  0.33625721  0.73772420  1
  O2-  O237  1  0.70158798  0.82984850  0.05661925  1
  O2-  O238  1  0.70228156  0.83057979  0.40470175  1
  O2-  O239  1  0.70390414  0.83622168  0.72989638  1
  O2-  O240  1  0.45754115  0.42343229  0.26638210  1
  O2-  O241  1  0.45542381  0.41067872  0.60613348  1
  O2-  O242  1  0.45867848  0.41100295  0.93436167  1
  O2-  O243  1  0.45677077  0.91724738  0.26298301  1
  O2-  O244  1  0.45734871  0.92198999  0.60009506  1
  O2-  O245  1  0.45033381  0.91790375  0.93769518  1
  O2-  O246  1  0.96028179  0.41590687  0.26030939  1
  O2-  O247  1  0.95116629  0.41277588  0.60871234  1
  O2-  O248  1  0.95223625  0.41053601  0.93148263  1
  O2-  O249  1  0.95503528  0.91748890  0.26701806  1
  O2-  O250  1  0.95819689  0.91899157  0.60523014  1
  O2-  O251  1  0.95427291  0.91894859  0.93773555  1
  O2-  O252  1  0.33260634  0.29606925  0.26161133  1
  O2-  O253  1  0.33629561  0.29157322  0.60539889  1
  O2-  O254  1  0.33500776  0.29433776  0.93620487  1
  O2-  O255  1  0.33503367  0.78732630  0.26299009  1
  O2-  O256  1  0.33278058  0.79324305  0.59833123  1
  O2-  O257  1  0.33570338  0.79331831  0.93833796  1
  O2-  O258  1  0.82902864  0.29807170  0.26574438  1
  O2-  O259  1  0.83847494  0.28709286  0.60539009  1
  O2-  O260  1  0.83521585  0.28744489  0.93519255  1
  O2-  O261  1  0.82669812  0.79379457  0.26908171  1
  O2-  O262  1  0.83302915  0.80673456  0.60677878  1
  O2-  O263  1  0.83526918  0.80020894  0.93290124  1
  O2-  O264  1  0.42421321  0.05121053  0.06628145  1
  O2-  O265  1  0.41161928  0.04435866  0.39494715  1
  O2-  O266  1  0.41964705  0.05253755  0.72601748  1
  O2-  O267  1  0.41175139  0.53419223  0.06880815  1
  O2-  O268  1  0.41667193  0.54166928  0.40600214  1
  O2-  O269  1  0.41370622  0.54195229  0.72834309  1
  O2-  O270  1  0.91692549  0.04572898  0.06705080  1
  O2-  O271  1  0.92199310  0.04333199  0.40291317  1
  O2-  O272  1  0.91152528  0.04498717  0.73144386  1
  O2-  O273  1  0.91515188  0.54061275  0.06079083  1
  O2-  O274  1  0.91977809  0.53699610  0.39925911  1
  O2-  O275  1  0.91377331  0.54134157  0.73351919  1
  O2-  O276  1  0.29255831  0.17140252  0.06837282  1
  O2-  O277  1  0.29437256  0.16651581  0.39299865  1
  O2-  O278  1  0.29565353  0.16474308  0.73067764  1
  O2-  O279  1  0.29152754  0.66561436  0.06638414  1
  O2-  O280  1  0.28868812  0.66882140  0.40430957  1
  O2-  O281  1  0.29631978  0.66506958  0.72813770  1
  O2-  O282  1  0.78597709  0.16489312  0.06804102  1
  O2-  O283  1  0.79406884  0.17097061  0.40223298  1
  O2-  O284  1  0.78914281  0.16154856  0.73162458  1
  O2-  O285  1  0.80350491  0.66890473  0.05558491  1
  O2-  O286  1  0.79374880  0.66492204  0.40412517  1
  O2-  O287  1  0.80671467  0.67082509  0.72839814  1
