# generated using pymatgen
data_Ca2Al2SiO7
_symmetry_space_group_name_H-M   'P 1'
_cell_length_a   15.46814854
_cell_length_b   15.46804704
_cell_length_c   15.29070129
_cell_angle_alpha   89.99935654
_cell_angle_beta   90.00791865
_cell_angle_gamma   90.00548997
_symmetry_Int_Tables_number   1
_chemical_formula_structural   Ca2Al2SiO7
_chemical_formula_sum   'Ca48 Al48 Si24 O168'
_cell_volume   3658.48447378
_cell_formula_units_Z   24
loop_
 _symmetry_equiv_pos_site_id
 _symmetry_equiv_pos_as_xyz
  1  'x, y, z'
loop_
 _atom_type_symbol
 _atom_type_oxidation_number
  Ca2+  2.0
  Al0+  0.0
  Si0+  0.0
  O2-  -2.0
loop_
 _atom_site_type_symbol
 _atom_site_label
 _atom_site_symmetry_multiplicity
 _atom_site_fract_x
 _atom_site_fract_y
 _atom_site_fract_z
 _atom_site_occupancy
  Ca2+  Ca0  1  0.17497708  0.07837435  0.17937882  1
  Ca2+  Ca1  1  0.17479704  0.08563531  0.50887920  1
  Ca2+  Ca2  1  0.17197130  0.09592540  0.83145928  1
  Ca2+  Ca3  1  0.15878751  0.58219255  0.16542314  1
  Ca2+  Ca4  1  0.16587776  0.58361546  0.50949641  1
  Ca2+  Ca5  1  0.15683388  0.57536717  0.83596299  1
  Ca2+  Ca6  1  0.66961763  0.07788913  0.17139746  1
  Ca2+  Ca7  1  0.67994667  0.08096982  0.50379055  1
  Ca2+  Ca8  1  0.66852673  0.08441317  0.83409617  1
  Ca2+  Ca9  1  0.67698514  0.57700915  0.17134623  1
  Ca2+  Ca10  1  0.66513979  0.56845206  0.50653931  1
  Ca2+  Ca11  1  0.67639282  0.57471700  0.83719393  1
  Ca2+  Ca12  1  0.07842073  0.33181860  0.15653400  1
  Ca2+  Ca13  1  0.08237288  0.33202069  0.50473147  1
  Ca2+  Ca14  1  0.07442903  0.33710818  0.82645586  1
  Ca2+  Ca15  1  0.08234728  0.82671591  0.16681708  1
  Ca2+  Ca16  1  0.07727942  0.82795497  0.49259525  1
  Ca2+  Ca17  1  0.07812738  0.82041207  0.82236661  1
  Ca2+  Ca18  1  0.57750963  0.32725054  0.15750990  1
  Ca2+  Ca19  1  0.59023201  0.32810283  0.49771446  1
  Ca2+  Ca20  1  0.58414378  0.32290741  0.82542635  1
  Ca2+  Ca21  1  0.58507746  0.84238586  0.16146433  1
  Ca2+  Ca22  1  0.58238229  0.83608266  0.49556419  1
  Ca2+  Ca23  1  0.58506557  0.83531105  0.83081736  1
  Ca2+  Ca24  1  0.32696296  0.41055704  0.16629349  1
  Ca2+  Ca25  1  0.32406673  0.42507134  0.51303009  1
  Ca2+  Ca26  1  0.32053580  0.41665618  0.83506185  1
  Ca2+  Ca27  1  0.32657868  0.92402237  0.17622085  1
  Ca2+  Ca28  1  0.32527172  0.92532845  0.50127099  1
  Ca2+  Ca29  1  0.33186476  0.92305321  0.83285518  1
  Ca2+  Ca30  1  0.83656356  0.42263170  0.16747822  1
  Ca2+  Ca31  1  0.82362468  0.41070362  0.50684041  1
  Ca2+  Ca32  1  0.83546656  0.41400369  0.83780301  1
  Ca2+  Ca33  1  0.82386784  0.92040963  0.17738296  1
  Ca2+  Ca34  1  0.84043123  0.92166267  0.50323448  1
  Ca2+  Ca35  1  0.83498783  0.92232032  0.83568114  1
  Ca2+  Ca36  1  0.42187193  0.16927076  0.15689823  1
  Ca2+  Ca37  1  0.42141083  0.15744128  0.49926968  1
  Ca2+  Ca38  1  0.42664081  0.16956339  0.82858121  1
  Ca2+  Ca39  1  0.42122928  0.66994637  0.16388139  1
  Ca2+  Ca40  1  0.41497741  0.66387843  0.49764567  1
  Ca2+  Ca41  1  0.41672465  0.66550298  0.82725133  1
  Ca2+  Ca42  1  0.91165513  0.17261927  0.16410541  1
  Ca2+  Ca43  1  0.91362632  0.16637825  0.50248726  1
  Ca2+  Ca44  1  0.91903797  0.17697346  0.82115488  1
  Ca2+  Ca45  1  0.92323567  0.66985883  0.16173586  1
  Ca2+  Ca46  1  0.92626679  0.67715650  0.49499884  1
  Ca2+  Ca47  1  0.92291909  0.66761511  0.82714242  1
  Al0+  Al48  1  0.00078325  -0.00084766  0.00195961  1
  Al0+  Al49  1  0.00027307  -0.00055145  0.33384322  1
  Al0+  Al50  1  0.00036080  0.00063620  0.66643105  1
  Al0+  Al51  1  0.00041544  0.49945890  0.00234838  1
  Al0+  Al52  1  -0.00005396  0.49960857  0.33089368  1
  Al0+  Al53  1  -0.00241158  0.50108211  0.65968117  1
  Al0+  Al54  1  0.49922373  -0.00003772  -0.00117853  1
  Al0+  Al55  1  0.50156981  0.00015388  0.33787346  1
  Al0+  Al56  1  0.49898729  0.00006033  0.66587384  1
  Al0+  Al57  1  0.49800657  0.50190780  -0.00386025  1
  Al0+  Al58  1  0.49892965  0.49845539  0.33427748  1
  Al0+  Al59  1  0.49973633  0.49891860  0.67590086  1
  Al0+  Al60  1  0.25114470  0.25164695  0.00219350  1
  Al0+  Al61  1  0.25111633  0.25260921  0.33734273  1
  Al0+  Al62  1  0.25107069  0.25260495  0.67229102  1
  Al0+  Al63  1  0.25084315  0.74904348  -0.00325344  1
  Al0+  Al64  1  0.25269872  0.75004697  0.33071198  1
  Al0+  Al65  1  0.25246220  0.75201853  0.66623532  1
  Al0+  Al66  1  0.74904543  0.24896245  -0.00624729  1
  Al0+  Al67  1  0.74892701  0.24895237  0.33637185  1
  Al0+  Al68  1  0.74824864  0.24638101  0.66670058  1
  Al0+  Al69  1  0.74987068  0.75010894  0.00809557  1
  Al0+  Al70  1  0.75032992  0.74786804  0.33353876  1
  Al0+  Al71  1  0.74683245  0.74832633  0.66134189  1
  Al0+  Al72  1  0.18069222  0.43060302  0.01532766  1
  Al0+  Al73  1  0.82240027  0.06839619  0.68208930  1
  Al0+  Al74  1  0.67886706  0.43054856  0.34456430  1
  Al0+  Al75  1  0.67969353  0.93109874  0.01209491  1
  Al0+  Al76  1  0.32062160  0.07377055  0.34838970  1
  Al0+  Al77  1  0.56944312  0.17803477  0.64901919  1
  Al0+  Al78  1  0.82119288  0.56913086  0.01326306  1
  Al0+  Al79  1  0.32153168  0.07112668  0.68313615  1
  Al0+  Al80  1  0.06971541  0.68086759  0.98523838  1
  Al0+  Al81  1  0.92739919  0.82331387  0.31546459  1
  Al0+  Al82  1  0.68018652  0.42648542  0.68213663  1
  Al0+  Al83  1  0.92631162  0.82185002  0.65266729  1
  Al0+  Al84  1  0.93028122  0.31927719  0.98866506  1
  Al0+  Al85  1  0.07216929  0.67935492  0.65114169  1
  Al0+  Al86  1  0.56949526  0.17804548  0.98444409  1
  Al0+  Al87  1  0.42646277  0.32357368  0.98298267  1
  Al0+  Al88  1  0.32100121  0.57411847  0.68246282  1
  Al0+  Al89  1  0.82191726  0.07129268  0.34810762  1
  Al0+  Al90  1  0.07282488  0.67875498  0.31562278  1
  Al0+  Al91  1  0.17935875  0.92721840  0.34775575  1
  Al0+  Al92  1  0.17587905  0.43174785  0.68197847  1
  Al0+  Al93  1  0.07375419  0.18064798  0.65239616  1
  Al0+  Al94  1  0.92711001  0.32116713  0.65011057  1
  Al0+  Al95  1  0.67913017  0.92614853  0.34938018  1
  Si0+  Si96  1  0.42998209  0.32280497  0.64930476  1
  Si0+  Si97  1  0.07305777  0.17531049  0.98718798  1
  Si0+  Si98  1  0.67616815  0.42657984  0.01521725  1
  Si0+  Si99  1  0.57344009  0.67950017  0.98571939  1
  Si0+  Si100  1  0.17726519  0.42956599  0.34813873  1
  Si0+  Si101  1  0.57009134  0.17954609  0.31813468  1
  Si0+  Si102  1  0.82399602  0.57076774  0.35162437  1
  Si0+  Si103  1  0.17816813  0.92883193  0.68449001  1
  Si0+  Si104  1  0.82384615  0.07365622  0.01587333  1
  Si0+  Si105  1  0.07468129  0.18063560  0.31981188  1
  Si0+  Si106  1  0.92569162  0.82262536  0.98450555  1
  Si0+  Si107  1  0.57025295  0.67490266  0.31889935  1
  Si0+  Si108  1  0.92803710  0.31872560  0.31814552  1
  Si0+  Si109  1  0.43291352  0.82129434  0.31771909  1
  Si0+  Si110  1  0.67775193  0.92647018  0.68246420  1
  Si0+  Si111  1  0.81904331  0.57274436  0.68068156  1
  Si0+  Si112  1  0.32144788  0.56956487  0.34533331  1
  Si0+  Si113  1  0.56883694  0.67691648  0.65193157  1
  Si0+  Si114  1  0.32341020  0.57501861  0.01922418  1
  Si0+  Si115  1  0.42989183  0.82028259  0.98484477  1
  Si0+  Si116  1  0.42852577  0.32264688  0.31920120  1
  Si0+  Si117  1  0.31869953  0.06934691  0.01421610  1
  Si0+  Si118  1  0.17908384  0.92541737  0.01391789  1
  Si0+  Si119  1  0.42979310  0.82201075  0.65038628  1
  O2-  O120  1  0.24436891  0.00209468  0.05615007  1
  O2-  O121  1  0.24499158  0.00527481  0.39749104  1
  O2-  O122  1  0.24277133  0.00095243  0.73071596  1
  O2-  O123  1  0.25720308  0.50400111  0.06326376  1
  O2-  O124  1  0.24499949  0.50504051  0.38693428  1
  O2-  O125  1  0.24468368  0.50728038  0.73196214  1
  O2-  O126  1  0.75559484  0.00399949  0.05896727  1
  O2-  O127  1  0.75594866  -0.00699418  0.39766247  1
  O2-  O128  1  0.74938249  -0.00916827  0.72724302  1
  O2-  O129  1  0.74593573  0.49369003  0.05996245  1
  O2-  O130  1  0.75340104  0.50344371  0.39434223  1
  O2-  O131  1  0.75763265  0.49873298  0.72736124  1
  O2-  O132  1  0.00088071  0.24866793  0.27659734  1
  O2-  O133  1  0.00081975  0.25040930  0.60014996  1
  O2-  O134  1  0.00092572  0.24020216  0.94418656  1
  O2-  O135  1  -0.00009695  0.75060929  0.26615595  1
  O2-  O136  1  0.00127493  0.75286767  0.60284466  1
  O2-  O137  1  -0.00393237  0.75665864  0.93953899  1
  O2-  O138  1  0.49680273  0.24893558  0.27701337  1
  O2-  O139  1  0.49610202  0.25402575  0.60119683  1
  O2-  O140  1  0.50230437  0.25496727  0.93468239  1
  O2-  O141  1  0.50663989  0.75261770  0.27537316  1
  O2-  O142  1  0.49755647  0.74732284  0.60900237  1
  O2-  O143  1  0.50139580  0.74953936  0.94314462  1
  O2-  O144  1  0.07419158  0.17579712  0.09333103  1
  O2-  O145  1  0.07983966  0.18584344  0.42401751  1
  O2-  O146  1  0.07196957  0.18294704  0.76648372  1
  O2-  O147  1  0.07032860  0.68372991  0.09817373  1
  O2-  O148  1  0.07369268  0.67796243  0.42859371  1
  O2-  O149  1  0.06981829  0.68000523  0.76508373  1
  O2-  O150  1  0.56668520  0.17704028  0.09890700  1
  O2-  O151  1  0.57020275  0.18064936  0.42290168  1
  O2-  O152  1  0.56759954  0.17702794  0.76195699  1
  O2-  O153  1  0.57124723  0.67923104  0.09107519  1
  O2-  O154  1  0.56332112  0.67049576  0.42369879  1
  O2-  O155  1  0.57033723  0.67965954  0.75719008  1
  O2-  O156  1  0.17883891  0.42577957  0.24306193  1
  O2-  O157  1  0.18041625  0.43151995  0.56760682  1
  O2-  O158  1  0.17892085  0.43190296  0.90328697  1
  O2-  O159  1  0.18531191  0.92883791  0.23315935  1
  O2-  O160  1  0.18292105  0.92734815  0.57924292  1
  O2-  O161  1  0.18200773  0.92288113  0.90925828  1
  O2-  O162  1  0.67805064  0.43221168  0.23130268  1
  O2-  O163  1  0.67801082  0.43009111  0.56863405  1
  O2-  O164  1  0.67705671  0.42909347  0.90995066  1
  O2-  O165  1  0.67508250  0.93281666  0.23562298  1
  O2-  O166  1  0.67582551  0.92711950  0.57726604  1
  O2-  O167  1  0.67910949  0.92936394  0.89928587  1
  O2-  O168  1  0.42655160  0.31896917  0.09784067  1
  O2-  O169  1  0.42914188  0.32720184  0.42357953  1
  O2-  O170  1  0.43311108  0.32111622  0.75462369  1
  O2-  O171  1  0.43007295  0.82086890  0.09015817  1
  O2-  O172  1  0.43156825  0.81919620  0.42263034  1
  O2-  O173  1  0.43223509  0.82396223  0.75585487  1
  O2-  O174  1  0.93136317  0.31847198  0.10277089  1
  O2-  O175  1  0.92709275  0.31969130  0.42257272  1
  O2-  O176  1  0.92796346  0.32032710  0.76388824  1
  O2-  O177  1  0.92630612  0.82236528  0.08973384  1
  O2-  O178  1  0.92792700  0.81943958  0.42863120  1
  O2-  O179  1  0.92518482  0.81824964  0.76703042  1
  O2-  O180  1  0.32127527  0.07245635  0.23384748  1
  O2-  O181  1  0.32276541  0.06647810  0.57035225  1
  O2-  O182  1  0.31957945  0.06724077  0.90937731  1
  O2-  O183  1  0.32681590  0.56696968  0.24050776  1
  O2-  O184  1  0.32351276  0.57121740  0.56799735  1
  O2-  O185  1  0.32292164  0.57957349  0.91457667  1
  O2-  O186  1  0.81551943  0.07692468  0.23407540  1
  O2-  O187  1  0.81963089  0.06880539  0.56941514  1
  O2-  O188  1  0.82590022  0.07210065  0.91075544  1
  O2-  O189  1  0.82353059  0.56811632  0.24552578  1
  O2-  O190  1  0.81254603  0.57434509  0.57533168  1
  O2-  O191  1  0.81875805  0.57020954  0.90029751  1
  O2-  O192  1  0.05256402  0.08695968  0.27402550  1
  O2-  O193  1  0.04952779  0.08052223  0.60215904  1
  O2-  O194  1  0.05455243  0.07982739  0.94167040  1
  O2-  O195  1  0.04306217  0.57906650  0.26365353  1
  O2-  O196  1  0.04437362  0.58239778  0.59619537  1
  O2-  O197  1  0.03626382  0.58434069  0.93475975  1
  O2-  O198  1  0.54287356  0.08681523  0.27206980  1
  O2-  O199  1  0.53547586  0.08185562  0.59610277  1
  O2-  O200  1  0.53521650  0.08163794  0.93068116  1
  O2-  O201  1  0.53409998  0.58721077  0.26776295  1
  O2-  O202  1  0.53948531  0.58473236  0.60614212  1
  O2-  O203  1  0.54726424  0.58820044  0.93680637  1
  O2-  O204  1  0.16540515  0.21209625  0.27011789  1
  O2-  O205  1  0.17300516  0.21034343  0.60080269  1
  O2-  O206  1  0.16579893  0.20425817  0.94243963  1
  O2-  O207  1  0.17287708  0.70611264  0.26338954  1
  O2-  O208  1  0.17257286  0.70677715  0.60135052  1
  O2-  O209  1  0.16766344  0.70925747  0.93254149  1
  O2-  O210  1  0.66059174  0.21052701  0.27004195  1
  O2-  O211  1  0.66548216  0.20892145  0.59570102  1
  O2-  O212  1  0.66880432  0.20065458  0.93165330  1
  O2-  O213  1  0.66496587  0.69335825  0.27431412  1
  O2-  O214  1  0.65855267  0.70356408  0.60048066  1
  O2-  O215  1  0.66449221  0.70937961  0.93882115  1
  O2-  O216  1  0.08545298  0.46235888  0.07134675  1
  O2-  O217  1  0.08433695  0.45348880  0.39417530  1
  O2-  O218  1  0.07500542  0.45767940  0.73130220  1
  O2-  O219  1  0.08529997  0.94721049  0.06060049  1
  O2-  O220  1  0.07863805  0.94676271  0.39625315  1
  O2-  O221  1  0.08342545  0.94816615  0.72942800  1
  O2-  O222  1  0.58202344  0.45456171  0.05962891  1
  O2-  O223  1  0.58300344  0.46258013  0.39996774  1
  O2-  O224  1  0.58622779  0.46081431  0.73815575  1
  O2-  O225  1  0.58191109  0.96144458  0.06598486  1
  O2-  O226  1  0.58228651  0.95735565  0.40334412  1
  O2-  O227  1  0.58518736  0.95560153  0.72880340  1
  O2-  O228  1  0.21152009  0.33356332  0.07135624  1
  O2-  O229  1  0.20936615  0.34079563  0.39784985  1
  O2-  O230  1  0.20753957  0.33534482  0.73661976  1
  O2-  O231  1  0.21432213  0.83684634  0.06292123  1
  O2-  O232  1  0.21676512  0.83137546  0.40017236  1
  O2-  O233  1  0.21103615  0.83770758  0.73185062  1
  O2-  O234  1  0.69929791  0.33135538  0.05894615  1
  O2-  O235  1  0.70886490  0.33460239  0.39871200  1
  O2-  O236  1  0.70785245  0.32945380  0.73469685  1
  O2-  O237  1  0.70530658  0.83451414  0.06909046  1
  O2-  O238  1  0.69588986  0.82320324  0.39750309  1
  O2-  O239  1  0.69753362  0.83012942  0.72606364  1
  O2-  O240  1  0.45886693  0.41245134  0.26847851  1
  O2-  O241  1  0.45663510  0.41752804  0.60567034  1
  O2-  O242  1  0.44622511  0.42507970  0.93365214  1
  O2-  O243  1  0.45943031  0.91376347  0.27004401  1
  O2-  O244  1  0.46157074  0.91092678  0.60072140  1
  O2-  O245  1  0.45792546  0.91107582  0.93601935  1
  O2-  O246  1  0.95559311  0.41090685  0.27089623  1
  O2-  O247  1  0.95029761  0.41991552  0.59557945  1
  O2-  O248  1  0.96381312  0.41446263  0.93548616  1
  O2-  O249  1  0.95308857  0.92323498  0.26268173  1
  O2-  O250  1  0.95322137  0.92072461  0.60184636  1
  O2-  O251  1  0.94953610  0.91786122  0.94036755  1
  O2-  O252  1  0.33580169  0.29647720  0.27175238  1
  O2-  O253  1  0.33489086  0.29978230  0.60633936  1
  O2-  O254  1  0.32925235  0.29084366  0.93122230  1
  O2-  O255  1  0.34327478  0.79072413  0.26733739  1
  O2-  O256  1  0.33812151  0.79780621  0.60169305  1
  O2-  O257  1  0.33947157  0.79207844  0.93565366  1
  O2-  O258  1  0.83673280  0.28921219  0.27007595  1
  O2-  O259  1  0.82967667  0.28826585  0.59816821  1
  O2-  O260  1  0.83271256  0.29522454  0.93435172  1
  O2-  O261  1  0.82716982  0.79378338  0.26423313  1
  O2-  O262  1  0.82835480  0.79216609  0.59859613  1
  O2-  O263  1  0.83184654  0.79524497  0.94065440  1
  O2-  O264  1  0.40878579  0.03658900  0.06201392  1
  O2-  O265  1  0.41724297  0.04060013  0.40031161  1
  O2-  O266  1  0.41589245  0.03281065  0.73716408  1
  O2-  O267  1  0.41914503  0.55311080  0.06395547  1
  O2-  O268  1  0.41002503  0.53717305  0.39626438  1
  O2-  O269  1  0.41722300  0.54315539  0.73848649  1
  O2-  O270  1  0.91844902  0.05105068  0.06280335  1
  O2-  O271  1  0.92315485  0.05225530  0.39774191  1
  O2-  O272  1  0.91987012  0.04231667  0.73718243  1
  O2-  O273  1  0.91511830  0.53602532  0.07058782  1
  O2-  O274  1  0.91697816  0.54289809  0.39673520  1
  O2-  O275  1  0.91525189  0.55383148  0.72222753  1
  O2-  O276  1  0.29537340  0.16187491  0.06212451  1
  O2-  O277  1  0.29680874  0.17300273  0.40156015  1
  O2-  O278  1  0.29501540  0.16844097  0.73717613  1
  O2-  O279  1  0.29557802  0.66810598  0.06668406  1
  O2-  O280  1  0.30127357  0.66371923  0.39065322  1
  O2-  O281  1  0.30290960  0.67600253  0.73250562  1
  O2-  O282  1  0.79571802  0.16715364  0.06130082  1
  O2-  O283  1  0.78638930  0.16655500  0.40291047  1
  O2-  O284  1  0.78669705  0.16315752  0.73581156  1
  O2-  O285  1  0.78851497  0.66362137  0.07086604  1
  O2-  O286  1  0.79974194  0.66464442  0.39562044  1
  O2-  O287  1  0.78563967  0.66339935  0.72888466  1
