# generated using pymatgen
data_Ca2Al2SiO7
_symmetry_space_group_name_H-M   'P 1'
_cell_length_a   15.45713103
_cell_length_b   15.45700152
_cell_length_c   15.28324090
_cell_angle_alpha   90.00083615
_cell_angle_beta   90.00885352
_cell_angle_gamma   89.99972203
_symmetry_Int_Tables_number   1
_chemical_formula_structural   Ca2Al2SiO7
_chemical_formula_sum   'Ca48 Al48 Si24 O168'
_cell_volume   3651.48559467
_cell_formula_units_Z   24
loop_
 _symmetry_equiv_pos_site_id
 _symmetry_equiv_pos_as_xyz
  1  'x, y, z'
loop_
 _atom_type_symbol
 _atom_type_oxidation_number
  Ca2+  2.0
  Al0+  0.0
  Si0+  0.0
  O2-  -2.0
loop_
 _atom_site_type_symbol
 _atom_site_label
 _atom_site_symmetry_multiplicity
 _atom_site_fract_x
 _atom_site_fract_y
 _atom_site_fract_z
 _atom_site_occupancy
  Ca2+  Ca0  1  0.17026057  0.08650894  0.17419201  1
  Ca2+  Ca1  1  0.17201016  0.08910306  0.50115915  1
  Ca2+  Ca2  1  0.16814126  0.08254869  0.83964788  1
  Ca2+  Ca3  1  0.16807560  0.58049835  0.16774325  1
  Ca2+  Ca4  1  0.17707457  0.58211079  0.51040659  1
  Ca2+  Ca5  1  0.16201118  0.57520888  0.83619535  1
  Ca2+  Ca6  1  0.66002640  0.07965942  0.16541601  1
  Ca2+  Ca7  1  0.66439372  0.07635221  0.50850293  1
  Ca2+  Ca8  1  0.65700666  0.07589851  0.83670782  1
  Ca2+  Ca9  1  0.67104891  0.57210411  0.16976146  1
  Ca2+  Ca10  1  0.66858467  0.57267681  0.51255249  1
  Ca2+  Ca11  1  0.67360167  0.58119901  0.83706247  1
  Ca2+  Ca12  1  0.08433547  0.32683398  0.15994947  1
  Ca2+  Ca13  1  0.07761389  0.33514945  0.49393375  1
  Ca2+  Ca14  1  0.08962317  0.33458496  0.83051677  1
  Ca2+  Ca15  1  0.08152653  0.82465856  0.15823491  1
  Ca2+  Ca16  1  0.07945011  0.82752104  0.50259409  1
  Ca2+  Ca17  1  0.07547322  0.81623767  0.82553913  1
  Ca2+  Ca18  1  0.58635259  0.33148024  0.16006723  1
  Ca2+  Ca19  1  0.58313765  0.33755554  0.49885970  1
  Ca2+  Ca20  1  0.58709970  0.32887865  0.82432072  1
  Ca2+  Ca21  1  0.57102799  0.83682898  0.15931444  1
  Ca2+  Ca22  1  0.58342498  0.82390599  0.50040047  1
  Ca2+  Ca23  1  0.58371810  0.83110734  0.82757291  1
  Ca2+  Ca24  1  0.32709441  0.42246140  0.17173994  1
  Ca2+  Ca25  1  0.32967199  0.42526227  0.51094442  1
  Ca2+  Ca26  1  0.32835351  0.41929492  0.83095896  1
  Ca2+  Ca27  1  0.33695335  0.92074021  0.17454072  1
  Ca2+  Ca28  1  0.33985812  0.92174918  0.49825296  1
  Ca2+  Ca29  1  0.33635807  0.91687844  0.83859309  1
  Ca2+  Ca30  1  0.82602667  0.41367609  0.16726751  1
  Ca2+  Ca31  1  0.82516176  0.41631359  0.50656013  1
  Ca2+  Ca32  1  0.82436514  0.42668173  0.83779518  1
  Ca2+  Ca33  1  0.82509358  0.91644699  0.16693772  1
  Ca2+  Ca34  1  0.83105373  0.91882366  0.51203056  1
  Ca2+  Ca35  1  0.82128621  0.90885153  0.83417885  1
  Ca2+  Ca36  1  0.42030081  0.16749827  0.15974405  1
  Ca2+  Ca37  1  0.41960242  0.17346539  0.50139485  1
  Ca2+  Ca38  1  0.42847043  0.17630546  0.82729432  1
  Ca2+  Ca39  1  0.40980566  0.67777407  0.16410763  1
  Ca2+  Ca40  1  0.42022033  0.66093498  0.49664021  1
  Ca2+  Ca41  1  0.42134137  0.66986519  0.82557698  1
  Ca2+  Ca42  1  0.92620938  0.17344969  0.16427059  1
  Ca2+  Ca43  1  0.92312538  0.17571672  0.48977586  1
  Ca2+  Ca44  1  0.92229923  0.16749013  0.83114473  1
  Ca2+  Ca45  1  0.92129519  0.66205198  0.15819320  1
  Ca2+  Ca46  1  0.91614099  0.66435368  0.50517283  1
  Ca2+  Ca47  1  0.91966230  0.66000844  0.82558841  1
  Al0+  Al48  1  -0.00048201  0.00002660  -0.00321041  1
  Al0+  Al49  1  -0.00039953  -0.00179783  0.32938923  1
  Al0+  Al50  1  0.00140375  -0.00046973  0.66350532  1
  Al0+  Al51  1  0.00106379  0.49837368  0.00502669  1
  Al0+  Al52  1  -0.00266652  0.50070921  0.32821107  1
  Al0+  Al53  1  0.00133623  0.49836499  0.66727926  1
  Al0+  Al54  1  0.49913130  0.00185928  -0.00376936  1
  Al0+  Al55  1  0.49857153  -0.00117497  0.33559249  1
  Al0+  Al56  1  0.50046362  0.00192322  0.66677414  1
  Al0+  Al57  1  0.49856098  0.50290037  0.00501771  1
  Al0+  Al58  1  0.50129014  0.49889986  0.33764843  1
  Al0+  Al59  1  0.49770019  0.49992628  0.66760716  1
  Al0+  Al60  1  0.25087477  0.25066586  -0.00008926  1
  Al0+  Al61  1  0.25218621  0.24915724  0.33505066  1
  Al0+  Al62  1  0.25325045  0.24978519  0.66684689  1
  Al0+  Al63  1  0.24767491  0.75172923  -0.00935464  1
  Al0+  Al64  1  0.25004180  0.75141161  0.33401711  1
  Al0+  Al65  1  0.24918710  0.75269153  0.66576794  1
  Al0+  Al66  1  0.75169010  0.24824994  -0.00150433  1
  Al0+  Al67  1  0.75082369  0.24821935  0.33244903  1
  Al0+  Al68  1  0.75288282  0.24645061  0.66594954  1
  Al0+  Al69  1  0.74772804  0.75161094  0.01259366  1
  Al0+  Al70  1  0.74962852  0.74799882  0.33157970  1
  Al0+  Al71  1  0.74843730  0.75174712  0.66507649  1
  Al0+  Al72  1  0.81986534  0.57091549  0.67988108  1
  Al0+  Al73  1  0.68142225  0.42748047  0.34840606  1
  Al0+  Al74  1  0.57140936  0.18176406  0.98708888  1
  Al0+  Al75  1  0.92808805  0.82020993  0.65236800  1
  Al0+  Al76  1  0.67760983  0.93156242  0.01541604  1
  Al0+  Al77  1  0.67918201  0.93082029  0.67922851  1
  Al0+  Al78  1  0.31883550  0.57215005  0.34596935  1
  Al0+  Al79  1  0.42986821  0.32145520  0.65097866  1
  Al0+  Al80  1  0.82124770  0.57099231  0.01651965  1
  Al0+  Al81  1  0.57327897  0.17875856  0.64994975  1
  Al0+  Al82  1  0.56980059  0.67925178  0.65512964  1
  Al0+  Al83  1  0.32199519  0.57489313  0.68313286  1
  Al0+  Al84  1  0.67785954  0.42583870  0.68133334  1
  Al0+  Al85  1  0.07316489  0.17948660  0.31851887  1
  Al0+  Al86  1  0.92734701  0.32220323  0.31647171  1
  Al0+  Al87  1  0.06823404  0.67762698  0.98618698  1
  Al0+  Al88  1  0.17952517  0.42823390  0.68041122  1
  Al0+  Al89  1  0.07275292  0.17900096  0.98503828  1
  Al0+  Al90  1  0.43137159  0.81943706  0.32061153  1
  Al0+  Al91  1  0.18150957  0.42864746  0.01555779  1
  Al0+  Al92  1  0.67699056  0.42668745  0.01462589  1
  Al0+  Al93  1  0.42918574  0.82148008  0.98544939  1
  Al0+  Al94  1  0.07141476  0.67585356  0.64998030  1
  Al0+  Al95  1  0.32141985  0.07158460  0.34782991  1
  Si0+  Si96  1  0.17620410  0.92796958  0.35020618  1
  Si0+  Si97  1  0.82532604  0.07206012  0.01808304  1
  Si0+  Si98  1  0.07081804  0.68109276  0.31820631  1
  Si0+  Si99  1  0.56993234  0.17791727  0.31849845  1
  Si0+  Si100  1  0.92636615  0.82159237  0.31626828  1
  Si0+  Si101  1  0.92940409  0.32094883  0.98109746  1
  Si0+  Si102  1  0.82579802  0.07134043  0.68311002  1
  Si0+  Si103  1  0.82171177  0.06810865  0.34721709  1
  Si0+  Si104  1  0.32058417  0.06994484  0.68360700  1
  Si0+  Si105  1  0.93024613  0.31987348  0.65300597  1
  Si0+  Si106  1  0.92487666  0.82188282  0.98528119  1
  Si0+  Si107  1  0.67842797  0.92878551  0.34854240  1
  Si0+  Si108  1  0.32086468  0.57638286  0.01656529  1
  Si0+  Si109  1  0.17715357  0.42844199  0.34826545  1
  Si0+  Si110  1  0.42774630  0.32513304  0.98574875  1
  Si0+  Si111  1  0.31905615  0.06923219  0.01398114  1
  Si0+  Si112  1  0.42703653  0.82404710  0.64932833  1
  Si0+  Si113  1  0.17784437  0.92855810  0.01326268  1
  Si0+  Si114  1  0.82304927  0.57365430  0.35160124  1
  Si0+  Si115  1  0.17701486  0.93040395  0.68279088  1
  Si0+  Si116  1  0.57220790  0.67888545  0.98623626  1
  Si0+  Si117  1  0.07306272  0.17806721  0.65169422  1
  Si0+  Si118  1  0.43011491  0.32240222  0.31790981  1
  Si0+  Si119  1  0.57280982  0.67528300  0.31502972  1
  O2-  O120  1  0.24685943  0.00009909  0.05754580  1
  O2-  O121  1  0.24220221  0.00019480  0.39353903  1
  O2-  O122  1  0.25041759  -0.00165129  0.72607993  1
  O2-  O123  1  0.25534921  0.50478562  0.06149034  1
  O2-  O124  1  0.24419649  0.49765039  0.39274146  1
  O2-  O125  1  0.24770491  0.50385299  0.73101089  1
  O2-  O126  1  0.75381039  0.00545598  0.06215858  1
  O2-  O127  1  0.75266048  -0.00393043  0.39069565  1
  O2-  O128  1  0.75489749  0.00479091  0.72623503  1
  O2-  O129  1  0.74882973  0.49855298  0.06556811  1
  O2-  O130  1  0.75540509  0.50358160  0.39374253  1
  O2-  O131  1  0.74645784  0.50110665  0.73066613  1
  O2-  O132  1  0.00455092  0.25411644  0.26782256  1
  O2-  O133  1  0.00283253  0.24960537  0.61067078  1
  O2-  O134  1  -0.00094570  0.25283607  0.93633113  1
  O2-  O135  1  -0.00320575  0.74946650  0.27544034  1
  O2-  O136  1  -0.00208754  0.74711946  0.60020951  1
  O2-  O137  1  -0.01122388  0.74891379  0.94208257  1
  O2-  O138  1  0.50065662  0.25049751  0.27571464  1
  O2-  O139  1  0.50656675  0.25482177  0.59887724  1
  O2-  O140  1  0.50442177  0.26446523  0.94311407  1
  O2-  O141  1  0.50394699  0.74436472  0.27123428  1
  O2-  O142  1  0.49109176  0.75054479  0.60695982  1
  O2-  O143  1  0.50303782  0.74612138  0.94058165  1
  O2-  O144  1  0.07291355  0.17877277  0.09785872  1
  O2-  O145  1  0.07031002  0.17917945  0.43252049  1
  O2-  O146  1  0.07197873  0.17576980  0.75685813  1
  O2-  O147  1  0.07081519  0.68270427  0.10022819  1
  O2-  O148  1  0.07141714  0.68247975  0.42276566  1
  O2-  O149  1  0.06996958  0.67731400  0.76343851  1
  O2-  O150  1  0.56588795  0.17839322  0.10099304  1
  O2-  O151  1  0.56918419  0.17630371  0.42309984  1
  O2-  O152  1  0.56842784  0.17621378  0.76341998  1
  O2-  O153  1  0.56995076  0.68038584  0.09207134  1
  O2-  O154  1  0.57405173  0.67719074  0.42057963  1
  O2-  O155  1  0.57117203  0.68339058  0.76833766  1
  O2-  O156  1  0.17988102  0.42878842  0.24244823  1
  O2-  O157  1  0.17980275  0.42629017  0.56642500  1
  O2-  O158  1  0.18341863  0.42712729  0.90311010  1
  O2-  O159  1  0.17682562  0.92613738  0.24428742  1
  O2-  O160  1  0.17494136  0.93323194  0.57761678  1
  O2-  O161  1  0.17920979  0.93047018  0.90823309  1
  O2-  O162  1  0.68108230  0.42725333  0.23533221  1
  O2-  O163  1  0.68264208  0.42597727  0.56743351  1
  O2-  O164  1  0.67855129  0.42686730  0.90173561  1
  O2-  O165  1  0.67750946  0.93207390  0.24335493  1
  O2-  O166  1  0.68010044  0.93223459  0.56540635  1
  O2-  O167  1  0.67765262  0.93150122  0.90276680  1
  O2-  O168  1  0.42445728  0.32070463  0.09195252  1
  O2-  O169  1  0.42985340  0.32204413  0.42244899  1
  O2-  O170  1  0.42532625  0.31563869  0.76450779  1
  O2-  O171  1  0.42830283  0.82269750  0.09897119  1
  O2-  O172  1  0.43479474  0.82159263  0.43312635  1
  O2-  O173  1  0.42934657  0.82670616  0.75504031  1
  O2-  O174  1  0.92997187  0.31787313  0.08676661  1
  O2-  O175  1  0.92788843  0.31927552  0.43057246  1
  O2-  O176  1  0.92980752  0.31727417  0.75788992  1
  O2-  O177  1  0.92928200  0.82415379  0.09156006  1
  O2-  O178  1  0.92542107  0.82437966  0.42080865  1
  O2-  O179  1  0.93091645  0.82312700  0.76567821  1
  O2-  O180  1  0.32369318  0.06881242  0.23440207  1
  O2-  O181  1  0.31955918  0.06936412  0.57831732  1
  O2-  O182  1  0.31781668  0.06770403  0.90881800  1
  O2-  O183  1  0.31525369  0.57253230  0.23246248  1
  O2-  O184  1  0.31986051  0.57336009  0.56896969  1
  O2-  O185  1  0.32105223  0.57721302  0.91166436  1
  O2-  O186  1  0.82135906  0.06638945  0.24223287  1
  O2-  O187  1  0.82828795  0.06975602  0.57707523  1
  O2-  O188  1  0.82913079  0.07044124  0.91287196  1
  O2-  O189  1  0.82197742  0.57668607  0.24623018  1
  O2-  O190  1  0.81946928  0.56743731  0.56591660  1
  O2-  O191  1  0.82015108  0.57160699  0.90325807  1
  O2-  O192  1  0.04346414  0.08033373  0.26633825  1
  O2-  O193  1  0.04524573  0.08728844  0.60232450  1
  O2-  O194  1  0.04242828  0.08174715  0.93098239  1
  O2-  O195  1  0.04602286  0.58854522  0.27037025  1
  O2-  O196  1  0.04542254  0.57706747  0.59668570  1
  O2-  O197  1  0.04196914  0.57896901  0.93548324  1
  O2-  O198  1  0.53897810  0.08674475  0.27121872  1
  O2-  O199  1  0.53741169  0.08239260  0.59605749  1
  O2-  O200  1  0.53209020  0.08906510  0.93156334  1
  O2-  O201  1  0.54662078  0.58149184  0.27020657  1
  O2-  O202  1  0.54202359  0.58242788  0.60031760  1
  O2-  O203  1  0.54868633  0.58439542  0.94123585  1
  O2-  O204  1  0.17377872  0.20358821  0.26746332  1
  O2-  O205  1  0.16538705  0.20428711  0.60556957  1
  O2-  O206  1  0.16991205  0.20856963  0.93155909  1
  O2-  O207  1  0.16074774  0.71302769  0.26952850  1
  O2-  O208  1  0.16847511  0.71140724  0.59731589  1
  O2-  O209  1  0.16117802  0.71332014  0.92920083  1
  O2-  O210  1  0.66268066  0.20226901  0.27163841  1
  O2-  O211  1  0.67539323  0.19653234  0.59985455  1
  O2-  O212  1  0.67137499  0.19992103  0.93474240  1
  O2-  O213  1  0.66658879  0.70117323  0.26890578  1
  O2-  O214  1  0.66324221  0.71415449  0.59727731  1
  O2-  O215  1  0.66628143  0.70768359  0.94376348  1
  O2-  O216  1  0.08526253  0.45714469  0.07087790  1
  O2-  O217  1  0.08129933  0.45257622  0.39016408  1
  O2-  O218  1  0.08061754  0.45181476  0.73404941  1
  O2-  O219  1  0.08500342  0.95374367  0.06050298  1
  O2-  O220  1  0.08100646  0.95013416  0.39500861  1
  O2-  O221  1  0.08706299  0.96189556  0.73154482  1
  O2-  O222  1  0.57779006  0.45375417  0.06889841  1
  O2-  O223  1  0.58446687  0.45718010  0.40179103  1
  O2-  O224  1  0.57732086  0.44804808  0.73006340  1
  O2-  O225  1  0.58142671  0.96743400  0.06876690  1
  O2-  O226  1  0.58882342  0.95990356  0.39695659  1
  O2-  O227  1  0.58303926  0.96292888  0.73385578  1
  O2-  O228  1  0.21418368  0.33221046  0.07041768  1
  O2-  O229  1  0.20233081  0.33460972  0.39334394  1
  O2-  O230  1  0.21105375  0.33004078  0.73382849  1
  O2-  O231  1  0.20681176  0.83693550  0.06038489  1
  O2-  O232  1  0.20628068  0.83702277  0.39844343  1
  O2-  O233  1  0.20204641  0.83809707  0.72977989  1
  O2-  O234  1  0.70695311  0.32724894  0.06647187  1
  O2-  O235  1  0.71147665  0.32955512  0.40067216  1
  O2-  O236  1  0.70994660  0.32703461  0.73173486  1
  O2-  O237  1  0.70539839  0.83722851  0.07564679  1
  O2-  O238  1  0.70345185  0.83435868  0.39176366  1
  O2-  O239  1  0.70963496  0.83531898  0.73435424  1
  O2-  O240  1  0.45825946  0.41373987  0.26965410  1
  O2-  O241  1  0.45010730  0.42150458  0.59906657  1
  O2-  O242  1  0.44311241  0.42251254  0.94443594  1
  O2-  O243  1  0.46381612  0.91600965  0.26575566  1
  O2-  O244  1  0.45770990  0.91605410  0.60286685  1
  O2-  O245  1  0.46056913  0.91722989  0.93093651  1
  O2-  O246  1  0.94851198  0.42237657  0.26381280  1
  O2-  O247  1  0.95724772  0.41048831  0.60371831  1
  O2-  O248  1  0.95613381  0.41464844  0.93794468  1
  O2-  O249  1  0.95452656  0.91215867  0.26631656  1
  O2-  O250  1  0.96139977  0.91776464  0.59706370  1
  O2-  O251  1  0.95293934  0.91385357  0.93806864  1
  O2-  O252  1  0.33808791  0.29431522  0.27083818  1
  O2-  O253  1  0.33403638  0.28442231  0.59564953  1
  O2-  O254  1  0.33872165  0.28989783  0.93727634  1
  O2-  O255  1  0.33268517  0.79250594  0.26718144  1
  O2-  O256  1  0.33095484  0.80728837  0.60502346  1
  O2-  O257  1  0.33280842  0.79458142  0.92959582  1
  O2-  O258  1  0.83192846  0.28495076  0.26224121  1
  O2-  O259  1  0.84053036  0.28927227  0.60294038  1
  O2-  O260  1  0.83674029  0.29351503  0.93453602  1
  O2-  O261  1  0.83395484  0.79503778  0.26840402  1
  O2-  O262  1  0.82988611  0.79632530  0.59743678  1
  O2-  O263  1  0.82788067  0.80115582  0.94553511  1
  O2-  O264  1  0.40983587  0.03940995  0.06179363  1
  O2-  O265  1  0.41536315  0.03528237  0.40395498  1
  O2-  O266  1  0.41190538  0.04176082  0.73108583  1
  O2-  O267  1  0.41506739  0.55622212  0.06437195  1
  O2-  O268  1  0.41608299  0.54201698  0.39796212  1
  O2-  O269  1  0.41900283  0.54547016  0.73724142  1
  O2-  O270  1  0.91769482  0.04266674  0.06634449  1
  O2-  O271  1  0.91411185  0.04097943  0.39461543  1
  O2-  O272  1  0.91919561  0.04449324  0.72968686  1
  O2-  O273  1  0.91892238  0.54137133  0.07059886  1
  O2-  O274  1  0.91840890  0.55038623  0.39522772  1
  O2-  O275  1  0.91812405  0.54080631  0.73132947  1
  O2-  O276  1  0.29330551  0.16138274  0.06158729  1
  O2-  O277  1  0.29393684  0.16834106  0.40381332  1
  O2-  O278  1  0.29114903  0.16036910  0.73172805  1
  O2-  O279  1  0.28896102  0.66950940  0.06122643  1
  O2-  O280  1  0.28911322  0.66878154  0.40022853  1
  O2-  O281  1  0.29776496  0.67613081  0.73246166  1
  O2-  O282  1  0.80175864  0.16598510  0.06360875  1
  O2-  O283  1  0.79332789  0.15925729  0.39488585  1
  O2-  O284  1  0.80382645  0.16487812  0.72981029  1
  O2-  O285  1  0.79528803  0.66903260  0.07296488  1
  O2-  O286  1  0.79737436  0.66802518  0.39712835  1
  O2-  O287  1  0.79454690  0.67072211  0.73031521  1
