# generated using pymatgen
data_Ca2Al2SiO7
_symmetry_space_group_name_H-M   'P 1'
_cell_length_a   15.45989813
_cell_length_b   15.45980009
_cell_length_c   15.28504792
_cell_angle_alpha   89.99197693
_cell_angle_beta   89.99466843
_cell_angle_gamma   90.01030689
_symmetry_Int_Tables_number   1
_chemical_formula_structural   Ca2Al2SiO7
_chemical_formula_sum   'Ca48 Al48 Si24 O168'
_cell_volume   3653.23233573
_cell_formula_units_Z   24
loop_
 _symmetry_equiv_pos_site_id
 _symmetry_equiv_pos_as_xyz
  1  'x, y, z'
loop_
 _atom_type_symbol
 _atom_type_oxidation_number
  Ca2+  2.0
  Al0+  0.0
  Si0+  0.0
  O2-  -2.0
loop_
 _atom_site_type_symbol
 _atom_site_label
 _atom_site_symmetry_multiplicity
 _atom_site_fract_x
 _atom_site_fract_y
 _atom_site_fract_z
 _atom_site_occupancy
  Ca2+  Ca0  1  0.17396098  0.08256839  0.16799406  1
  Ca2+  Ca1  1  0.17205237  0.08645090  0.49842533  1
  Ca2+  Ca2  1  0.17215357  0.07448916  0.84544316  1
  Ca2+  Ca3  1  0.17289056  0.57583428  0.17812137  1
  Ca2+  Ca4  1  0.17510718  0.57666213  0.50680005  1
  Ca2+  Ca5  1  0.16934392  0.58466780  0.83135391  1
  Ca2+  Ca6  1  0.67138692  0.08121890  0.17428918  1
  Ca2+  Ca7  1  0.67000888  0.08778087  0.49915932  1
  Ca2+  Ca8  1  0.67427263  0.07197539  0.84518124  1
  Ca2+  Ca9  1  0.67406721  0.58470507  0.17124740  1
  Ca2+  Ca10  1  0.66597912  0.58495274  0.50105495  1
  Ca2+  Ca11  1  0.66792973  0.59325696  0.83986784  1
  Ca2+  Ca12  1  0.09054178  0.32150028  0.16500562  1
  Ca2+  Ca13  1  0.08903612  0.33212293  0.49217236  1
  Ca2+  Ca14  1  0.08688374  0.32740730  0.83073621  1
  Ca2+  Ca15  1  0.08293025  0.83524876  0.16196139  1
  Ca2+  Ca16  1  0.08124692  0.82613177  0.50092527  1
  Ca2+  Ca17  1  0.07892396  0.83052316  0.82630342  1
  Ca2+  Ca18  1  0.59126876  0.32875322  0.16864981  1
  Ca2+  Ca19  1  0.57850039  0.33214943  0.49311983  1
  Ca2+  Ca20  1  0.57505849  0.32998739  0.82689343  1
  Ca2+  Ca21  1  0.57249432  0.83275002  0.15885281  1
  Ca2+  Ca22  1  0.57227644  0.82565201  0.49716833  1
  Ca2+  Ca23  1  0.57814104  0.82831319  0.83105008  1
  Ca2+  Ca24  1  0.32847913  0.42548780  0.17701459  1
  Ca2+  Ca25  1  0.32561129  0.42192177  0.50852526  1
  Ca2+  Ca26  1  0.33415319  0.42098354  0.82858331  1
  Ca2+  Ca27  1  0.33449038  0.92017423  0.16932377  1
  Ca2+  Ca28  1  0.34478284  0.92097490  0.50030044  1
  Ca2+  Ca29  1  0.33204806  0.91626796  0.84288512  1
  Ca2+  Ca30  1  0.82872111  0.42834120  0.17476430  1
  Ca2+  Ca31  1  0.82605957  0.41901085  0.49727807  1
  Ca2+  Ca32  1  0.83005747  0.42672058  0.83964467  1
  Ca2+  Ca33  1  0.82494418  0.92489552  0.16759368  1
  Ca2+  Ca34  1  0.83736112  0.92148120  0.50277424  1
  Ca2+  Ca35  1  0.82789676  0.91466622  0.84337569  1
  Ca2+  Ca36  1  0.41649252  0.16242419  0.16592461  1
  Ca2+  Ca37  1  0.41851613  0.17292053  0.49014174  1
  Ca2+  Ca38  1  0.41259597  0.17037792  0.83004921  1
  Ca2+  Ca39  1  0.41778761  0.67557841  0.15968748  1
  Ca2+  Ca40  1  0.40711807  0.67356405  0.49615939  1
  Ca2+  Ca41  1  0.42451955  0.67679498  0.82362418  1
  Ca2+  Ca42  1  0.92536575  0.15840764  0.16289519  1
  Ca2+  Ca43  1  0.92377316  0.16894615  0.48731499  1
  Ca2+  Ca44  1  0.92388076  0.15856036  0.83418800  1
  Ca2+  Ca45  1  0.91479105  0.66119510  0.16185963  1
  Ca2+  Ca46  1  0.91903229  0.66721103  0.49848481  1
  Ca2+  Ca47  1  0.92093142  0.67217732  0.82445280  1
  Al0+  Al48  1  0.00176335  -0.00096746  0.00144232  1
  Al0+  Al49  1  -0.00060084  -0.00036124  0.33277393  1
  Al0+  Al50  1  0.00237886  0.00149486  0.66263625  1
  Al0+  Al51  1  -0.00076717  0.49783405  0.00284761  1
  Al0+  Al52  1  -0.00136256  0.49998076  0.34004964  1
  Al0+  Al53  1  -0.00110729  0.49716375  0.66787842  1
  Al0+  Al54  1  0.49952715  0.00124632  0.00146631  1
  Al0+  Al55  1  0.49928197  0.00008147  0.32963123  1
  Al0+  Al56  1  0.50434853  -0.00055910  0.66582814  1
  Al0+  Al57  1  0.49999835  0.49882971  -0.00359325  1
  Al0+  Al58  1  0.50039968  0.50213190  0.33882357  1
  Al0+  Al59  1  0.49953988  0.49766678  0.66388094  1
  Al0+  Al60  1  0.24880820  0.24900295  -0.00274657  1
  Al0+  Al61  1  0.25039813  0.24770435  0.33462194  1
  Al0+  Al62  1  0.25072236  0.25022172  0.66702679  1
  Al0+  Al63  1  0.24925730  0.74923798  0.00003670  1
  Al0+  Al64  1  0.24647362  0.75093259  0.33090506  1
  Al0+  Al65  1  0.24900284  0.75095108  0.66281135  1
  Al0+  Al66  1  0.75144893  0.25240729  -0.00029170  1
  Al0+  Al67  1  0.75057491  0.25096260  0.33636683  1
  Al0+  Al68  1  0.75330393  0.25024288  0.67073415  1
  Al0+  Al69  1  0.75028279  0.75015940  0.00702937  1
  Al0+  Al70  1  0.74930801  0.75183288  0.33696145  1
  Al0+  Al71  1  0.74889457  0.75259095  0.65818559  1
  Al0+  Al72  1  0.57112954  0.67769914  0.65016466  1
  Al0+  Al73  1  0.07183411  0.17903727  0.31831572  1
  Al0+  Al74  1  0.18062649  0.42744921  0.34729548  1
  Al0+  Al75  1  0.32080915  0.57446686  0.34703285  1
  Al0+  Al76  1  0.07050744  0.67636423  0.65153995  1
  Al0+  Al77  1  0.82063254  0.57072367  0.01136705  1
  Al0+  Al78  1  0.82195852  0.07267907  0.01454625  1
  Al0+  Al79  1  0.17950220  0.92557816  0.01438010  1
  Al0+  Al80  1  0.42744121  0.82265611  0.98418051  1
  Al0+  Al81  1  0.17748269  0.42742456  0.68507260  1
  Al0+  Al82  1  0.82111459  0.06962339  0.34781680  1
  Al0+  Al83  1  0.42748837  0.81957986  0.31700482  1
  Al0+  Al84  1  0.32098755  0.07274978  0.01429048  1
  Al0+  Al85  1  0.67803783  0.92842665  0.01598457  1
  Al0+  Al86  1  0.57136298  0.67885093  0.98670976  1
  Al0+  Al87  1  0.67860939  0.42903639  0.34895288  1
  Al0+  Al88  1  0.82080853  0.57404230  0.35174200  1
  Al0+  Al89  1  0.06965446  0.17880189  0.98491064  1
  Al0+  Al90  1  0.42904945  0.31791912  0.65217393  1
  Al0+  Al91  1  0.42782398  0.82262670  0.65107282  1
  Al0+  Al92  1  0.57135261  0.18114515  0.31966929  1
  Al0+  Al93  1  0.92871963  0.82283086  0.65160215  1
  Al0+  Al94  1  0.32162082  0.57307112  0.68383607  1
  Al0+  Al95  1  0.32111390  0.06785342  0.34760578  1
  Si0+  Si96  1  0.07062813  0.18032813  0.65091099  1
  Si0+  Si97  1  0.81830821  0.57179863  0.68106617  1
  Si0+  Si98  1  0.57320648  0.67755934  0.31567116  1
  Si0+  Si99  1  0.06756221  0.67854287  0.31750859  1
  Si0+  Si100  1  0.32295146  0.06997301  0.67974655  1
  Si0+  Si101  1  0.17588647  0.92779164  0.35202144  1
  Si0+  Si102  1  0.92711143  0.32031042  0.65137635  1
  Si0+  Si103  1  0.92758095  0.82158597  0.31606912  1
  Si0+  Si104  1  0.93056546  0.81925995  0.98843608  1
  Si0+  Si105  1  0.82373583  0.07134322  0.68207624  1
  Si0+  Si106  1  0.92822551  0.32386075  0.98232529  1
  Si0+  Si107  1  0.17917984  0.42904737  0.01454842  1
  Si0+  Si108  1  0.32179694  0.56984882  0.01300368  1
  Si0+  Si109  1  0.07086438  0.67485876  0.98695586  1
  Si0+  Si110  1  0.57506394  0.17840270  0.65208677  1
  Si0+  Si111  1  0.92812999  0.32281156  0.31618321  1
  Si0+  Si112  1  0.57369437  0.17948925  0.98529369  1
  Si0+  Si113  1  0.67525318  0.42780577  0.01490985  1
  Si0+  Si114  1  0.42809879  0.32318149  0.31666984  1
  Si0+  Si115  1  0.42801044  0.32067743  0.98511151  1
  Si0+  Si116  1  0.67659101  0.92968335  0.35260840  1
  Si0+  Si117  1  0.68092921  0.92958781  0.68133195  1
  Si0+  Si118  1  0.67904201  0.42699664  0.68329722  1
  Si0+  Si119  1  0.17802817  0.93089888  0.67973638  1
  O2-  O120  1  0.25317286  -0.00373618  0.06329190  1
  O2-  O121  1  0.24725825  -0.00646421  0.39662856  1
  O2-  O122  1  0.25512436  -0.00420892  0.72119447  1
  O2-  O123  1  0.24938055  0.50056619  0.05602598  1
  O2-  O124  1  0.25328185  0.49826186  0.39688417  1
  O2-  O125  1  0.24752474  0.50204688  0.73458413  1
  O2-  O126  1  0.74552238  0.00591269  0.06465402  1
  O2-  O127  1  0.74641120  -0.00283790  0.39796715  1
  O2-  O128  1  0.75385416  -0.00055251  0.72358292  1
  O2-  O129  1  0.74350417  0.49796135  0.05642839  1
  O2-  O130  1  0.74667806  0.50390017  0.40086437  1
  O2-  O131  1  0.74475937  0.50366568  0.72482824  1
  O2-  O132  1  -0.00193041  0.25542755  0.27196108  1
  O2-  O133  1  0.00088891  0.25246209  0.60940190  1
  O2-  O134  1  -0.00734777  0.25124279  0.93718649  1
  O2-  O135  1  -0.00488795  0.74736112  0.27347701  1
  O2-  O136  1  -0.00235160  0.74799795  0.60147559  1
  O2-  O137  1  0.00102753  0.74775192  0.94580600  1
  O2-  O138  1  0.49870388  0.25722437  0.27085257  1
  O2-  O139  1  0.50508002  0.24431285  0.60684549  1
  O2-  O140  1  0.50015364  0.24891115  0.94425184  1
  O2-  O141  1  0.50113031  0.74270706  0.27191040  1
  O2-  O142  1  0.49337184  0.74431044  0.60137803  1
  O2-  O143  1  0.50007019  0.75061404  0.93553472  1
  O2-  O144  1  0.07133274  0.18136876  0.09751283  1
  O2-  O145  1  0.06952430  0.17927318  0.43208309  1
  O2-  O146  1  0.06861358  0.17778283  0.75609092  1
  O2-  O147  1  0.06917292  0.67207183  0.09207431  1
  O2-  O148  1  0.06729495  0.68043599  0.42219122  1
  O2-  O149  1  0.06729356  0.67878392  0.76611679  1
  O2-  O150  1  0.57683857  0.18226711  0.08996986  1
  O2-  O151  1  0.56991112  0.18204028  0.43317913  1
  O2-  O152  1  0.57571512  0.17969519  0.75808515  1
  O2-  O153  1  0.56864893  0.67621033  0.10004633  1
  O2-  O154  1  0.57528105  0.68103273  0.42099910  1
  O2-  O155  1  0.57554107  0.68354417  0.76375526  1
  O2-  O156  1  0.18168380  0.42943695  0.23271398  1
  O2-  O157  1  0.17970150  0.42414576  0.57216020  1
  O2-  O158  1  0.17839968  0.42939983  0.90968394  1
  O2-  O159  1  0.17463657  0.92843366  0.24656282  1
  O2-  O160  1  0.17220233  0.93618616  0.57515130  1
  O2-  O161  1  0.17707601  0.92700009  0.90008332  1
  O2-  O162  1  0.68251697  0.42877344  0.23496704  1
  O2-  O163  1  0.68406401  0.42077413  0.57914660  1
  O2-  O164  1  0.67579364  0.42552929  0.90896640  1
  O2-  O165  1  0.67871379  0.93059649  0.24710055  1
  O2-  O166  1  0.67944889  0.93322051  0.57659833  1
  O2-  O167  1  0.68249986  0.92794343  0.90158024  1
  O2-  O168  1  0.42723572  0.32362449  0.08980824  1
  O2-  O169  1  0.42777402  0.31882816  0.42212126  1
  O2-  O170  1  0.43019591  0.31471930  0.76617647  1
  O2-  O171  1  0.42657568  0.81887167  0.09768479  1
  O2-  O172  1  0.43013165  0.82035680  0.43000023  1
  O2-  O173  1  0.43143997  0.82707696  0.76426180  1
  O2-  O174  1  0.93123726  0.32838169  0.08718521  1
  O2-  O175  1  0.92807675  0.32011869  0.42234953  1
  O2-  O176  1  0.92330514  0.31792763  0.75644361  1
  O2-  O177  1  0.93148382  0.81808700  0.09352773  1
  O2-  O178  1  0.93069693  0.82315777  0.42105426  1
  O2-  O179  1  0.92918194  0.82308490  0.76590694  1
  O2-  O180  1  0.32014001  0.06832530  0.23509599  1
  O2-  O181  1  0.32170086  0.07112630  0.57477468  1
  O2-  O182  1  0.31755873  0.07533623  0.89983076  1
  O2-  O183  1  0.31744481  0.57277609  0.23225048  1
  O2-  O184  1  0.31906161  0.57048122  0.57075544  1
  O2-  O185  1  0.32147345  0.56842055  0.90827727  1
  O2-  O186  1  0.82123789  0.06694061  0.23522784  1
  O2-  O187  1  0.82303006  0.07352111  0.57720252  1
  O2-  O188  1  0.82134540  0.06849186  0.90001029  1
  O2-  O189  1  0.82139535  0.57240360  0.23782659  1
  O2-  O190  1  0.81840901  0.56863249  0.57654499  1
  O2-  O191  1  0.82264259  0.57019841  0.89784335  1
  O2-  O192  1  0.03840302  0.08252514  0.26583619  1
  O2-  O193  1  0.04183365  0.09028285  0.60122145  1
  O2-  O194  1  0.03964970  0.08150982  0.93031258  1
  O2-  O195  1  0.04094877  0.58529174  0.27164880  1
  O2-  O196  1  0.04176411  0.57716718  0.60094262  1
  O2-  O197  1  0.04116503  0.58409195  0.93840665  1
  O2-  O198  1  0.54018033  0.08537520  0.26516537  1
  O2-  O199  1  0.55350601  0.08436259  0.60646746  1
  O2-  O200  1  0.54806166  0.08752335  0.93735525  1
  O2-  O201  1  0.55365035  0.58124998  0.27277555  1
  O2-  O202  1  0.55312868  0.57558792  0.60232688  1
  O2-  O203  1  0.54553841  0.57943224  0.93282975  1
  O2-  O204  1  0.16862830  0.20930038  0.26421268  1
  O2-  O205  1  0.16302335  0.20692472  0.60499824  1
  O2-  O206  1  0.16466664  0.21293344  0.92885806  1
  O2-  O207  1  0.15783699  0.70772467  0.26765046  1
  O2-  O208  1  0.16706342  0.70661651  0.59728395  1
  O2-  O209  1  0.16256665  0.70114364  0.93926280  1
  O2-  O210  1  0.66867569  0.21190671  0.26618886  1
  O2-  O211  1  0.66902452  0.20645816  0.60774659  1
  O2-  O212  1  0.66460602  0.20866246  0.93525620  1
  O2-  O213  1  0.66690914  0.70685810  0.27062054  1
  O2-  O214  1  0.66631387  0.71157976  0.59382646  1
  O2-  O215  1  0.67161700  0.70804472  0.93681604  1
  O2-  O216  1  0.08769016  0.45529473  0.06275284  1
  O2-  O217  1  0.08194435  0.45402515  0.39961365  1
  O2-  O218  1  0.07655990  0.45076153  0.73684905  1
  O2-  O219  1  0.08224037  0.95556291  0.06796178  1
  O2-  O220  1  0.08372285  0.95654416  0.39877199  1
  O2-  O221  1  0.08876493  0.96515002  0.72983890  1
  O2-  O222  1  0.58131789  0.45014781  0.06141603  1
  O2-  O223  1  0.57927698  0.45174709  0.40216243  1
  O2-  O224  1  0.58496643  0.44712723  0.72852474  1
  O2-  O225  1  0.57902701  0.95429234  0.06683099  1
  O2-  O226  1  0.58402205  0.95806762  0.39775234  1
  O2-  O227  1  0.59086170  0.95956778  0.73180211  1
  O2-  O228  1  0.20909640  0.33767241  0.06041728  1
  O2-  O229  1  0.20714377  0.32899286  0.40000213  1
  O2-  O230  1  0.21080611  0.32926711  0.73813362  1
  O2-  O231  1  0.20258362  0.82605141  0.06861590  1
  O2-  O232  1  0.19791680  0.83297068  0.39592700  1
  O2-  O233  1  0.19743240  0.83651881  0.72459461  1
  O2-  O234  1  0.70311876  0.33539031  0.06176013  1
  O2-  O235  1  0.71092439  0.33285028  0.40471643  1
  O2-  O236  1  0.71344239  0.33797107  0.73439843  1
  O2-  O237  1  0.71105335  0.83381557  0.07269015  1
  O2-  O238  1  0.70231167  0.83642347  0.39847126  1
  O2-  O239  1  0.70898570  0.83738328  0.72752738  1
  O2-  O240  1  0.45053870  0.41903064  0.27341533  1
  O2-  O241  1  0.45797265  0.41400365  0.59837878  1
  O2-  O242  1  0.45686671  0.41082710  0.93434478  1
  O2-  O243  1  0.46100314  0.91550137  0.26370707  1
  O2-  O244  1  0.46456698  0.91945428  0.59779261  1
  O2-  O245  1  0.45334287  0.92303884  0.93340102  1
  O2-  O246  1  0.95194629  0.41811067  0.27259364  1
  O2-  O247  1  0.94996890  0.41299569  0.60468247  1
  O2-  O248  1  0.95919181  0.41520450  0.93295295  1
  O2-  O249  1  0.95915300  0.91157687  0.26774072  1
  O2-  O250  1  0.96134322  0.91998757  0.59732211  1
  O2-  O251  1  0.95781545  0.91024807  0.93930798  1
  O2-  O252  1  0.33580196  0.29405058  0.27002351  1
  O2-  O253  1  0.33335250  0.28536506  0.59796093  1
  O2-  O254  1  0.33767108  0.29148728  0.93556566  1
  O2-  O255  1  0.32868988  0.79255454  0.26475932  1
  O2-  O256  1  0.32705848  0.80385021  0.59951578  1
  O2-  O257  1  0.32817238  0.79308437  0.93241544  1
  O2-  O258  1  0.83505821  0.29661182  0.27060708  1
  O2-  O259  1  0.83713875  0.28833022  0.60229100  1
  O2-  O260  1  0.83278520  0.30418408  0.93631507  1
  O2-  O261  1  0.83367219  0.79751322  0.27120536  1
  O2-  O262  1  0.83119501  0.79901626  0.59625753  1
  O2-  O263  1  0.83859313  0.79141733  0.94169792  1
  O2-  O264  1  0.42144880  0.05267655  0.06486738  1
  O2-  O265  1  0.41823571  0.03854857  0.40158018  1
  O2-  O266  1  0.41721840  0.04749192  0.72546517  1
  O2-  O267  1  0.41270842  0.53917140  0.06035087  1
  O2-  O268  1  0.42119834  0.55544579  0.39764754  1
  O2-  O269  1  0.42029661  0.53982960  0.73505780  1
  O2-  O270  1  0.91870993  0.04022447  0.06646611  1
  O2-  O271  1  0.91700785  0.03679051  0.40260963  1
  O2-  O272  1  0.91672716  0.04413774  0.72755228  1
  O2-  O273  1  0.91561976  0.53662814  0.06785558  1
  O2-  O274  1  0.91761901  0.54329145  0.40594416  1
  O2-  O275  1  0.90903029  0.54100312  0.72912228  1
  O2-  O276  1  0.28775109  0.16993205  0.06745606  1
  O2-  O277  1  0.28969055  0.16401366  0.40196847  1
  O2-  O278  1  0.29133553  0.15998014  0.72804318  1
  O2-  O279  1  0.29448031  0.66132000  0.06016860  1
  O2-  O280  1  0.28511827  0.67052831  0.39946913  1
  O2-  O281  1  0.29339407  0.67331873  0.73433734  1
  O2-  O282  1  0.80074406  0.17435295  0.06308868  1
  O2-  O283  1  0.79268111  0.16663909  0.40166534  1
  O2-  O284  1  0.79625224  0.16243402  0.73170128  1
  O2-  O285  1  0.79419467  0.66567220  0.06941009  1
  O2-  O286  1  0.79551007  0.67365962  0.40370823  1
  O2-  O287  1  0.79324525  0.66639011  0.72453598  1
