# generated using pymatgen
data_Ca2Al2SiO7
_symmetry_space_group_name_H-M   'P 1'
_cell_length_a   15.46361328
_cell_length_b   15.46334240
_cell_length_c   15.28710549
_cell_angle_alpha   90.00800912
_cell_angle_beta   90.01079871
_cell_angle_gamma   89.98951966
_symmetry_Int_Tables_number   1
_chemical_formula_structural   Ca2Al2SiO7
_chemical_formula_sum   'Ca48 Al48 Si24 O168'
_cell_volume   3655.43946141
_cell_formula_units_Z   24
loop_
 _symmetry_equiv_pos_site_id
 _symmetry_equiv_pos_as_xyz
  1  'x, y, z'
loop_
 _atom_type_symbol
 _atom_type_oxidation_number
  Ca2+  2.0
  Al0+  0.0
  Si0+  0.0
  O2-  -2.0
loop_
 _atom_site_type_symbol
 _atom_site_label
 _atom_site_symmetry_multiplicity
 _atom_site_fract_x
 _atom_site_fract_y
 _atom_site_fract_z
 _atom_site_occupancy
  Ca2+  Ca0  1  0.17503258  0.07777452  0.17763206  1
  Ca2+  Ca1  1  0.17837638  0.08425848  0.50622187  1
  Ca2+  Ca2  1  0.17334294  0.08882679  0.83220172  1
  Ca2+  Ca3  1  0.16518814  0.57957742  0.16883436  1
  Ca2+  Ca4  1  0.16016817  0.58102588  0.50156247  1
  Ca2+  Ca5  1  0.16973074  0.58152634  0.84232387  1
  Ca2+  Ca6  1  0.66494637  0.07037500  0.17193353  1
  Ca2+  Ca7  1  0.65950058  0.07225805  0.50663911  1
  Ca2+  Ca8  1  0.65727173  0.07405328  0.83243889  1
  Ca2+  Ca9  1  0.67184178  0.58435142  0.18105143  1
  Ca2+  Ca10  1  0.66563898  0.57926174  0.50019709  1
  Ca2+  Ca11  1  0.66546713  0.57485389  0.83347638  1
  Ca2+  Ca12  1  0.08795907  0.33944764  0.16555649  1
  Ca2+  Ca13  1  0.08266435  0.33078131  0.49830485  1
  Ca2+  Ca14  1  0.07982090  0.33167974  0.82374793  1
  Ca2+  Ca15  1  0.08050490  0.82027371  0.16434028  1
  Ca2+  Ca16  1  0.07812643  0.82011843  0.49100577  1
  Ca2+  Ca17  1  0.08769598  0.81904669  0.82702531  1
  Ca2+  Ca18  1  0.57518274  0.34135766  0.16854389  1
  Ca2+  Ca19  1  0.57567457  0.33629078  0.49522481  1
  Ca2+  Ca20  1  0.57772223  0.32640395  0.81705778  1
  Ca2+  Ca21  1  0.57931837  0.83445355  0.16749208  1
  Ca2+  Ca22  1  0.57945200  0.83552886  0.49226553  1
  Ca2+  Ca23  1  0.57545010  0.83941715  0.82908423  1
  Ca2+  Ca24  1  0.32436332  0.42315434  0.17421910  1
  Ca2+  Ca25  1  0.33277372  0.41339427  0.50227354  1
  Ca2+  Ca26  1  0.32856991  0.42359780  0.84049004  1
  Ca2+  Ca27  1  0.34208972  0.92067469  0.17301452  1
  Ca2+  Ca28  1  0.34541933  0.92658541  0.50493704  1
  Ca2+  Ca29  1  0.34162913  0.92050935  0.83323429  1
  Ca2+  Ca30  1  0.82486435  0.42579771  0.17895319  1
  Ca2+  Ca31  1  0.82382232  0.41939250  0.50339956  1
  Ca2+  Ca32  1  0.82988842  0.40942922  0.83030146  1
  Ca2+  Ca33  1  0.82453622  0.90966199  0.17533604  1
  Ca2+  Ca34  1  0.82254897  0.90709150  0.50260002  1
  Ca2+  Ca35  1  0.81916369  0.91478951  0.83753478  1
  Ca2+  Ca36  1  0.41229471  0.17167542  0.17164507  1
  Ca2+  Ca37  1  0.41626982  0.17231945  0.49945424  1
  Ca2+  Ca38  1  0.42025085  0.17378299  0.82038708  1
  Ca2+  Ca39  1  0.41865905  0.67483906  0.16296163  1
  Ca2+  Ca40  1  0.42326730  0.68120885  0.49109510  1
  Ca2+  Ca41  1  0.41004255  0.67792392  0.82981501  1
  Ca2+  Ca42  1  0.91778597  0.16942026  0.16399790  1
  Ca2+  Ca43  1  0.91868608  0.17038681  0.50090091  1
  Ca2+  Ca44  1  0.92613067  0.17338841  0.82135161  1
  Ca2+  Ca45  1  0.92256591  0.66326839  0.17084825  1
  Ca2+  Ca46  1  0.92382205  0.66504907  0.49147405  1
  Ca2+  Ca47  1  0.93031959  0.66222348  0.82919353  1
  Al0+  Al48  1  -0.00066399  0.00107579  -0.00166784  1
  Al0+  Al49  1  0.00094015  -0.00000822  0.32960128  1
  Al0+  Al50  1  0.00033941  -0.00231326  0.66442976  1
  Al0+  Al51  1  -0.00207063  0.49874396  -0.00139123  1
  Al0+  Al52  1  -0.00042578  0.49764820  0.33727714  1
  Al0+  Al53  1  -0.00047308  0.49942586  0.66042117  1
  Al0+  Al54  1  0.50088902  0.00050642  0.00186576  1
  Al0+  Al55  1  0.50159641  0.00305090  0.33705815  1
  Al0+  Al56  1  0.49866248  0.00193912  0.66981634  1
  Al0+  Al57  1  0.49852822  0.50154090  0.00234774  1
  Al0+  Al58  1  0.49740940  0.50018416  0.32794518  1
  Al0+  Al59  1  0.49966248  0.50169135  0.67010924  1
  Al0+  Al60  1  0.25005345  0.24977405  0.00291406  1
  Al0+  Al61  1  0.25108378  0.25005765  0.33645406  1
  Al0+  Al62  1  0.24990733  0.25000612  0.66610572  1
  Al0+  Al63  1  0.25050560  0.75176948  -0.00439531  1
  Al0+  Al64  1  0.24941464  0.75023817  0.32498561  1
  Al0+  Al65  1  0.25051865  0.75079957  0.65649830  1
  Al0+  Al66  1  0.75031459  0.24806716  0.00003980  1
  Al0+  Al67  1  0.75016635  0.24838938  0.33443899  1
  Al0+  Al68  1  0.75068410  0.24798305  0.66367133  1
  Al0+  Al69  1  0.74852780  0.74873258  0.00276658  1
  Al0+  Al70  1  0.75117287  0.74976921  0.33598991  1
  Al0+  Al71  1  0.75089033  0.74800492  0.67701653  1
  Al0+  Al72  1  0.07088858  0.67501796  0.31607498  1
  Al0+  Al73  1  0.31841916  0.07073062  0.68231445  1
  Al0+  Al74  1  0.06852548  0.67938272  0.98529567  1
  Al0+  Al75  1  0.43039942  0.82492378  0.31788841  1
  Al0+  Al76  1  0.67924951  0.92984330  0.01597123  1
  Al0+  Al77  1  0.32014493  0.06904418  0.34799396  1
  Al0+  Al78  1  0.82039959  0.57097700  0.34973835  1
  Al0+  Al79  1  0.92878359  0.82203211  0.31901674  1
  Al0+  Al80  1  0.42903034  0.32450704  0.65315372  1
  Al0+  Al81  1  0.18040010  0.43047997  0.34959025  1
  Al0+  Al82  1  0.67514694  0.42763149  0.34777876  1
  Al0+  Al83  1  0.32122163  0.57472551  0.01564114  1
  Al0+  Al84  1  0.43152658  0.82155218  0.98474211  1
  Al0+  Al85  1  0.67952328  0.92923992  0.68206201  1
  Al0+  Al86  1  0.57082774  0.17820552  0.65188287  1
  Al0+  Al87  1  0.68199268  0.93070157  0.34772934  1
  Al0+  Al88  1  0.57085430  0.67910022  0.31987729  1
  Al0+  Al89  1  0.07261824  0.17674938  0.65080667  1
  Al0+  Al90  1  0.43180810  0.82076162  0.65297993  1
  Al0+  Al91  1  0.07128263  0.67942229  0.65210174  1
  Al0+  Al92  1  0.92831404  0.32089272  0.64926659  1
  Al0+  Al93  1  0.17838086  0.42894192  0.01366578  1
  Al0+  Al94  1  0.67844444  0.42814277  0.68023009  1
  Al0+  Al95  1  0.42804894  0.32066162  0.31823245  1
  Si0+  Si96  1  0.32023479  0.07043804  0.01563437  1
  Si0+  Si97  1  0.07249240  0.17800306  0.98606671  1
  Si0+  Si98  1  0.17902234  0.43072650  0.68066658  1
  Si0+  Si99  1  0.92546739  0.82046034  0.65322578  1
  Si0+  Si100  1  0.07206000  0.18019369  0.31724695  1
  Si0+  Si101  1  0.67861835  0.42625338  0.01359968  1
  Si0+  Si102  1  0.17747889  0.92571367  0.68220509  1
  Si0+  Si103  1  0.57008420  0.18101164  0.98639126  1
  Si0+  Si104  1  0.42794328  0.32160577  0.98575517  1
  Si0+  Si105  1  0.57448205  0.67774146  0.65320321  1
  Si0+  Si106  1  0.17651720  0.92961643  0.01341812  1
  Si0+  Si107  1  0.92812358  0.31888642  0.31690720  1
  Si0+  Si108  1  0.92586913  0.82304977  0.98218494  1
  Si0+  Si109  1  0.17660459  0.92635850  0.34864093  1
  Si0+  Si110  1  0.82600024  0.07319979  0.35059088  1
  Si0+  Si111  1  0.32152714  0.57471905  0.35036307  1
  Si0+  Si112  1  0.82358073  0.07220168  0.01684147  1
  Si0+  Si113  1  0.57351618  0.17887446  0.31523607  1
  Si0+  Si114  1  0.81996156  0.56886017  0.01422375  1
  Si0+  Si115  1  0.57419146  0.67602892  0.98158815  1
  Si0+  Si116  1  0.32036426  0.57419286  0.67941186  1
  Si0+  Si117  1  0.92824073  0.31933612  0.98595751  1
  Si0+  Si118  1  0.82535473  0.07168982  0.68383828  1
  Si0+  Si119  1  0.82378160  0.56957952  0.68644474  1
  O2-  O120  1  0.24808727  0.00001188  0.05629172  1
  O2-  O121  1  0.24935572  -0.01001789  0.39344096  1
  O2-  O122  1  0.24260158  -0.00330178  0.72944151  1
  O2-  O123  1  0.24953554  0.50125797  0.06402197  1
  O2-  O124  1  0.25166785  0.50809877  0.39652149  1
  O2-  O125  1  0.25002784  0.50189107  0.72217928  1
  O2-  O126  1  0.75855445  0.00086946  0.06124949  1
  O2-  O127  1  0.75919376  0.00320117  0.39416788  1
  O2-  O128  1  0.75561106  0.00397035  0.72849986  1
  O2-  O129  1  0.74525813  0.50101784  0.05535380  1
  O2-  O130  1  0.74518214  0.50120537  0.39762869  1
  O2-  O131  1  0.75438346  0.50073429  0.73016571  1
  O2-  O132  1  -0.00083827  0.24841652  0.27289373  1
  O2-  O133  1  0.00002591  0.24772028  0.60051238  1
  O2-  O134  1  0.00169747  0.24988520  0.94512537  1
  O2-  O135  1  0.00032194  0.74995003  0.26801485  1
  O2-  O136  1  -0.00442086  0.75412846  0.60887013  1
  O2-  O137  1  -0.00454027  0.75582174  0.93724810  1
  O2-  O138  1  0.50736659  0.25031326  0.27078549  1
  O2-  O139  1  0.50390604  0.25539279  0.60352178  1
  O2-  O140  1  0.50270538  0.25502782  0.94362773  1
  O2-  O141  1  0.49946458  0.75051128  0.26748388  1
  O2-  O142  1  0.50946935  0.74890826  0.60866357  1
  O2-  O143  1  0.50461622  0.74443944  0.93824734  1
  O2-  O144  1  0.07195925  0.17602041  0.09109892  1
  O2-  O145  1  0.07131197  0.18099117  0.42171447  1
  O2-  O146  1  0.07250946  0.18091805  0.76552779  1
  O2-  O147  1  0.06538510  0.67839168  0.09750657  1
  O2-  O148  1  0.06892753  0.67656911  0.42963498  1
  O2-  O149  1  0.07166735  0.67857091  0.76585288  1
  O2-  O150  1  0.57025407  0.18160902  0.09127014  1
  O2-  O151  1  0.57301519  0.17713210  0.42017516  1
  O2-  O152  1  0.56685502  0.17906616  0.76681572  1
  O2-  O153  1  0.57679287  0.67570028  0.08660116  1
  O2-  O154  1  0.56883712  0.67997167  0.43373053  1
  O2-  O155  1  0.57224488  0.67679279  0.75923517  1
  O2-  O156  1  0.18135646  0.42926867  0.23629042  1
  O2-  O157  1  0.17874317  0.43106529  0.57587665  1
  O2-  O158  1  0.17928300  0.42693661  0.89961966  1
  O2-  O159  1  0.17417248  0.93177831  0.24244319  1
  O2-  O160  1  0.17892868  0.92553055  0.57708418  1
  O2-  O161  1  0.17463521  0.93225085  0.90839093  1
  O2-  O162  1  0.68027700  0.42691579  0.23294615  1
  O2-  O163  1  0.67691917  0.43212454  0.56819071  1
  O2-  O164  1  0.68099596  0.42378987  0.90849909  1
  O2-  O165  1  0.68151419  0.93395382  0.23425208  1
  O2-  O166  1  0.68111407  0.92809608  0.56952026  1
  O2-  O167  1  0.67817279  0.93397497  0.90282644  1
  O2-  O168  1  0.42704189  0.31894362  0.09067075  1
  O2-  O169  1  0.42656772  0.31781417  0.43063913  1
  O2-  O170  1  0.42880413  0.32341194  0.76795530  1
  O2-  O171  1  0.43398228  0.82493446  0.09710510  1
  O2-  O172  1  0.43359421  0.82548092  0.43136156  1
  O2-  O173  1  0.43074636  0.81919438  0.76653479  1
  O2-  O174  1  0.92528279  0.31739336  0.09093236  1
  O2-  O175  1  0.92777150  0.31669918  0.42126812  1
  O2-  O176  1  0.93191158  0.32056782  0.76423480  1
  O2-  O177  1  0.92710404  0.82351620  0.08728359  1
  O2-  O178  1  0.93180208  0.82281351  0.43272637  1
  O2-  O179  1  0.92589455  0.81833658  0.75928500  1
  O2-  O180  1  0.31700224  0.07011899  0.23374249  1
  O2-  O181  1  0.31873915  0.06996505  0.56981303  1
  O2-  O182  1  0.31971266  0.07293610  0.91071006  1
  O2-  O183  1  0.32091615  0.57226980  0.24469920  1
  O2-  O184  1  0.32002527  0.57485614  0.57481109  1
  O2-  O185  1  0.31979583  0.57238257  0.90111530  1
  O2-  O186  1  0.82495855  0.07552177  0.24444947  1
  O2-  O187  1  0.82769928  0.06967826  0.57867597  1
  O2-  O188  1  0.82445150  0.07496872  0.91170471  1
  O2-  O189  1  0.82116023  0.56659727  0.23507833  1
  O2-  O190  1  0.82374750  0.57163556  0.58173892  1
  O2-  O191  1  0.82167483  0.56653524  0.90906750  1
  O2-  O192  1  0.04694285  0.08804991  0.26833456  1
  O2-  O193  1  0.04769052  0.07686446  0.59968929  1
  O2-  O194  1  0.04505427  0.08709110  0.93633362  1
  O2-  O195  1  0.03850537  0.57666398  0.26480531  1
  O2-  O196  1  0.04031087  0.58396847  0.59821196  1
  O2-  O197  1  0.03531254  0.58264439  0.93127110  1
  O2-  O198  1  0.54170509  0.08786739  0.26724636  1
  O2-  O199  1  0.53614615  0.08264563  0.59930509  1
  O2-  O200  1  0.53836298  0.09060839  0.93923964  1
  O2-  O201  1  0.54465848  0.58116391  0.26414237  1
  O2-  O202  1  0.54655032  0.58548817  0.60743413  1
  O2-  O203  1  0.54906524  0.58114497  0.93627295  1
  O2-  O204  1  0.16232186  0.21104084  0.26897066  1
  O2-  O205  1  0.16937529  0.20794453  0.59822316  1
  O2-  O206  1  0.16457100  0.20574389  0.93882503  1
  O2-  O207  1  0.16885892  0.70208988  0.26174238  1
  O2-  O208  1  0.16526848  0.71007443  0.59464188  1
  O2-  O209  1  0.16504306  0.71052742  0.93115630  1
  O2-  O210  1  0.66864800  0.19945444  0.26878868  1
  O2-  O211  1  0.67192516  0.19536345  0.60256375  1
  O2-  O212  1  0.66353441  0.20446948  0.93924305  1
  O2-  O213  1  0.66995285  0.70653332  0.26838575  1
  O2-  O214  1  0.67060569  0.69929749  0.61190549  1
  O2-  O215  1  0.66817164  0.70088980  0.93512874  1
  O2-  O216  1  0.07825211  0.45492448  0.06468729  1
  O2-  O217  1  0.08270551  0.45577432  0.40310996  1
  O2-  O218  1  0.08644121  0.45856683  0.72710300  1
  O2-  O219  1  0.08500334  0.95823978  0.06174150  1
  O2-  O220  1  0.08460451  0.95663301  0.39526235  1
  O2-  O221  1  0.08201417  0.94567947  0.72802895  1
  O2-  O222  1  0.58478993  0.44945789  0.05835684  1
  O2-  O223  1  0.57481750  0.45304558  0.39660088  1
  O2-  O224  1  0.58302952  0.46074234  0.73804731  1
  O2-  O225  1  0.58507846  0.96727976  0.07032435  1
  O2-  O226  1  0.58711245  0.96539959  0.40181383  1
  O2-  O227  1  0.58445675  0.96436335  0.73706066  1
  O2-  O228  1  0.20642055  0.33016467  0.06745753  1
  O2-  O229  1  0.21336742  0.33454294  0.40272548  1
  O2-  O230  1  0.20555866  0.33883163  0.72849228  1
  O2-  O231  1  0.20352087  0.83773351  0.05926160  1
  O2-  O232  1  0.19591234  0.82983488  0.38979484  1
  O2-  O233  1  0.20841022  0.83282042  0.72793652  1
  O2-  O234  1  0.70967438  0.33570026  0.06168762  1
  O2-  O235  1  0.70587153  0.32898814  0.39834307  1
  O2-  O236  1  0.70910168  0.33018013  0.73362822  1
  O2-  O237  1  0.70608262  0.83116336  0.06738361  1
  O2-  O238  1  0.71000125  0.83423851  0.40195831  1
  O2-  O239  1  0.70891710  0.83310712  0.73979529  1
  O2-  O240  1  0.45443622  0.41685629  0.26112631  1
  O2-  O241  1  0.45413437  0.42416846  0.60201951  1
  O2-  O242  1  0.45069102  0.41573752  0.94085651  1
  O2-  O243  1  0.46239622  0.92321936  0.26603297  1
  O2-  O244  1  0.46141977  0.91807730  0.60280532  1
  O2-  O245  1  0.46508701  0.91870614  0.93153548  1
  O2-  O246  1  0.95715231  0.41017934  0.27002243  1
  O2-  O247  1  0.95733325  0.41775671  0.59590196  1
  O2-  O248  1  0.95329528  0.41063224  0.93703892  1
  O2-  O249  1  0.95505204  0.92104819  0.26363678  1
  O2-  O250  1  0.94575633  0.91484305  0.60790075  1
  O2-  O251  1  0.94906586  0.91819970  0.93723414  1
  O2-  O252  1  0.33348053  0.28279791  0.26332756  1
  O2-  O253  1  0.33155550  0.29395844  0.60183302  1
  O2-  O254  1  0.33702686  0.28976968  0.93862978  1
  O2-  O255  1  0.33038980  0.80189604  0.26561157  1
  O2-  O256  1  0.33715842  0.79056667  0.59632717  1
  O2-  O257  1  0.33361795  0.79542054  0.93023224  1
  O2-  O258  1  0.83680593  0.29032581  0.26754971  1
  O2-  O259  1  0.83041477  0.29335894  0.59685505  1
  O2-  O260  1  0.83752730  0.28869796  0.93666232  1
  O2-  O261  1  0.83118525  0.79256951  0.26600471  1
  O2-  O262  1  0.83200575  0.79181206  0.60909027  1
  O2-  O263  1  0.83200679  0.79519632  0.93757275  1
  O2-  O264  1  0.41133652  0.04171670  0.06310066  1
  O2-  O265  1  0.41754209  0.04389867  0.40165367  1
  O2-  O266  1  0.41373379  0.03924201  0.73878123  1
  O2-  O267  1  0.42045873  0.54767069  0.06812667  1
  O2-  O268  1  0.41456169  0.54676750  0.39505560  1
  O2-  O269  1  0.41161960  0.54936140  0.72982778  1
  O2-  O270  1  0.91888259  0.05145811  0.06260030  1
  O2-  O271  1  0.92119517  0.05099196  0.39450018  1
  O2-  O272  1  0.91912583  0.04594750  0.73177106  1
  O2-  O273  1  0.90943580  0.53652220  0.06280780  1
  O2-  O274  1  0.91654633  0.53756320  0.40297568  1
  O2-  O275  1  0.91720518  0.54014507  0.73226706  1
  O2-  O276  1  0.29218026  0.16170581  0.06427325  1
  O2-  O277  1  0.28428880  0.16325042  0.40167319  1
  O2-  O278  1  0.28696297  0.16765749  0.73781956  1
  O2-  O279  1  0.29280316  0.67378642  0.06612238  1
  O2-  O280  1  0.29837020  0.67044064  0.39327787  1
  O2-  O281  1  0.28916188  0.66558169  0.72647593  1
  O2-  O282  1  0.79444764  0.16472644  0.06488641  1
  O2-  O283  1  0.79968091  0.16610174  0.39688695  1
  O2-  O284  1  0.80207402  0.16611016  0.72961663  1
  O2-  O285  1  0.79636910  0.66172051  0.06104373  1
  O2-  O286  1  0.79696728  0.66956641  0.40302039  1
  O2-  O287  1  0.79961726  0.66179573  0.73694905  1
