# generated using pymatgen
data_Ca2Al2SiO7
_symmetry_space_group_name_H-M   'P 1'
_cell_length_a   15.45968283
_cell_length_b   15.46219961
_cell_length_c   15.28545909
_cell_angle_alpha   89.98908990
_cell_angle_beta   89.99817258
_cell_angle_gamma   89.99196098
_symmetry_Int_Tables_number   1
_chemical_formula_structural   Ca2Al2SiO7
_chemical_formula_sum   'Ca48 Al48 Si24 O168'
_cell_volume   3653.84676354
_cell_formula_units_Z   24
loop_
 _symmetry_equiv_pos_site_id
 _symmetry_equiv_pos_as_xyz
  1  'x, y, z'
loop_
 _atom_type_symbol
 _atom_type_oxidation_number
  Ca2+  2.0
  Al0+  0.0
  Si0+  0.0
  O2-  -2.0
loop_
 _atom_site_type_symbol
 _atom_site_label
 _atom_site_symmetry_multiplicity
 _atom_site_fract_x
 _atom_site_fract_y
 _atom_site_fract_z
 _atom_site_occupancy
  Ca2+  Ca0  1  0.16866433  0.07887059  0.17351529  1
  Ca2+  Ca1  1  0.17462796  0.09729036  0.50290433  1
  Ca2+  Ca2  1  0.17019264  0.08308931  0.83449138  1
  Ca2+  Ca3  1  0.17721036  0.57733729  0.17258586  1
  Ca2+  Ca4  1  0.16679005  0.58640705  0.50132589  1
  Ca2+  Ca5  1  0.17130820  0.57664967  0.84378692  1
  Ca2+  Ca6  1  0.67580406  0.09498720  0.16950814  1
  Ca2+  Ca7  1  0.67902358  0.09230086  0.50750732  1
  Ca2+  Ca8  1  0.67579139  0.09598564  0.83633771  1
  Ca2+  Ca9  1  0.66128396  0.57882400  0.17681841  1
  Ca2+  Ca10  1  0.66019735  0.57015491  0.50233367  1
  Ca2+  Ca11  1  0.66294977  0.57702632  0.83689450  1
  Ca2+  Ca12  1  0.08103747  0.33022266  0.16658379  1
  Ca2+  Ca13  1  0.07567268  0.32141456  0.49177888  1
  Ca2+  Ca14  1  0.08357182  0.33002133  0.82690692  1
  Ca2+  Ca15  1  0.08940011  0.83020225  0.16489235  1
  Ca2+  Ca16  1  0.08139549  0.82531975  0.49914132  1
  Ca2+  Ca17  1  0.08221573  0.83089982  0.82519320  1
  Ca2+  Ca18  1  0.57192917  0.33393117  0.16277907  1
  Ca2+  Ca19  1  0.57768424  0.33443575  0.49908465  1
  Ca2+  Ca20  1  0.57346712  0.32603248  0.82896473  1
  Ca2+  Ca21  1  0.58418460  0.82002026  0.16313531  1
  Ca2+  Ca22  1  0.58286791  0.82625391  0.49445896  1
  Ca2+  Ca23  1  0.58535128  0.82588705  0.83290669  1
  Ca2+  Ca24  1  0.33846530  0.42099149  0.16960799  1
  Ca2+  Ca25  1  0.34109649  0.42003363  0.50171386  1
  Ca2+  Ca26  1  0.33103153  0.41597826  0.84034788  1
  Ca2+  Ca27  1  0.32918630  0.92325797  0.17151409  1
  Ca2+  Ca28  1  0.33458187  0.93387865  0.50362632  1
  Ca2+  Ca29  1  0.32701783  0.92417645  0.83755062  1
  Ca2+  Ca30  1  0.82384667  0.41292635  0.17763444  1
  Ca2+  Ca31  1  0.82074820  0.40692315  0.50171365  1
  Ca2+  Ca32  1  0.82373666  0.41252766  0.83461802  1
  Ca2+  Ca33  1  0.83070010  0.92895949  0.17140659  1
  Ca2+  Ca34  1  0.83661915  0.92457089  0.50491834  1
  Ca2+  Ca35  1  0.83875118  0.92687391  0.83577657  1
  Ca2+  Ca36  1  0.41712548  0.17732314  0.15993100  1
  Ca2+  Ca37  1  0.41406763  0.17697098  0.49380220  1
  Ca2+  Ca38  1  0.42091939  0.17627616  0.82181004  1
  Ca2+  Ca39  1  0.42358206  0.65506658  0.16413966  1
  Ca2+  Ca40  1  0.41959136  0.66721310  0.49024364  1
  Ca2+  Ca41  1  0.41757142  0.66237770  0.83588617  1
  Ca2+  Ca42  1  0.91450530  0.16617240  0.16823778  1
  Ca2+  Ca43  1  0.92392623  0.16263834  0.49323508  1
  Ca2+  Ca44  1  0.92110071  0.16086958  0.82685786  1
  Ca2+  Ca45  1  0.92476005  0.66494032  0.16459016  1
  Ca2+  Ca46  1  0.92618367  0.67028116  0.49585614  1
  Ca2+  Ca47  1  0.92636670  0.67638057  0.82049913  1
  Al0+  Al48  1  -0.00082701  0.00051669  0.00926855  1
  Al0+  Al49  1  -0.00029510  -0.00230515  0.33348142  1
  Al0+  Al50  1  0.00068883  -0.00124152  0.66184265  1
  Al0+  Al51  1  -0.00034017  0.49947947  0.00156054  1
  Al0+  Al52  1  -0.00071731  0.50057923  0.32576360  1
  Al0+  Al53  1  0.00004972  0.50052798  0.66307344  1
  Al0+  Al54  1  0.50355519  -0.00276916  -0.00331677  1
  Al0+  Al55  1  0.49971271  -0.00094317  0.33666263  1
  Al0+  Al56  1  0.50269667  -0.00014593  0.66892923  1
  Al0+  Al57  1  0.50049029  0.49878058  -0.00626355  1
  Al0+  Al58  1  0.49953246  0.49925000  0.33520861  1
  Al0+  Al59  1  0.49997998  0.49945584  0.67069228  1
  Al0+  Al60  1  0.24693282  0.24965432  -0.00057867  1
  Al0+  Al61  1  0.24804145  0.25086835  0.32718781  1
  Al0+  Al62  1  0.25003464  0.25339948  0.66423630  1
  Al0+  Al63  1  0.25176098  0.74968787  0.00680089  1
  Al0+  Al64  1  0.24995620  0.75032727  0.33364588  1
  Al0+  Al65  1  0.25231872  0.75063790  0.66363786  1
  Al0+  Al66  1  0.75112647  0.25213641  0.00125326  1
  Al0+  Al67  1  0.74975727  0.24990807  0.34005723  1
  Al0+  Al68  1  0.74794020  0.25065526  0.67541446  1
  Al0+  Al69  1  0.75119156  0.75165501  -0.00500124  1
  Al0+  Al70  1  0.75068932  0.74974990  0.32995876  1
  Al0+  Al71  1  0.75090450  0.75045693  0.66244706  1
  Al0+  Al72  1  0.82129745  0.06851941  0.68097992  1
  Al0+  Al73  1  0.32014301  0.07302333  0.34533343  1
  Al0+  Al74  1  0.56904664  0.67972929  0.32203155  1
  Al0+  Al75  1  0.92876270  0.82179602  0.65069791  1
  Al0+  Al76  1  0.42661650  0.31883370  0.98341944  1
  Al0+  Al77  1  0.42946889  0.32052317  0.31914123  1
  Al0+  Al78  1  0.57248578  0.17781909  0.65074889  1
  Al0+  Al79  1  0.81822130  0.07113277  0.01521602  1
  Al0+  Al80  1  0.07399684  0.67727615  0.65258866  1
  Al0+  Al81  1  0.32172201  0.07415136  0.68012792  1
  Al0+  Al82  1  0.67886098  0.43042420  0.34696361  1
  Al0+  Al83  1  0.17538956  0.42601464  0.01621359  1
  Al0+  Al84  1  0.07259613  0.67937565  0.31613264  1
  Al0+  Al85  1  0.92620660  0.31943426  0.31890763  1
  Al0+  Al86  1  0.32198941  0.56813555  0.01535737  1
  Al0+  Al87  1  0.07031469  0.18009633  0.65521299  1
  Al0+  Al88  1  0.81927369  0.06931031  0.34911758  1
  Al0+  Al89  1  0.67870522  0.43044322  0.68441734  1
  Al0+  Al90  1  0.57127207  0.67906246  0.98527211  1
  Al0+  Al91  1  0.07041299  0.17722625  0.31553238  1
  Al0+  Al92  1  0.17953274  0.93011296  0.01269512  1
  Al0+  Al93  1  0.42919733  0.32164759  0.64980917  1
  Al0+  Al94  1  0.57341053  0.17806827  0.98622556  1
  Al0+  Al95  1  0.31963421  0.56906119  0.34857372  1
  Si0+  Si96  1  0.17525914  0.42856044  0.35109360  1
  Si0+  Si97  1  0.92798329  0.82107364  0.31304719  1
  Si0+  Si98  1  0.06805968  0.17691315  0.98535538  1
  Si0+  Si99  1  0.67814293  0.92384326  0.01741611  1
  Si0+  Si100  1  0.92610765  0.32255671  0.65271156  1
  Si0+  Si101  1  0.82383876  0.57384769  0.34942996  1
  Si0+  Si102  1  0.32435763  0.07190439  0.01400761  1
  Si0+  Si103  1  0.67752115  0.92387149  0.68495383  1
  Si0+  Si104  1  0.82302241  0.57309157  0.68243512  1
  Si0+  Si105  1  0.07196430  0.67947300  0.98607701  1
  Si0+  Si106  1  0.67794680  0.92481711  0.35020712  1
  Si0+  Si107  1  0.82145921  0.57440253  0.01331556  1
  Si0+  Si108  1  0.18104627  0.92770334  0.68116424  1
  Si0+  Si109  1  0.57004319  0.67907363  0.65221236  1
  Si0+  Si110  1  0.17737856  0.43086518  0.67905597  1
  Si0+  Si111  1  0.32078324  0.57292056  0.68163267  1
  Si0+  Si112  1  0.57183550  0.17611262  0.31932976  1
  Si0+  Si113  1  0.42623683  0.82253214  0.98258015  1
  Si0+  Si114  1  0.42909519  0.82224143  0.65201034  1
  Si0+  Si115  1  0.68172889  0.43247223  0.01551244  1
  Si0+  Si116  1  0.93133341  0.82199417  0.98593963  1
  Si0+  Si117  1  0.17820131  0.92750218  0.35235050  1
  Si0+  Si118  1  0.92897243  0.32233645  0.98394965  1
  Si0+  Si119  1  0.42798266  0.82423629  0.31666776  1
  O2-  O120  1  0.25630511  0.00286443  0.05881547  1
  O2-  O121  1  0.24374229  0.00010956  0.39439964  1
  O2-  O122  1  0.24673040  -0.00121290  0.72616396  1
  O2-  O123  1  0.25112609  0.49483903  0.06507365  1
  O2-  O124  1  0.24408222  0.49634337  0.39722728  1
  O2-  O125  1  0.24646148  0.50434050  0.72093702  1
  O2-  O126  1  0.73909010  -0.00025482  0.06074648  1
  O2-  O127  1  0.74321590  -0.00433888  0.39524194  1
  O2-  O128  1  0.74515873  -0.00550744  0.72778825  1
  O2-  O129  1  0.74951050  0.50624622  0.05807758  1
  O2-  O130  1  0.75623051  0.50410507  0.39306212  1
  O2-  O131  1  0.75557745  0.50496233  0.72960691  1
  O2-  O132  1  -0.00260419  0.24855959  0.26561606  1
  O2-  O133  1  -0.00738835  0.25199646  0.60946066  1
  O2-  O134  1  0.00159828  0.25243325  0.94294105  1
  O2-  O135  1  -0.00291385  0.75304244  0.26833803  1
  O2-  O136  1  -0.00016376  0.74742589  0.60327262  1
  O2-  O137  1  0.00236305  0.75122601  0.94289761  1
  O2-  O138  1  0.50067691  0.24135168  0.27439284  1
  O2-  O139  1  0.49807849  0.24647790  0.60011999  1
  O2-  O140  1  0.49431179  0.24150625  0.93549613  1
  O2-  O141  1  0.49559059  0.75434070  0.27306475  1
  O2-  O142  1  0.50100726  0.75167036  0.61033334  1
  O2-  O143  1  0.49576244  0.75365652  0.93895500  1
  O2-  O144  1  0.06530669  0.17470073  0.08996323  1
  O2-  O145  1  0.06981424  0.17968812  0.42932994  1
  O2-  O146  1  0.06980451  0.18124158  0.76910043  1
  O2-  O147  1  0.06931270  0.68013708  0.09085815  1
  O2-  O148  1  0.07139675  0.68175954  0.42917389  1
  O2-  O149  1  0.07417429  0.67889760  0.76693451  1
  O2-  O150  1  0.57477976  0.18410412  0.10008312  1
  O2-  O151  1  0.57167413  0.17665958  0.42464044  1
  O2-  O152  1  0.57161973  0.18117342  0.76435679  1
  O2-  O153  1  0.57267755  0.67961495  0.09819884  1
  O2-  O154  1  0.56702774  0.68151948  0.43551126  1
  O2-  O155  1  0.56908366  0.67985052  0.75747659  1
  O2-  O156  1  0.17569452  0.43081525  0.24561031  1
  O2-  O157  1  0.17593264  0.43097148  0.57434482  1
  O2-  O158  1  0.17111153  0.43072627  0.90195117  1
  O2-  O159  1  0.18054012  0.92695847  0.24629029  1
  O2-  O160  1  0.18494836  0.92373215  0.57609300  1
  O2-  O161  1  0.17817545  0.93122092  0.89926094  1
  O2-  O162  1  0.67863350  0.43286282  0.23334679  1
  O2-  O163  1  0.67774161  0.43307030  0.57142409  1
  O2-  O164  1  0.68478040  0.43335113  0.91047550  1
  O2-  O165  1  0.67978638  0.92163815  0.24468394  1
  O2-  O166  1  0.67750244  0.91911939  0.57958111  1
  O2-  O167  1  0.68352086  0.91618010  0.91249319  1
  O2-  O168  1  0.43024919  0.32095642  0.09713351  1
  O2-  O169  1  0.43166796  0.32211186  0.43186097  1
  O2-  O170  1  0.42833857  0.32286074  0.76326211  1
  O2-  O171  1  0.42663882  0.82513036  0.08784167  1
  O2-  O172  1  0.42982101  0.82452271  0.42264645  1
  O2-  O173  1  0.42651749  0.81980019  0.75707510  1
  O2-  O174  1  0.92562188  0.32275201  0.08853801  1
  O2-  O175  1  0.92660984  0.31788293  0.43270182  1
  O2-  O176  1  0.92973371  0.32476691  0.75883580  1
  O2-  O177  1  0.93064700  0.81955578  0.09078493  1
  O2-  O178  1  0.92737408  0.81972415  0.41836839  1
  O2-  O179  1  0.93162722  0.82137784  0.76520939  1
  O2-  O180  1  0.32136084  0.06863419  0.23199823  1
  O2-  O181  1  0.31952999  0.07307267  0.56709218  1
  O2-  O182  1  0.32115990  0.07055897  0.90826755  1
  O2-  O183  1  0.32124151  0.56715369  0.23598802  1
  O2-  O184  1  0.32311136  0.57415369  0.57667025  1
  O2-  O185  1  0.31798241  0.57052631  0.90105284  1
  O2-  O186  1  0.81658463  0.06860812  0.23570843  1
  O2-  O187  1  0.82119234  0.06747963  0.56820108  1
  O2-  O188  1  0.82234489  0.06840387  0.90227040  1
  O2-  O189  1  0.82136251  0.57526891  0.24326667  1
  O2-  O190  1  0.82182138  0.57297741  0.57714969  1
  O2-  O191  1  0.82219049  0.57296168  0.90825556  1
  O2-  O192  1  0.04338379  0.07699295  0.26574503  1
  O2-  O193  1  0.04532536  0.08308638  0.60071209  1
  O2-  O194  1  0.03494385  0.08626116  0.93862863  1
  O2-  O195  1  0.04212097  0.58379273  0.26052176  1
  O2-  O196  1  0.04618425  0.57957365  0.59789893  1
  O2-  O197  1  0.04219504  0.58785356  0.93907929  1
  O2-  O198  1  0.55176664  0.08035341  0.27455224  1
  O2-  O199  1  0.55371108  0.07539334  0.60241334  1
  O2-  O200  1  0.56059160  0.07421288  0.93828164  1
  O2-  O201  1  0.53660027  0.58448522  0.26770099  1
  O2-  O202  1  0.53886242  0.58826168  0.60639762  1
  O2-  O203  1  0.54062035  0.58414763  0.92845779  1
  O2-  O204  1  0.16735113  0.20607401  0.26046185  1
  O2-  O205  1  0.16407669  0.21564339  0.59989914  1
  O2-  O206  1  0.16138026  0.19928089  0.93846339  1
  O2-  O207  1  0.16897883  0.71236423  0.26287036  1
  O2-  O208  1  0.17141193  0.70780702  0.59862027  1
  O2-  O209  1  0.16492792  0.70651099  0.94124904  1
  O2-  O210  1  0.66466012  0.20602438  0.27506371  1
  O2-  O211  1  0.67107087  0.21171750  0.60151915  1
  O2-  O212  1  0.66951569  0.21549269  0.93307296  1
  O2-  O213  1  0.66640352  0.70779141  0.26718743  1
  O2-  O214  1  0.66244404  0.70341576  0.60494264  1
  O2-  O215  1  0.66763348  0.71080469  0.92967289  1
  O2-  O216  1  0.07790484  0.45767355  0.06999461  1
  O2-  O217  1  0.08094218  0.45578341  0.39519186  1
  O2-  O218  1  0.08469083  0.45567924  0.72790094  1
  O2-  O219  1  0.08549695  0.96117281  0.07121227  1
  O2-  O220  1  0.08261297  0.94739993  0.39571284  1
  O2-  O221  1  0.08617833  0.95081993  0.72503634  1
  O2-  O222  1  0.58842800  0.45854210  0.05927913  1
  O2-  O223  1  0.58529430  0.46562989  0.40333954  1
  O2-  O224  1  0.58394713  0.46587566  0.73985329  1
  O2-  O225  1  0.58105145  0.93915237  0.06017421  1
  O2-  O226  1  0.58274825  0.94496151  0.39521885  1
  O2-  O227  1  0.58335934  0.94534030  0.73197422  1
  O2-  O228  1  0.19659921  0.32501163  0.06648027  1
  O2-  O229  1  0.19939239  0.33355059  0.39362041  1
  O2-  O230  1  0.20724302  0.34098230  0.72893832  1
  O2-  O231  1  0.20882269  0.83424624  0.06901370  1
  O2-  O232  1  0.20716682  0.83542169  0.39919016  1
  O2-  O233  1  0.21041064  0.83532220  0.72964974  1
  O2-  O234  1  0.71339274  0.34249361  0.06326127  1
  O2-  O235  1  0.70872785  0.33513643  0.40360650  1
  O2-  O236  1  0.70961112  0.33586388  0.74202979  1
  O2-  O237  1  0.71215490  0.83345035  0.06651774  1
  O2-  O238  1  0.70693133  0.83210822  0.39756661  1
  O2-  O239  1  0.70521101  0.83032728  0.73187694  1
  O2-  O240  1  0.46582226  0.41523873  0.26544735  1
  O2-  O241  1  0.46197251  0.42059749  0.59973240  1
  O2-  O242  1  0.45967173  0.41532153  0.92943466  1
  O2-  O243  1  0.45477914  0.91683733  0.26875793  1
  O2-  O244  1  0.45691077  0.91358077  0.60428707  1
  O2-  O245  1  0.45141218  0.91514750  0.93356802  1
  O2-  O246  1  0.95012620  0.41879784  0.26518219  1
  O2-  O247  1  0.95074637  0.41548039  0.60515866  1
  O2-  O248  1  0.95466210  0.41482795  0.93574769  1
  O2-  O249  1  0.95443466  0.91417698  0.26697571  1
  O2-  O250  1  0.95982711  0.91704843  0.59453324  1
  O2-  O251  1  0.96108099  0.91418026  0.94068080  1
  O2-  O252  1  0.33218932  0.29501946  0.26485422  1
  O2-  O253  1  0.32988352  0.29799703  0.59745743  1
  O2-  O254  1  0.32521234  0.29623299  0.93266789  1
  O2-  O255  1  0.33395135  0.80011510  0.27216375  1
  O2-  O256  1  0.33938592  0.79345190  0.60160278  1
  O2-  O257  1  0.33296794  0.79445853  0.93630498  1
  O2-  O258  1  0.82737480  0.28949061  0.26641125  1
  O2-  O259  1  0.83118078  0.29839451  0.61115931  1
  O2-  O260  1  0.83845613  0.29245091  0.93537061  1
  O2-  O261  1  0.83472014  0.79550423  0.26588703  1
  O2-  O262  1  0.83029449  0.79502382  0.59665025  1
  O2-  O263  1  0.84048843  0.79530915  0.93628901  1
  O2-  O264  1  0.41921604  0.04692171  0.05792883  1
  O2-  O265  1  0.41624055  0.04066448  0.40094062  1
  O2-  O266  1  0.41821048  0.04144343  0.73338867  1
  O2-  O267  1  0.42230120  0.54002389  0.06493130  1
  O2-  O268  1  0.41537475  0.53775119  0.40370491  1
  O2-  O269  1  0.41097191  0.54315827  0.73084365  1
  O2-  O270  1  0.91178085  0.03618049  0.07202572  1
  O2-  O271  1  0.91663840  0.03655247  0.40036043  1
  O2-  O272  1  0.91885019  0.03573331  0.73385655  1
  O2-  O273  1  0.91258037  0.54572232  0.06130671  1
  O2-  O274  1  0.91872301  0.55031050  0.39303392  1
  O2-  O275  1  0.91774503  0.54894581  0.72829836  1
  O2-  O276  1  0.29737641  0.16502162  0.05914774  1
  O2-  O277  1  0.28891280  0.17029694  0.39773389  1
  O2-  O278  1  0.28804910  0.17015914  0.73357930  1
  O2-  O279  1  0.29621388  0.66684871  0.06867043  1
  O2-  O280  1  0.29192374  0.66807461  0.40035410  1
  O2-  O281  1  0.29592736  0.66577503  0.72911115  1
  O2-  O282  1  0.79007417  0.16916711  0.06855254  1
  O2-  O283  1  0.79072883  0.16530091  0.40447892  1
  O2-  O284  1  0.79322786  0.16538029  0.73675159  1
  O2-  O285  1  0.79670733  0.66735023  0.05967515  1
  O2-  O286  1  0.79763447  0.66752984  0.39502415  1
  O2-  O287  1  0.79710301  0.66724365  0.72804962  1
