# generated using pymatgen
data_Ca2Al2SiO7
_symmetry_space_group_name_H-M   'P 1'
_cell_length_a   15.45473505
_cell_length_b   15.45586765
_cell_length_c   15.28226649
_cell_angle_alpha   90.00415705
_cell_angle_beta   90.00398813
_cell_angle_gamma   89.99962068
_symmetry_Int_Tables_number   1
_chemical_formula_structural   Ca2Al2SiO7
_chemical_formula_sum   'Ca48 Al48 Si24 O168'
_cell_volume   3650.41903592
_cell_formula_units_Z   24
loop_
 _symmetry_equiv_pos_site_id
 _symmetry_equiv_pos_as_xyz
  1  'x, y, z'
loop_
 _atom_type_symbol
 _atom_type_oxidation_number
  Ca2+  2.0
  Al0+  0.0
  Si0+  0.0
  O2-  -2.0
loop_
 _atom_site_type_symbol
 _atom_site_label
 _atom_site_symmetry_multiplicity
 _atom_site_fract_x
 _atom_site_fract_y
 _atom_site_fract_z
 _atom_site_occupancy
  Ca2+  Ca0  1  0.16504724  0.08362650  0.17435846  1
  Ca2+  Ca1  1  0.18019261  0.08378632  0.50521871  1
  Ca2+  Ca2  1  0.17040979  0.07784602  0.83839898  1
  Ca2+  Ca3  1  0.16364586  0.56727989  0.16988590  1
  Ca2+  Ca4  1  0.16422976  0.57857546  0.50401844  1
  Ca2+  Ca5  1  0.16165700  0.58027412  0.83696610  1
  Ca2+  Ca6  1  0.66752974  0.07954740  0.17315603  1
  Ca2+  Ca7  1  0.66388320  0.08685769  0.49986599  1
  Ca2+  Ca8  1  0.66410220  0.08212712  0.83872686  1
  Ca2+  Ca9  1  0.67415738  0.58332511  0.16871627  1
  Ca2+  Ca10  1  0.67229642  0.57281591  0.51106735  1
  Ca2+  Ca11  1  0.67753183  0.57598912  0.83822602  1
  Ca2+  Ca12  1  0.08613788  0.32242737  0.15982080  1
  Ca2+  Ca13  1  0.07764299  0.33023943  0.49206905  1
  Ca2+  Ca14  1  0.07604782  0.33492561  0.83490983  1
  Ca2+  Ca15  1  0.07432993  0.83629173  0.15610262  1
  Ca2+  Ca16  1  0.09118669  0.82757927  0.50050054  1
  Ca2+  Ca17  1  0.08154097  0.83369656  0.82721331  1
  Ca2+  Ca18  1  0.58087379  0.31925295  0.16223359  1
  Ca2+  Ca19  1  0.58022288  0.32367004  0.49390612  1
  Ca2+  Ca20  1  0.58977846  0.32147616  0.82645938  1
  Ca2+  Ca21  1  0.57954198  0.84670657  0.16537040  1
  Ca2+  Ca22  1  0.57230443  0.83931235  0.49415408  1
  Ca2+  Ca23  1  0.57818863  0.83595051  0.82823695  1
  Ca2+  Ca24  1  0.32326831  0.40671163  0.17275117  1
  Ca2+  Ca25  1  0.32748652  0.40705788  0.49915324  1
  Ca2+  Ca26  1  0.32650280  0.41993122  0.84105202  1
  Ca2+  Ca27  1  0.32738671  0.92367403  0.17322567  1
  Ca2+  Ca28  1  0.33640410  0.92561895  0.50736637  1
  Ca2+  Ca29  1  0.32413592  0.91680092  0.83239317  1
  Ca2+  Ca30  1  0.84286570  0.42120909  0.16552701  1
  Ca2+  Ca31  1  0.82786442  0.41689831  0.51268169  1
  Ca2+  Ca32  1  0.84115406  0.42187492  0.83334222  1
  Ca2+  Ca33  1  0.82376521  0.92108475  0.17303656  1
  Ca2+  Ca34  1  0.82817809  0.92598213  0.49825784  1
  Ca2+  Ca35  1  0.82686505  0.91563856  0.84444805  1
  Ca2+  Ca36  1  0.42316415  0.16268111  0.16933550  1
  Ca2+  Ca37  1  0.42395053  0.16230437  0.49238528  1
  Ca2+  Ca38  1  0.42715035  0.15948707  0.82905385  1
  Ca2+  Ca39  1  0.41821022  0.67404234  0.16630465  1
  Ca2+  Ca40  1  0.41278094  0.68162267  0.49535915  1
  Ca2+  Ca41  1  0.41721969  0.67432863  0.82523709  1
  Ca2+  Ca42  1  0.92682521  0.16598266  0.15945125  1
  Ca2+  Ca43  1  0.92092922  0.16900839  0.49395210  1
  Ca2+  Ca44  1  0.92165145  0.17686135  0.83044290  1
  Ca2+  Ca45  1  0.91423883  0.67347124  0.15781757  1
  Ca2+  Ca46  1  0.91998398  0.66331621  0.50254737  1
  Ca2+  Ca47  1  0.91743322  0.66748450  0.82972699  1
  Al0+  Al48  1  -0.00006076  -0.00039650  -0.00629475  1
  Al0+  Al49  1  -0.00215131  -0.00191341  0.33519063  1
  Al0+  Al50  1  -0.00095931  -0.00033469  0.66840606  1
  Al0+  Al51  1  0.00139687  0.50058936  0.00651260  1
  Al0+  Al52  1  0.00136115  0.50050412  0.33765767  1
  Al0+  Al53  1  -0.00050709  0.50139692  0.66146101  1
  Al0+  Al54  1  0.49873488  -0.00003073  -0.00125565  1
  Al0+  Al55  1  0.49821699  -0.00122478  0.33116186  1
  Al0+  Al56  1  0.50013970  0.00088504  0.66328012  1
  Al0+  Al57  1  0.50145343  0.50121994  0.00098094  1
  Al0+  Al58  1  0.49919960  0.50285784  0.32972953  1
  Al0+  Al59  1  0.49967558  0.49795805  0.67189332  1
  Al0+  Al60  1  0.25234441  0.25003876  -0.00143604  1
  Al0+  Al61  1  0.24777477  0.24890441  0.33628881  1
  Al0+  Al62  1  0.25141438  0.24876301  0.67487481  1
  Al0+  Al63  1  0.25062182  0.75129774  0.00540543  1
  Al0+  Al64  1  0.24997042  0.74685429  0.32526894  1
  Al0+  Al65  1  0.24866241  0.74945124  0.66152748  1
  Al0+  Al66  1  0.74986617  0.25121561  -0.00746388  1
  Al0+  Al67  1  0.75091598  0.25211242  0.33167587  1
  Al0+  Al68  1  0.75024798  0.24906437  0.66209291  1
  Al0+  Al69  1  0.74851614  0.74929826  0.00399980  1
  Al0+  Al70  1  0.75004339  0.74990108  0.34006169  1
  Al0+  Al71  1  0.75111463  0.74981679  0.66801671  1
  Al0+  Al72  1  0.82207120  0.57094335  0.68269170  1
  Al0+  Al73  1  0.82221862  0.07381909  0.34747527  1
  Al0+  Al74  1  0.18075473  0.42916865  0.34909882  1
  Al0+  Al75  1  0.67822720  0.42593168  0.68229134  1
  Al0+  Al76  1  0.31815050  0.06917181  0.34597242  1
  Al0+  Al77  1  0.57222134  0.17922455  0.31669069  1
  Al0+  Al78  1  0.82016154  0.56925998  0.01502207  1
  Al0+  Al79  1  0.42756838  0.32259627  0.31922709  1
  Al0+  Al80  1  0.32336886  0.07119128  0.68403443  1
  Al0+  Al81  1  0.56919064  0.17895449  0.98530108  1
  Al0+  Al82  1  0.67838301  0.93036646  0.01225966  1
  Al0+  Al83  1  0.67816897  0.93015241  0.35031339  1
  Al0+  Al84  1  0.06887192  0.17827936  0.32278828  1
  Al0+  Al85  1  0.17735517  0.92964273  0.01436817  1
  Al0+  Al86  1  0.56968937  0.18023154  0.65159614  1
  Al0+  Al87  1  0.92703359  0.82031570  0.98748422  1
  Al0+  Al88  1  0.18134571  0.42977080  0.01345646  1
  Al0+  Al89  1  0.06893651  0.68089462  0.65319918  1
  Al0+  Al90  1  0.07454846  0.17700544  0.98311031  1
  Al0+  Al91  1  0.42899432  0.82115636  0.31703786  1
  Al0+  Al92  1  0.93247981  0.31968018  0.65175065  1
  Al0+  Al93  1  0.43057162  0.81872706  0.65368171  1
  Al0+  Al94  1  0.17889227  0.92745276  0.68048594  1
  Al0+  Al95  1  0.93058911  0.32315065  0.98541632  1
  Si0+  Si96  1  0.67671718  0.42636415  0.01859471  1
  Si0+  Si97  1  0.57426124  0.67896164  0.31659711  1
  Si0+  Si98  1  0.67744699  0.43014113  0.34629679  1
  Si0+  Si99  1  0.42515953  0.32450613  0.65232490  1
  Si0+  Si100  1  0.42877605  0.81975984  0.98413827  1
  Si0+  Si101  1  0.32539330  0.57370862  0.01796696  1
  Si0+  Si102  1  0.07214605  0.67971549  0.98622681  1
  Si0+  Si103  1  0.32172377  0.07058160  0.01755700  1
  Si0+  Si104  1  0.07015715  0.67717195  0.31572668  1
  Si0+  Si105  1  0.82132134  0.57099405  0.35037561  1
  Si0+  Si106  1  0.42890325  0.32454987  0.98237777  1
  Si0+  Si107  1  0.82183939  0.07153399  0.68257728  1
  Si0+  Si108  1  0.92814025  0.32438417  0.31703408  1
  Si0+  Si109  1  0.17853357  0.42943460  0.68139175  1
  Si0+  Si110  1  0.67961475  0.93010346  0.68085441  1
  Si0+  Si111  1  0.17585174  0.92425208  0.34838518  1
  Si0+  Si112  1  0.57337918  0.67593149  0.65176954  1
  Si0+  Si113  1  0.07384644  0.17618205  0.65021494  1
  Si0+  Si114  1  0.32029605  0.57200914  0.67986354  1
  Si0+  Si115  1  0.82167888  0.07424936  0.01312984  1
  Si0+  Si116  1  0.92453902  0.82492374  0.64783205  1
  Si0+  Si117  1  0.32256678  0.57360027  0.35049803  1
  Si0+  Si118  1  0.57135391  0.67754726  0.98420351  1
  Si0+  Si119  1  0.92827266  0.81883731  0.31941364  1
  O2-  O120  1  0.24736337  0.00798165  0.06178967  1
  O2-  O121  1  0.24453880  -0.00761912  0.39205123  1
  O2-  O122  1  0.24758160  0.00173198  0.73183407  1
  O2-  O123  1  0.25884751  0.50236259  0.06044270  1
  O2-  O124  1  0.25772703  0.50210445  0.39593231  1
  O2-  O125  1  0.25303209  0.49780205  0.72250873  1
  O2-  O126  1  0.75362737  0.00492344  0.05769073  1
  O2-  O127  1  0.74625548  0.00636417  0.39954319  1
  O2-  O128  1  0.75315040  -0.00239673  0.72396412  1
  O2-  O129  1  0.74760018  0.49284094  0.06334726  1
  O2-  O130  1  0.75070334  0.49875584  0.38964550  1
  O2-  O131  1  0.74914970  0.49956786  0.73187872  1
  O2-  O132  1  -0.00728873  0.25140767  0.27492583  1
  O2-  O133  1  0.00742459  0.24599229  0.60444785  1
  O2-  O134  1  0.00159524  0.24981076  0.93538553  1
  O2-  O135  1  0.00119524  0.75044128  0.27522648  1
  O2-  O136  1  -0.00441595  0.75711150  0.60535317  1
  O2-  O137  1  0.00580090  0.74956991  0.94092506  1
  O2-  O138  1  0.50024685  0.25230260  0.26771732  1
  O2-  O139  1  0.49434356  0.25640682  0.60895536  1
  O2-  O140  1  0.49782122  0.25688321  0.93783409  1
  O2-  O141  1  0.50735536  0.74894884  0.27121390  1
  O2-  O142  1  0.50533051  0.74383990  0.60603689  1
  O2-  O143  1  0.49886984  0.74733322  0.94232907  1
  O2-  O144  1  0.07352052  0.17757722  0.09714109  1
  O2-  O145  1  0.06899738  0.18160739  0.43596278  1
  O2-  O146  1  0.07166975  0.17698657  0.75560290  1
  O2-  O147  1  0.06979102  0.68035156  0.09212860  1
  O2-  O148  1  0.07003746  0.67623356  0.42089651  1
  O2-  O149  1  0.06923707  0.67982408  0.76632323  1
  O2-  O150  1  0.56800796  0.17784238  0.09795215  1
  O2-  O151  1  0.57138976  0.18171407  0.43017956  1
  O2-  O152  1  0.56927771  0.17830610  0.76495182  1
  O2-  O153  1  0.57036363  0.67533023  0.08922833  1
  O2-  O154  1  0.57336265  0.67728575  0.42207378  1
  O2-  O155  1  0.57176000  0.67827736  0.75764793  1
  O2-  O156  1  0.17890623  0.43143556  0.23618437  1
  O2-  O157  1  0.17924637  0.42999877  0.57626302  1
  O2-  O158  1  0.18159047  0.43495136  0.89976647  1
  O2-  O159  1  0.17512472  0.92499423  0.24257042  1
  O2-  O160  1  0.18200649  0.92669140  0.56668831  1
  O2-  O161  1  0.18205309  0.92395314  0.90183998  1
  O2-  O162  1  0.67810784  0.43260943  0.24119922  1
  O2-  O163  1  0.67851691  0.42846597  0.56790795  1
  O2-  O164  1  0.67287142  0.42979452  0.91349853  1
  O2-  O165  1  0.68225943  0.92811042  0.23663971  1
  O2-  O166  1  0.67964732  0.93057098  0.57606396  1
  O2-  O167  1  0.67767779  0.93004099  0.89854526  1
  O2-  O168  1  0.42958240  0.32527451  0.08777348  1
  O2-  O169  1  0.43092621  0.32319353  0.43300232  1
  O2-  O170  1  0.42422920  0.32702375  0.75783968  1
  O2-  O171  1  0.42964010  0.81916411  0.08915075  1
  O2-  O172  1  0.42757680  0.81836917  0.43015556  1
  O2-  O173  1  0.43167218  0.81611199  0.76732683  1
  O2-  O174  1  0.93265488  0.32246889  0.09924545  1
  O2-  O175  1  0.92995563  0.32769009  0.42269631  1
  O2-  O176  1  0.93551314  0.32067056  0.76455610  1
  O2-  O177  1  0.92655082  0.81778541  0.10112763  1
  O2-  O178  1  0.92827664  0.81654878  0.42443534  1
  O2-  O179  1  0.92186207  0.82439784  0.75332383  1
  O2-  O180  1  0.31631266  0.06773745  0.23264655  1
  O2-  O181  1  0.32385131  0.07063809  0.57036405  1
  O2-  O182  1  0.32460384  0.06569796  0.91214508  1
  O2-  O183  1  0.31941908  0.57649740  0.24502042  1
  O2-  O184  1  0.31926089  0.57344200  0.57503115  1
  O2-  O185  1  0.32573068  0.57531168  0.91193424  1
  O2-  O186  1  0.82540258  0.06905081  0.23388253  1
  O2-  O187  1  0.82245745  0.07095243  0.57751775  1
  O2-  O188  1  0.81895606  0.07251724  0.90710358  1
  O2-  O189  1  0.82187636  0.57282503  0.24514619  1
  O2-  O190  1  0.82024144  0.56905916  0.56845939  1
  O2-  O191  1  0.81918207  0.57013620  0.90258510  1
  O2-  O192  1  0.04076290  0.07997852  0.26950365  1
  O2-  O193  1  0.04684002  0.08270308  0.60470005  1
  O2-  O194  1  0.04659379  0.07960280  0.92847600  1
  O2-  O195  1  0.03794044  0.58628031  0.26889018  1
  O2-  O196  1  0.03716957  0.58646115  0.59469495  1
  O2-  O197  1  0.04452731  0.58668856  0.94116663  1
  O2-  O198  1  0.54239283  0.08081390  0.26545387  1
  O2-  O199  1  0.53874502  0.08441348  0.59674127  1
  O2-  O200  1  0.53513724  0.08317174  0.93051574  1
  O2-  O201  1  0.54744133  0.58717230  0.26688747  1
  O2-  O202  1  0.54785437  0.58119223  0.60791556  1
  O2-  O203  1  0.54494935  0.58567546  0.93532488  1
  O2-  O204  1  0.16386714  0.21109359  0.26809043  1
  O2-  O205  1  0.16978608  0.20133532  0.60903744  1
  O2-  O206  1  0.17330102  0.20614482  0.93093604  1
  O2-  O207  1  0.16233651  0.69920109  0.26701223  1
  O2-  O208  1  0.16462357  0.70916984  0.59507001  1
  O2-  O209  1  0.16802915  0.70160751  0.94262681  1
  O2-  O210  1  0.67129402  0.20803403  0.26411934  1
  O2-  O211  1  0.66592369  0.20955508  0.59656530  1
  O2-  O212  1  0.66599061  0.20671202  0.93006541  1
  O2-  O213  1  0.66934038  0.70314030  0.27231494  1
  O2-  O214  1  0.66746639  0.70048032  0.60612254  1
  O2-  O215  1  0.66195716  0.70752434  0.93687961  1
  O2-  O216  1  0.08762319  0.46294313  0.07104586  1
  O2-  O217  1  0.08551535  0.46484719  0.40428302  1
  O2-  O218  1  0.08870736  0.46379226  0.72722551  1
  O2-  O219  1  0.07791961  0.95572000  0.06540328  1
  O2-  O220  1  0.08187460  0.94582541  0.39460401  1
  O2-  O221  1  0.07798245  0.95067059  0.73133158  1
  O2-  O222  1  0.58420520  0.45565759  0.06587219  1
  O2-  O223  1  0.58624898  0.46064986  0.39367260  1
  O2-  O224  1  0.57924648  0.45160127  0.73669751  1
  O2-  O225  1  0.58177662  0.96175789  0.06581616  1
  O2-  O226  1  0.57787030  0.95408430  0.39977716  1
  O2-  O227  1  0.58873033  0.96004034  0.72815639  1
  O2-  O228  1  0.21172690  0.33227851  0.06649930  1
  O2-  O229  1  0.20913508  0.33359762  0.40522023  1
  O2-  O230  1  0.20218683  0.33771053  0.73055964  1
  O2-  O231  1  0.20980079  0.83383752  0.07071123  1
  O2-  O232  1  0.20231029  0.82857312  0.38992350  1
  O2-  O233  1  0.21025736  0.82902326  0.73265287  1
  O2-  O234  1  0.70098513  0.33132102  0.06151490  1
  O2-  O235  1  0.70303825  0.33812689  0.39362265  1
  O2-  O236  1  0.71001157  0.32808949  0.73347305  1
  O2-  O237  1  0.70599446  0.83368521  0.06720580  1
  O2-  O238  1  0.70974999  0.83259378  0.40480717  1
  O2-  O239  1  0.70348153  0.83654998  0.72746356  1
  O2-  O240  1  0.45014691  0.42340515  0.26708931  1
  O2-  O241  1  0.44774544  0.41929917  0.60623708  1
  O2-  O242  1  0.45208569  0.42005070  0.93769328  1
  O2-  O243  1  0.45784552  0.91653531  0.26088744  1
  O2-  O244  1  0.46330266  0.91391157  0.59941283  1
  O2-  O245  1  0.45837553  0.91017458  0.93625035  1
  O2-  O246  1  0.95881842  0.41745778  0.27174588  1
  O2-  O247  1  0.96168760  0.41597197  0.59643918  1
  O2-  O248  1  0.96352768  0.42164329  0.93419875  1
  O2-  O249  1  0.95303080  0.91098076  0.27187730  1
  O2-  O250  1  0.94860678  0.91921237  0.60232315  1
  O2-  O251  1  0.95264067  0.91652966  0.93134024  1
  O2-  O252  1  0.32939350  0.29118591  0.26834669  1
  O2-  O253  1  0.33066605  0.29830536  0.60785977  1
  O2-  O254  1  0.33556769  0.29999353  0.93587408  1
  O2-  O255  1  0.33416601  0.78625698  0.26052120  1
  O2-  O256  1  0.33576456  0.78618714  0.59802786  1
  O2-  O257  1  0.33661895  0.79048890  0.93791097  1
  O2-  O258  1  0.83301151  0.30670796  0.27177777  1
  O2-  O259  1  0.83607381  0.28858104  0.59793085  1
  O2-  O260  1  0.83153140  0.29964717  0.93146351  1
  O2-  O261  1  0.83685451  0.78733536  0.27310599  1
  O2-  O262  1  0.83208330  0.79624831  0.60014043  1
  O2-  O263  1  0.83101415  0.78605417  0.93397842  1
  O2-  O264  1  0.41219206  0.03684687  0.06505135  1
  O2-  O265  1  0.41491062  0.03823554  0.39858686  1
  O2-  O266  1  0.42054262  0.03671362  0.73623321  1
  O2-  O267  1  0.42003389  0.55154049  0.06385146  1
  O2-  O268  1  0.41867451  0.55535132  0.39434276  1
  O2-  O269  1  0.41262598  0.54909909  0.72955579  1
  O2-  O270  1  0.91612772  0.04900954  0.05659270  1
  O2-  O271  1  0.91747408  0.03828006  0.40456918  1
  O2-  O272  1  0.91410036  0.04702159  0.73054180  1
  O2-  O273  1  0.91652118  0.54178740  0.07181361  1
  O2-  O274  1  0.91334225  0.54411418  0.39753182  1
  O2-  O275  1  0.92096437  0.54103158  0.73356305  1
  O2-  O276  1  0.30496022  0.16748503  0.05933504  1
  O2-  O277  1  0.28720440  0.16419239  0.40230421  1
  O2-  O278  1  0.29948134  0.16997326  0.73941165  1
  O2-  O279  1  0.29822259  0.66593852  0.06595815  1
  O2-  O280  1  0.29049793  0.66572775  0.39690555  1
  O2-  O281  1  0.28854094  0.66161165  0.72899306  1
  O2-  O282  1  0.79675941  0.16838102  0.05796558  1
  O2-  O283  1  0.79954445  0.17479813  0.39868911  1
  O2-  O284  1  0.79097049  0.16217862  0.72907670  1
  O2-  O285  1  0.78476748  0.66371733  0.07130210  1
  O2-  O286  1  0.79362968  0.66140535  0.40011284  1
  O2-  O287  1  0.79609308  0.67087075  0.73435665  1
