# generated using pymatgen
data_Ca2Al2SiO7
_symmetry_space_group_name_H-M   'P 1'
_cell_length_a   15.45646070
_cell_length_b   15.45561463
_cell_length_c   15.28212891
_cell_angle_alpha   90.00310831
_cell_angle_beta   90.01754185
_cell_angle_gamma   90.00249986
_symmetry_Int_Tables_number   1
_chemical_formula_structural   Ca2Al2SiO7
_chemical_formula_sum   'Ca48 Al48 Si24 O168'
_cell_volume   3650.73384177
_cell_formula_units_Z   24
loop_
 _symmetry_equiv_pos_site_id
 _symmetry_equiv_pos_as_xyz
  1  'x, y, z'
loop_
 _atom_type_symbol
 _atom_type_oxidation_number
  Ca2+  2.0
  Al0+  0.0
  Si0+  0.0
  O2-  -2.0
loop_
 _atom_site_type_symbol
 _atom_site_label
 _atom_site_symmetry_multiplicity
 _atom_site_fract_x
 _atom_site_fract_y
 _atom_site_fract_z
 _atom_site_occupancy
  Ca2+  Ca0  1  0.16690804  0.08286108  0.17222905  1
  Ca2+  Ca1  1  0.16842541  0.08472392  0.51280365  1
  Ca2+  Ca2  1  0.16913313  0.08191917  0.82981201  1
  Ca2+  Ca3  1  0.16583845  0.57489160  0.17283297  1
  Ca2+  Ca4  1  0.16467115  0.57255796  0.50360236  1
  Ca2+  Ca5  1  0.15562052  0.57731066  0.83776013  1
  Ca2+  Ca6  1  0.66497001  0.07678011  0.17377052  1
  Ca2+  Ca7  1  0.67133920  0.07922061  0.50110498  1
  Ca2+  Ca8  1  0.66346419  0.07129857  0.83932662  1
  Ca2+  Ca9  1  0.67309908  0.58565848  0.17410085  1
  Ca2+  Ca10  1  0.67470957  0.57710472  0.50550514  1
  Ca2+  Ca11  1  0.66439599  0.57946114  0.83659928  1
  Ca2+  Ca12  1  0.07552618  0.33898327  0.16537638  1
  Ca2+  Ca13  1  0.08750938  0.32515751  0.49326159  1
  Ca2+  Ca14  1  0.08079792  0.33537904  0.82766065  1
  Ca2+  Ca15  1  0.07950743  0.82387973  0.15874388  1
  Ca2+  Ca16  1  0.08057682  0.83412948  0.50144972  1
  Ca2+  Ca17  1  0.08234654  0.82296897  0.81929874  1
  Ca2+  Ca18  1  0.59008419  0.31817544  0.16229503  1
  Ca2+  Ca19  1  0.58388859  0.32895314  0.49357520  1
  Ca2+  Ca20  1  0.58577269  0.32663598  0.82722449  1
  Ca2+  Ca21  1  0.58138901  0.83124985  0.15680471  1
  Ca2+  Ca22  1  0.57921462  0.84463868  0.49923082  1
  Ca2+  Ca23  1  0.57849286  0.83580961  0.83030516  1
  Ca2+  Ca24  1  0.32190844  0.42420420  0.17497015  1
  Ca2+  Ca25  1  0.32392970  0.42013454  0.50456803  1
  Ca2+  Ca26  1  0.31844619  0.41820737  0.83865170  1
  Ca2+  Ca27  1  0.33521120  0.91375963  0.16712193  1
  Ca2+  Ca28  1  0.32743425  0.92403382  0.51194062  1
  Ca2+  Ca29  1  0.33661689  0.91576804  0.83053360  1
  Ca2+  Ca30  1  0.83963048  0.41881626  0.17249292  1
  Ca2+  Ca31  1  0.83444910  0.41788982  0.49988823  1
  Ca2+  Ca32  1  0.83178561  0.41446025  0.83613375  1
  Ca2+  Ca33  1  0.81888469  0.92256712  0.17695565  1
  Ca2+  Ca34  1  0.82535753  0.91926133  0.50621977  1
  Ca2+  Ca35  1  0.82535311  0.91033891  0.83587704  1
  Ca2+  Ca36  1  0.42855840  0.16608990  0.16384198  1
  Ca2+  Ca37  1  0.42042094  0.16407733  0.49599404  1
  Ca2+  Ca38  1  0.42017353  0.16218731  0.83057108  1
  Ca2+  Ca39  1  0.42183148  0.67024592  0.15826184  1
  Ca2+  Ca40  1  0.41286747  0.67170166  0.49746940  1
  Ca2+  Ca41  1  0.41915026  0.67932008  0.82936894  1
  Ca2+  Ca42  1  0.91535467  0.17597233  0.16763306  1
  Ca2+  Ca43  1  0.92762984  0.16912715  0.48941314  1
  Ca2+  Ca44  1  0.92282945  0.17282744  0.82812432  1
  Ca2+  Ca45  1  0.91977444  0.66292653  0.16172938  1
  Ca2+  Ca46  1  0.91720496  0.66879221  0.50203922  1
  Ca2+  Ca47  1  0.92698823  0.67205158  0.82720684  1
  Al0+  Al48  1  0.00017866  0.00224886  0.00227391  1
  Al0+  Al49  1  -0.00193330  -0.00091936  0.32937436  1
  Al0+  Al50  1  0.00052338  0.00068147  0.66424930  1
  Al0+  Al51  1  -0.00195575  0.49870341  -0.00400199  1
  Al0+  Al52  1  -0.00012104  0.50003720  0.33987614  1
  Al0+  Al53  1  -0.00128308  0.50123011  0.66612680  1
  Al0+  Al54  1  0.49984410  0.00054610  -0.00221155  1
  Al0+  Al55  1  0.49735171  -0.00058561  0.33174699  1
  Al0+  Al56  1  0.50193014  0.00006174  0.66936114  1
  Al0+  Al57  1  0.49887146  0.49810139  -0.00147650  1
  Al0+  Al58  1  0.49879733  0.50257696  0.33582543  1
  Al0+  Al59  1  0.50033745  0.49905812  0.67092844  1
  Al0+  Al60  1  0.24940350  0.24879187  0.00787645  1
  Al0+  Al61  1  0.25135805  0.24917824  0.33081450  1
  Al0+  Al62  1  0.25177768  0.25240543  0.67264869  1
  Al0+  Al63  1  0.25052403  0.74957268  -0.00747741  1
  Al0+  Al64  1  0.25020007  0.75073203  0.33465439  1
  Al0+  Al65  1  0.25201974  0.74963956  0.65956304  1
  Al0+  Al66  1  0.75147442  0.24962014  -0.00943073  1
  Al0+  Al67  1  0.75089115  0.24825240  0.32888038  1
  Al0+  Al68  1  0.75024347  0.25008608  0.66961391  1
  Al0+  Al69  1  0.74926546  0.74905409  0.00136704  1
  Al0+  Al70  1  0.74796859  0.74925542  0.34233740  1
  Al0+  Al71  1  0.75060237  0.74880828  0.66782807  1
  Al0+  Al72  1  0.17908753  0.43135798  0.68153097  1
  Al0+  Al73  1  0.57019865  0.18041617  0.98408371  1
  Al0+  Al74  1  0.07398156  0.17605338  0.31683119  1
  Al0+  Al75  1  0.06904953  0.67980987  0.98827231  1
  Al0+  Al76  1  0.67984200  0.92977226  0.01452689  1
  Al0+  Al77  1  0.82143534  0.57126046  0.34751253  1
  Al0+  Al78  1  0.57407279  0.67609970  0.98554758  1
  Al0+  Al79  1  0.67895945  0.42808963  0.68030477  1
  Al0+  Al80  1  0.17976391  0.42846515  0.34959400  1
  Al0+  Al81  1  0.32242858  0.57371758  0.34855289  1
  Al0+  Al82  1  0.67648779  0.92982266  0.34968553  1
  Al0+  Al83  1  0.92730890  0.82195585  0.65101925  1
  Al0+  Al84  1  0.07200222  0.18234359  0.65554009  1
  Al0+  Al85  1  0.93074026  0.32199236  0.31915235  1
  Al0+  Al86  1  0.32182895  0.07200336  0.68224940  1
  Al0+  Al87  1  0.93141654  0.31980812  0.98425100  1
  Al0+  Al88  1  0.82171040  0.07241816  0.34811286  1
  Al0+  Al89  1  0.17788574  0.92803378  0.68061197  1
  Al0+  Al90  1  0.43245365  0.82140614  0.64983868  1
  Al0+  Al91  1  0.42968770  0.82096987  0.98368955  1
  Al0+  Al92  1  0.56937373  0.17958288  0.32100519  1
  Al0+  Al93  1  0.07216943  0.67737843  0.64795159  1
  Al0+  Al94  1  0.68110375  0.92980610  0.68226296  1
  Al0+  Al95  1  0.17696773  0.42999775  0.01561125  1
  Si0+  Si96  1  0.92532324  0.82024386  0.31772937  1
  Si0+  Si97  1  0.57191554  0.67835383  0.32067307  1
  Si0+  Si98  1  0.82318848  0.07434195  0.01675221  1
  Si0+  Si99  1  0.42553163  0.32080737  0.98417889  1
  Si0+  Si100  1  0.57176937  0.67531137  0.64836771  1
  Si0+  Si101  1  0.81862964  0.56848593  0.01356740  1
  Si0+  Si102  1  0.31982868  0.06933947  0.34554174  1
  Si0+  Si103  1  0.42811225  0.32524442  0.31649591  1
  Si0+  Si104  1  0.17822973  0.92688849  0.01413103  1
  Si0+  Si105  1  0.06998332  0.68127539  0.31904214  1
  Si0+  Si106  1  0.92796671  0.82425286  0.98695358  1
  Si0+  Si107  1  0.42895990  0.82008675  0.31825376  1
  Si0+  Si108  1  0.57138367  0.17942883  0.65119666  1
  Si0+  Si109  1  0.67753260  0.42632667  0.01432814  1
  Si0+  Si110  1  0.32079748  0.06964547  0.01776496  1
  Si0+  Si111  1  0.67743817  0.42691398  0.34621634  1
  Si0+  Si112  1  0.82371175  0.07306316  0.68436893  1
  Si0+  Si113  1  0.42992553  0.32187626  0.65283699  1
  Si0+  Si114  1  0.07505878  0.17601573  0.98266372  1
  Si0+  Si115  1  0.17759105  0.92834865  0.34519894  1
  Si0+  Si116  1  0.82115110  0.57125172  0.68653679  1
  Si0+  Si117  1  0.32332858  0.57280715  0.68510556  1
  Si0+  Si118  1  0.32199971  0.57307723  0.01518616  1
  Si0+  Si119  1  0.92627716  0.32175920  0.64880123  1
  O2-  O120  1  0.24869426  -0.00191124  0.05804134  1
  O2-  O121  1  0.24131487  0.00648652  0.38599953  1
  O2-  O122  1  0.24999026  -0.00064568  0.73222087  1
  O2-  O123  1  0.25297525  0.50497391  0.06005918  1
  O2-  O124  1  0.25320876  0.49969559  0.39865931  1
  O2-  O125  1  0.24933009  0.51006100  0.72962847  1
  O2-  O126  1  0.75606855  0.00346387  0.06026587  1
  O2-  O127  1  0.75051536  0.00010996  0.39861742  1
  O2-  O128  1  0.75805926  0.00185683  0.72960602  1
  O2-  O129  1  0.74375244  0.50148349  0.05676304  1
  O2-  O130  1  0.74670653  0.49457198  0.39083797  1
  O2-  O131  1  0.75249925  0.50203324  0.72993424  1
  O2-  O132  1  0.00312901  0.25027353  0.26820719  1
  O2-  O133  1  -0.00304582  0.25502343  0.60621959  1
  O2-  O134  1  0.00702230  0.24542051  0.93933516  1
  O2-  O135  1  -0.00283644  0.74986135  0.27498645  1
  O2-  O136  1  0.00207847  0.75279844  0.59978846  1
  O2-  O137  1  0.00040272  0.76028924  0.94253474  1
  O2-  O138  1  0.49914064  0.25850872  0.27277339  1
  O2-  O139  1  0.50105583  0.25133967  0.60937654  1
  O2-  O140  1  0.49666770  0.25632385  0.93721476  1
  O2-  O141  1  0.50016322  0.74853537  0.27806890  1
  O2-  O142  1  0.50622809  0.74588264  0.60206500  1
  O2-  O143  1  0.50289016  0.74873065  0.93567059  1
  O2-  O144  1  0.07450271  0.17382926  0.08792722  1
  O2-  O145  1  0.07566458  0.17662749  0.43046474  1
  O2-  O146  1  0.07075367  0.18482208  0.76892737  1
  O2-  O147  1  0.06670497  0.68000839  0.10222642  1
  O2-  O148  1  0.07111425  0.68454102  0.42343356  1
  O2-  O149  1  0.06790373  0.67642545  0.76200736  1
  O2-  O150  1  0.56927489  0.18023204  0.09747639  1
  O2-  O151  1  0.56621001  0.18004673  0.43430745  1
  O2-  O152  1  0.57059079  0.18063467  0.75637072  1
  O2-  O153  1  0.57406070  0.67684955  0.09986942  1
  O2-  O154  1  0.57191955  0.67638290  0.42532580  1
  O2-  O155  1  0.56895569  0.67412820  0.75391642  1
  O2-  O156  1  0.17895638  0.43295109  0.23565109  1
  O2-  O157  1  0.18310048  0.42849815  0.56892426  1
  O2-  O158  1  0.17772758  0.43105144  0.90249670  1
  O2-  O159  1  0.18182445  0.92392036  0.23951307  1
  O2-  O160  1  0.17963550  0.93169380  0.56633660  1
  O2-  O161  1  0.17654082  0.92756784  0.90984703  1
  O2-  O162  1  0.67603122  0.42944147  0.24034196  1
  O2-  O163  1  0.67957022  0.42821581  0.56692897  1
  O2-  O164  1  0.67981665  0.42607605  0.90927582  1
  O2-  O165  1  0.67572758  0.92915337  0.23574457  1
  O2-  O166  1  0.67911301  0.93475219  0.56948488  1
  O2-  O167  1  0.68134087  0.93030712  0.90152894  1
  O2-  O168  1  0.42708310  0.31837153  0.08984169  1
  O2-  O169  1  0.42857094  0.32375602  0.42237917  1
  O2-  O170  1  0.43146641  0.32163596  0.75795385  1
  O2-  O171  1  0.42912203  0.81930480  0.09819271  1
  O2-  O172  1  0.42882806  0.82219073  0.42294096  1
  O2-  O173  1  0.43485841  0.82115233  0.76255174  1
  O2-  O174  1  0.93053134  0.32204874  0.09697084  1
  O2-  O175  1  0.93070192  0.32114209  0.43250526  1
  O2-  O176  1  0.92578459  0.32003296  0.75479090  1
  O2-  O177  1  0.92863571  0.82169048  0.09305050  1
  O2-  O178  1  0.92672146  0.82066399  0.42230646  1
  O2-  O179  1  0.92627917  0.81759135  0.76523119  1
  O2-  O180  1  0.32342634  0.06482750  0.24024784  1
  O2-  O181  1  0.32219327  0.07219042  0.56801814  1
  O2-  O182  1  0.32065196  0.07213412  0.91317184  1
  O2-  O183  1  0.32088517  0.57531116  0.23455082  1
  O2-  O184  1  0.32682522  0.56753232  0.57963074  1
  O2-  O185  1  0.32221695  0.57160352  0.90983968  1
  O2-  O186  1  0.81919582  0.07005553  0.23411775  1
  O2-  O187  1  0.81978592  0.07603821  0.57908498  1
  O2-  O188  1  0.82399648  0.07343075  0.91110322  1
  O2-  O189  1  0.81982353  0.57317959  0.23375671  1
  O2-  O190  1  0.81996206  0.57044450  0.58077542  1
  O2-  O191  1  0.81927942  0.56648164  0.90878766  1
  O2-  O192  1  0.04537418  0.07732415  0.26238673  1
  O2-  O193  1  0.04553887  0.08482450  0.60198206  1
  O2-  O194  1  0.04881607  0.08219337  0.93641465  1
  O2-  O195  1  0.04250476  0.58836988  0.27448464  1
  O2-  O196  1  0.03771038  0.58033522  0.59506929  1
  O2-  O197  1  0.03172549  0.58688645  0.93277212  1
  O2-  O198  1  0.53176737  0.08524834  0.26552389  1
  O2-  O199  1  0.54222858  0.08863607  0.60400914  1
  O2-  O200  1  0.53612324  0.08539320  0.93047242  1
  O2-  O201  1  0.54625632  0.58631177  0.27143841  1
  O2-  O202  1  0.54395311  0.58156775  0.60285535  1
  O2-  O203  1  0.54750682  0.57619793  0.93392296  1
  O2-  O204  1  0.17416052  0.20047000  0.26435590  1
  O2-  O205  1  0.16976939  0.21370667  0.60359463  1
  O2-  O206  1  0.17007422  0.20063937  0.94002694  1
  O2-  O207  1  0.16108260  0.71187938  0.27069327  1
  O2-  O208  1  0.17190851  0.69995157  0.59612041  1
  O2-  O209  1  0.16594234  0.70420596  0.93331782  1
  O2-  O210  1  0.66555768  0.20655664  0.26444863  1
  O2-  O211  1  0.66360007  0.20823064  0.60524279  1
  O2-  O212  1  0.66559760  0.20981320  0.92799298  1
  O2-  O213  1  0.66384028  0.70702486  0.27343815  1
  O2-  O214  1  0.66739997  0.69711803  0.60605708  1
  O2-  O215  1  0.67293158  0.70238764  0.93246830  1
  O2-  O216  1  0.08036523  0.46431955  0.06750185  1
  O2-  O217  1  0.08325486  0.45826750  0.40381331  1
  O2-  O218  1  0.08013999  0.45870328  0.73307974  1
  O2-  O219  1  0.08617939  0.95362057  0.06352274  1
  O2-  O220  1  0.08283021  0.94748681  0.38881858  1
  O2-  O221  1  0.07891199  0.95460320  0.73350456  1
  O2-  O222  1  0.58319373  0.44645273  0.06036281  1
  O2-  O223  1  0.58443218  0.45274124  0.39359651  1
  O2-  O224  1  0.58269177  0.45708024  0.73663562  1
  O2-  O225  1  0.58256593  0.96214463  0.06657820  1
  O2-  O226  1  0.57800766  0.96168596  0.40055416  1
  O2-  O227  1  0.58649757  0.96456049  0.73700260  1
  O2-  O228  1  0.20653316  0.33304168  0.06985796  1
  O2-  O229  1  0.20954502  0.32866801  0.39905325  1
  O2-  O230  1  0.21476861  0.33805051  0.73855399  1
  O2-  O231  1  0.20719146  0.83477335  0.06147123  1
  O2-  O232  1  0.21155492  0.84035279  0.39514573  1
  O2-  O233  1  0.20713792  0.82784689  0.72935611  1
  O2-  O234  1  0.71100347  0.33528838  0.05991836  1
  O2-  O235  1  0.70157840  0.33310365  0.39141677  1
  O2-  O236  1  0.70932452  0.33198787  0.73636970  1
  O2-  O237  1  0.70861056  0.83175060  0.06822599  1
  O2-  O238  1  0.70207554  0.83169496  0.40345256  1
  O2-  O239  1  0.70757036  0.83071145  0.73377810  1
  O2-  O240  1  0.45045788  0.42024974  0.27140429  1
  O2-  O241  1  0.45841804  0.41330724  0.60484917  1
  O2-  O242  1  0.44557734  0.41570985  0.93891934  1
  O2-  O243  1  0.45626606  0.91100835  0.26863255  1
  O2-  O244  1  0.46485115  0.91883087  0.59726510  1
  O2-  O245  1  0.45687750  0.91944397  0.93204516  1
  O2-  O246  1  0.95924436  0.42201449  0.26718171  1
  O2-  O247  1  0.94793755  0.41712687  0.60643969  1
  O2-  O248  1  0.96129006  0.41515240  0.92777988  1
  O2-  O249  1  0.95170884  0.91111486  0.26777858  1
  O2-  O250  1  0.95170470  0.92145408  0.59860104  1
  O2-  O251  1  0.94795719  0.91988733  0.94321701  1
  O2-  O252  1  0.33657486  0.29644433  0.26832280  1
  O2-  O253  1  0.33896953  0.29300387  0.60516404  1
  O2-  O254  1  0.33253829  0.29039405  0.93957790  1
  O2-  O255  1  0.33706513  0.79249642  0.26972362  1
  O2-  O256  1  0.33581376  0.79348197  0.59453222  1
  O2-  O257  1  0.33206528  0.79353625  0.92855510  1
  O2-  O258  1  0.83198716  0.29532853  0.26450174  1
  O2-  O259  1  0.83247134  0.29499964  0.60356886  1
  O2-  O260  1  0.83621715  0.28969930  0.92694426  1
  O2-  O261  1  0.83295954  0.78970971  0.27261893  1
  O2-  O262  1  0.82981351  0.78911976  0.59743030  1
  O2-  O263  1  0.83623629  0.79381487  0.94083383  1
  O2-  O264  1  0.41193272  0.03982312  0.06558210  1
  O2-  O265  1  0.40770476  0.03479415  0.39596916  1
  O2-  O266  1  0.41954169  0.04199945  0.73545824  1
  O2-  O267  1  0.41584112  0.54666114  0.06217449  1
  O2-  O268  1  0.42163520  0.54933717  0.40262614  1
  O2-  O269  1  0.41438760  0.54203987  0.73357029  1
  O2-  O270  1  0.91797742  0.05312620  0.06338239  1
  O2-  O271  1  0.92120377  0.04383154  0.39872894  1
  O2-  O272  1  0.91829337  0.05125651  0.72934873  1
  O2-  O273  1  0.90862398  0.53618746  0.06187868  1
  O2-  O274  1  0.91608859  0.54216355  0.40467913  1
  O2-  O275  1  0.91432905  0.54490353  0.73249427  1
  O2-  O276  1  0.29417212  0.16027500  0.06868797  1
  O2-  O277  1  0.30285597  0.16427153  0.39063179  1
  O2-  O278  1  0.29493823  0.16950295  0.73777972  1
  O2-  O279  1  0.29758728  0.66783590  0.05968493  1
  O2-  O280  1  0.29206050  0.67144299  0.40180715  1
  O2-  O281  1  0.30393631  0.66940984  0.72575718  1
  O2-  O282  1  0.79362708  0.16801289  0.06020573  1
  O2-  O283  1  0.79308325  0.17084505  0.40047503  1
  O2-  O284  1  0.79506902  0.16539861  0.73209005  1
  O2-  O285  1  0.79602765  0.66129602  0.06225454  1
  O2-  O286  1  0.78820070  0.66444728  0.40586360  1
  O2-  O287  1  0.79533778  0.66411406  0.73326417  1
