# generated using pymatgen
data_Ca2Al2SiO7
_symmetry_space_group_name_H-M   'P 1'
_cell_length_a   15.46270867
_cell_length_b   15.46528819
_cell_length_c   15.28878575
_cell_angle_alpha   90.01979112
_cell_angle_beta   90.00534858
_cell_angle_gamma   89.99777613
_symmetry_Int_Tables_number   1
_chemical_formula_structural   Ca2Al2SiO7
_chemical_formula_sum   'Ca48 Al48 Si24 O168'
_cell_volume   3656.08729974
_cell_formula_units_Z   24
loop_
 _symmetry_equiv_pos_site_id
 _symmetry_equiv_pos_as_xyz
  1  'x, y, z'
loop_
 _atom_type_symbol
 _atom_type_oxidation_number
  Ca2+  2.0
  Al0+  0.0
  Si0+  0.0
  O2-  -2.0
loop_
 _atom_site_type_symbol
 _atom_site_label
 _atom_site_symmetry_multiplicity
 _atom_site_fract_x
 _atom_site_fract_y
 _atom_site_fract_z
 _atom_site_occupancy
  Ca2+  Ca0  1  0.17365712  0.07660659  0.17279578  1
  Ca2+  Ca1  1  0.16728531  0.07421884  0.49808677  1
  Ca2+  Ca2  1  0.17246379  0.07079662  0.83997084  1
  Ca2+  Ca3  1  0.15697850  0.57772668  0.17558276  1
  Ca2+  Ca4  1  0.15111801  0.57257127  0.50034278  1
  Ca2+  Ca5  1  0.16464674  0.57755632  0.83367386  1
  Ca2+  Ca6  1  0.67604289  0.07608632  0.17141071  1
  Ca2+  Ca7  1  0.67262947  0.07221045  0.50664362  1
  Ca2+  Ca8  1  0.67406632  0.07996816  0.83207392  1
  Ca2+  Ca9  1  0.66143755  0.58309813  0.17029376  1
  Ca2+  Ca10  1  0.66554994  0.58576045  0.49971613  1
  Ca2+  Ca11  1  0.66524229  0.57890808  0.84305177  1
  Ca2+  Ca12  1  0.07663908  0.32883997  0.16750845  1
  Ca2+  Ca13  1  0.08366893  0.32742766  0.48680442  1
  Ca2+  Ca14  1  0.07892769  0.33072242  0.82898953  1
  Ca2+  Ca15  1  0.07823315  0.84381004  0.16467958  1
  Ca2+  Ca16  1  0.07522744  0.83863793  0.49154410  1
  Ca2+  Ca17  1  0.07582238  0.84623795  0.82997402  1
  Ca2+  Ca18  1  0.58259217  0.33224587  0.15932199  1
  Ca2+  Ca19  1  0.58324024  0.32235865  0.49815111  1
  Ca2+  Ca20  1  0.58517542  0.32636334  0.82934019  1
  Ca2+  Ca21  1  0.58299170  0.82836546  0.16782074  1
  Ca2+  Ca22  1  0.57589816  0.84053352  0.49099011  1
  Ca2+  Ca23  1  0.57839923  0.83437322  0.82552336  1
  Ca2+  Ca24  1  0.32618766  0.42179819  0.17640533  1
  Ca2+  Ca25  1  0.31956544  0.41977303  0.50237704  1
  Ca2+  Ca26  1  0.32744421  0.41581956  0.83541968  1
  Ca2+  Ca27  1  0.32678589  0.92396752  0.17675047  1
  Ca2+  Ca28  1  0.32528226  0.90966246  0.50226273  1
  Ca2+  Ca29  1  0.32459953  0.91446497  0.83797565  1
  Ca2+  Ca30  1  0.83365846  0.41296280  0.16914946  1
  Ca2+  Ca31  1  0.83897776  0.41931419  0.50129894  1
  Ca2+  Ca32  1  0.82716474  0.41823646  0.84394883  1
  Ca2+  Ca33  1  0.83424023  0.91503669  0.17170356  1
  Ca2+  Ca34  1  0.82650095  0.91314079  0.50758302  1
  Ca2+  Ca35  1  0.83816881  0.92639613  0.83700898  1
  Ca2+  Ca36  1  0.41197370  0.16155709  0.16422588  1
  Ca2+  Ca37  1  0.42098751  0.15881198  0.49556206  1
  Ca2+  Ca38  1  0.42393684  0.15955428  0.82783380  1
  Ca2+  Ca39  1  0.42378193  0.67297160  0.16580172  1
  Ca2+  Ca40  1  0.42273979  0.68096692  0.49318448  1
  Ca2+  Ca41  1  0.42363583  0.67196782  0.82898389  1
  Ca2+  Ca42  1  0.92020443  0.17075070  0.16244166  1
  Ca2+  Ca43  1  0.92271966  0.17002154  0.49291012  1
  Ca2+  Ca44  1  0.90690676  0.16866133  0.83110008  1
  Ca2+  Ca45  1  0.92243547  0.68082330  0.16869631  1
  Ca2+  Ca46  1  0.92059980  0.68008848  0.49365202  1
  Ca2+  Ca47  1  0.91636618  0.68348773  0.83109250  1
  Al0+  Al48  1  0.00085947  0.00263532  0.00308548  1
  Al0+  Al49  1  0.00207175  0.00451654  0.32854971  1
  Al0+  Al50  1  0.00035253  0.00342654  0.66902151  1
  Al0+  Al51  1  -0.00262528  0.50047349  -0.00460705  1
  Al0+  Al52  1  -0.00387103  0.50147706  0.33090133  1
  Al0+  Al53  1  -0.00187993  0.50002026  0.67464286  1
  Al0+  Al54  1  0.50088364  -0.00034672  0.00118428  1
  Al0+  Al55  1  0.50297264  0.00075483  0.33335581  1
  Al0+  Al56  1  0.50176788  -0.00047624  0.66111339  1
  Al0+  Al57  1  0.49932702  0.49854186  -0.00117295  1
  Al0+  Al58  1  0.49974159  0.49800510  0.33439545  1
  Al0+  Al59  1  0.49837360  0.49891844  0.66565915  1
  Al0+  Al60  1  0.24907875  0.25091224  0.00142445  1
  Al0+  Al61  1  0.25081602  0.25105626  0.33740583  1
  Al0+  Al62  1  0.24908496  0.25147944  0.67197801  1
  Al0+  Al63  1  0.24986791  0.74716156  0.00304860  1
  Al0+  Al64  1  0.25190021  0.74902684  0.32950653  1
  Al0+  Al65  1  0.25081149  0.74606085  0.66779790  1
  Al0+  Al66  1  0.74883123  0.25033807  0.00434984  1
  Al0+  Al67  1  0.74808332  0.25068012  0.33149021  1
  Al0+  Al68  1  0.74875427  0.25073462  0.66337297  1
  Al0+  Al69  1  0.75169566  0.74831576  -0.00851108  1
  Al0+  Al70  1  0.75050579  0.74769638  0.33090148  1
  Al0+  Al71  1  0.75052332  0.74831287  0.66796328  1
  Al0+  Al72  1  0.67907973  0.43064827  0.01400168  1
  Al0+  Al73  1  0.93096926  0.82336051  0.65348623  1
  Al0+  Al74  1  0.67790879  0.92679392  0.68182895  1
  Al0+  Al75  1  0.57104884  0.67740260  0.31906812  1
  Al0+  Al76  1  0.82097466  0.07214692  0.68004292  1
  Al0+  Al77  1  0.68389764  0.92758181  0.34508934  1
  Al0+  Al78  1  0.92719763  0.32131848  0.31890175  1
  Al0+  Al79  1  0.93205423  0.82330867  0.98506531  1
  Al0+  Al80  1  0.81937802  0.07105842  0.01490871  1
  Al0+  Al81  1  0.17779724  0.43305591  0.34514986  1
  Al0+  Al82  1  0.17853987  0.92718763  0.34901015  1
  Al0+  Al83  1  0.42878861  0.81976052  0.65363853  1
  Al0+  Al84  1  0.32233590  0.07153192  0.35015525  1
  Al0+  Al85  1  0.57066903  0.17981007  0.65196887  1
  Al0+  Al86  1  0.07169888  0.67909895  0.32125421  1
  Al0+  Al87  1  0.17956919  0.92733876  0.67926980  1
  Al0+  Al88  1  0.56967105  0.67832122  0.98513994  1
  Al0+  Al89  1  0.17943140  0.92740959  0.01586043  1
  Al0+  Al90  1  0.07422140  0.17987073  0.31730938  1
  Al0+  Al91  1  0.92826228  0.31948615  0.98440990  1
  Al0+  Al92  1  0.32326646  0.07137097  0.01336484  1
  Al0+  Al93  1  0.93002222  0.82383445  0.32013898  1
  Al0+  Al94  1  0.42893448  0.82414795  0.31646619  1
  Al0+  Al95  1  0.17765378  0.42846890  0.68232810  1
  Si0+  Si96  1  0.32264928  0.07162620  0.68162692  1
  Si0+  Si97  1  0.17640725  0.43030785  0.01574932  1
  Si0+  Si98  1  0.42598411  0.32252392  0.64911855  1
  Si0+  Si99  1  0.07054476  0.67611036  0.65240230  1
  Si0+  Si100  1  0.82186177  0.57307705  0.01848464  1
  Si0+  Si101  1  0.42989066  0.31996790  0.31914387  1
  Si0+  Si102  1  0.92894394  0.32210279  0.65300057  1
  Si0+  Si103  1  0.32348560  0.56987576  0.68508707  1
  Si0+  Si104  1  0.67821894  0.42966352  0.68032021  1
  Si0+  Si105  1  0.07311412  0.18042272  0.98048628  1
  Si0+  Si106  1  0.42799388  0.82181000  0.98318982  1
  Si0+  Si107  1  0.57269621  0.67535469  0.65054397  1
  Si0+  Si108  1  0.82058601  0.57060854  0.68392253  1
  Si0+  Si109  1  0.57063629  0.17867994  0.98587130  1
  Si0+  Si110  1  0.07274857  0.18118441  0.65279477  1
  Si0+  Si111  1  0.82231920  0.07461911  0.34888722  1
  Si0+  Si112  1  0.67638693  0.42682556  0.35070754  1
  Si0+  Si113  1  0.07348656  0.67652256  0.98161140  1
  Si0+  Si114  1  0.67855391  0.92503071  0.01538936  1
  Si0+  Si115  1  0.32532772  0.57182883  0.35063752  1
  Si0+  Si116  1  0.42762833  0.32093459  0.98524457  1
  Si0+  Si117  1  0.81880099  0.56931739  0.34893948  1
  Si0+  Si118  1  0.32128071  0.56842995  0.01520509  1
  Si0+  Si119  1  0.57120641  0.17925590  0.31584910  1
  O2-  O120  1  0.25466035  -0.00274641  0.06331717  1
  O2-  O121  1  0.25324123  -0.00329408  0.39975206  1
  O2-  O122  1  0.25693364  0.00039470  0.72559808  1
  O2-  O123  1  0.24556956  0.50274148  0.05789678  1
  O2-  O124  1  0.24849530  0.51114184  0.39379629  1
  O2-  O125  1  0.25352088  0.50191831  0.72937185  1
  O2-  O126  1  0.74885699  -0.00822325  0.05988824  1
  O2-  O127  1  0.76148774  -0.00085004  0.39261101  1
  O2-  O128  1  0.75264009  -0.00341909  0.73091302  1
  O2-  O129  1  0.75211949  0.50536518  0.06285309  1
  O2-  O130  1  0.74745421  0.49780873  0.39197726  1
  O2-  O131  1  0.74554452  0.50254601  0.72411873  1
  O2-  O132  1  -0.00194589  0.24896569  0.26882568  1
  O2-  O133  1  0.00135489  0.25313609  0.61153822  1
  O2-  O134  1  0.00211201  0.24623810  0.93433496  1
  O2-  O135  1  0.00966869  0.75922525  0.27049729  1
  O2-  O136  1  0.00886764  0.75072857  0.60868811  1
  O2-  O137  1  0.01026889  0.75066821  0.93857127  1
  O2-  O138  1  0.49831666  0.24842380  0.27401141  1
  O2-  O139  1  0.49200751  0.25148610  0.60516577  1
  O2-  O140  1  0.49474752  0.24579510  0.94406355  1
  O2-  O141  1  0.50034180  0.74979534  0.26859099  1
  O2-  O142  1  0.50845785  0.74845003  0.60851245  1
  O2-  O143  1  0.49844655  0.75540924  0.93750651  1
  O2-  O144  1  0.07529830  0.18513319  0.08548103  1
  O2-  O145  1  0.07367121  0.18242411  0.43181005  1
  O2-  O146  1  0.07439284  0.18361491  0.75786065  1
  O2-  O147  1  0.07063036  0.67069448  0.08649298  1
  O2-  O148  1  0.06293021  0.67336395  0.43462331  1
  O2-  O149  1  0.06672653  0.67206394  0.75802743  1
  O2-  O150  1  0.57116722  0.18135187  0.09090376  1
  O2-  O151  1  0.57333144  0.18305569  0.42091038  1
  O2-  O152  1  0.57087473  0.18380044  0.76559357  1
  O2-  O153  1  0.56608184  0.67616358  0.09754120  1
  O2-  O154  1  0.56896451  0.67499958  0.43277862  1
  O2-  O155  1  0.56910879  0.67013539  0.75611335  1
  O2-  O156  1  0.18050318  0.43332350  0.23176502  1
  O2-  O157  1  0.17593140  0.42980646  0.56954403  1
  O2-  O158  1  0.17849504  0.43032695  0.91032398  1
  O2-  O159  1  0.17972914  0.93038027  0.23589072  1
  O2-  O160  1  0.17804893  0.92851402  0.56690932  1
  O2-  O161  1  0.18160704  0.92914395  0.90145693  1
  O2-  O162  1  0.67406293  0.42581989  0.24592911  1
  O2-  O163  1  0.67919860  0.42981816  0.57516706  1
  O2-  O164  1  0.67941818  0.43083533  0.90020963  1
  O2-  O165  1  0.68425659  0.92990891  0.23156678  1
  O2-  O166  1  0.67920946  0.92823136  0.56827679  1
  O2-  O167  1  0.67582522  0.92805622  0.90990406  1
  O2-  O168  1  0.42865214  0.32403847  0.09027009  1
  O2-  O169  1  0.43288295  0.32166404  0.42419758  1
  O2-  O170  1  0.42789870  0.32447479  0.75504358  1
  O2-  O171  1  0.42882111  0.82068002  0.08813794  1
  O2-  O172  1  0.43133679  0.82276677  0.43035520  1
  O2-  O173  1  0.42872645  0.81642947  0.76724343  1
  O2-  O174  1  0.93038488  0.31971768  0.09677772  1
  O2-  O175  1  0.92792148  0.32128651  0.43338241  1
  O2-  O176  1  0.92778351  0.32202299  0.75811165  1
  O2-  O177  1  0.93017601  0.82016166  0.09764778  1
  O2-  O178  1  0.92661023  0.81974357  0.43386909  1
  O2-  O179  1  0.93185289  0.82152396  0.76665806  1
  O2-  O180  1  0.32077305  0.07283830  0.23665013  1
  O2-  O181  1  0.31974135  0.07472192  0.57669132  1
  O2-  O182  1  0.32379797  0.07145970  0.89933912  1
  O2-  O183  1  0.33139022  0.56388830  0.24512756  1
  O2-  O184  1  0.32755977  0.56726977  0.58025679  1
  O2-  O185  1  0.32184089  0.56518689  0.90989404  1
  O2-  O186  1  0.81610156  0.07853533  0.24338554  1
  O2-  O187  1  0.81999659  0.07592333  0.56679564  1
  O2-  O188  1  0.81536307  0.07295692  0.90185001  1
  O2-  O189  1  0.81821631  0.56867336  0.24418841  1
  O2-  O190  1  0.82335327  0.56849266  0.57881014  1
  O2-  O191  1  0.82061550  0.57040427  0.91234005  1
  O2-  O192  1  0.04904498  0.08297787  0.26149170  1
  O2-  O193  1  0.04408271  0.09063510  0.60478616  1
  O2-  O194  1  0.04954464  0.08573840  0.93713901  1
  O2-  O195  1  0.03227533  0.58570796  0.26424920  1
  O2-  O196  1  0.03580471  0.58426574  0.60688982  1
  O2-  O197  1  0.04223547  0.58542708  0.93211445  1
  O2-  O198  1  0.54693009  0.08780937  0.26761298  1
  O2-  O199  1  0.54395867  0.08377478  0.59607615  1
  O2-  O200  1  0.54705934  0.08595673  0.93764126  1
  O2-  O201  1  0.54196223  0.57762081  0.26768025  1
  O2-  O202  1  0.54363627  0.58265578  0.60309406  1
  O2-  O203  1  0.53461630  0.58223375  0.93054749  1
  O2-  O204  1  0.17107486  0.21467262  0.26533709  1
  O2-  O205  1  0.16429983  0.21070532  0.60606088  1
  O2-  O206  1  0.16573132  0.21023339  0.93311907  1
  O2-  O207  1  0.17471812  0.68878944  0.27238666  1
  O2-  O208  1  0.16762411  0.68964179  0.61067967  1
  O2-  O209  1  0.17029217  0.69388240  0.93793953  1
  O2-  O210  1  0.66082868  0.21151283  0.26709257  1
  O2-  O211  1  0.66388113  0.21787432  0.59535208  1
  O2-  O212  1  0.65948811  0.21342130  0.93783545  1
  O2-  O213  1  0.66935018  0.70260896  0.26543326  1
  O2-  O214  1  0.66884107  0.69353376  0.60766622  1
  O2-  O215  1  0.66757275  0.70188723  0.93045994  1
  O2-  O216  1  0.08354917  0.45795053  0.06016343  1
  O2-  O217  1  0.07979024  0.46144144  0.39861814  1
  O2-  O218  1  0.08249293  0.46071801  0.73923899  1
  O2-  O219  1  0.08274080  0.96001482  0.06776557  1
  O2-  O220  1  0.07951933  0.96045125  0.39983467  1
  O2-  O221  1  0.08556692  0.96430610  0.73432521  1
  O2-  O222  1  0.58127085  0.45940019  0.06701022  1
  O2-  O223  1  0.58535157  0.45426021  0.40023099  1
  O2-  O224  1  0.58460012  0.45317741  0.72697473  1
  O2-  O225  1  0.58571880  0.95236021  0.06196679  1
  O2-  O226  1  0.58877116  0.96324951  0.39821010  1
  O2-  O227  1  0.57995063  0.95946376  0.73397360  1
  O2-  O228  1  0.20578790  0.33915246  0.06209842  1
  O2-  O229  1  0.21339844  0.33918417  0.40092265  1
  O2-  O230  1  0.20957225  0.33370591  0.73999858  1
  O2-  O231  1  0.20055091  0.82578010  0.06520638  1
  O2-  O232  1  0.20263434  0.82554197  0.39852261  1
  O2-  O233  1  0.20652144  0.82875733  0.73224058  1
  O2-  O234  1  0.70889380  0.33519872  0.06948440  1
  O2-  O235  1  0.70530489  0.33549178  0.39897377  1
  O2-  O236  1  0.70891140  0.33926182  0.72809345  1
  O2-  O237  1  0.70338649  0.82979916  0.05748669  1
  O2-  O238  1  0.70895629  0.82932711  0.39862039  1
  O2-  O239  1  0.69992489  0.82575234  0.73236041  1
  O2-  O240  1  0.46003579  0.41035894  0.27016333  1
  O2-  O241  1  0.45460558  0.41468274  0.60168864  1
  O2-  O242  1  0.45951709  0.40970982  0.93428496  1
  O2-  O243  1  0.46160904  0.92128085  0.26360935  1
  O2-  O244  1  0.45494462  0.91672473  0.59938877  1
  O2-  O245  1  0.45243548  0.91625026  0.93758611  1
  O2-  O246  1  0.95426921  0.41912744  0.26549549  1
  O2-  O247  1  0.95596083  0.41546883  0.60837883  1
  O2-  O248  1  0.95710519  0.41703760  0.92985693  1
  O2-  O249  1  0.94888997  0.92435009  0.26865082  1
  O2-  O250  1  0.95769803  0.92159174  0.60174174  1
  O2-  O251  1  0.96126932  0.92134294  0.93242179  1
  O2-  O252  1  0.33772012  0.29560347  0.27178747  1
  O2-  O253  1  0.33045145  0.30015549  0.60607604  1
  O2-  O254  1  0.33424733  0.29818635  0.93781738  1
  O2-  O255  1  0.33114417  0.79623868  0.26276404  1
  O2-  O256  1  0.33362397  0.78343492  0.59940848  1
  O2-  O257  1  0.33452963  0.79209910  0.93817751  1
  O2-  O258  1  0.82749809  0.29551420  0.26682343  1
  O2-  O259  1  0.83752382  0.29611226  0.60433733  1
  O2-  O260  1  0.82991343  0.28899503  0.93270175  1
  O2-  O261  1  0.83565943  0.78505192  0.26573172  1
  O2-  O262  1  0.83435269  0.78716510  0.60206354  1
  O2-  O263  1  0.83700666  0.78963196  0.92883640  1
  O2-  O264  1  0.42353863  0.04867851  0.06569204  1
  O2-  O265  1  0.42364713  0.04801145  0.39894170  1
  O2-  O266  1  0.41802953  0.04898113  0.72445111  1
  O2-  O267  1  0.40997082  0.53371584  0.06340413  1
  O2-  O268  1  0.41404603  0.53568337  0.40103942  1
  O2-  O269  1  0.41603601  0.54091002  0.73362178  1
  O2-  O270  1  0.91773964  0.04680727  0.06687304  1
  O2-  O271  1  0.91960545  0.05966267  0.38929147  1
  O2-  O272  1  0.91981885  0.04955429  0.73478420  1
  O2-  O273  1  0.91532672  0.54460657  0.06254495  1
  O2-  O274  1  0.90842226  0.53923473  0.39931077  1
  O2-  O275  1  0.90875681  0.53885909  0.73576895  1
  O2-  O276  1  0.29471598  0.17102222  0.06496721  1
  O2-  O277  1  0.29502755  0.17031351  0.40371199  1
  O2-  O278  1  0.29705326  0.16502141  0.72946275  1
  O2-  O279  1  0.30060867  0.66161404  0.06201711  1
  O2-  O280  1  0.30984403  0.66852992  0.39166384  1
  O2-  O281  1  0.29805429  0.66206273  0.73368073  1
  O2-  O282  1  0.78390828  0.16501707  0.07041413  1
  O2-  O283  1  0.78850260  0.16567379  0.39649664  1
  O2-  O284  1  0.78670261  0.17037682  0.73271320  1
  O2-  O285  1  0.79651652  0.66731967  0.06197335  1
  O2-  O286  1  0.78977836  0.65951808  0.39868710  1
  O2-  O287  1  0.79504490  0.66209208  0.73260183  1
