# generated using pymatgen
data_Ca2Al2SiO7
_symmetry_space_group_name_H-M   'P 1'
_cell_length_a   15.45862254
_cell_length_b   15.45920373
_cell_length_c   15.28442815
_cell_angle_alpha   89.99141989
_cell_angle_beta   90.00186835
_cell_angle_gamma   89.99201571
_symmetry_Int_Tables_number   1
_chemical_formula_structural   Ca2Al2SiO7
_chemical_formula_sum   'Ca48 Al48 Si24 O168'
_cell_volume   3652.64192002
_cell_formula_units_Z   24
loop_
 _symmetry_equiv_pos_site_id
 _symmetry_equiv_pos_as_xyz
  1  'x, y, z'
loop_
 _atom_type_symbol
 _atom_type_oxidation_number
  Ca2+  2.0
  Al0+  0.0
  Si0+  0.0
  O2-  -2.0
loop_
 _atom_site_type_symbol
 _atom_site_label
 _atom_site_symmetry_multiplicity
 _atom_site_fract_x
 _atom_site_fract_y
 _atom_site_fract_z
 _atom_site_occupancy
  Ca2+  Ca0  1  0.15840531  0.07662269  0.16641371  1
  Ca2+  Ca1  1  0.17482309  0.08613237  0.51103631  1
  Ca2+  Ca2  1  0.16640043  0.08315570  0.83983764  1
  Ca2+  Ca3  1  0.16889937  0.58638880  0.17105555  1
  Ca2+  Ca4  1  0.15835133  0.57191815  0.50185962  1
  Ca2+  Ca5  1  0.16909143  0.57840138  0.83962087  1
  Ca2+  Ca6  1  0.67886187  0.08857810  0.17174313  1
  Ca2+  Ca7  1  0.66885927  0.09212559  0.50247894  1
  Ca2+  Ca8  1  0.67148437  0.08535546  0.83909126  1
  Ca2+  Ca9  1  0.66622269  0.58227269  0.16694585  1
  Ca2+  Ca10  1  0.67232357  0.57690275  0.51113179  1
  Ca2+  Ca11  1  0.67618815  0.57412281  0.84478514  1
  Ca2+  Ca12  1  0.07123439  0.33162164  0.15926481  1
  Ca2+  Ca13  1  0.07502971  0.33868431  0.49659659  1
  Ca2+  Ca14  1  0.07338716  0.32952048  0.82501982  1
  Ca2+  Ca15  1  0.08703936  0.82409994  0.15763818  1
  Ca2+  Ca16  1  0.08125996  0.82459496  0.49538543  1
  Ca2+  Ca17  1  0.08922611  0.82851815  0.83743713  1
  Ca2+  Ca18  1  0.58875632  0.33010407  0.16221020  1
  Ca2+  Ca19  1  0.59233186  0.32413822  0.49986430  1
  Ca2+  Ca20  1  0.58802347  0.33301785  0.82874342  1
  Ca2+  Ca21  1  0.57822375  0.82014609  0.15821638  1
  Ca2+  Ca22  1  0.57771537  0.82763788  0.49503617  1
  Ca2+  Ca23  1  0.57391902  0.82828016  0.83007089  1
  Ca2+  Ca24  1  0.32491867  0.42377233  0.17030902  1
  Ca2+  Ca25  1  0.31773218  0.41253487  0.50524498  1
  Ca2+  Ca26  1  0.32493944  0.41829582  0.83930958  1
  Ca2+  Ca27  1  0.32976849  0.91013036  0.16238818  1
  Ca2+  Ca28  1  0.33540659  0.92153998  0.50848405  1
  Ca2+  Ca29  1  0.33339411  0.91756333  0.83787184  1
  Ca2+  Ca30  1  0.83470461  0.41529453  0.16352203  1
  Ca2+  Ca31  1  0.83393150  0.41917555  0.50850901  1
  Ca2+  Ca32  1  0.82809156  0.41645829  0.83605944  1
  Ca2+  Ca33  1  0.83915847  0.93208482  0.16950124  1
  Ca2+  Ca34  1  0.83198269  0.92519637  0.50194279  1
  Ca2+  Ca35  1  0.83287307  0.92552414  0.84187623  1
  Ca2+  Ca36  1  0.42393270  0.16798367  0.16561954  1
  Ca2+  Ca37  1  0.42584524  0.16472856  0.50042523  1
  Ca2+  Ca38  1  0.42294667  0.16434589  0.82386858  1
  Ca2+  Ca39  1  0.42529587  0.66516714  0.15409663  1
  Ca2+  Ca40  1  0.42176278  0.67116673  0.49605519  1
  Ca2+  Ca41  1  0.41401761  0.67335764  0.83535571  1
  Ca2+  Ca42  1  0.91417469  0.17525746  0.15770421  1
  Ca2+  Ca43  1  0.91587577  0.18160113  0.49541914  1
  Ca2+  Ca44  1  0.92319362  0.17513035  0.83121271  1
  Ca2+  Ca45  1  0.92838794  0.66178939  0.15932004  1
  Ca2+  Ca46  1  0.91826771  0.66424349  0.49545617  1
  Ca2+  Ca47  1  0.91808710  0.65523452  0.83348863  1
  Al0+  Al48  1  0.00171582  -0.00083942  0.00541432  1
  Al0+  Al49  1  -0.00016597  0.00128364  0.34298570  1
  Al0+  Al50  1  0.00121609  -0.00251534  0.66261949  1
  Al0+  Al51  1  -0.00243803  0.49849839  -0.00566238  1
  Al0+  Al52  1  -0.00075144  0.50041282  0.32825769  1
  Al0+  Al53  1  0.00113365  0.49965850  0.67071479  1
  Al0+  Al54  1  0.49930944  -0.00073199  -0.00071350  1
  Al0+  Al55  1  0.50019229  -0.00008842  0.32759606  1
  Al0+  Al56  1  0.49947133  -0.00045917  0.66212578  1
  Al0+  Al57  1  0.49951448  0.49812859  0.00342737  1
  Al0+  Al58  1  0.49894946  0.50012927  0.33300540  1
  Al0+  Al59  1  0.49876050  0.50039024  0.66824130  1
  Al0+  Al60  1  0.25211883  0.24813755  0.00036269  1
  Al0+  Al61  1  0.24958428  0.24945205  0.33734884  1
  Al0+  Al62  1  0.25182434  0.24820370  0.67371924  1
  Al0+  Al63  1  0.24987940  0.75054541  0.00002975  1
  Al0+  Al64  1  0.25025222  0.75070392  0.33327242  1
  Al0+  Al65  1  0.24972773  0.75100519  0.65976455  1
  Al0+  Al66  1  0.75030605  0.25018109  0.00296366  1
  Al0+  Al67  1  0.75081407  0.25103734  0.32991824  1
  Al0+  Al68  1  0.75207851  0.25056846  0.66326504  1
  Al0+  Al69  1  0.75050281  0.74901614  0.00059471  1
  Al0+  Al70  1  0.74919968  0.75290453  0.32920591  1
  Al0+  Al71  1  0.75134286  0.75150787  0.66974899  1
  Al0+  Al72  1  0.57135738  0.67771517  0.32034288  1
  Al0+  Al73  1  0.56996095  0.18091370  0.31823538  1
  Al0+  Al74  1  0.67822212  0.42729800  0.68016318  1
  Al0+  Al75  1  0.67894235  0.42901477  0.01738229  1
  Al0+  Al76  1  0.81980410  0.06915924  0.01198508  1
  Al0+  Al77  1  0.82263521  0.57214493  0.01824608  1
  Al0+  Al78  1  0.93171939  0.32102297  0.64969876  1
  Al0+  Al79  1  0.18019043  0.42888501  0.68180193  1
  Al0+  Al80  1  0.57314080  0.67548533  0.98262142  1
  Al0+  Al81  1  0.57098425  0.18087819  0.65461211  1
  Al0+  Al82  1  0.42957852  0.81969927  0.65118152  1
  Al0+  Al83  1  0.42915934  0.82037764  0.98408008  1
  Al0+  Al84  1  0.06884496  0.68097725  0.32020643  1
  Al0+  Al85  1  0.18146197  0.93086430  0.01340431  1
  Al0+  Al86  1  0.32150532  0.06880021  0.68039648  1
  Al0+  Al87  1  0.92764130  0.32002841  0.98196869  1
  Al0+  Al88  1  0.82004266  0.07313679  0.35038344  1
  Al0+  Al89  1  0.82115051  0.57301111  0.68100803  1
  Al0+  Al90  1  0.07232865  0.17658767  0.98679919  1
  Al0+  Al91  1  0.17800114  0.43084857  0.34523029  1
  Al0+  Al92  1  0.07035816  0.67882396  0.98551543  1
  Al0+  Al93  1  0.07358167  0.17683730  0.65103689  1
  Al0+  Al94  1  0.93009975  0.32068970  0.31769399  1
  Al0+  Al95  1  0.31799858  0.57005449  0.01247016  1
  Si0+  Si96  1  0.92800916  0.82543448  0.31712024  1
  Si0+  Si97  1  0.67765350  0.43003506  0.34859224  1
  Si0+  Si98  1  0.32243018  0.07005655  0.34859560  1
  Si0+  Si99  1  0.81995373  0.57261453  0.34600952  1
  Si0+  Si100  1  0.32286808  0.57326215  0.35147919  1
  Si0+  Si101  1  0.17735577  0.92594375  0.68272114  1
  Si0+  Si102  1  0.67525962  0.92735029  0.01665548  1
  Si0+  Si103  1  0.07429374  0.17671148  0.31855141  1
  Si0+  Si104  1  0.42823261  0.32074385  0.98592804  1
  Si0+  Si105  1  0.67864909  0.92947211  0.68076343  1
  Si0+  Si106  1  0.42437943  0.32163322  0.31723590  1
  Si0+  Si107  1  0.57376659  0.67821692  0.65119741  1
  Si0+  Si108  1  0.42796163  0.82192166  0.31505560  1
  Si0+  Si109  1  0.92582080  0.82283490  0.65088015  1
  Si0+  Si110  1  0.82179191  0.07014988  0.68058212  1
  Si0+  Si111  1  0.67743475  0.92877086  0.34993273  1
  Si0+  Si112  1  0.32132086  0.57495393  0.68151214  1
  Si0+  Si113  1  0.06968260  0.68038998  0.65196833  1
  Si0+  Si114  1  0.92856449  0.82315537  0.98503076  1
  Si0+  Si115  1  0.17964117  0.92760521  0.35079662  1
  Si0+  Si116  1  0.42656363  0.32459235  0.65125116  1
  Si0+  Si117  1  0.57017219  0.17970172  0.98623448  1
  Si0+  Si118  1  0.17718275  0.42555591  0.01601413  1
  Si0+  Si119  1  0.32542074  0.07370914  0.01937173  1
  O2-  O120  1  0.25392538  0.00719461  0.06240935  1
  O2-  O121  1  0.25011273  -0.00003083  0.39128956  1
  O2-  O122  1  0.24262957  -0.00192440  0.72566700  1
  O2-  O123  1  0.24186924  0.49766038  0.06109577  1
  O2-  O124  1  0.25343945  0.50477067  0.39456883  1
  O2-  O125  1  0.25745807  0.50225779  0.72594429  1
  O2-  O126  1  0.74594672  -0.00603183  0.06075379  1
  O2-  O127  1  0.74426715  -0.00170721  0.39649986  1
  O2-  O128  1  0.74982660  0.00015736  0.72310975  1
  O2-  O129  1  0.74875029  0.50247640  0.06895622  1
  O2-  O130  1  0.74569916  0.50508486  0.38878174  1
  O2-  O131  1  0.74648535  0.50294313  0.72905026  1
  O2-  O132  1  0.00497621  0.24408953  0.27451788  1
  O2-  O133  1  0.00428818  0.24969470  0.59847435  1
  O2-  O134  1  0.00454217  0.25105822  0.93547987  1
  O2-  O135  1  -0.00346072  0.75738385  0.27272760  1
  O2-  O136  1  -0.00443763  0.74923348  0.61077340  1
  O2-  O137  1  -0.00851766  0.74987133  0.93912989  1
  O2-  O138  1  0.49611954  0.25652784  0.27184877  1
  O2-  O139  1  0.49926003  0.25916938  0.60772306  1
  O2-  O140  1  0.49822470  0.24873715  0.94380100  1
  O2-  O141  1  0.49430261  0.75009571  0.27365927  1
  O2-  O142  1  0.50328656  0.74408021  0.60473018  1
  O2-  O143  1  0.50223234  0.74957875  0.93409063  1
  O2-  O144  1  0.07022089  0.17718969  0.10104834  1
  O2-  O145  1  0.07583295  0.17759213  0.42398986  1
  O2-  O146  1  0.06921854  0.17494648  0.76416697  1
  O2-  O147  1  0.07198567  0.68217135  0.09882125  1
  O2-  O148  1  0.06595443  0.68144428  0.43391437  1
  O2-  O149  1  0.07282430  0.68299136  0.75665935  1
  O2-  O150  1  0.56872267  0.17999896  0.09156321  1
  O2-  O151  1  0.56823255  0.18134651  0.43142044  1
  O2-  O152  1  0.56978244  0.17804506  0.76773810  1
  O2-  O153  1  0.56955820  0.67745689  0.09676012  1
  O2-  O154  1  0.57056152  0.68033323  0.43395634  1
  O2-  O155  1  0.57448050  0.68117907  0.75593132  1
  O2-  O156  1  0.18069627  0.43244618  0.23249673  1
  O2-  O157  1  0.17869607  0.43230849  0.56809018  1
  O2-  O158  1  0.18224844  0.42521216  0.91044201  1
  O2-  O159  1  0.17919484  0.92639322  0.24600176  1
  O2-  O160  1  0.17938474  0.92342489  0.57662905  1
  O2-  O161  1  0.18229134  0.93095972  0.90040834  1
  O2-  O162  1  0.67682829  0.42933470  0.24403667  1
  O2-  O163  1  0.67993019  0.42880442  0.56565055  1
  O2-  O164  1  0.67915451  0.42618788  0.90408479  1
  O2-  O165  1  0.67861079  0.92900547  0.24479337  1
  O2-  O166  1  0.68049679  0.92768329  0.57541334  1
  O2-  O167  1  0.67406660  0.93165248  0.91057309  1
  O2-  O168  1  0.42661416  0.31862727  0.09128174  1
  O2-  O169  1  0.42195559  0.31920587  0.42270387  1
  O2-  O170  1  0.42572088  0.32297880  0.75685713  1
  O2-  O171  1  0.43079686  0.81935581  0.09802209  1
  O2-  O172  1  0.42868078  0.82329237  0.42101852  1
  O2-  O173  1  0.42950444  0.81930755  0.76350598  1
  O2-  O174  1  0.92806839  0.31758348  0.09605706  1
  O2-  O175  1  0.92949857  0.32281910  0.43069807  1
  O2-  O176  1  0.92990005  0.31839803  0.76242044  1
  O2-  O177  1  0.93317157  0.82595527  0.09068749  1
  O2-  O178  1  0.92828485  0.82397022  0.42332299  1
  O2-  O179  1  0.92463099  0.82864277  0.75519007  1
  O2-  O180  1  0.32302625  0.07011743  0.24375198  1
  O2-  O181  1  0.32333655  0.06550917  0.56652907  1
  O2-  O182  1  0.32938834  0.07313952  0.91415035  1
  O2-  O183  1  0.32296300  0.57366557  0.24605061  1
  O2-  O184  1  0.31926468  0.57610600  0.57560830  1
  O2-  O185  1  0.31634391  0.56796781  0.89912504  1
  O2-  O186  1  0.82008752  0.07103571  0.23741841  1
  O2-  O187  1  0.81945498  0.06839668  0.57527227  1
  O2-  O188  1  0.81714630  0.06751624  0.89839150  1
  O2-  O189  1  0.82079057  0.57191923  0.24168667  1
  O2-  O190  1  0.81974608  0.57502950  0.56618280  1
  O2-  O191  1  0.82122817  0.57065688  0.90502751  1
  O2-  O192  1  0.04865916  0.08093748  0.27695398  1
  O2-  O193  1  0.04794261  0.07675972  0.59837032  1
  O2-  O194  1  0.04249339  0.07811239  0.93530826  1
  O2-  O195  1  0.03757177  0.58654286  0.26436803  1
  O2-  O196  1  0.04269337  0.58830408  0.60530640  1
  O2-  O197  1  0.04413942  0.58182372  0.93104448  1
  O2-  O198  1  0.53940207  0.08453174  0.26351509  1
  O2-  O199  1  0.53804450  0.08594002  0.59806478  1
  O2-  O200  1  0.54438277  0.08712435  0.93958447  1
  O2-  O201  1  0.54269113  0.58033072  0.26704710  1
  O2-  O202  1  0.54979371  0.58352691  0.60572514  1
  O2-  O203  1  0.54164928  0.57695043  0.93296977  1
  O2-  O204  1  0.16854964  0.19993505  0.27291080  1
  O2-  O205  1  0.17524366  0.20234903  0.60344887  1
  O2-  O206  1  0.17433436  0.19797882  0.93781071  1
  O2-  O207  1  0.16724864  0.71032691  0.26887967  1
  O2-  O208  1  0.15878459  0.71090662  0.60032836  1
  O2-  O209  1  0.16457969  0.71490144  0.93108981  1
  O2-  O210  1  0.66570532  0.21221229  0.26421505  1
  O2-  O211  1  0.66712623  0.20952383  0.59816951  1
  O2-  O212  1  0.66140374  0.20802341  0.93943075  1
  O2-  O213  1  0.66669312  0.71077168  0.26512478  1
  O2-  O214  1  0.66668770  0.70759866  0.60473828  1
  O2-  O215  1  0.67262237  0.70352563  0.93203731  1
  O2-  O216  1  0.08147247  0.44775545  0.05677833  1
  O2-  O217  1  0.08220705  0.46573077  0.39950234  1
  O2-  O218  1  0.08614093  0.46295425  0.73694763  1
  O2-  O219  1  0.08585086  0.95839590  0.07195006  1
  O2-  O220  1  0.08764304  0.95175485  0.40007313  1
  O2-  O221  1  0.08158974  0.94562119  0.72661542  1
  O2-  O222  1  0.57925637  0.45264246  0.07083015  1
  O2-  O223  1  0.58406281  0.45276133  0.39580832  1
  O2-  O224  1  0.57655345  0.44831871  0.73001517  1
  O2-  O225  1  0.58288761  0.95505617  0.06426589  1
  O2-  O226  1  0.58230733  0.95343676  0.39414123  1
  O2-  O227  1  0.58744124  0.95887576  0.72716746  1
  O2-  O228  1  0.20722652  0.33340344  0.06324822  1
  O2-  O229  1  0.20830224  0.33398325  0.40063276  1
  O2-  O230  1  0.21007417  0.33317210  0.73683304  1
  O2-  O231  1  0.21475589  0.83583088  0.06966385  1
  O2-  O232  1  0.20895234  0.83639952  0.39978853  1
  O2-  O233  1  0.20768994  0.83343443  0.72810070  1
  O2-  O234  1  0.70953637  0.33115863  0.07132625  1
  O2-  O235  1  0.70963403  0.33907431  0.39474094  1
  O2-  O236  1  0.70914202  0.32918686  0.73241933  1
  O2-  O237  1  0.69794356  0.83282513  0.06091644  1
  O2-  O238  1  0.70490994  0.83566510  0.39765476  1
  O2-  O239  1  0.70636394  0.83894630  0.73015285  1
  O2-  O240  1  0.44658120  0.41686132  0.27362598  1
  O2-  O241  1  0.44475370  0.41993686  0.60472688  1
  O2-  O242  1  0.45567632  0.41151837  0.93782219  1
  O2-  O243  1  0.45437505  0.91411567  0.26729550  1
  O2-  O244  1  0.46357352  0.91413482  0.59481891  1
  O2-  O245  1  0.45635474  0.92016024  0.93210122  1
  O2-  O246  1  0.96188845  0.41582475  0.26255831  1
  O2-  O247  1  0.96110543  0.42089842  0.59877793  1
  O2-  O248  1  0.95132641  0.41875862  0.92917096  1
  O2-  O249  1  0.95562834  0.92003463  0.27455911  1
  O2-  O250  1  0.95630240  0.91164012  0.59827520  1
  O2-  O251  1  0.96043114  0.91403133  0.93707302  1
  O2-  O252  1  0.33281879  0.29160343  0.26908334  1
  O2-  O253  1  0.33514771  0.29271290  0.60451036  1
  O2-  O254  1  0.33701889  0.29368612  0.93694051  1
  O2-  O255  1  0.33306275  0.79886650  0.27126613  1
  O2-  O256  1  0.33330778  0.79059743  0.59404699  1
  O2-  O257  1  0.33167166  0.79067966  0.93129576  1
  O2-  O258  1  0.83428332  0.28935712  0.26373540  1
  O2-  O259  1  0.83399664  0.29082065  0.59564260  1
  O2-  O260  1  0.83029647  0.28521331  0.93103910  1
  O2-  O261  1  0.83402843  0.80397391  0.27125146  1
  O2-  O262  1  0.83412979  0.79685997  0.60123145  1
  O2-  O263  1  0.83234243  0.80603230  0.94143469  1
  O2-  O264  1  0.41758387  0.04414117  0.06745349  1
  O2-  O265  1  0.41440076  0.03980190  0.39507546  1
  O2-  O266  1  0.41740826  0.03395211  0.73361855  1
  O2-  O267  1  0.41302341  0.53699287  0.06803570  1
  O2-  O268  1  0.41627133  0.54745586  0.39849803  1
  O2-  O269  1  0.41686462  0.55643543  0.72579607  1
  O2-  O270  1  0.91489976  0.03803214  0.06863567  1
  O2-  O271  1  0.91572639  0.04218216  0.40710733  1
  O2-  O272  1  0.91333699  0.03867235  0.72562725  1
  O2-  O273  1  0.92208149  0.54111115  0.06877823  1
  O2-  O274  1  0.91078231  0.54170444  0.39360790  1
  O2-  O275  1  0.91892061  0.54430954  0.73311569  1
  O2-  O276  1  0.30352736  0.16799314  0.06607918  1
  O2-  O277  1  0.29687333  0.16184541  0.39727387  1
  O2-  O278  1  0.29846534  0.16552846  0.73677690  1
  O2-  O279  1  0.28887558  0.66628078  0.06757469  1
  O2-  O280  1  0.29792803  0.66779845  0.39678012  1
  O2-  O281  1  0.28917595  0.66696302  0.72684620  1
  O2-  O282  1  0.78578639  0.16316942  0.06802001  1
  O2-  O283  1  0.78573414  0.16943708  0.40285260  1
  O2-  O284  1  0.79400337  0.16175040  0.72647464  1
  O2-  O285  1  0.80004389  0.67348011  0.06917933  1
  O2-  O286  1  0.79678886  0.66723987  0.39145958  1
  O2-  O287  1  0.79880400  0.67329142  0.73373124  1
