# generated using pymatgen
data_Ca2Al2SiO7
_symmetry_space_group_name_H-M   'P 1'
_cell_length_a   15.45363191
_cell_length_b   15.45345210
_cell_length_c   15.28064436
_cell_angle_alpha   90.00297676
_cell_angle_beta   89.99507155
_cell_angle_gamma   90.01035718
_symmetry_Int_Tables_number   1
_chemical_formula_structural   Ca2Al2SiO7
_chemical_formula_sum   'Ca48 Al48 Si24 O168'
_cell_volume   3649.20055933
_cell_formula_units_Z   24
loop_
 _symmetry_equiv_pos_site_id
 _symmetry_equiv_pos_as_xyz
  1  'x, y, z'
loop_
 _atom_type_symbol
 _atom_type_oxidation_number
  Ca2+  2.0
  Al0+  0.0
  Si0+  0.0
  O2-  -2.0
loop_
 _atom_site_type_symbol
 _atom_site_label
 _atom_site_symmetry_multiplicity
 _atom_site_fract_x
 _atom_site_fract_y
 _atom_site_fract_z
 _atom_site_occupancy
  Ca2+  Ca0  1  0.16472360  0.08152183  0.16116039  1
  Ca2+  Ca1  1  0.16553984  0.08032575  0.50864232  1
  Ca2+  Ca2  1  0.16352149  0.07930125  0.83973245  1
  Ca2+  Ca3  1  0.18080744  0.58887383  0.16886629  1
  Ca2+  Ca4  1  0.17576991  0.57599611  0.50690065  1
  Ca2+  Ca5  1  0.17169212  0.57444286  0.83775756  1
  Ca2+  Ca6  1  0.68097468  0.07839048  0.17433504  1
  Ca2+  Ca7  1  0.66802739  0.07368977  0.50207602  1
  Ca2+  Ca8  1  0.67121593  0.07960476  0.83972210  1
  Ca2+  Ca9  1  0.66892533  0.57432804  0.17503277  1
  Ca2+  Ca10  1  0.67253050  0.58639033  0.50111196  1
  Ca2+  Ca11  1  0.66821609  0.57857410  0.83315780  1
  Ca2+  Ca12  1  0.07089124  0.32565086  0.15502537  1
  Ca2+  Ca13  1  0.08086927  0.33368014  0.50220895  1
  Ca2+  Ca14  1  0.07900558  0.32327686  0.82341109  1
  Ca2+  Ca15  1  0.07842145  0.83284329  0.15581225  1
  Ca2+  Ca16  1  0.08302726  0.83378845  0.49809179  1
  Ca2+  Ca17  1  0.08055295  0.84021434  0.83327822  1
  Ca2+  Ca18  1  0.58226829  0.34251956  0.16513535  1
  Ca2+  Ca19  1  0.57222421  0.34169365  0.49389171  1
  Ca2+  Ca20  1  0.57873912  0.33460573  0.83013296  1
  Ca2+  Ca21  1  0.58423863  0.82708496  0.16257714  1
  Ca2+  Ca22  1  0.59458076  0.82498116  0.49612442  1
  Ca2+  Ca23  1  0.57735740  0.83088698  0.82524683  1
  Ca2+  Ca24  1  0.33721019  0.42820433  0.17281396  1
  Ca2+  Ca25  1  0.33511478  0.41662216  0.50371700  1
  Ca2+  Ca26  1  0.32999335  0.41688651  0.83578851  1
  Ca2+  Ca27  1  0.33318423  0.91804401  0.16253986  1
  Ca2+  Ca28  1  0.32663430  0.91950746  0.50782386  1
  Ca2+  Ca29  1  0.32286061  0.92013120  0.84508028  1
  Ca2+  Ca30  1  0.82180729  0.41424821  0.17255138  1
  Ca2+  Ca31  1  0.83241267  0.42678899  0.50659404  1
  Ca2+  Ca32  1  0.83390364  0.41611095  0.83860153  1
  Ca2+  Ca33  1  0.83721146  0.92696620  0.17068000  1
  Ca2+  Ca34  1  0.82231047  0.91922747  0.50129078  1
  Ca2+  Ca35  1  0.82958694  0.92073354  0.83936448  1
  Ca2+  Ca36  1  0.41788806  0.17074932  0.16201117  1
  Ca2+  Ca37  1  0.41455400  0.18069875  0.49607923  1
  Ca2+  Ca38  1  0.41473567  0.16939656  0.82821029  1
  Ca2+  Ca39  1  0.41973860  0.66732883  0.16153984  1
  Ca2+  Ca40  1  0.43123906  0.66255393  0.49236210  1
  Ca2+  Ca41  1  0.42017836  0.66858295  0.83150448  1
  Ca2+  Ca42  1  0.91719892  0.16556612  0.15404752  1
  Ca2+  Ca43  1  0.91951576  0.16660159  0.50010316  1
  Ca2+  Ca44  1  0.92205363  0.17417382  0.83115809  1
  Ca2+  Ca45  1  0.91227448  0.67351489  0.16246606  1
  Ca2+  Ca46  1  0.91285477  0.66260492  0.49598657  1
  Ca2+  Ca47  1  0.91152787  0.67252895  0.82840094  1
  Al0+  Al48  1  -0.00056795  -0.00145643  -0.00101139  1
  Al0+  Al49  1  0.00068598  0.00016040  0.33707028  1
  Al0+  Al50  1  -0.00078337  0.00015560  0.66514288  1
  Al0+  Al51  1  -0.00069021  0.50132750  -0.00183545  1
  Al0+  Al52  1  0.00183917  0.49868857  0.33205840  1
  Al0+  Al53  1  0.00140345  0.50129837  0.67208577  1
  Al0+  Al54  1  0.49810389  -0.00105245  -0.00075917  1
  Al0+  Al55  1  0.49776425  0.00096169  0.33754302  1
  Al0+  Al56  1  0.49959534  -0.00040307  0.66929697  1
  Al0+  Al57  1  0.50083728  0.49988000  0.00553808  1
  Al0+  Al58  1  0.49953739  0.50252976  0.33129769  1
  Al0+  Al59  1  0.50243453  0.50197119  0.65917410  1
  Al0+  Al60  1  0.24957387  0.24950038  0.00089709  1
  Al0+  Al61  1  0.24950450  0.24948964  0.32582087  1
  Al0+  Al62  1  0.25005060  0.25072129  0.66152816  1
  Al0+  Al63  1  0.25085953  0.74945787  0.00265463  1
  Al0+  Al64  1  0.25081384  0.74954128  0.33838092  1
  Al0+  Al65  1  0.24973326  0.75125576  0.67053542  1
  Al0+  Al66  1  0.74777286  0.24943733  0.00376109  1
  Al0+  Al67  1  0.74938811  0.24937087  0.34391544  1
  Al0+  Al68  1  0.74976963  0.25051554  0.66120381  1
  Al0+  Al69  1  0.74968760  0.74729731  -0.00599978  1
  Al0+  Al70  1  0.75098204  0.75033155  0.33169354  1
  Al0+  Al71  1  0.74962081  0.75039716  0.67183984  1
  Al0+  Al72  1  0.06969671  0.17856430  0.64961555  1
  Al0+  Al73  1  0.17850889  0.92968453  0.01628009  1
  Al0+  Al74  1  0.92481201  0.32183114  0.98616725  1
  Al0+  Al75  1  0.67905983  0.92929783  0.68270665  1
  Al0+  Al76  1  0.43087709  0.31994723  0.65438483  1
  Al0+  Al77  1  0.68073225  0.42979323  0.01245110  1
  Al0+  Al78  1  0.57193606  0.68222701  0.31740490  1
  Al0+  Al79  1  0.67766427  0.92896176  0.34604507  1
  Al0+  Al80  1  0.42937041  0.82083772  0.98621659  1
  Al0+  Al81  1  0.07121459  0.17954694  0.98423375  1
  Al0+  Al82  1  0.43038232  0.32066734  0.31624340  1
  Al0+  Al83  1  0.32030027  0.57157436  0.34883136  1
  Al0+  Al84  1  0.57092330  0.68216841  0.65229063  1
  Al0+  Al85  1  0.32299558  0.07335957  0.01567263  1
  Al0+  Al86  1  0.81878928  0.06841765  0.01071199  1
  Al0+  Al87  1  0.82099325  0.56989869  0.68222866  1
  Al0+  Al88  1  0.31976255  0.56877827  0.01256494  1
  Al0+  Al89  1  0.92882701  0.81948228  0.98591421  1
  Al0+  Al90  1  0.92807285  0.32441429  0.64967813  1
  Al0+  Al91  1  0.82296822  0.57027575  0.34634847  1
  Al0+  Al92  1  0.67743726  0.42940462  0.35109900  1
  Al0+  Al93  1  0.82410424  0.07206060  0.35101876  1
  Al0+  Al94  1  0.18083085  0.42857437  0.67996226  1
  Al0+  Al95  1  0.17814073  0.92871224  0.68098354  1
  Si0+  Si96  1  0.57076708  0.67604612  0.98191239  1
  Si0+  Si97  1  0.92834101  0.32126756  0.31929353  1
  Si0+  Si98  1  0.32490543  0.57125768  0.68278476  1
  Si0+  Si99  1  0.93171023  0.82041355  0.31961628  1
  Si0+  Si100  1  0.07289000  0.67915537  0.65234625  1
  Si0+  Si101  1  0.32085818  0.07260165  0.68156146  1
  Si0+  Si102  1  0.42454302  0.82397325  0.31750220  1
  Si0+  Si103  1  0.57238796  0.17608060  0.31732970  1
  Si0+  Si104  1  0.67677312  0.42739800  0.68218864  1
  Si0+  Si105  1  0.17913325  0.42626114  0.34810375  1
  Si0+  Si106  1  0.17586100  0.42686738  0.01685307  1
  Si0+  Si107  1  0.82101505  0.07310222  0.68435465  1
  Si0+  Si108  1  0.92941516  0.81985520  0.65070593  1
  Si0+  Si109  1  0.57017634  0.17810142  0.98720717  1
  Si0+  Si110  1  0.17973114  0.92964856  0.34856627  1
  Si0+  Si111  1  0.07361890  0.67801496  0.31973687  1
  Si0+  Si112  1  0.32005161  0.07330492  0.34889577  1
  Si0+  Si113  1  0.82342030  0.57380755  0.01618935  1
  Si0+  Si114  1  0.42625900  0.82270028  0.64992007  1
  Si0+  Si115  1  0.07401422  0.67798180  0.98250553  1
  Si0+  Si116  1  0.67644583  0.92506617  0.01481071  1
  Si0+  Si117  1  0.06970983  0.17716658  0.31614342  1
  Si0+  Si118  1  0.42999214  0.32232023  0.98653496  1
  Si0+  Si119  1  0.57305597  0.17473103  0.64949712  1
  O2-  O120  1  0.25061472  0.00167876  0.06655987  1
  O2-  O121  1  0.25088974  0.00027466  0.39068248  1
  O2-  O122  1  0.25357878  0.00299192  0.72560323  1
  O2-  O123  1  0.24412861  0.49565712  0.06143268  1
  O2-  O124  1  0.24744189  0.49453803  0.39375686  1
  O2-  O125  1  0.25679869  0.50225330  0.72690003  1
  O2-  O126  1  0.74693223  -0.00867511  0.05895645  1
  O2-  O127  1  0.74798126  0.00227424  0.39725064  1
  O2-  O128  1  0.74962058  0.00756385  0.72905264  1
  O2-  O129  1  0.75877462  0.50128439  0.05892241  1
  O2-  O130  1  0.75239009  0.49920612  0.39946499  1
  O2-  O131  1  0.75014036  0.49043038  0.72719397  1
  O2-  O132  1  -0.00415394  0.24656846  0.27646902  1
  O2-  O133  1  -0.00169747  0.25076042  0.59844392  1
  O2-  O134  1  0.00156380  0.25489284  0.93618609  1
  O2-  O135  1  0.00095911  0.74727162  0.27760024  1
  O2-  O136  1  0.00200446  0.74991818  0.60838573  1
  O2-  O137  1  0.00216630  0.74345861  0.93828880  1
  O2-  O138  1  0.50811284  0.24801334  0.27060044  1
  O2-  O139  1  0.50607496  0.24584468  0.60660440  1
  O2-  O140  1  0.49658041  0.24703983  0.94478316  1
  O2-  O141  1  0.49700938  0.75893707  0.27392563  1
  O2-  O142  1  0.49561309  0.75629054  0.60427740  1
  O2-  O143  1  0.50580935  0.74859465  0.93839302  1
  O2-  O144  1  0.06844825  0.18023050  0.09874463  1
  O2-  O145  1  0.07244290  0.17596151  0.42092442  1
  O2-  O146  1  0.06929583  0.17792909  0.76261325  1
  O2-  O147  1  0.07416678  0.67944941  0.08872554  1
  O2-  O148  1  0.07529446  0.68022227  0.42494819  1
  O2-  O149  1  0.07364685  0.68023865  0.75713377  1
  O2-  O150  1  0.57105115  0.17837810  0.09211914  1
  O2-  O151  1  0.56618390  0.17371777  0.42278787  1
  O2-  O152  1  0.57209547  0.17393632  0.75554933  1
  O2-  O153  1  0.57067314  0.67620476  0.08748466  1
  O2-  O154  1  0.57204887  0.68373101  0.43062066  1
  O2-  O155  1  0.56776158  0.68105422  0.76553170  1
  O2-  O156  1  0.17884796  0.42815445  0.24252821  1
  O2-  O157  1  0.18225811  0.43164053  0.56649783  1
  O2-  O158  1  0.17872874  0.42762538  0.91120554  1
  O2-  O159  1  0.17748543  0.92893241  0.24413239  1
  O2-  O160  1  0.18035511  0.92810186  0.56685963  1
  O2-  O161  1  0.17964061  0.93069729  0.90285391  1
  O2-  O162  1  0.67992809  0.43042574  0.23716034  1
  O2-  O163  1  0.67444266  0.43127385  0.57716925  1
  O2-  O164  1  0.67653146  0.43151309  0.89927239  1
  O2-  O165  1  0.68038565  0.92999951  0.23228555  1
  O2-  O166  1  0.68216655  0.92883761  0.56967926  1
  O2-  O167  1  0.67680682  0.92787200  0.90906821  1
  O2-  O168  1  0.43265169  0.32393701  0.09147858  1
  O2-  O169  1  0.42720025  0.31768802  0.42944161  1
  O2-  O170  1  0.43207222  0.31946804  0.76811494  1
  O2-  O171  1  0.43118958  0.81913974  0.09957904  1
  O2-  O172  1  0.41960632  0.82238160  0.42302060  1
  O2-  O173  1  0.42614757  0.82086155  0.75542226  1
  O2-  O174  1  0.92460073  0.31850094  0.10058464  1
  O2-  O175  1  0.93381243  0.32449590  0.42379830  1
  O2-  O176  1  0.92872733  0.32242058  0.76304609  1
  O2-  O177  1  0.92959580  0.81822646  0.09972228  1
  O2-  O178  1  0.93427017  0.82133044  0.42493389  1
  O2-  O179  1  0.92999607  0.81952047  0.75575274  1
  O2-  O180  1  0.32002478  0.07384603  0.24427151  1
  O2-  O181  1  0.32008550  0.07095112  0.57527816  1
  O2-  O182  1  0.32464298  0.07260324  0.90217593  1
  O2-  O183  1  0.31757116  0.57361788  0.23562615  1
  O2-  O184  1  0.32304405  0.57131070  0.57711966  1
  O2-  O185  1  0.32092650  0.56541439  0.89926564  1
  O2-  O186  1  0.82762399  0.06919126  0.23715046  1
  O2-  O187  1  0.82113521  0.06935133  0.57872154  1
  O2-  O188  1  0.81526799  0.06883893  0.89780673  1
  O2-  O189  1  0.82373108  0.56967902  0.23275583  1
  O2-  O190  1  0.81982294  0.57224180  0.56926805  1
  O2-  O191  1  0.82073765  0.57620834  0.91071516  1
  O2-  O192  1  0.04286104  0.08411366  0.27015749  1
  O2-  O193  1  0.04020733  0.07988934  0.59541383  1
  O2-  O194  1  0.04112531  0.08142488  0.93330517  1
  O2-  O195  1  0.05028518  0.58549007  0.27138736  1
  O2-  O196  1  0.04571228  0.58770782  0.60473197  1
  O2-  O197  1  0.05251342  0.58293565  0.93735529  1
  O2-  O198  1  0.54262701  0.08364076  0.27018147  1
  O2-  O199  1  0.54478398  0.08177818  0.60266958  1
  O2-  O200  1  0.54473751  0.08638069  0.93795316  1
  O2-  O201  1  0.53836119  0.58676388  0.26337024  1
  O2-  O202  1  0.54178437  0.58677866  0.59529919  1
  O2-  O203  1  0.53840222  0.58422847  0.93593111  1
  O2-  O204  1  0.16037935  0.20573193  0.26686651  1
  O2-  O205  1  0.16816454  0.20659255  0.59584558  1
  O2-  O206  1  0.17151863  0.20477935  0.93280580  1
  O2-  O207  1  0.16417189  0.71021521  0.27176165  1
  O2-  O208  1  0.16494231  0.70766288  0.60406081  1
  O2-  O209  1  0.16633661  0.70546173  0.93570509  1
  O2-  O210  1  0.66966090  0.19701064  0.27671283  1
  O2-  O211  1  0.66700338  0.19601873  0.60301456  1
  O2-  O212  1  0.65950494  0.20924995  0.93738639  1
  O2-  O213  1  0.66863709  0.71193805  0.26175258  1
  O2-  O214  1  0.66777299  0.71583372  0.60026320  1
  O2-  O215  1  0.66534793  0.69630997  0.93570044  1
  O2-  O216  1  0.08144990  0.45209806  0.06216233  1
  O2-  O217  1  0.08619891  0.45262547  0.39475187  1
  O2-  O218  1  0.08680759  0.46145117  0.73660483  1
  O2-  O219  1  0.08035083  0.95786150  0.06982075  1
  O2-  O220  1  0.08920752  0.95814036  0.39808403  1
  O2-  O221  1  0.08044456  0.95842750  0.73240898  1
  O2-  O222  1  0.58662827  0.46380656  0.06957766  1
  O2-  O223  1  0.57953175  0.46164158  0.40107680  1
  O2-  O224  1  0.58492427  0.45964552  0.72902849  1
  O2-  O225  1  0.58344291  0.95098675  0.06035559  1
  O2-  O226  1  0.57824108  0.95346672  0.40041317  1
  O2-  O227  1  0.58027376  0.95593204  0.73523988  1
  O2-  O228  1  0.20048218  0.33355153  0.06298670  1
  O2-  O229  1  0.20516143  0.33197139  0.39237032  1
  O2-  O230  1  0.21237210  0.33186435  0.73271820  1
  O2-  O231  1  0.20704845  0.83113843  0.06901538  1
  O2-  O232  1  0.20645149  0.83824524  0.39771332  1
  O2-  O233  1  0.20664962  0.83203118  0.73613073  1
  O2-  O234  1  0.70638202  0.33316439  0.06911547  1
  O2-  O235  1  0.69796389  0.32958952  0.40368045  1
  O2-  O236  1  0.69477719  0.33028128  0.72452315  1
  O2-  O237  1  0.70028165  0.82931705  0.05684884  1
  O2-  O238  1  0.71219974  0.83283856  0.39947540  1
  O2-  O239  1  0.71327617  0.83547351  0.73869424  1
  O2-  O240  1  0.45950117  0.41816914  0.26363559  1
  O2-  O241  1  0.46059424  0.41593890  0.59820239  1
  O2-  O242  1  0.46298100  0.41214439  0.93838963  1
  O2-  O243  1  0.44515835  0.92017324  0.27433431  1
  O2-  O244  1  0.44896335  0.91808464  0.60573926  1
  O2-  O245  1  0.45641943  0.91806395  0.93084743  1
  O2-  O246  1  0.95915037  0.41131756  0.26879011  1
  O2-  O247  1  0.96112940  0.42315539  0.59926836  1
  O2-  O248  1  0.94695775  0.42356497  0.93716608  1
  O2-  O249  1  0.96358311  0.91159265  0.27264066  1
  O2-  O250  1  0.95648160  0.91122607  0.60221061  1
  O2-  O251  1  0.96019047  0.91460126  0.93056235  1
  O2-  O252  1  0.33421930  0.28822028  0.26129464  1
  O2-  O253  1  0.33604599  0.28930036  0.59670254  1
  O2-  O254  1  0.33644602  0.29906514  0.94087466  1
  O2-  O255  1  0.33223759  0.79359745  0.27043437  1
  O2-  O256  1  0.33198863  0.79714443  0.60428734  1
  O2-  O257  1  0.33301712  0.78769445  0.93307952  1
  O2-  O258  1  0.83318061  0.29671376  0.27746999  1
  O2-  O259  1  0.82820712  0.29966667  0.59705731  1
  O2-  O260  1  0.82739410  0.28976743  0.93334832  1
  O2-  O261  1  0.84056757  0.79510238  0.27061463  1
  O2-  O262  1  0.83823321  0.78912786  0.60461592  1
  O2-  O263  1  0.83241143  0.78984489  0.92943573  1
  O2-  O264  1  0.42090428  0.04306193  0.06989938  1
  O2-  O265  1  0.41130358  0.04888972  0.39882749  1
  O2-  O266  1  0.41525760  0.05029884  0.72733239  1
  O2-  O267  1  0.41460113  0.53690967  0.06898282  1
  O2-  O268  1  0.41666516  0.54104278  0.40092341  1
  O2-  O269  1  0.41882900  0.54514922  0.72709917  1
  O2-  O270  1  0.91462234  0.03765047  0.06552025  1
  O2-  O271  1  0.92048503  0.03820342  0.40563475  1
  O2-  O272  1  0.91352549  0.04307741  0.72888363  1
  O2-  O273  1  0.91982790  0.55667100  0.05999328  1
  O2-  O274  1  0.92316649  0.54401123  0.39842822  1
  O2-  O275  1  0.91883520  0.54627238  0.73672468  1
  O2-  O276  1  0.29601943  0.17215001  0.06958850  1
  O2-  O277  1  0.28797785  0.16441164  0.39535086  1
  O2-  O278  1  0.29579390  0.16632275  0.72617659  1
  O2-  O279  1  0.28932102  0.66438358  0.06845430  1
  O2-  O280  1  0.28782540  0.66653669  0.40544962  1
  O2-  O281  1  0.29780359  0.66467435  0.72831731  1
  O2-  O282  1  0.78553607  0.16266481  0.06762556  1
  O2-  O283  1  0.79967244  0.16965845  0.40602282  1
  O2-  O284  1  0.79782269  0.16876056  0.72712943  1
  O2-  O285  1  0.79340367  0.66635097  0.06292517  1
  O2-  O286  1  0.79644970  0.66978079  0.39755800  1
  O2-  O287  1  0.78589758  0.66446652  0.73745081  1
