# generated using pymatgen
data_Ca2Al2SiO7
_symmetry_space_group_name_H-M   'P 1'
_cell_length_a   15.46219917
_cell_length_b   15.46340912
_cell_length_c   15.28793116
_cell_angle_alpha   89.99514268
_cell_angle_beta   90.00019699
_cell_angle_gamma   89.99641942
_symmetry_Int_Tables_number   1
_chemical_formula_structural   Ca2Al2SiO7
_chemical_formula_sum   'Ca48 Al48 Si24 O168'
_cell_volume   3655.31850865
_cell_formula_units_Z   24
loop_
 _symmetry_equiv_pos_site_id
 _symmetry_equiv_pos_as_xyz
  1  'x, y, z'
loop_
 _atom_type_symbol
 _atom_type_oxidation_number
  Ca2+  2.0
  Al0+  0.0
  Si0+  0.0
  O2-  -2.0
loop_
 _atom_site_type_symbol
 _atom_site_label
 _atom_site_symmetry_multiplicity
 _atom_site_fract_x
 _atom_site_fract_y
 _atom_site_fract_z
 _atom_site_occupancy
  Ca2+  Ca0  1  0.17038203  0.07825749  0.17258172  1
  Ca2+  Ca1  1  0.16876691  0.08211487  0.50117117  1
  Ca2+  Ca2  1  0.16760010  0.06705157  0.83870421  1
  Ca2+  Ca3  1  0.17346816  0.58881130  0.17471985  1
  Ca2+  Ca4  1  0.16849184  0.58449448  0.49473805  1
  Ca2+  Ca5  1  0.17318892  0.58829848  0.84398233  1
  Ca2+  Ca6  1  0.67026466  0.07646740  0.17455896  1
  Ca2+  Ca7  1  0.66671164  0.07141570  0.50283762  1
  Ca2+  Ca8  1  0.67607737  0.07620221  0.83646524  1
  Ca2+  Ca9  1  0.66793545  0.58479795  0.16573724  1
  Ca2+  Ca10  1  0.66646815  0.58281754  0.50399376  1
  Ca2+  Ca11  1  0.66331625  0.58194814  0.84465226  1
  Ca2+  Ca12  1  0.08671738  0.33028914  0.17134527  1
  Ca2+  Ca13  1  0.07853948  0.32694214  0.48367566  1
  Ca2+  Ca14  1  0.08004676  0.32999364  0.83045562  1
  Ca2+  Ca15  1  0.07949520  0.82647362  0.15785923  1
  Ca2+  Ca16  1  0.07721877  0.83296478  0.49261489  1
  Ca2+  Ca17  1  0.08435352  0.83392279  0.83673218  1
  Ca2+  Ca18  1  0.58286686  0.33022995  0.16533719  1
  Ca2+  Ca19  1  0.57627236  0.32146100  0.48819641  1
  Ca2+  Ca20  1  0.58691726  0.33562891  0.83313279  1
  Ca2+  Ca21  1  0.57612587  0.82972543  0.15859442  1
  Ca2+  Ca22  1  0.58555037  0.83477362  0.49704174  1
  Ca2+  Ca23  1  0.57788215  0.82364232  0.82545469  1
  Ca2+  Ca24  1  0.33063591  0.43034094  0.17827791  1
  Ca2+  Ca25  1  0.33140662  0.41733708  0.49400650  1
  Ca2+  Ca26  1  0.33176095  0.42654293  0.84294097  1
  Ca2+  Ca27  1  0.32763082  0.91412082  0.17071876  1
  Ca2+  Ca28  1  0.32941309  0.92078516  0.50484540  1
  Ca2+  Ca29  1  0.32543560  0.90006662  0.83574294  1
  Ca2+  Ca30  1  0.83357553  0.42193530  0.16715936  1
  Ca2+  Ca31  1  0.83775953  0.41625371  0.50012562  1
  Ca2+  Ca32  1  0.82427591  0.42801480  0.84623255  1
  Ca2+  Ca33  1  0.83242934  0.91320964  0.17081055  1
  Ca2+  Ca34  1  0.82305972  0.91677773  0.50405458  1
  Ca2+  Ca35  1  0.83407040  0.92428452  0.83987364  1
  Ca2+  Ca36  1  0.41671932  0.16812654  0.17037618  1
  Ca2+  Ca37  1  0.41936314  0.16866787  0.48407993  1
  Ca2+  Ca38  1  0.41855810  0.17046081  0.83029063  1
  Ca2+  Ca39  1  0.41595482  0.66804970  0.15594678  1
  Ca2+  Ca40  1  0.41993283  0.67195622  0.49925117  1
  Ca2+  Ca41  1  0.42274879  0.67335580  0.83410454  1
  Ca2+  Ca42  1  0.91759643  0.16869296  0.16467969  1
  Ca2+  Ca43  1  0.92050394  0.16938665  0.49061299  1
  Ca2+  Ca44  1  0.91038381  0.16169058  0.83119340  1
  Ca2+  Ca45  1  0.92522756  0.67609607  0.16009227  1
  Ca2+  Ca46  1  0.92461235  0.67521740  0.48685294  1
  Ca2+  Ca47  1  0.91550159  0.67079176  0.83696567  1
  Al0+  Al48  1  0.00178531  0.00025165  0.00505401  1
  Al0+  Al49  1  -0.00175999  0.00150317  0.32698854  1
  Al0+  Al50  1  0.00275470  0.00030023  0.67235651  1
  Al0+  Al51  1  -0.00130056  0.49754576  -0.00149858  1
  Al0+  Al52  1  0.00103726  0.50067496  0.33025351  1
  Al0+  Al53  1  0.00051102  0.49891513  0.66710866  1
  Al0+  Al54  1  0.49927226  0.00337429  -0.00698577  1
  Al0+  Al55  1  0.50043987  -0.00126673  0.33707797  1
  Al0+  Al56  1  0.50001260  0.00089931  0.66858759  1
  Al0+  Al57  1  0.49768665  0.49800330  0.00465300  1
  Al0+  Al58  1  0.50076224  0.50017089  0.33706250  1
  Al0+  Al59  1  0.49954594  0.50015115  0.66271332  1
  Al0+  Al60  1  0.25009311  0.24860708  -0.00385907  1
  Al0+  Al61  1  0.25028738  0.25161455  0.33216059  1
  Al0+  Al62  1  0.24822975  0.25089885  0.66795510  1
  Al0+  Al63  1  0.24879473  0.74952178  0.00230604  1
  Al0+  Al64  1  0.25152319  0.75026982  0.33794626  1
  Al0+  Al65  1  0.25168646  0.74883486  0.66509671  1
  Al0+  Al66  1  0.74989260  0.24913792  0.00615661  1
  Al0+  Al67  1  0.74994357  0.24972233  0.32648396  1
  Al0+  Al68  1  0.74950501  0.25246349  0.66829052  1
  Al0+  Al69  1  0.75075360  0.75019285  -0.00381222  1
  Al0+  Al70  1  0.74926921  0.74947191  0.33491730  1
  Al0+  Al71  1  0.75121159  0.74893806  0.66611982  1
  Al0+  Al72  1  0.92610367  0.82171868  0.31981327  1
  Al0+  Al73  1  0.18269385  0.92966198  0.01518170  1
  Al0+  Al74  1  0.17831379  0.43062896  0.34821357  1
  Al0+  Al75  1  0.07244850  0.17798457  0.31749508  1
  Al0+  Al76  1  0.57278167  0.67845095  0.64976446  1
  Al0+  Al77  1  0.07313942  0.68173786  0.31929525  1
  Al0+  Al78  1  0.82088694  0.06915815  0.01657944  1
  Al0+  Al79  1  0.92755505  0.32241795  0.31630358  1
  Al0+  Al80  1  0.31737070  0.56947153  0.01252030  1
  Al0+  Al81  1  0.07045827  0.67725440  0.98443049  1
  Al0+  Al82  1  0.18143800  0.92840677  0.67991374  1
  Al0+  Al83  1  0.42872150  0.82176475  0.64881872  1
  Al0+  Al84  1  0.42787844  0.82362236  0.98650548  1
  Al0+  Al85  1  0.67762166  0.42943542  0.01729434  1
  Al0+  Al86  1  0.82047724  0.07123556  0.67942108  1
  Al0+  Al87  1  0.32425234  0.57431541  0.35252233  1
  Al0+  Al88  1  0.67727460  0.92631086  0.68426586  1
  Al0+  Al89  1  0.42935433  0.32243307  0.31732174  1
  Al0+  Al90  1  0.82209792  0.57409215  0.01652273  1
  Al0+  Al91  1  0.57030088  0.67767330  0.98767162  1
  Al0+  Al92  1  0.31961891  0.06961087  0.34483213  1
  Al0+  Al93  1  0.57023959  0.17565798  0.31768253  1
  Al0+  Al94  1  0.92940716  0.82353466  0.98302956  1
  Al0+  Al95  1  0.67998156  0.92804491  0.34560398  1
  Si0+  Si96  1  0.67582673  0.92862180  0.01459464  1
  Si0+  Si97  1  0.17592922  0.92853610  0.34953125  1
  Si0+  Si98  1  0.82400712  0.57027290  0.67995689  1
  Si0+  Si99  1  0.07182382  0.17940828  0.98239014  1
  Si0+  Si100  1  0.32386858  0.07591934  0.01578964  1
  Si0+  Si101  1  0.82243616  0.07365389  0.34879338  1
  Si0+  Si102  1  0.57359683  0.18008299  0.98233859  1
  Si0+  Si103  1  0.57143393  0.67813797  0.31925795  1
  Si0+  Si104  1  0.43023197  0.82050638  0.32046792  1
  Si0+  Si105  1  0.93108304  0.82226504  0.65273570  1
  Si0+  Si106  1  0.07042376  0.17898724  0.65298396  1
  Si0+  Si107  1  0.81993359  0.56983186  0.34873124  1
  Si0+  Si108  1  0.17761625  0.42786183  0.68284621  1
  Si0+  Si109  1  0.32219343  0.07516044  0.68345911  1
  Si0+  Si110  1  0.92947575  0.32144969  0.65337271  1
  Si0+  Si111  1  0.42714469  0.32074967  0.65193641  1
  Si0+  Si112  1  0.57149939  0.18114157  0.65314139  1
  Si0+  Si113  1  0.67941411  0.42712589  0.35014963  1
  Si0+  Si114  1  0.67888835  0.43127274  0.67944339  1
  Si0+  Si115  1  0.92714668  0.31873472  0.98267954  1
  Si0+  Si116  1  0.07127096  0.67679957  0.65162620  1
  Si0+  Si117  1  0.32059835  0.56820775  0.68252241  1
  Si0+  Si118  1  0.42897119  0.31956323  0.98447353  1
  Si0+  Si119  1  0.17656446  0.42396184  0.01516013  1
  O2-  O120  1  0.26106701  0.00202956  0.05868150  1
  O2-  O121  1  0.24226164  -0.00067780  0.39414627  1
  O2-  O122  1  0.25921201  0.00113498  0.72677740  1
  O2-  O123  1  0.23957532  0.49754612  0.05767685  1
  O2-  O124  1  0.25034785  0.50196431  0.40036224  1
  O2-  O125  1  0.24787917  0.49867162  0.72534124  1
  O2-  O126  1  0.74747809  -0.00729478  0.06115037  1
  O2-  O127  1  0.75552425  0.00295579  0.39200934  1
  O2-  O128  1  0.75138516  -0.00215849  0.73181748  1
  O2-  O129  1  0.74744270  0.50405128  0.06611457  1
  O2-  O130  1  0.75180758  0.49645577  0.39344256  1
  O2-  O131  1  0.74713130  0.50478478  0.72101255  1
  O2-  O132  1  -0.00105969  0.24902421  0.26762170  1
  O2-  O133  1  -0.00183819  0.24876946  0.61138089  1
  O2-  O134  1  -0.00082895  0.24895724  0.93907711  1
  O2-  O135  1  0.00336607  0.75569152  0.27043699  1
  O2-  O136  1  0.00046553  0.74882724  0.61099964  1
  O2-  O137  1  -0.00151620  0.74835631  0.93218019  1
  O2-  O138  1  0.50062695  0.24988178  0.26713093  1
  O2-  O139  1  0.49418658  0.24560796  0.61117255  1
  O2-  O140  1  0.50113913  0.25054527  0.94019635  1
  O2-  O141  1  0.49671638  0.74530754  0.27864701  1
  O2-  O142  1  0.50555420  0.75450488  0.59852660  1
  O2-  O143  1  0.50293018  0.75385026  0.93740696  1
  O2-  O144  1  0.07507805  0.18249672  0.08662892  1
  O2-  O145  1  0.06978183  0.17783894  0.43227122  1
  O2-  O146  1  0.07225311  0.18202015  0.75815466  1
  O2-  O147  1  0.07177393  0.67956072  0.09728995  1
  O2-  O148  1  0.06945934  0.68269989  0.43427483  1
  O2-  O149  1  0.07041169  0.67295973  0.75623950  1
  O2-  O150  1  0.57318875  0.17852114  0.08667812  1
  O2-  O151  1  0.56900451  0.17757541  0.43228885  1
  O2-  O152  1  0.57291676  0.18625567  0.75845336  1
  O2-  O153  1  0.56686589  0.67782700  0.10160207  1
  O2-  O154  1  0.57354276  0.67948097  0.42445625  1
  O2-  O155  1  0.56859888  0.67185344  0.76264822  1
  O2-  O156  1  0.18005117  0.43191332  0.23483364  1
  O2-  O157  1  0.17596584  0.42558050  0.57870961  1
  O2-  O158  1  0.18110012  0.42066527  0.90848947  1
  O2-  O159  1  0.17957071  0.92710258  0.24435584  1
  O2-  O160  1  0.17810653  0.93256934  0.56693906  1
  O2-  O161  1  0.18274227  0.93126810  0.90156709  1
  O2-  O162  1  0.67763845  0.42942142  0.24577650  1
  O2-  O163  1  0.68102810  0.42823967  0.57451897  1
  O2-  O164  1  0.67981929  0.42812404  0.90234247  1
  O2-  O165  1  0.67841075  0.92717430  0.23271777  1
  O2-  O166  1  0.67989932  0.92888478  0.57038790  1
  O2-  O167  1  0.67551006  0.93335730  0.90914804  1
  O2-  O168  1  0.42670818  0.31715123  0.08842645  1
  O2-  O169  1  0.43254227  0.32013899  0.43206259  1
  O2-  O170  1  0.42780207  0.32184697  0.75747983  1
  O2-  O171  1  0.42950993  0.82386192  0.10063315  1
  O2-  O172  1  0.43150577  0.82165508  0.42549719  1
  O2-  O173  1  0.42604504  0.81425512  0.76183890  1
  O2-  O174  1  0.92707536  0.31803890  0.08696645  1
  O2-  O175  1  0.92739771  0.32002265  0.43137176  1
  O2-  O176  1  0.93104679  0.32361025  0.75833129  1
  O2-  O177  1  0.93216507  0.82391246  0.09610518  1
  O2-  O178  1  0.92586573  0.81871866  0.43464978  1
  O2-  O179  1  0.93178326  0.82217151  0.75737078  1
  O2-  O180  1  0.32100826  0.06463987  0.23187589  1
  O2-  O181  1  0.31821525  0.08072109  0.57824766  1
  O2-  O182  1  0.31908883  0.08398176  0.91025044  1
  O2-  O183  1  0.32539468  0.57482268  0.23931162  1
  O2-  O184  1  0.32044380  0.56618903  0.57791627  1
  O2-  O185  1  0.31837051  0.56579262  0.89848220  1
  O2-  O186  1  0.82013532  0.07419641  0.24345513  1
  O2-  O187  1  0.81984393  0.07369946  0.56618427  1
  O2-  O188  1  0.81771112  0.07139068  0.90303851  1
  O2-  O189  1  0.81639657  0.57100075  0.24446200  1
  O2-  O190  1  0.82822671  0.56575697  0.57484454  1
  O2-  O191  1  0.82272598  0.56852905  0.90186684  1
  O2-  O192  1  0.04689038  0.08026557  0.26266080  1
  O2-  O193  1  0.04489105  0.08671889  0.60628156  1
  O2-  O194  1  0.04374117  0.08747087  0.93647248  1
  O2-  O195  1  0.04510187  0.58375025  0.26832820  1
  O2-  O196  1  0.04171767  0.58500373  0.60388487  1
  O2-  O197  1  0.04598700  0.57646980  0.93176111  1
  O2-  O198  1  0.53870734  0.07840680  0.26500908  1
  O2-  O199  1  0.55088810  0.08688437  0.60870329  1
  O2-  O200  1  0.54616456  0.09015055  0.93076315  1
  O2-  O201  1  0.54880228  0.58447349  0.27483926  1
  O2-  O202  1  0.54053928  0.58047527  0.59544740  1
  O2-  O203  1  0.53825608  0.57876836  0.93576931  1
  O2-  O204  1  0.16960279  0.20786895  0.26402594  1
  O2-  O205  1  0.16185192  0.20897531  0.60558721  1
  O2-  O206  1  0.16224652  0.20900560  0.93146867  1
  O2-  O207  1  0.17328346  0.70748809  0.26966008  1
  O2-  O208  1  0.16332583  0.70308330  0.60517499  1
  O2-  O209  1  0.16794734  0.70928539  0.93129176  1
  O2-  O210  1  0.66799463  0.20311449  0.26476836  1
  O2-  O211  1  0.66039364  0.21624305  0.60446973  1
  O2-  O212  1  0.66433741  0.21183381  0.93471797  1
  O2-  O213  1  0.66163969  0.70871682  0.27163735  1
  O2-  O214  1  0.67449134  0.69974219  0.59852696  1
  O2-  O215  1  0.67006025  0.69905914  0.93473645  1
  O2-  O216  1  0.08004823  0.44040192  0.05611600  1
  O2-  O217  1  0.07909461  0.45806332  0.40251176  1
  O2-  O218  1  0.08540304  0.45470676  0.73096910  1
  O2-  O219  1  0.08834666  0.96420357  0.06945955  1
  O2-  O220  1  0.08065542  0.95302136  0.39316699  1
  O2-  O221  1  0.08774934  0.96261245  0.73748065  1
  O2-  O222  1  0.57835173  0.45214529  0.06943228  1
  O2-  O223  1  0.58922116  0.45610569  0.40033428  1
  O2-  O224  1  0.58560550  0.45552837  0.72633966  1
  O2-  O225  1  0.58249152  0.95927873  0.05907559  1
  O2-  O226  1  0.58560030  0.96080061  0.40299305  1
  O2-  O227  1  0.57873014  0.95602637  0.73615581  1
  O2-  O228  1  0.20784939  0.33202842  0.06051325  1
  O2-  O229  1  0.20709828  0.33210970  0.40208612  1
  O2-  O230  1  0.20531487  0.33635902  0.73228346  1
  O2-  O231  1  0.21102080  0.83371886  0.07005120  1
  O2-  O232  1  0.20390872  0.83686615  0.39802362  1
  O2-  O233  1  0.21002601  0.83024967  0.73276946  1
  O2-  O234  1  0.70894154  0.33240670  0.06979937  1
  O2-  O235  1  0.70649945  0.33407144  0.39623263  1
  O2-  O236  1  0.70862196  0.34137933  0.72983599  1
  O2-  O237  1  0.69582684  0.83277928  0.05694614  1
  O2-  O238  1  0.71104968  0.83231434  0.40274270  1
  O2-  O239  1  0.70396195  0.82593821  0.73350289  1
  O2-  O240  1  0.46011601  0.42121102  0.26735904  1
  O2-  O241  1  0.45804857  0.41030592  0.60336820  1
  O2-  O242  1  0.45634007  0.41093459  0.93586727  1
  O2-  O243  1  0.46153422  0.91003518  0.27244235  1
  O2-  O244  1  0.44928755  0.92497193  0.60166470  1
  O2-  O245  1  0.44766978  0.92408036  0.93243585  1
  O2-  O246  1  0.95592912  0.42033534  0.26417499  1
  O2-  O247  1  0.95950184  0.41201267  0.60413034  1
  O2-  O248  1  0.95352662  0.41022666  0.93325068  1
  O2-  O249  1  0.94449731  0.92215492  0.26950101  1
  O2-  O250  1  0.96240562  0.91352514  0.60623791  1
  O2-  O251  1  0.96290588  0.92189609  0.93144373  1
  O2-  O252  1  0.33117670  0.29666893  0.26538427  1
  O2-  O253  1  0.33327931  0.29677722  0.60664328  1
  O2-  O254  1  0.33839889  0.29029630  0.93315502  1
  O2-  O255  1  0.33676833  0.79672368  0.27534919  1
  O2-  O256  1  0.33136459  0.78859104  0.59502384  1
  O2-  O257  1  0.33173087  0.78814576  0.93408260  1
  O2-  O258  1  0.82951546  0.29701213  0.26232011  1
  O2-  O259  1  0.83635009  0.29737792  0.60657194  1
  O2-  O260  1  0.83534444  0.28879163  0.93566534  1
  O2-  O261  1  0.83025710  0.78653846  0.26647200  1
  O2-  O262  1  0.83879897  0.79591111  0.60578926  1
  O2-  O263  1  0.83006176  0.79853264  0.92980526  1
  O2-  O264  1  0.42075992  0.05810552  0.05686221  1
  O2-  O265  1  0.41413362  0.03675606  0.40210137  1
  O2-  O266  1  0.41826632  0.05827616  0.72714940  1
  O2-  O267  1  0.41143062  0.53540990  0.06776795  1
  O2-  O268  1  0.42196233  0.54298783  0.40670234  1
  O2-  O269  1  0.41174889  0.53618560  0.72897424  1
  O2-  O270  1  0.91881374  0.04414866  0.06903878  1
  O2-  O271  1  0.91759906  0.05158746  0.39352880  1
  O2-  O272  1  0.91951380  0.04607832  0.73328040  1
  O2-  O273  1  0.91959366  0.53934233  0.06767344  1
  O2-  O274  1  0.91238000  0.54384000  0.39590553  1
  O2-  O275  1  0.91273886  0.53639023  0.73025941  1
  O2-  O276  1  0.29163775  0.16683921  0.06368895  1
  O2-  O277  1  0.29344878  0.16766250  0.39826262  1
  O2-  O278  1  0.29134322  0.16703386  0.73246481  1
  O2-  O279  1  0.28985410  0.66542494  0.06742861  1
  O2-  O280  1  0.29450711  0.67169469  0.40802825  1
  O2-  O281  1  0.29284986  0.66012699  0.72838656  1
  O2-  O282  1  0.78874024  0.16480372  0.07009779  1
  O2-  O283  1  0.79596111  0.16776200  0.39408465  1
  O2-  O284  1  0.79046764  0.17038544  0.73304497  1
  O2-  O285  1  0.79773892  0.67404359  0.06723334  1
  O2-  O286  1  0.78864389  0.65949814  0.39888462  1
  O2-  O287  1  0.80325301  0.66395064  0.72511964  1
