# generated using pymatgen
data_Ca2Al2SiO7
_symmetry_space_group_name_H-M   'P 1'
_cell_length_a   15.45677989
_cell_length_b   15.45738983
_cell_length_c   15.28319326
_cell_angle_alpha   90.00017393
_cell_angle_beta   90.00235196
_cell_angle_gamma   89.99106815
_symmetry_Int_Tables_number   1
_chemical_formula_structural   Ca2Al2SiO7
_chemical_formula_sum   'Ca48 Al48 Si24 O168'
_cell_volume   3651.48298678
_cell_formula_units_Z   24
loop_
 _symmetry_equiv_pos_site_id
 _symmetry_equiv_pos_as_xyz
  1  'x, y, z'
loop_
 _atom_type_symbol
 _atom_type_oxidation_number
  Ca2+  2.0
  Al0+  0.0
  Si0+  0.0
  O2-  -2.0
loop_
 _atom_site_type_symbol
 _atom_site_label
 _atom_site_symmetry_multiplicity
 _atom_site_fract_x
 _atom_site_fract_y
 _atom_site_fract_z
 _atom_site_occupancy
  Ca2+  Ca0  1  0.16664248  0.08134293  0.17248393  1
  Ca2+  Ca1  1  0.16923881  0.08524623  0.51251455  1
  Ca2+  Ca2  1  0.16698730  0.08271002  0.83104871  1
  Ca2+  Ca3  1  0.16786479  0.57807062  0.16856100  1
  Ca2+  Ca4  1  0.18005747  0.57498312  0.50787893  1
  Ca2+  Ca5  1  0.16214377  0.57302131  0.83685537  1
  Ca2+  Ca6  1  0.66036749  0.08231440  0.17231552  1
  Ca2+  Ca7  1  0.66665067  0.08405669  0.50643029  1
  Ca2+  Ca8  1  0.67219494  0.09240435  0.83475080  1
  Ca2+  Ca9  1  0.67269636  0.59076930  0.16769106  1
  Ca2+  Ca10  1  0.66791059  0.57112655  0.50860163  1
  Ca2+  Ca11  1  0.67220254  0.57687320  0.83909899  1
  Ca2+  Ca12  1  0.07664439  0.33541051  0.16202770  1
  Ca2+  Ca13  1  0.08051150  0.32689306  0.49705726  1
  Ca2+  Ca14  1  0.07530656  0.33728002  0.82571258  1
  Ca2+  Ca15  1  0.08206621  0.82283474  0.15983621  1
  Ca2+  Ca16  1  0.07831198  0.84197787  0.50298044  1
  Ca2+  Ca17  1  0.08334077  0.82685776  0.82471215  1
  Ca2+  Ca18  1  0.57888209  0.32499693  0.16518051  1
  Ca2+  Ca19  1  0.58102210  0.32403193  0.49679337  1
  Ca2+  Ca20  1  0.58797337  0.32490406  0.82554182  1
  Ca2+  Ca21  1  0.57281928  0.83268104  0.16025725  1
  Ca2+  Ca22  1  0.57569000  0.83387581  0.49208929  1
  Ca2+  Ca23  1  0.58011311  0.82593979  0.83431184  1
  Ca2+  Ca24  1  0.33034539  0.42029652  0.17492044  1
  Ca2+  Ca25  1  0.33598017  0.42377910  0.50873602  1
  Ca2+  Ca26  1  0.31924837  0.41743419  0.83542723  1
  Ca2+  Ca27  1  0.33780610  0.91293995  0.17119035  1
  Ca2+  Ca28  1  0.32795501  0.92342117  0.50855991  1
  Ca2+  Ca29  1  0.33378637  0.92079787  0.83107324  1
  Ca2+  Ca30  1  0.83936734  0.41758060  0.16521191  1
  Ca2+  Ca31  1  0.82946804  0.40523883  0.50540196  1
  Ca2+  Ca32  1  0.83189673  0.41227402  0.83893822  1
  Ca2+  Ca33  1  0.82068275  0.91952473  0.17620682  1
  Ca2+  Ca34  1  0.82764315  0.92431031  0.50955275  1
  Ca2+  Ca35  1  0.84083492  0.92455497  0.83287375  1
  Ca2+  Ca36  1  0.42642418  0.16918257  0.16541298  1
  Ca2+  Ca37  1  0.42378072  0.16748336  0.49446477  1
  Ca2+  Ca38  1  0.42781661  0.16295428  0.82667490  1
  Ca2+  Ca39  1  0.41593099  0.67637961  0.16102859  1
  Ca2+  Ca40  1  0.41035513  0.66876551  0.49296670  1
  Ca2+  Ca41  1  0.41463916  0.66790195  0.83082257  1
  Ca2+  Ca42  1  0.92037565  0.17888561  0.16575444  1
  Ca2+  Ca43  1  0.92517394  0.17251055  0.49984128  1
  Ca2+  Ca44  1  0.92046132  0.17685816  0.82055577  1
  Ca2+  Ca45  1  0.92166338  0.66370046  0.15538386  1
  Ca2+  Ca46  1  0.91679749  0.67352653  0.50075591  1
  Ca2+  Ca47  1  0.92013116  0.66729682  0.83096052  1
  Al0+  Al48  1  0.00068413  0.00161159  0.00609734  1
  Al0+  Al49  1  -0.00183253  -0.00036982  0.32822279  1
  Al0+  Al50  1  -0.00146940  -0.00068406  0.66778366  1
  Al0+  Al51  1  -0.00093618  0.50032301  0.00044960  1
  Al0+  Al52  1  0.00065258  0.50144741  0.33369569  1
  Al0+  Al53  1  -0.00010542  0.50320885  0.66172835  1
  Al0+  Al54  1  0.49997883  0.00068115  -0.00793753  1
  Al0+  Al55  1  0.49857550  -0.00253149  0.33121920  1
  Al0+  Al56  1  0.50034084  -0.00337891  0.66669149  1
  Al0+  Al57  1  0.49925141  0.49920096  -0.00145730  1
  Al0+  Al58  1  0.50269488  0.50057451  0.33343893  1
  Al0+  Al59  1  0.50331496  0.49958581  0.67686414  1
  Al0+  Al60  1  0.24987063  0.24817652  0.00750051  1
  Al0+  Al61  1  0.24937344  0.24896407  0.32673641  1
  Al0+  Al62  1  0.25211648  0.25163460  0.67314339  1
  Al0+  Al63  1  0.24821958  0.75057179  -0.00858944  1
  Al0+  Al64  1  0.24902442  0.74928907  0.33381059  1
  Al0+  Al65  1  0.25114932  0.75058771  0.67188789  1
  Al0+  Al66  1  0.75075747  0.25068741  -0.00287534  1
  Al0+  Al67  1  0.75280438  0.25002809  0.32542086  1
  Al0+  Al68  1  0.74930547  0.24789072  0.66635237  1
  Al0+  Al69  1  0.74821031  0.75164288  0.00118017  1
  Al0+  Al70  1  0.74940685  0.75132820  0.34063200  1
  Al0+  Al71  1  0.74899984  0.74890778  0.66155757  1
  Al0+  Al72  1  0.32136796  0.57022614  0.34453667  1
  Al0+  Al73  1  0.17871755  0.42930063  0.01611119  1
  Al0+  Al74  1  0.07370506  0.17982945  0.65489205  1
  Al0+  Al75  1  0.93255576  0.31936287  0.98498202  1
  Al0+  Al76  1  0.17710937  0.42894900  0.68035330  1
  Al0+  Al77  1  0.42807512  0.82082054  0.98125162  1
  Al0+  Al78  1  0.07229979  0.17646299  0.31719071  1
  Al0+  Al79  1  0.68273673  0.42749554  0.67996617  1
  Al0+  Al80  1  0.17752771  0.93063431  0.68175006  1
  Al0+  Al81  1  0.81861901  0.06908311  0.67953673  1
  Al0+  Al82  1  0.81812928  0.57075597  0.01239338  1
  Al0+  Al83  1  0.93036284  0.32304571  0.31626346  1
  Al0+  Al84  1  0.92868610  0.32339360  0.65166844  1
  Al0+  Al85  1  0.56922303  0.18183770  0.98464111  1
  Al0+  Al86  1  0.92861427  0.82065159  0.65335011  1
  Al0+  Al87  1  0.57042488  0.17816405  0.31929912  1
  Al0+  Al88  1  0.56994543  0.17752911  0.65236632  1
  Al0+  Al89  1  0.32318507  0.57143318  0.68384212  1
  Al0+  Al90  1  0.42856650  0.32465185  0.32013516  1
  Al0+  Al91  1  0.42802876  0.81817723  0.32197988  1
  Al0+  Al92  1  0.32385053  0.07257678  0.68133137  1
  Al0+  Al93  1  0.67691387  0.93021359  0.34788644  1
  Al0+  Al94  1  0.57281781  0.67730700  0.98497566  1
  Al0+  Al95  1  0.06858668  0.67942956  0.98601557  1
  Si0+  Si96  1  0.67689416  0.42585125  0.01857202  1
  Si0+  Si97  1  0.82183959  0.07207934  0.34978136  1
  Si0+  Si98  1  0.82319551  0.57259997  0.34997635  1
  Si0+  Si99  1  0.67897202  0.93135886  0.01424451  1
  Si0+  Si100  1  0.92636326  0.82072392  0.31786595  1
  Si0+  Si101  1  0.31966980  0.07046511  0.34594017  1
  Si0+  Si102  1  0.57089796  0.67707084  0.65057368  1
  Si0+  Si103  1  0.42976400  0.32351481  0.65394550  1
  Si0+  Si104  1  0.42455169  0.32251264  0.98325018  1
  Si0+  Si105  1  0.07370832  0.17549721  0.98317701  1
  Si0+  Si106  1  0.42906348  0.81851452  0.64967235  1
  Si0+  Si107  1  0.17780289  0.42718344  0.34967931  1
  Si0+  Si108  1  0.06934481  0.68153410  0.31950279  1
  Si0+  Si109  1  0.82184142  0.07321197  0.01724073  1
  Si0+  Si110  1  0.32176453  0.57325510  0.01719065  1
  Si0+  Si111  1  0.92694278  0.82462943  0.98643794  1
  Si0+  Si112  1  0.68148921  0.42832971  0.34659433  1
  Si0+  Si113  1  0.82143707  0.57458589  0.68142559  1
  Si0+  Si114  1  0.67713636  0.92476209  0.68504558  1
  Si0+  Si115  1  0.17733700  0.92823244  0.34630636  1
  Si0+  Si116  1  0.57427264  0.67750672  0.31893504  1
  Si0+  Si117  1  0.32279478  0.06811174  0.01724089  1
  Si0+  Si118  1  0.07449400  0.67907758  0.64700688  1
  Si0+  Si119  1  0.17850179  0.92786230  0.01663088  1
  O2-  O120  1  0.25060866  -0.00252901  0.05961404  1
  O2-  O121  1  0.24364633  0.00396049  0.38718611  1
  O2-  O122  1  0.24806135  0.00411376  0.73187993  1
  O2-  O123  1  0.25659005  0.50183470  0.06261518  1
  O2-  O124  1  0.25283596  0.49006594  0.39209549  1
  O2-  O125  1  0.24807130  0.50187276  0.73159956  1
  O2-  O126  1  0.75083291  0.00114654  0.05802067  1
  O2-  O127  1  0.75025831  0.00625994  0.39395448  1
  O2-  O128  1  0.74479995  -0.00587492  0.72934733  1
  O2-  O129  1  0.74113431  0.49950325  0.06239293  1
  O2-  O130  1  0.75367386  0.49900205  0.38931984  1
  O2-  O131  1  0.76053578  0.49965080  0.72551027  1
  O2-  O132  1  0.00443547  0.25240468  0.26729334  1
  O2-  O133  1  0.00490123  0.25441969  0.60391513  1
  O2-  O134  1  0.00685849  0.24472967  0.93896476  1
  O2-  O135  1  -0.00441726  0.74895821  0.27500105  1
  O2-  O136  1  0.00519244  0.74854110  0.60407332  1
  O2-  O137  1  -0.00487685  0.75656178  0.94161012  1
  O2-  O138  1  0.49894039  0.25098214  0.26958807  1
  O2-  O139  1  0.49251551  0.25022413  0.60773481  1
  O2-  O140  1  0.49662048  0.25824102  0.93808982  1
  O2-  O141  1  0.50359991  0.74428835  0.27549045  1
  O2-  O142  1  0.49808838  0.74559390  0.60740702  1
  O2-  O143  1  0.49692906  0.74436365  0.93339647  1
  O2-  O144  1  0.07070224  0.17309784  0.08888924  1
  O2-  O145  1  0.07181272  0.17329600  0.43029464  1
  O2-  O146  1  0.06925120  0.17877571  0.76852259  1
  O2-  O147  1  0.06828773  0.68172733  0.10011091  1
  O2-  O148  1  0.06861219  0.68394326  0.42415889  1
  O2-  O149  1  0.07235432  0.67843731  0.75258330  1
  O2-  O150  1  0.56745900  0.17971397  0.09782948  1
  O2-  O151  1  0.56943205  0.17863345  0.43269242  1
  O2-  O152  1  0.57068816  0.18008992  0.76547663  1
  O2-  O153  1  0.57461159  0.68349810  0.09897483  1
  O2-  O154  1  0.57489644  0.67794492  0.42465025  1
  O2-  O155  1  0.57323523  0.67996559  0.75527526  1
  O2-  O156  1  0.17527015  0.43247617  0.24397892  1
  O2-  O157  1  0.17952259  0.43042821  0.56631801  1
  O2-  O158  1  0.17787824  0.43089282  0.90352317  1
  O2-  O159  1  0.17897750  0.92551707  0.24082486  1
  O2-  O160  1  0.18062214  0.92990140  0.56727065  1
  O2-  O161  1  0.17440171  0.92974178  0.91250264  1
  O2-  O162  1  0.68057012  0.43049503  0.24163650  1
  O2-  O163  1  0.68043332  0.42966858  0.56609487  1
  O2-  O164  1  0.68102118  0.42345420  0.91322723  1
  O2-  O165  1  0.67907549  0.92834614  0.23420438  1
  O2-  O166  1  0.67768535  0.92467372  0.57917097  1
  O2-  O167  1  0.68058721  0.93086308  0.90947133  1
  O2-  O168  1  0.42546165  0.31988939  0.08913995  1
  O2-  O169  1  0.43092697  0.32473042  0.43377798  1
  O2-  O170  1  0.43350327  0.32387037  0.75949374  1
  O2-  O171  1  0.42922190  0.82160396  0.09551919  1
  O2-  O172  1  0.42707800  0.81758420  0.43495237  1
  O2-  O173  1  0.43133367  0.81947320  0.75446393  1
  O2-  O174  1  0.93321406  0.31858782  0.09811498  1
  O2-  O175  1  0.92969625  0.32219858  0.42928105  1
  O2-  O176  1  0.92799012  0.32152441  0.76523647  1
  O2-  O177  1  0.92858155  0.82366936  0.09269412  1
  O2-  O178  1  0.92743056  0.82126019  0.42271107  1
  O2-  O179  1  0.92772409  0.81714317  0.76651960  1
  O2-  O180  1  0.32103169  0.06627165  0.24048530  1
  O2-  O181  1  0.32640062  0.06844562  0.56714233  1
  O2-  O182  1  0.32268549  0.06799369  0.91266724  1
  O2-  O183  1  0.31635431  0.57394284  0.23160835  1
  O2-  O184  1  0.32351408  0.57078572  0.56946786  1
  O2-  O185  1  0.31956516  0.57241163  0.91205640  1
  O2-  O186  1  0.82210056  0.06777538  0.24364711  1
  O2-  O187  1  0.81706487  0.06777851  0.56631860  1
  O2-  O188  1  0.82367837  0.07210916  0.91242419  1
  O2-  O189  1  0.82288894  0.57683657  0.24494406  1
  O2-  O190  1  0.81603059  0.57867390  0.57548272  1
  O2-  O191  1  0.81826642  0.57023640  0.89969574  1
  O2-  O192  1  0.04079963  0.07897934  0.26122606  1
  O2-  O193  1  0.04305351  0.08150524  0.60274317  1
  O2-  O194  1  0.04721870  0.08099236  0.93943355  1
  O2-  O195  1  0.04411661  0.58917908  0.27226066  1
  O2-  O196  1  0.04824760  0.58741126  0.59748115  1
  O2-  O197  1  0.03377602  0.58544892  0.93157656  1
  O2-  O198  1  0.53884109  0.08081608  0.26559899  1
  O2-  O199  1  0.54276794  0.07857177  0.60083164  1
  O2-  O200  1  0.53833920  0.08650022  0.92944237  1
  O2-  O201  1  0.55393393  0.58376209  0.27219064  1
  O2-  O202  1  0.54518610  0.58337491  0.60598094  1
  O2-  O203  1  0.55220502  0.57579719  0.93517850  1
  O2-  O204  1  0.17141251  0.19842196  0.26272593  1
  O2-  O205  1  0.17474539  0.20399187  0.60444025  1
  O2-  O206  1  0.16990885  0.19759553  0.94254601  1
  O2-  O207  1  0.15881943  0.71330270  0.27003757  1
  O2-  O208  1  0.16853220  0.70649113  0.60294567  1
  O2-  O209  1  0.16325975  0.70895638  0.92953392  1
  O2-  O210  1  0.66867601  0.20442277  0.26534543  1
  O2-  O211  1  0.66490754  0.21068056  0.59788367  1
  O2-  O212  1  0.66687427  0.21065890  0.93252973  1
  O2-  O213  1  0.66794005  0.70633840  0.27410906  1
  O2-  O214  1  0.66102281  0.70563837  0.59994161  1
  O2-  O215  1  0.66920121  0.71180686  0.93071344  1
  O2-  O216  1  0.08406548  0.46578341  0.07049896  1
  O2-  O217  1  0.08671917  0.45981064  0.39690512  1
  O2-  O218  1  0.07798868  0.46068232  0.73137662  1
  O2-  O219  1  0.08733558  0.95551140  0.06798454  1
  O2-  O220  1  0.08258986  0.95116316  0.39039032  1
  O2-  O221  1  0.07847863  0.95314947  0.73533095  1
  O2-  O222  1  0.58032886  0.44520640  0.06157320  1
  O2-  O223  1  0.59083076  0.45662794  0.39618961  1
  O2-  O224  1  0.58982844  0.46074757  0.73885403  1
  O2-  O225  1  0.58678540  0.96184747  0.05989299  1
  O2-  O226  1  0.57940185  0.95796914  0.40159999  1
  O2-  O227  1  0.58328637  0.94764986  0.73030241  1
  O2-  O228  1  0.20572051  0.33131630  0.07085162  1
  O2-  O229  1  0.19650635  0.33007084  0.39010110  1
  O2-  O230  1  0.20421807  0.33239943  0.73721164  1
  O2-  O231  1  0.20576533  0.83469023  0.06246042  1
  O2-  O232  1  0.20829223  0.83873298  0.39554574  1
  O2-  O233  1  0.20815720  0.83330834  0.73527782  1
  O2-  O234  1  0.70879362  0.33429258  0.06600686  1
  O2-  O235  1  0.71017699  0.33577118  0.39229715  1
  O2-  O236  1  0.71108237  0.33140130  0.73491325  1
  O2-  O237  1  0.70514828  0.84008328  0.06404278  1
  O2-  O238  1  0.70867915  0.83465794  0.40458922  1
  O2-  O239  1  0.70478645  0.83077952  0.72903364  1
  O2-  O240  1  0.45932042  0.42181986  0.26480231  1
  O2-  O241  1  0.46203927  0.41587469  0.60850849  1
  O2-  O242  1  0.44323751  0.41826514  0.93984182  1
  O2-  O243  1  0.45852689  0.91330321  0.26554728  1
  O2-  O244  1  0.45929964  0.90918830  0.60141384  1
  O2-  O245  1  0.46177814  0.91661335  0.92726550  1
  O2-  O246  1  0.95724326  0.42356444  0.26525136  1
  O2-  O247  1  0.94874110  0.42428934  0.59930412  1
  O2-  O248  1  0.96122174  0.41651510  0.93308503  1
  O2-  O249  1  0.95302752  0.91130709  0.26791537  1
  O2-  O250  1  0.95810098  0.91647001  0.59739174  1
  O2-  O251  1  0.95381658  0.91904205  0.94293951  1
  O2-  O252  1  0.33032384  0.29878174  0.26603799  1
  O2-  O253  1  0.33407768  0.30524017  0.61030693  1
  O2-  O254  1  0.33156843  0.29172921  0.93938586  1
  O2-  O255  1  0.33195551  0.78722770  0.26589893  1
  O2-  O256  1  0.33585906  0.79327051  0.60374157  1
  O2-  O257  1  0.32896568  0.79768972  0.92853249  1
  O2-  O258  1  0.83371513  0.29393755  0.25976680  1
  O2-  O259  1  0.83242199  0.28754467  0.59911774  1
  O2-  O260  1  0.83530527  0.28903461  0.93317477  1
  O2-  O261  1  0.83346291  0.79292860  0.27256982  1
  O2-  O262  1  0.83323288  0.78778055  0.59610052  1
  O2-  O263  1  0.83310493  0.80177273  0.94157333  1
  O2-  O264  1  0.41457959  0.03731961  0.06358934  1
  O2-  O265  1  0.40935381  0.03799184  0.39408066  1
  O2-  O266  1  0.41955477  0.03537361  0.73582506  1
  O2-  O267  1  0.41782177  0.55264966  0.06143137  1
  O2-  O268  1  0.42101702  0.54746539  0.39724598  1
  O2-  O269  1  0.42031828  0.54371205  0.73878955  1
  O2-  O270  1  0.91330092  0.04607691  0.06698882  1
  O2-  O271  1  0.91452138  0.04104665  0.39481078  1
  O2-  O272  1  0.91365635  0.03720388  0.73559676  1
  O2-  O273  1  0.91340051  0.53824993  0.06855819  1
  O2-  O274  1  0.91596748  0.54843069  0.39725829  1
  O2-  O275  1  0.91881658  0.55929577  0.72171503  1
  O2-  O276  1  0.29681218  0.15950071  0.06687156  1
  O2-  O277  1  0.29777283  0.16455747  0.39117373  1
  O2-  O278  1  0.30347079  0.17150583  0.73588097  1
  O2-  O279  1  0.29203228  0.66770423  0.06011445  1
  O2-  O280  1  0.28408267  0.66454928  0.40052131  1
  O2-  O281  1  0.29766598  0.67060085  0.73534367  1
  O2-  O282  1  0.79120470  0.16410145  0.06451402  1
  O2-  O283  1  0.80023250  0.16791730  0.39166701  1
  O2-  O284  1  0.78631709  0.16381788  0.73552209  1
  O2-  O285  1  0.79077287  0.66916513  0.06814240  1
  O2-  O286  1  0.79395925  0.66304082  0.39999960  1
  O2-  O287  1  0.78858524  0.66516351  0.72937904  1
