# generated using pymatgen
data_Ca2Al2SiO7
_symmetry_space_group_name_H-M   'P 1'
_cell_length_a   15.45947974
_cell_length_b   15.45919408
_cell_length_c   15.28505862
_cell_angle_alpha   89.98941213
_cell_angle_beta   90.00618802
_cell_angle_gamma   90.01049008
_symmetry_Int_Tables_number   1
_chemical_formula_structural   Ca2Al2SiO7
_chemical_formula_sum   'Ca48 Al48 Si24 O168'
_cell_volume   3652.99279388
_cell_formula_units_Z   24
loop_
 _symmetry_equiv_pos_site_id
 _symmetry_equiv_pos_as_xyz
  1  'x, y, z'
loop_
 _atom_type_symbol
 _atom_type_oxidation_number
  Ca2+  2.0
  Al0+  0.0
  Si0+  0.0
  O2-  -2.0
loop_
 _atom_site_type_symbol
 _atom_site_label
 _atom_site_symmetry_multiplicity
 _atom_site_fract_x
 _atom_site_fract_y
 _atom_site_fract_z
 _atom_site_occupancy
  Ca2+  Ca0  1  0.17236699  0.08552037  0.17040576  1
  Ca2+  Ca1  1  0.16807634  0.08105153  0.50945751  1
  Ca2+  Ca2  1  0.17340222  0.08739481  0.83198308  1
  Ca2+  Ca3  1  0.17325387  0.58242910  0.17735137  1
  Ca2+  Ca4  1  0.18028243  0.59527268  0.50213639  1
  Ca2+  Ca5  1  0.17657527  0.58431894  0.83415576  1
  Ca2+  Ca6  1  0.66322908  0.07434181  0.17264175  1
  Ca2+  Ca7  1  0.66640647  0.06888343  0.50338121  1
  Ca2+  Ca8  1  0.65632868  0.07078668  0.83943293  1
  Ca2+  Ca9  1  0.66954594  0.58559907  0.16931006  1
  Ca2+  Ca10  1  0.67271662  0.58517919  0.50909755  1
  Ca2+  Ca11  1  0.67121863  0.57747975  0.83828064  1
  Ca2+  Ca12  1  0.08171201  0.32808524  0.16499798  1
  Ca2+  Ca13  1  0.07848973  0.32331543  0.49781576  1
  Ca2+  Ca14  1  0.07413201  0.32890607  0.82159357  1
  Ca2+  Ca15  1  0.08059749  0.82540538  0.16723947  1
  Ca2+  Ca16  1  0.08296185  0.83128029  0.49366838  1
  Ca2+  Ca17  1  0.08024986  0.83562290  0.82731367  1
  Ca2+  Ca18  1  0.57977119  0.32825509  0.15427154  1
  Ca2+  Ca19  1  0.58577455  0.33560038  0.50020960  1
  Ca2+  Ca20  1  0.58575364  0.33387201  0.83225720  1
  Ca2+  Ca21  1  0.59015792  0.82641672  0.16529489  1
  Ca2+  Ca22  1  0.58311655  0.82524828  0.49410503  1
  Ca2+  Ca23  1  0.59286456  0.82322656  0.82897717  1
  Ca2+  Ca24  1  0.33714791  0.42086216  0.16985901  1
  Ca2+  Ca25  1  0.33394127  0.43108723  0.50379917  1
  Ca2+  Ca26  1  0.33772825  0.41911729  0.83457048  1
  Ca2+  Ca27  1  0.34046885  0.92123812  0.17045887  1
  Ca2+  Ca28  1  0.32790840  0.91758460  0.50929544  1
  Ca2+  Ca29  1  0.33039143  0.92871578  0.83361316  1
  Ca2+  Ca30  1  0.82555752  0.42456736  0.16980651  1
  Ca2+  Ca31  1  0.82991121  0.42617777  0.50781651  1
  Ca2+  Ca32  1  0.82621232  0.42217363  0.83570371  1
  Ca2+  Ca33  1  0.81915858  0.92122265  0.17327089  1
  Ca2+  Ca34  1  0.82289405  0.91634703  0.50112611  1
  Ca2+  Ca35  1  0.82092529  0.91565124  0.83614140  1
  Ca2+  Ca36  1  0.42206032  0.17253794  0.15388546  1
  Ca2+  Ca37  1  0.41411143  0.16701812  0.49820523  1
  Ca2+  Ca38  1  0.41534849  0.16741903  0.83500948  1
  Ca2+  Ca39  1  0.42788309  0.67069112  0.16629149  1
  Ca2+  Ca40  1  0.42580971  0.66860497  0.49104861  1
  Ca2+  Ca41  1  0.43195493  0.66255757  0.82664830  1
  Ca2+  Ca42  1  0.92000554  0.15888289  0.16592411  1
  Ca2+  Ca43  1  0.92232418  0.16684507  0.49400787  1
  Ca2+  Ca44  1  0.92055651  0.17514836  0.81917473  1
  Ca2+  Ca45  1  0.91680017  0.65746045  0.16493947  1
  Ca2+  Ca46  1  0.91874395  0.66247648  0.49390427  1
  Ca2+  Ca47  1  0.91247181  0.66205601  0.82878629  1
  Al0+  Al48  1  0.00137627  -0.00324427  -0.00114839  1
  Al0+  Al49  1  0.00086584  0.00051699  0.32970670  1
  Al0+  Al50  1  -0.00037050  -0.00152128  0.66569549  1
  Al0+  Al51  1  0.00250190  0.49876354  0.00172903  1
  Al0+  Al52  1  -0.00086944  0.49644673  0.33262416  1
  Al0+  Al53  1  0.00126023  0.50038063  0.66381570  1
  Al0+  Al54  1  0.49719252  -0.00016864  0.00539572  1
  Al0+  Al55  1  0.49874042  0.00117694  0.33591410  1
  Al0+  Al56  1  0.49829655  -0.00013818  0.67395872  1
  Al0+  Al57  1  0.50016381  0.50075221  -0.00372399  1
  Al0+  Al58  1  0.49859526  0.50036043  0.33292710  1
  Al0+  Al59  1  0.50151565  0.49939049  0.66841236  1
  Al0+  Al60  1  0.25015754  0.25003185  0.00003541  1
  Al0+  Al61  1  0.24783984  0.25049397  0.32951091  1
  Al0+  Al62  1  0.25073097  0.25139134  0.66461588  1
  Al0+  Al63  1  0.24907763  0.75035212  -0.00091211  1
  Al0+  Al64  1  0.25006413  0.75111451  0.32736937  1
  Al0+  Al65  1  0.25082312  0.75214215  0.67811278  1
  Al0+  Al66  1  0.75136192  0.24993053  -0.00154124  1
  Al0+  Al67  1  0.75066364  0.25037882  0.33610994  1
  Al0+  Al68  1  0.74869399  0.25113285  0.66233051  1
  Al0+  Al69  1  0.75235029  0.75176252  0.00408615  1
  Al0+  Al70  1  0.75015801  0.74959040  0.33719464  1
  Al0+  Al71  1  0.75153650  0.74993068  0.66854346  1
  Al0+  Al72  1  0.82296818  0.57106745  0.68134201  1
  Al0+  Al73  1  0.67751262  0.42789138  0.01597418  1
  Al0+  Al74  1  0.92628306  0.32304587  0.64901115  1
  Al0+  Al75  1  0.32073266  0.07418250  0.68176805  1
  Al0+  Al76  1  0.57285678  0.67841489  0.31832197  1
  Al0+  Al77  1  0.42854848  0.32177497  0.98341884  1
  Al0+  Al78  1  0.82194774  0.57010345  0.01634825  1
  Al0+  Al79  1  0.07021264  0.67795772  0.32086679  1
  Al0+  Al80  1  0.17615629  0.92894067  0.68172715  1
  Al0+  Al81  1  0.82121497  0.56957733  0.34794818  1
  Al0+  Al82  1  0.07033309  0.17832929  0.31674315  1
  Al0+  Al83  1  0.57243409  0.17722651  0.98534981  1
  Al0+  Al84  1  0.32237445  0.57232792  0.68089124  1
  Al0+  Al85  1  0.31735927  0.07027535  0.01618587  1
  Al0+  Al86  1  0.31972779  0.57157679  0.34519822  1
  Al0+  Al87  1  0.82260009  0.07194248  0.34826344  1
  Al0+  Al88  1  0.67890859  0.93040406  0.01455395  1
  Al0+  Al89  1  0.42832623  0.82312055  0.31968591  1
  Al0+  Al90  1  0.07080176  0.17851208  0.65114801  1
  Al0+  Al91  1  0.57136746  0.67907614  0.65315053  1
  Al0+  Al92  1  0.57207764  0.68228113  0.98529447  1
  Al0+  Al93  1  0.67665667  0.92919190  0.35052471  1
  Al0+  Al94  1  0.67957662  0.92952577  0.68117572  1
  Al0+  Al95  1  0.67834321  0.42723550  0.68184456  1
  Si0+  Si96  1  0.42502296  0.82254060  0.98102255  1
  Si0+  Si97  1  0.92795579  0.82183333  0.31618951  1
  Si0+  Si98  1  0.17995654  0.42953596  0.01491375  1
  Si0+  Si99  1  0.56967062  0.17590334  0.65082640  1
  Si0+  Si100  1  0.17979130  0.92954752  0.34569790  1
  Si0+  Si101  1  0.92648775  0.32074570  0.31343366  1
  Si0+  Si102  1  0.17803416  0.42620513  0.35039976  1
  Si0+  Si103  1  0.42925040  0.32141125  0.64945279  1
  Si0+  Si104  1  0.42847438  0.32064934  0.31957111  1
  Si0+  Si105  1  0.07030793  0.17811554  0.98464157  1
  Si0+  Si106  1  0.32124954  0.57231701  0.01555015  1
  Si0+  Si107  1  0.93125266  0.81961024  0.98468718  1
  Si0+  Si108  1  0.17989391  0.42927397  0.68160113  1
  Si0+  Si109  1  0.57087514  0.17988974  0.32100439  1
  Si0+  Si110  1  0.31960214  0.07319337  0.34754397  1
  Si0+  Si111  1  0.82124383  0.07184196  0.68122901  1
  Si0+  Si112  1  0.82527775  0.07211369  0.01312447  1
  Si0+  Si113  1  0.42811985  0.82219923  0.65351998  1
  Si0+  Si114  1  0.93057193  0.32188755  0.98521176  1
  Si0+  Si115  1  0.17595431  0.92645755  0.02040152  1
  Si0+  Si116  1  0.67610571  0.42769496  0.34963574  1
  Si0+  Si117  1  0.92903667  0.82013682  0.65132199  1
  Si0+  Si118  1  0.07390842  0.67997335  0.65350486  1
  Si0+  Si119  1  0.07210139  0.67671219  0.98357298  1
  O2-  O120  1  0.24522148  -0.00613438  0.06486207  1
  O2-  O121  1  0.25061335  0.00019655  0.38862780  1
  O2-  O122  1  0.24575509  0.00394622  0.73006166  1
  O2-  O123  1  0.25112516  0.50000677  0.05751222  1
  O2-  O124  1  0.24259296  0.49933611  0.39337962  1
  O2-  O125  1  0.24731513  0.49774442  0.72802576  1
  O2-  O126  1  0.75012456  0.01084664  0.05743426  1
  O2-  O127  1  0.75044758  0.00087371  0.39876004  1
  O2-  O128  1  0.75103393  0.00727167  0.72857818  1
  O2-  O129  1  0.74736358  0.50130811  0.06690739  1
  O2-  O130  1  0.74268469  0.49852880  0.39302776  1
  O2-  O131  1  0.75145927  0.49869815  0.73032886  1
  O2-  O132  1  -0.00679885  0.24979848  0.26849403  1
  O2-  O133  1  -0.00367917  0.24759216  0.60063785  1
  O2-  O134  1  -0.00420693  0.24500886  0.94320894  1
  O2-  O135  1  -0.00800410  0.74802163  0.27184181  1
  O2-  O136  1  0.00202815  0.74975399  0.61110324  1
  O2-  O137  1  0.00053389  0.74675323  0.94162843  1
  O2-  O138  1  0.50109566  0.25155182  0.27808476  1
  O2-  O139  1  0.49976490  0.24881925  0.60838010  1
  O2-  O140  1  0.50285480  0.25151354  0.93407837  1
  O2-  O141  1  0.50286742  0.75365538  0.26951086  1
  O2-  O142  1  0.49523838  0.75341944  0.60789125  1
  O2-  O143  1  0.49613364  0.75630594  0.93746717  1
  O2-  O144  1  0.07012764  0.17934876  0.08995684  1
  O2-  O145  1  0.07367626  0.18019346  0.42909527  1
  O2-  O146  1  0.06929534  0.18197501  0.76551655  1
  O2-  O147  1  0.07367827  0.67673554  0.08865055  1
  O2-  O148  1  0.07329850  0.68358835  0.43397454  1
  O2-  O149  1  0.07363719  0.68009731  0.75898971  1
  O2-  O150  1  0.56928696  0.17788030  0.09975712  1
  O2-  O151  1  0.56783364  0.18000180  0.42636879  1
  O2-  O152  1  0.56902523  0.17435459  0.75547036  1
  O2-  O153  1  0.57069803  0.68288448  0.09828866  1
  O2-  O154  1  0.57056334  0.67697869  0.43196219  1
  O2-  O155  1  0.57189057  0.68024220  0.76647535  1
  O2-  O156  1  0.18102878  0.42431187  0.24425250  1
  O2-  O157  1  0.18265262  0.42920388  0.57616142  1
  O2-  O158  1  0.17726506  0.43168539  0.90995593  1
  O2-  O159  1  0.17940724  0.93068863  0.24054327  1
  O2-  O160  1  0.17851090  0.92540199  0.56770731  1
  O2-  O161  1  0.17328177  0.92720436  0.91525573  1
  O2-  O162  1  0.67648569  0.42444265  0.24426037  1
  O2-  O163  1  0.67711101  0.42959963  0.56784858  1
  O2-  O164  1  0.68095954  0.42794399  0.90301112  1
  O2-  O165  1  0.67704105  0.93220286  0.23683489  1
  O2-  O166  1  0.68018341  0.92951561  0.56850234  1
  O2-  O167  1  0.68293980  0.92879239  0.90133451  1
  O2-  O168  1  0.42611793  0.31922434  0.09774730  1
  O2-  O169  1  0.42666125  0.31960745  0.42481943  1
  O2-  O170  1  0.42733708  0.32161653  0.75401123  1
  O2-  O171  1  0.42158403  0.81907098  0.08650949  1
  O2-  O172  1  0.42532795  0.82180972  0.43344945  1
  O2-  O173  1  0.42925132  0.82163829  0.75905580  1
  O2-  O174  1  0.93462265  0.32358077  0.09023246  1
  O2-  O175  1  0.92888527  0.32130847  0.41850693  1
  O2-  O176  1  0.92992385  0.32177535  0.76354465  1
  O2-  O177  1  0.93471654  0.82188909  0.08946472  1
  O2-  O178  1  0.93193354  0.82393653  0.42187369  1
  O2-  O179  1  0.92922443  0.82070908  0.75676564  1
  O2-  O180  1  0.31788891  0.07486020  0.24255733  1
  O2-  O181  1  0.32096209  0.07245672  0.56753142  1
  O2-  O182  1  0.31319453  0.07203013  0.90363200  1
  O2-  O183  1  0.31904065  0.56745838  0.23186382  1
  O2-  O184  1  0.32023712  0.57304851  0.56760390  1
  O2-  O185  1  0.31782724  0.57256270  0.91040749  1
  O2-  O186  1  0.82057850  0.07007544  0.23406151  1
  O2-  O187  1  0.82098996  0.06765335  0.57588105  1
  O2-  O188  1  0.83164994  0.06737525  0.90789689  1
  O2-  O189  1  0.82310113  0.56568543  0.23513279  1
  O2-  O190  1  0.82274483  0.57168354  0.56773432  1
  O2-  O191  1  0.82568133  0.56747437  0.90330042  1
  O2-  O192  1  0.04313278  0.08140159  0.26065482  1
  O2-  O193  1  0.04565799  0.07823936  0.60015421  1
  O2-  O194  1  0.04774133  0.08385566  0.93982012  1
  O2-  O195  1  0.04522979  0.57877341  0.26822415  1
  O2-  O196  1  0.05055231  0.58800866  0.60499346  1
  O2-  O197  1  0.04645569  0.58421346  0.93641191  1
  O2-  O198  1  0.54160277  0.08891542  0.27352823  1
  O2-  O199  1  0.53805370  0.08487880  0.60324960  1
  O2-  O200  1  0.53804837  0.07923712  0.93450925  1
  O2-  O201  1  0.54026481  0.58058794  0.26528957  1
  O2-  O202  1  0.54046890  0.58202227  0.60054087  1
  O2-  O203  1  0.54042113  0.58576887  0.93206587  1
  O2-  O204  1  0.16539080  0.21399063  0.26064764  1
  O2-  O205  1  0.16898112  0.20946919  0.59846855  1
  O2-  O206  1  0.16019080  0.21089952  0.93783694  1
  O2-  O207  1  0.16355685  0.71242204  0.26236191  1
  O2-  O208  1  0.16623189  0.71097093  0.60862962  1
  O2-  O209  1  0.16339120  0.70611269  0.93533219  1
  O2-  O210  1  0.66363058  0.20517209  0.27462106  1
  O2-  O211  1  0.66134609  0.20164859  0.60218179  1
  O2-  O212  1  0.67333863  0.19879523  0.93366213  1
  O2-  O213  1  0.67249937  0.70532963  0.26691931  1
  O2-  O214  1  0.66814227  0.71212115  0.60093756  1
  O2-  O215  1  0.66988836  0.71469567  0.93436115  1
  O2-  O216  1  0.09000742  0.45808769  0.06571745  1
  O2-  O217  1  0.08271247  0.44534648  0.39357185  1
  O2-  O218  1  0.08656591  0.45496715  0.72784983  1
  O2-  O219  1  0.08283518  0.95328419  0.06729871  1
  O2-  O220  1  0.08798690  0.95683239  0.39263740  1
  O2-  O221  1  0.07703257  0.95437710  0.73547105  1
  O2-  O222  1  0.57687130  0.45375825  0.06594234  1
  O2-  O223  1  0.58119669  0.44961005  0.39452054  1
  O2-  O224  1  0.58035574  0.45410993  0.73501859  1
  O2-  O225  1  0.58109809  0.95528876  0.06806895  1
  O2-  O226  1  0.57929977  0.96125533  0.40436411  1
  O2-  O227  1  0.58329154  0.95800585  0.73603998  1
  O2-  O228  1  0.20674850  0.33787256  0.06308684  1
  O2-  O229  1  0.20968383  0.33475830  0.39747073  1
  O2-  O230  1  0.20605406  0.33656245  0.72885269  1
  O2-  O231  1  0.20007599  0.83112160  0.06413885  1
  O2-  O232  1  0.20672291  0.83769815  0.39270854  1
  O2-  O233  1  0.20562745  0.83398700  0.74121261  1
  O2-  O234  1  0.70738426  0.32842346  0.06795592  1
  O2-  O235  1  0.70309170  0.33493697  0.39711409  1
  O2-  O236  1  0.70390854  0.32693529  0.73280606  1
  O2-  O237  1  0.71740514  0.83775123  0.07054146  1
  O2-  O238  1  0.70589009  0.83119489  0.40265584  1
  O2-  O239  1  0.71656376  0.83566832  0.73554855  1
  O2-  O240  1  0.45376100  0.41245396  0.27142444  1
  O2-  O241  1  0.45898557  0.41220908  0.60085825  1
  O2-  O242  1  0.45196832  0.42108072  0.93090671  1
  O2-  O243  1  0.45329649  0.92370386  0.26805685  1
  O2-  O244  1  0.45194376  0.91686784  0.60845712  1
  O2-  O245  1  0.44706062  0.91834163  0.93959716  1
  O2-  O246  1  0.95641205  0.41224303  0.26527400  1
  O2-  O247  1  0.96011265  0.42002299  0.59558845  1
  O2-  O248  1  0.96660494  0.41064949  0.93664352  1
  O2-  O249  1  0.95953986  0.91233045  0.26698391  1
  O2-  O250  1  0.95552238  0.91150175  0.60244489  1
  O2-  O251  1  0.96193377  0.90981067  0.93438139  1
  O2-  O252  1  0.33760171  0.29194466  0.27063100  1
  O2-  O253  1  0.33787032  0.29485340  0.60007511  1
  O2-  O254  1  0.32975858  0.29093239  0.93094719  1
  O2-  O255  1  0.33183987  0.79438098  0.26234355  1
  O2-  O256  1  0.33250628  0.79731347  0.61070259  1
  O2-  O257  1  0.33110827  0.79590646  0.93473330  1
  O2-  O258  1  0.83171957  0.29719814  0.26832323  1
  O2-  O259  1  0.82735970  0.29794825  0.59556315  1
  O2-  O260  1  0.83768968  0.30000981  0.93821767  1
  O2-  O261  1  0.83281438  0.80076779  0.27273199  1
  O2-  O262  1  0.83907010  0.79065946  0.60206788  1
  O2-  O263  1  0.83947345  0.79387736  0.93715127  1
  O2-  O264  1  0.41362264  0.04187577  0.07169396  1
  O2-  O265  1  0.41177280  0.04988935  0.39543486  1
  O2-  O266  1  0.41627622  0.04336363  0.73832260  1
  O2-  O267  1  0.41302566  0.54526009  0.06167161  1
  O2-  O268  1  0.41458141  0.53754060  0.40044923  1
  O2-  O269  1  0.41666343  0.53762202  0.73499587  1
  O2-  O270  1  0.91624319  0.03882217  0.06216282  1
  O2-  O271  1  0.92221842  0.04294106  0.39847835  1
  O2-  O272  1  0.91423122  0.04488035  0.72758507  1
  O2-  O273  1  0.92131558  0.53877644  0.06787760  1
  O2-  O274  1  0.91829749  0.53675751  0.40086110  1
  O2-  O275  1  0.92340834  0.54504574  0.73224869  1
  O2-  O276  1  0.28423347  0.16684370  0.07017018  1
  O2-  O277  1  0.28909916  0.16455647  0.39441743  1
  O2-  O278  1  0.29353963  0.17319321  0.73399696  1
  O2-  O279  1  0.29002154  0.66355554  0.06200865  1
  O2-  O280  1  0.28759657  0.66864228  0.39723184  1
  O2-  O281  1  0.29103694  0.66579666  0.73974654  1
  O2-  O282  1  0.80975000  0.16851287  0.05643093  1
  O2-  O283  1  0.79737664  0.17118799  0.40062955  1
  O2-  O284  1  0.79975775  0.16753247  0.72339453  1
  O2-  O285  1  0.79893366  0.67017169  0.06750588  1
  O2-  O286  1  0.79832713  0.66833685  0.40028953  1
  O2-  O287  1  0.79567534  0.66923080  0.73448496  1
