# generated using pymatgen
data_Ca2Al2SiO7
_symmetry_space_group_name_H-M   'P 1'
_cell_length_a   15.45950387
_cell_length_b   15.45944417
_cell_length_c   15.28458449
_cell_angle_alpha   89.99637461
_cell_angle_beta   90.00339636
_cell_angle_gamma   89.98448079
_symmetry_Int_Tables_number   1
_chemical_formula_structural   Ca2Al2SiO7
_chemical_formula_sum   'Ca48 Al48 Si24 O168'
_cell_volume   3652.94427391
_cell_formula_units_Z   24
loop_
 _symmetry_equiv_pos_site_id
 _symmetry_equiv_pos_as_xyz
  1  'x, y, z'
loop_
 _atom_type_symbol
 _atom_type_oxidation_number
  Ca2+  2.0
  Al0+  0.0
  Si0+  0.0
  O2-  -2.0
loop_
 _atom_site_type_symbol
 _atom_site_label
 _atom_site_symmetry_multiplicity
 _atom_site_fract_x
 _atom_site_fract_y
 _atom_site_fract_z
 _atom_site_occupancy
  Ca2+  Ca0  1  0.16479940  0.07845722  0.17134352  1
  Ca2+  Ca1  1  0.17497910  0.07493013  0.50565615  1
  Ca2+  Ca2  1  0.17077058  0.08994035  0.83974265  1
  Ca2+  Ca3  1  0.17427133  0.58904684  0.16956101  1
  Ca2+  Ca4  1  0.17099760  0.59016029  0.49824353  1
  Ca2+  Ca5  1  0.17278361  0.57811646  0.84642419  1
  Ca2+  Ca6  1  0.66877319  0.08631062  0.16458949  1
  Ca2+  Ca7  1  0.66026291  0.07759923  0.50759970  1
  Ca2+  Ca8  1  0.66669585  0.07472946  0.84319790  1
  Ca2+  Ca9  1  0.65783280  0.57932916  0.16616538  1
  Ca2+  Ca10  1  0.67148365  0.58511107  0.50619788  1
  Ca2+  Ca11  1  0.67368276  0.57931151  0.84426779  1
  Ca2+  Ca12  1  0.07881724  0.32865195  0.15307173  1
  Ca2+  Ca13  1  0.07653502  0.33603342  0.50119319  1
  Ca2+  Ca14  1  0.07665923  0.33431694  0.83558701  1
  Ca2+  Ca15  1  0.08434914  0.82628348  0.15921623  1
  Ca2+  Ca16  1  0.07875946  0.83110762  0.49279319  1
  Ca2+  Ca17  1  0.06937339  0.83027048  0.83417451  1
  Ca2+  Ca18  1  0.58053209  0.32621456  0.15441462  1
  Ca2+  Ca19  1  0.58536398  0.31824266  0.49525782  1
  Ca2+  Ca20  1  0.58814668  0.32298376  0.83658410  1
  Ca2+  Ca21  1  0.57990254  0.82322941  0.16148742  1
  Ca2+  Ca22  1  0.57809164  0.83030460  0.49284172  1
  Ca2+  Ca23  1  0.59500753  0.83031470  0.83322464  1
  Ca2+  Ca24  1  0.33464723  0.42553498  0.16320474  1
  Ca2+  Ca25  1  0.33378437  0.42431092  0.50094892  1
  Ca2+  Ca26  1  0.32845866  0.41875628  0.84889158  1
  Ca2+  Ca27  1  0.32773482  0.91254789  0.17355258  1
  Ca2+  Ca28  1  0.32975197  0.91470536  0.50167042  1
  Ca2+  Ca29  1  0.33362560  0.92547918  0.83571752  1
  Ca2+  Ca30  1  0.82670500  0.40936164  0.16427721  1
  Ca2+  Ca31  1  0.83403620  0.42517016  0.50875006  1
  Ca2+  Ca32  1  0.83397362  0.41725362  0.83979510  1
  Ca2+  Ca33  1  0.83248471  0.91739294  0.16140693  1
  Ca2+  Ca34  1  0.82497437  0.91603502  0.51018116  1
  Ca2+  Ca35  1  0.82729560  0.91699781  0.84318117  1
  Ca2+  Ca36  1  0.42794676  0.17206964  0.15699130  1
  Ca2+  Ca37  1  0.42624138  0.15832506  0.49868399  1
  Ca2+  Ca38  1  0.42382646  0.16934071  0.82977449  1
  Ca2+  Ca39  1  0.41839407  0.66585328  0.16253611  1
  Ca2+  Ca40  1  0.42190619  0.67318018  0.48591908  1
  Ca2+  Ca41  1  0.42295799  0.66157201  0.83757974  1
  Ca2+  Ca42  1  0.92200182  0.16894411  0.15240965  1
  Ca2+  Ca43  1  0.91151706  0.17598064  0.49913236  1
  Ca2+  Ca44  1  0.91199602  0.17601087  0.83801878  1
  Ca2+  Ca45  1  0.93119395  0.67198872  0.15656816  1
  Ca2+  Ca46  1  0.91817682  0.67169344  0.49758004  1
  Ca2+  Ca47  1  0.91299249  0.67454834  0.82976903  1
  Al0+  Al48  1  0.00035017  0.00006309  -0.00458908  1
  Al0+  Al49  1  -0.00163591  0.00260222  0.34164698  1
  Al0+  Al50  1  -0.00044055  -0.00070122  0.66159913  1
  Al0+  Al51  1  0.00175548  0.49959342  -0.00217377  1
  Al0+  Al52  1  -0.00133953  0.50096164  0.33046045  1
  Al0+  Al53  1  0.00128226  0.50061032  0.66578799  1
  Al0+  Al54  1  0.49984887  -0.00191751  0.00297970  1
  Al0+  Al55  1  0.50102148  -0.00003521  0.32406458  1
  Al0+  Al56  1  0.49836550  -0.00169423  0.67136678  1
  Al0+  Al57  1  0.50065074  0.50109046  -0.00056477  1
  Al0+  Al58  1  0.49982744  0.49756299  0.33902843  1
  Al0+  Al59  1  0.50018250  0.49817532  0.66572102  1
  Al0+  Al60  1  0.25082655  0.25145468  -0.00014248  1
  Al0+  Al61  1  0.24898553  0.25070875  0.33736341  1
  Al0+  Al62  1  0.25063042  0.25060720  0.66737708  1
  Al0+  Al63  1  0.25146930  0.75150164  -0.00312288  1
  Al0+  Al64  1  0.24848909  0.75049520  0.33706357  1
  Al0+  Al65  1  0.25007237  0.74995149  0.66941587  1
  Al0+  Al66  1  0.75091566  0.24907927  0.00091838  1
  Al0+  Al67  1  0.74965228  0.25043775  0.33205574  1
  Al0+  Al68  1  0.74997558  0.24934668  0.65624921  1
  Al0+  Al69  1  0.74883276  0.75034969  0.00014996  1
  Al0+  Al70  1  0.74993877  0.75065765  0.33047504  1
  Al0+  Al71  1  0.75143377  0.74891957  0.66871951  1
  Al0+  Al72  1  0.68131997  0.42987492  0.01238635  1
  Al0+  Al73  1  0.92789934  0.32195107  0.98641337  1
  Al0+  Al74  1  0.31945786  0.06969557  0.68039861  1
  Al0+  Al75  1  0.56824106  0.17820913  0.65328129  1
  Al0+  Al76  1  0.93044726  0.32085862  0.65161041  1
  Al0+  Al77  1  0.67702020  0.92648378  0.01927594  1
  Al0+  Al78  1  0.82101678  0.06981074  0.01412750  1
  Al0+  Al79  1  0.17826873  0.92945425  0.34708962  1
  Al0+  Al80  1  0.07428696  0.67841499  0.98394128  1
  Al0+  Al81  1  0.06892177  0.68064734  0.32059287  1
  Al0+  Al82  1  0.56970097  0.67976085  0.98564628  1
  Al0+  Al83  1  0.32103434  0.57265366  0.01534706  1
  Al0+  Al84  1  0.67969335  0.92992290  0.67902156  1
  Al0+  Al85  1  0.82080601  0.56957353  0.67995768  1
  Al0+  Al86  1  0.57080173  0.17943468  0.31738011  1
  Al0+  Al87  1  0.07277833  0.17766580  0.98642546  1
  Al0+  Al88  1  0.92905780  0.82000231  0.98588601  1
  Al0+  Al89  1  0.57273349  0.67654586  0.31956193  1
  Al0+  Al90  1  0.32035087  0.56967030  0.34856588  1
  Al0+  Al91  1  0.42812992  0.82040471  0.31885324  1
  Al0+  Al92  1  0.17743051  0.42796992  0.01594796  1
  Al0+  Al93  1  0.57168361  0.17700085  0.98402751  1
  Al0+  Al94  1  0.43044486  0.32165536  0.98567457  1
  Al0+  Al95  1  0.92789167  0.82076589  0.65120880  1
  Si0+  Si96  1  0.32329677  0.07277672  0.34839256  1
  Si0+  Si97  1  0.17588860  0.92703233  0.68514419  1
  Si0+  Si98  1  0.82335085  0.57355554  0.01786757  1
  Si0+  Si99  1  0.92694088  0.82573722  0.31737928  1
  Si0+  Si100  1  0.42588127  0.32222328  0.31802696  1
  Si0+  Si101  1  0.67930645  0.92933745  0.34798202  1
  Si0+  Si102  1  0.32170884  0.07244191  0.01617012  1
  Si0+  Si103  1  0.42551411  0.32291996  0.64772851  1
  Si0+  Si104  1  0.67811708  0.42591247  0.68164232  1
  Si0+  Si105  1  0.18009616  0.42999866  0.68110067  1
  Si0+  Si106  1  0.81978017  0.07309028  0.35108259  1
  Si0+  Si107  1  0.82312390  0.07416890  0.68151797  1
  Si0+  Si108  1  0.42700185  0.82310709  0.98088656  1
  Si0+  Si109  1  0.42811172  0.81923394  0.65281165  1
  Si0+  Si110  1  0.18001455  0.93098080  0.01276863  1
  Si0+  Si111  1  0.07032722  0.17891330  0.32206351  1
  Si0+  Si112  1  0.07536923  0.17815088  0.64745164  1
  Si0+  Si113  1  0.17474034  0.42740139  0.35205482  1
  Si0+  Si114  1  0.67963259  0.42758531  0.35017795  1
  Si0+  Si115  1  0.82162164  0.57071878  0.34701227  1
  Si0+  Si116  1  0.93007480  0.32116689  0.31818571  1
  Si0+  Si117  1  0.57084570  0.67760666  0.65284841  1
  Si0+  Si118  1  0.32256284  0.57168788  0.68161282  1
  Si0+  Si119  1  0.07293111  0.67926710  0.64902679  1
  O2-  O120  1  0.24974058  0.00206357  0.05734188  1
  O2-  O121  1  0.25521582  0.00318885  0.39274273  1
  O2-  O122  1  0.24078610  -0.00041425  0.72857249  1
  O2-  O123  1  0.24610908  0.50346009  0.06530740  1
  O2-  O124  1  0.24465284  0.49529877  0.39634208  1
  O2-  O125  1  0.25338264  0.49892506  0.72219766  1
  O2-  O126  1  0.74851948  0.00014947  0.06780205  1
  O2-  O127  1  0.74928188  0.00088883  0.39220182  1
  O2-  O128  1  0.75562767  0.00414367  0.72399039  1
  O2-  O129  1  0.75643260  0.50308125  0.06249091  1
  O2-  O130  1  0.74730881  0.50294468  0.39066926  1
  O2-  O131  1  0.74633786  0.49457786  0.72555900  1
  O2-  O132  1  0.00275934  0.25155479  0.27840639  1
  O2-  O133  1  0.00329761  0.24406059  0.60332258  1
  O2-  O134  1  0.00188936  0.25120216  0.93745160  1
  O2-  O135  1  -0.00307312  0.75808169  0.27477370  1
  O2-  O136  1  0.00516407  0.74871124  0.60420462  1
  O2-  O137  1  -0.00325118  0.74437849  0.93452917  1
  O2-  O138  1  0.49347655  0.25264301  0.27446877  1
  O2-  O139  1  0.49458890  0.25389520  0.60438934  1
  O2-  O140  1  0.49960852  0.24833735  0.93367763  1
  O2-  O141  1  0.49815749  0.74599911  0.27030893  1
  O2-  O142  1  0.49778852  0.74655369  0.61082153  1
  O2-  O143  1  0.49816692  0.75673999  0.93701293  1
  O2-  O144  1  0.07144063  0.17608558  0.10101032  1
  O2-  O145  1  0.06820919  0.17978620  0.42726439  1
  O2-  O146  1  0.07907122  0.18073107  0.75215640  1
  O2-  O147  1  0.07561611  0.68365287  0.09787570  1
  O2-  O148  1  0.06545446  0.68037114  0.43424585  1
  O2-  O149  1  0.07424578  0.67970264  0.75385455  1
  O2-  O150  1  0.56962046  0.18018323  0.09781792  1
  O2-  O151  1  0.57033100  0.17834139  0.43119665  1
  O2-  O152  1  0.56823945  0.17894359  0.76522938  1
  O2-  O153  1  0.56706218  0.67906890  0.09852799  1
  O2-  O154  1  0.57407558  0.68027918  0.43425486  1
  O2-  O155  1  0.56987964  0.67629904  0.75746657  1
  O2-  O156  1  0.17266022  0.42478830  0.24772755  1
  O2-  O157  1  0.18006383  0.43106789  0.57541328  1
  O2-  O158  1  0.18047086  0.42792376  0.90155443  1
  O2-  O159  1  0.17661757  0.93298565  0.23402048  1
  O2-  O160  1  0.17909709  0.92547975  0.57922231  1
  O2-  O161  1  0.18243277  0.93171858  0.90758750  1
  O2-  O162  1  0.68123973  0.42418989  0.24556291  1
  O2-  O163  1  0.67851029  0.42836721  0.57526533  1
  O2-  O164  1  0.68296464  0.43122041  0.89903485  1
  O2-  O165  1  0.68169430  0.92857889  0.24390037  1
  O2-  O166  1  0.67828361  0.93029487  0.56485014  1
  O2-  O167  1  0.67914022  0.92745643  0.90528424  1
  O2-  O168  1  0.43185073  0.31962036  0.09978466  1
  O2-  O169  1  0.42728937  0.32186983  0.42418428  1
  O2-  O170  1  0.42369434  0.32461157  0.75241931  1
  O2-  O171  1  0.42376799  0.82216829  0.08627646  1
  O2-  O172  1  0.43142531  0.82116218  0.43358800  1
  O2-  O173  1  0.42535135  0.81832356  0.75735287  1
  O2-  O174  1  0.92801836  0.31809128  0.10071765  1
  O2-  O175  1  0.92964686  0.32132236  0.42373359  1
  O2-  O176  1  0.93106730  0.32153036  0.76342683  1
  O2-  O177  1  0.93379411  0.82065043  0.09998154  1
  O2-  O178  1  0.92539188  0.82339790  0.42339492  1
  O2-  O179  1  0.92746788  0.81923174  0.76338202  1
  O2-  O180  1  0.31967221  0.07563758  0.24321371  1
  O2-  O181  1  0.31983016  0.06518084  0.56678649  1
  O2-  O182  1  0.32175193  0.07083804  0.91079995  1
  O2-  O183  1  0.32064255  0.56870404  0.23656273  1
  O2-  O184  1  0.32190193  0.57263073  0.57635115  1
  O2-  O185  1  0.32051853  0.57080339  0.90092262  1
  O2-  O186  1  0.82290261  0.07517767  0.24689335  1
  O2-  O187  1  0.82049541  0.07368714  0.57495113  1
  O2-  O188  1  0.82052738  0.06932580  0.90038835  1
  O2-  O189  1  0.82487516  0.56762531  0.24277726  1
  O2-  O190  1  0.81847600  0.56974334  0.56575584  1
  O2-  O191  1  0.82000201  0.57381184  0.91195022  1
  O2-  O192  1  0.04003955  0.08757964  0.27568591  1
  O2-  O193  1  0.05338987  0.08287667  0.60267308  1
  O2-  O194  1  0.04563091  0.08119126  0.93001429  1
  O2-  O195  1  0.03750631  0.58459824  0.26629408  1
  O2-  O196  1  0.04752150  0.58593819  0.60227336  1
  O2-  O197  1  0.05276743  0.57795166  0.93416835  1
  O2-  O198  1  0.54428357  0.08353345  0.26200193  1
  O2-  O199  1  0.53343932  0.08143353  0.59994545  1
  O2-  O200  1  0.54264601  0.07740573  0.93498337  1
  O2-  O201  1  0.54752976  0.57511311  0.27286979  1
  O2-  O202  1  0.54581377  0.58467405  0.60487853  1
  O2-  O203  1  0.53782723  0.58503487  0.92924363  1
  O2-  O204  1  0.16434788  0.20181048  0.27706992  1
  O2-  O205  1  0.16728548  0.20783178  0.59869828  1
  O2-  O206  1  0.17081551  0.20568938  0.93361138  1
  O2-  O207  1  0.16613090  0.70987081  0.26966050  1
  O2-  O208  1  0.16733071  0.70620237  0.60322273  1
  O2-  O209  1  0.17015323  0.71187670  0.92905646  1
  O2-  O210  1  0.66718012  0.21363945  0.26581106  1
  O2-  O211  1  0.66389935  0.20708271  0.59481225  1
  O2-  O212  1  0.66958286  0.20666580  0.93286902  1
  O2-  O213  1  0.67044658  0.70508814  0.26608528  1
  O2-  O214  1  0.66195296  0.70705568  0.60550447  1
  O2-  O215  1  0.66694858  0.70820234  0.93200901  1
  O2-  O216  1  0.07683460  0.45019179  0.06730455  1
  O2-  O217  1  0.08142369  0.45637447  0.39872794  1
  O2-  O218  1  0.08924901  0.45943039  0.72812631  1
  O2-  O219  1  0.08836568  0.95706549  0.06030836  1
  O2-  O220  1  0.08327678  0.96261953  0.40531188  1
  O2-  O221  1  0.08003781  0.94913419  0.72710786  1
  O2-  O222  1  0.58580046  0.46244253  0.06722099  1
  O2-  O223  1  0.58733806  0.44912275  0.39966995  1
  O2-  O224  1  0.58341208  0.44944014  0.72597636  1
  O2-  O225  1  0.57729521  0.95197342  0.07100999  1
  O2-  O226  1  0.58600340  0.95758634  0.39302883  1
  O2-  O227  1  0.58353341  0.95776815  0.73399635  1
  O2-  O228  1  0.20849483  0.33031298  0.07018424  1
  O2-  O229  1  0.19966074  0.33375957  0.40089537  1
  O2-  O230  1  0.20484093  0.33725835  0.72691553  1
  O2-  O231  1  0.21030109  0.83998885  0.06027119  1
  O2-  O232  1  0.20735067  0.83430947  0.40486912  1
  O2-  O233  1  0.20603577  0.83507926  0.73177824  1
  O2-  O234  1  0.71140941  0.33402846  0.06862482  1
  O2-  O235  1  0.71345721  0.33770275  0.39944299  1
  O2-  O236  1  0.70509981  0.33139527  0.72342582  1
  O2-  O237  1  0.70745657  0.82844159  0.07210922  1
  O2-  O238  1  0.70697495  0.83708850  0.39632248  1
  O2-  O239  1  0.71054764  0.83337443  0.73194153  1
  O2-  O240  1  0.45309117  0.41543256  0.27398938  1
  O2-  O241  1  0.45246183  0.41674741  0.60062908  1
  O2-  O242  1  0.45893945  0.41902573  0.93208423  1
  O2-  O243  1  0.45469166  0.91745545  0.26361561  1
  O2-  O244  1  0.45722882  0.91026903  0.60538600  1
  O2-  O245  1  0.45047903  0.91766603  0.93643400  1
  O2-  O246  1  0.95483620  0.41293712  0.27106333  1
  O2-  O247  1  0.96502815  0.41669542  0.59588071  1
  O2-  O248  1  0.95269002  0.42055776  0.93301052  1
  O2-  O249  1  0.95168634  0.92129891  0.27612059  1
  O2-  O250  1  0.95446395  0.91853620  0.59563411  1
  O2-  O251  1  0.96137135  0.91560998  0.93051721  1
  O2-  O252  1  0.33050870  0.29939673  0.27467814  1
  O2-  O253  1  0.33203313  0.29815381  0.60034825  1
  O2-  O254  1  0.33211503  0.29384941  0.93331686  1
  O2-  O255  1  0.32833983  0.79463316  0.26926141  1
  O2-  O256  1  0.33565316  0.79216677  0.60476096  1
  O2-  O257  1  0.33544108  0.79659705  0.93132444  1
  O2-  O258  1  0.83871425  0.29104993  0.27249338  1
  O2-  O259  1  0.83496271  0.29217238  0.59246023  1
  O2-  O260  1  0.83162392  0.29077337  0.93164015  1
  O2-  O261  1  0.83424956  0.79980835  0.27115067  1
  O2-  O262  1  0.83242511  0.78558445  0.59596269  1
  O2-  O263  1  0.82979426  0.79462162  0.93448471  1
  O2-  O264  1  0.41217973  0.04317580  0.06482587  1
  O2-  O265  1  0.41796877  0.04566854  0.39190697  1
  O2-  O266  1  0.41252329  0.03449830  0.73729473  1
  O2-  O267  1  0.41832545  0.54139742  0.06798705  1
  O2-  O268  1  0.41633608  0.53814741  0.40619830  1
  O2-  O269  1  0.41577148  0.54564564  0.72704876  1
  O2-  O270  1  0.92029115  0.03971535  0.06679347  1
  O2-  O271  1  0.91081509  0.04811943  0.40228906  1
  O2-  O272  1  0.91905155  0.05219461  0.72314022  1
  O2-  O273  1  0.91848812  0.55039457  0.06104045  1
  O2-  O274  1  0.91138908  0.53900547  0.39758781  1
  O2-  O275  1  0.91852225  0.54065976  0.73165815  1
  O2-  O276  1  0.29504143  0.16370480  0.06411946  1
  O2-  O277  1  0.29751073  0.16554269  0.39782508  1
  O2-  O278  1  0.29298539  0.16845388  0.73219369  1
  O2-  O279  1  0.29456455  0.67295889  0.06593907  1
  O2-  O280  1  0.28896011  0.66568544  0.40448699  1
  O2-  O281  1  0.29465807  0.66300193  0.72940891  1
  O2-  O282  1  0.79440883  0.16797039  0.06905471  1
  O2-  O283  1  0.78970903  0.16483524  0.39901572  1
  O2-  O284  1  0.79656033  0.16875870  0.72367259  1
  O2-  O285  1  0.79627625  0.66591351  0.06453590  1
  O2-  O286  1  0.79653048  0.66443339  0.39351496  1
  O2-  O287  1  0.78864375  0.66440696  0.73491745  1
