# generated using pymatgen
data_Ca2Al2SiO7
_symmetry_space_group_name_H-M   'P 1'
_cell_length_a   15.45708433
_cell_length_b   15.45746639
_cell_length_c   15.28338317
_cell_angle_alpha   90.00979496
_cell_angle_beta   90.00146293
_cell_angle_gamma   89.98447935
_symmetry_Int_Tables_number   1
_chemical_formula_structural   Ca2Al2SiO7
_chemical_formula_sum   'Ca48 Al48 Si24 O168'
_cell_volume   3651.61822523
_cell_formula_units_Z   24
loop_
 _symmetry_equiv_pos_site_id
 _symmetry_equiv_pos_as_xyz
  1  'x, y, z'
loop_
 _atom_type_symbol
 _atom_type_oxidation_number
  Ca2+  2.0
  Al0+  0.0
  Si0+  0.0
  O2-  -2.0
loop_
 _atom_site_type_symbol
 _atom_site_label
 _atom_site_symmetry_multiplicity
 _atom_site_fract_x
 _atom_site_fract_y
 _atom_site_fract_z
 _atom_site_occupancy
  Ca2+  Ca0  1  0.17345623  0.08511763  0.17379219  1
  Ca2+  Ca1  1  0.17642390  0.07805831  0.50425631  1
  Ca2+  Ca2  1  0.16213471  0.07770089  0.83545478  1
  Ca2+  Ca3  1  0.16328418  0.58618968  0.17077583  1
  Ca2+  Ca4  1  0.17336752  0.58135612  0.50894229  1
  Ca2+  Ca5  1  0.16926876  0.57907305  0.83347765  1
  Ca2+  Ca6  1  0.66748679  0.07362073  0.17828289  1
  Ca2+  Ca7  1  0.67045476  0.08515957  0.50106813  1
  Ca2+  Ca8  1  0.67248176  0.08590131  0.83531532  1
  Ca2+  Ca9  1  0.65677889  0.57697494  0.16945474  1
  Ca2+  Ca10  1  0.66068892  0.57756686  0.50589707  1
  Ca2+  Ca11  1  0.66558069  0.56931364  0.83769271  1
  Ca2+  Ca12  1  0.08091481  0.32357012  0.15920199  1
  Ca2+  Ca13  1  0.07753952  0.34141424  0.50035175  1
  Ca2+  Ca14  1  0.07846815  0.32744746  0.82647070  1
  Ca2+  Ca15  1  0.07948666  0.82446546  0.16414701  1
  Ca2+  Ca16  1  0.07579911  0.83597032  0.49657479  1
  Ca2+  Ca17  1  0.08019353  0.82994307  0.82487372  1
  Ca2+  Ca18  1  0.57367409  0.32895766  0.16353686  1
  Ca2+  Ca19  1  0.57770884  0.32554843  0.49761049  1
  Ca2+  Ca20  1  0.57986305  0.33501785  0.82311314  1
  Ca2+  Ca21  1  0.57740748  0.84283925  0.16500246  1
  Ca2+  Ca22  1  0.58059944  0.82550288  0.48693142  1
  Ca2+  Ca23  1  0.57907993  0.83913193  0.83347311  1
  Ca2+  Ca24  1  0.33508493  0.41237070  0.17168802  1
  Ca2+  Ca25  1  0.33279237  0.42011649  0.51005690  1
  Ca2+  Ca26  1  0.33876404  0.41968807  0.83379635  1
  Ca2+  Ca27  1  0.33770571  0.92062208  0.17560152  1
  Ca2+  Ca28  1  0.33293655  0.91898916  0.50223930  1
  Ca2+  Ca29  1  0.32870206  0.91593686  0.83720244  1
  Ca2+  Ca30  1  0.82598299  0.41728923  0.16915629  1
  Ca2+  Ca31  1  0.82742728  0.41749807  0.51031794  1
  Ca2+  Ca32  1  0.82119676  0.40621064  0.83385295  1
  Ca2+  Ca33  1  0.82341256  0.91877726  0.17744928  1
  Ca2+  Ca34  1  0.83638195  0.92456851  0.50403114  1
  Ca2+  Ca35  1  0.82977451  0.92004829  0.83562425  1
  Ca2+  Ca36  1  0.41769577  0.17187034  0.16503364  1
  Ca2+  Ca37  1  0.42613110  0.17211552  0.49223668  1
  Ca2+  Ca38  1  0.42716505  0.18001819  0.82445265  1
  Ca2+  Ca39  1  0.42199278  0.68078941  0.16760318  1
  Ca2+  Ca40  1  0.41888333  0.66888712  0.49316388  1
  Ca2+  Ca41  1  0.41387144  0.66991302  0.83139932  1
  Ca2+  Ca42  1  0.92109240  0.15978007  0.16668153  1
  Ca2+  Ca43  1  0.91004384  0.16758399  0.50078546  1
  Ca2+  Ca44  1  0.91956605  0.16613617  0.82508508  1
  Ca2+  Ca45  1  0.92530368  0.66995694  0.16592809  1
  Ca2+  Ca46  1  0.92146695  0.68145094  0.49104155  1
  Ca2+  Ca47  1  0.92076467  0.67218517  0.82736039  1
  Al0+  Al48  1  0.00133188  -0.00150587  -0.00203865  1
  Al0+  Al49  1  -0.00063143  0.00064653  0.33275478  1
  Al0+  Al50  1  0.00011556  -0.00032904  0.67103524  1
  Al0+  Al51  1  0.00065009  0.49943995  -0.00389235  1
  Al0+  Al52  1  -0.00203719  0.49888271  0.32942217  1
  Al0+  Al53  1  0.00203738  0.50012588  0.66712255  1
  Al0+  Al54  1  0.49946382  0.00188440  -0.00277174  1
  Al0+  Al55  1  0.50068101  0.00145378  0.33723884  1
  Al0+  Al56  1  0.50060786  -0.00013692  0.66323223  1
  Al0+  Al57  1  0.49856411  0.50202978  0.00324626  1
  Al0+  Al58  1  0.49697398  0.50029258  0.32728608  1
  Al0+  Al59  1  0.49992370  0.50149706  0.67234959  1
  Al0+  Al60  1  0.24949668  0.25023509  -0.00994139  1
  Al0+  Al61  1  0.24805136  0.25010997  0.33719442  1
  Al0+  Al62  1  0.25025693  0.24986692  0.66774283  1
  Al0+  Al63  1  0.24951778  0.74915336  -0.00670018  1
  Al0+  Al64  1  0.25028255  0.74819144  0.32739414  1
  Al0+  Al65  1  0.25039986  0.75021009  0.67482262  1
  Al0+  Al66  1  0.75012226  0.25023623  0.00953022  1
  Al0+  Al67  1  0.74863291  0.25008932  0.33191801  1
  Al0+  Al68  1  0.75208881  0.24840843  0.66758143  1
  Al0+  Al69  1  0.75006719  0.74947340  0.00438030  1
  Al0+  Al70  1  0.75117867  0.74665363  0.32833942  1
  Al0+  Al71  1  0.75021767  0.75135654  0.66324301  1
  Al0+  Al72  1  0.18072447  0.93154281  0.68019032  1
  Al0+  Al73  1  0.67740650  0.42920175  0.01673445  1
  Al0+  Al74  1  0.07034616  0.17764772  0.98606016  1
  Al0+  Al75  1  0.93090406  0.32068032  0.65403803  1
  Al0+  Al76  1  0.43030214  0.32212104  0.98437279  1
  Al0+  Al77  1  0.57260946  0.67690842  0.31863059  1
  Al0+  Al78  1  0.82196907  0.07132825  0.35008588  1
  Al0+  Al79  1  0.68167903  0.43007208  0.67791750  1
  Al0+  Al80  1  0.67844804  0.92586134  0.35017336  1
  Al0+  Al81  1  0.92905719  0.82166672  0.65341953  1
  Al0+  Al82  1  0.67838553  0.93048090  0.01329056  1
  Al0+  Al83  1  0.92907550  0.82430626  0.31668727  1
  Al0+  Al84  1  0.42889113  0.32367424  0.65135211  1
  Al0+  Al85  1  0.32149435  0.57064983  0.68339913  1
  Al0+  Al86  1  0.32143076  0.07253565  0.34673773  1
  Al0+  Al87  1  0.17694360  0.42661821  0.68319822  1
  Al0+  Al88  1  0.42637710  0.32006037  0.31883285  1
  Al0+  Al89  1  0.43004485  0.82235592  0.32100094  1
  Al0+  Al90  1  0.57221931  0.17940929  0.31671955  1
  Al0+  Al91  1  0.57298908  0.17812673  0.65121199  1
  Al0+  Al92  1  0.07069079  0.67762226  0.31982542  1
  Al0+  Al93  1  0.43070269  0.82291149  0.98472724  1
  Al0+  Al94  1  0.81931469  0.06917729  0.68168684  1
  Al0+  Al95  1  0.07057315  0.67804316  0.98233746  1
  Si0+  Si96  1  0.67757934  0.43147880  0.34816430  1
  Si0+  Si97  1  0.57070585  0.68017755  0.65485521  1
  Si0+  Si98  1  0.31899030  0.57024773  0.34550750  1
  Si0+  Si99  1  0.31917481  0.57240012  0.01871597  1
  Si0+  Si100  1  0.07331884  0.67932151  0.65060345  1
  Si0+  Si101  1  0.31808450  0.07125480  0.01243547  1
  Si0+  Si102  1  0.07085199  0.18025144  0.32141622  1
  Si0+  Si103  1  0.92758214  0.32165722  0.31780724  1
  Si0+  Si104  1  0.82378863  0.57136642  0.01721997  1
  Si0+  Si105  1  0.42737384  0.82068846  0.65288471  1
  Si0+  Si106  1  0.57306099  0.17915878  0.98422717  1
  Si0+  Si107  1  0.82384414  0.56862947  0.34822485  1
  Si0+  Si108  1  0.67643803  0.92488464  0.68296529  1
  Si0+  Si109  1  0.17939048  0.92636522  0.34719940  1
  Si0+  Si110  1  0.57273043  0.67855699  0.98256244  1
  Si0+  Si111  1  0.92703570  0.82079381  0.98239298  1
  Si0+  Si112  1  0.92689293  0.32068932  0.98478985  1
  Si0+  Si113  1  0.17942435  0.42838933  0.01519709  1
  Si0+  Si114  1  0.17906793  0.92724434  0.01585234  1
  Si0+  Si115  1  0.82274670  0.57495313  0.68108764  1
  Si0+  Si116  1  0.32535380  0.07231433  0.68486576  1
  Si0+  Si117  1  0.82441553  0.07117875  0.01779554  1
  Si0+  Si118  1  0.17646864  0.42827301  0.34652792  1
  Si0+  Si119  1  0.07233899  0.17629642  0.64877557  1
  O2-  O120  1  0.24943574  -0.00122475  0.05773139  1
  O2-  O121  1  0.25026358  -0.00718766  0.39131670  1
  O2-  O122  1  0.25504426  0.00546426  0.72979053  1
  O2-  O123  1  0.24913749  0.49932260  0.06021053  1
  O2-  O124  1  0.24718337  0.49990821  0.38706087  1
  O2-  O125  1  0.25159748  0.49596108  0.73350436  1
  O2-  O126  1  0.75435805  0.00366200  0.06031322  1
  O2-  O127  1  0.75178827  -0.00284021  0.39971390  1
  O2-  O128  1  0.74326556  -0.00467361  0.72729925  1
  O2-  O129  1  0.75314648  0.50443185  0.06206034  1
  O2-  O130  1  0.74739482  0.50365326  0.39066658  1
  O2-  O131  1  0.75774059  0.50344472  0.72637231  1
  O2-  O132  1  -0.00275535  0.24824548  0.27797135  1
  O2-  O133  1  0.00872383  0.25008608  0.60479932  1
  O2-  O134  1  -0.00812250  0.24875476  0.94102820  1
  O2-  O135  1  0.00133659  0.75127170  0.26841090  1
  O2-  O136  1  0.00260378  0.74552869  0.60683275  1
  O2-  O137  1  -0.00480668  0.75228456  0.93695478  1
  O2-  O138  1  0.49711738  0.24828010  0.26688646  1
  O2-  O139  1  0.49795179  0.24844896  0.60288213  1
  O2-  O140  1  0.51076451  0.25309502  0.93927132  1
  O2-  O141  1  0.50797524  0.75669454  0.27014984  1
  O2-  O142  1  0.50075667  0.75191089  0.61235607  1
  O2-  O143  1  0.50720693  0.74982592  0.93745754  1
  O2-  O144  1  0.07208228  0.17984930  0.09986075  1
  O2-  O145  1  0.07317647  0.18281637  0.42594783  1
  O2-  O146  1  0.06794492  0.17487752  0.75468009  1
  O2-  O147  1  0.06967432  0.67909432  0.09540280  1
  O2-  O148  1  0.06933369  0.67543464  0.43311574  1
  O2-  O149  1  0.07188888  0.68119546  0.75642004  1
  O2-  O150  1  0.56903637  0.17780157  0.08946593  1
  O2-  O151  1  0.57410308  0.18430894  0.42988110  1
  O2-  O152  1  0.57271672  0.17917660  0.76563890  1
  O2-  O153  1  0.56921330  0.67759134  0.08779464  1
  O2-  O154  1  0.56621563  0.67178643  0.43265430  1
  O2-  O155  1  0.57203900  0.68109803  0.76000393  1
  O2-  O156  1  0.17532894  0.42628888  0.24103966  1
  O2-  O157  1  0.17466103  0.43251132  0.56901558  1
  O2-  O158  1  0.17941232  0.42957877  0.91079874  1
  O2-  O159  1  0.17928085  0.92839180  0.24114845  1
  O2-  O160  1  0.18276929  0.93146632  0.56685820  1
  O2-  O161  1  0.17877494  0.92859856  0.91075583  1
  O2-  O162  1  0.67983321  0.43265444  0.24277869  1
  O2-  O163  1  0.68129503  0.43314774  0.56463446  1
  O2-  O164  1  0.67939344  0.42904000  0.90352057  1
  O2-  O165  1  0.67938075  0.92982105  0.23607731  1
  O2-  O166  1  0.67720707  0.92021429  0.57822792  1
  O2-  O167  1  0.67994257  0.93236430  0.89983572  1
  O2-  O168  1  0.42671624  0.31800023  0.09724509  1
  O2-  O169  1  0.42701313  0.32245249  0.43176961  1
  O2-  O170  1  0.43406504  0.32369873  0.76528257  1
  O2-  O171  1  0.42932761  0.82336134  0.09734908  1
  O2-  O172  1  0.42508187  0.81558369  0.43471079  1
  O2-  O173  1  0.42836464  0.82078902  0.75826032  1
  O2-  O174  1  0.92980921  0.32228745  0.09088959  1
  O2-  O175  1  0.92874683  0.32635566  0.42258586  1
  O2-  O176  1  0.92908573  0.31643190  0.76721648  1
  O2-  O177  1  0.92956481  0.82103073  0.08767432  1
  O2-  O178  1  0.93297804  0.82430304  0.43050492  1
  O2-  O179  1  0.92915572  0.81880400  0.76686492  1
  O2-  O180  1  0.31567039  0.07550086  0.23295253  1
  O2-  O181  1  0.32455915  0.06929887  0.57926719  1
  O2-  O182  1  0.31581867  0.06855640  0.90755270  1
  O2-  O183  1  0.31776697  0.57018353  0.24028801  1
  O2-  O184  1  0.32032789  0.57378618  0.56926037  1
  O2-  O185  1  0.31897518  0.57228394  0.91381687  1
  O2-  O186  1  0.82331440  0.07091138  0.23612422  1
  O2-  O187  1  0.82082902  0.06854630  0.56929348  1
  O2-  O188  1  0.82493504  0.07190943  0.91218594  1
  O2-  O189  1  0.82963809  0.56197024  0.24331329  1
  O2-  O190  1  0.81927332  0.57549804  0.57541151  1
  O2-  O191  1  0.82329467  0.57141663  0.91157705  1
  O2-  O192  1  0.04664489  0.08837760  0.27225601  1
  O2-  O193  1  0.04151444  0.08474120  0.60276682  1
  O2-  O194  1  0.04311997  0.08000235  0.93186698  1
  O2-  O195  1  0.03878694  0.58050985  0.26390894  1
  O2-  O196  1  0.05224911  0.58439398  0.60655494  1
  O2-  O197  1  0.04105910  0.58073311  0.92890968  1
  O2-  O198  1  0.54557353  0.07975119  0.26729629  1
  O2-  O199  1  0.54662557  0.07869840  0.59861982  1
  O2-  O200  1  0.54293349  0.08866178  0.93500656  1
  O2-  O201  1  0.53436285  0.58380740  0.26105673  1
  O2-  O202  1  0.54154751  0.58908934  0.60758187  1
  O2-  O203  1  0.54226145  0.58623255  0.93655408  1
  O2-  O204  1  0.15989830  0.21203225  0.27085828  1
  O2-  O205  1  0.16876685  0.19499441  0.60647214  1
  O2-  O206  1  0.16320309  0.21105657  0.92772938  1
  O2-  O207  1  0.16834413  0.70318561  0.26405627  1
  O2-  O208  1  0.16689618  0.70849164  0.60685198  1
  O2-  O209  1  0.16605487  0.70952608  0.92774559  1
  O2-  O210  1  0.66934825  0.21051806  0.26190601  1
  O2-  O211  1  0.67048111  0.20856853  0.59953634  1
  O2-  O212  1  0.67051144  0.19996698  0.94418398  1
  O2-  O213  1  0.67430910  0.68968937  0.26761436  1
  O2-  O214  1  0.66214336  0.70505865  0.60504291  1
  O2-  O215  1  0.66884648  0.69862239  0.93949133  1
  O2-  O216  1  0.08624717  0.45472867  0.06196309  1
  O2-  O217  1  0.08414729  0.45660214  0.39304610  1
  O2-  O218  1  0.07900615  0.45679717  0.73806922  1
  O2-  O219  1  0.08673225  0.95443671  0.06274673  1
  O2-  O220  1  0.08712372  0.95578675  0.39325850  1
  O2-  O221  1  0.08568758  0.96248507  0.73745503  1
  O2-  O222  1  0.58144288  0.46268460  0.07107324  1
  O2-  O223  1  0.58473501  0.45980208  0.39283268  1
  O2-  O224  1  0.58775448  0.46391349  0.73490605  1
  O2-  O225  1  0.58119848  0.96306657  0.06566592  1
  O2-  O226  1  0.57985185  0.95242455  0.40311034  1
  O2-  O227  1  0.58147437  0.94919501  0.72755596  1
  O2-  O228  1  0.20821446  0.33533882  0.06049676  1
  O2-  O229  1  0.20238080  0.33803672  0.39701638  1
  O2-  O230  1  0.19824968  0.32542233  0.73391423  1
  O2-  O231  1  0.20735376  0.83464158  0.06076459  1
  O2-  O232  1  0.20298891  0.83170241  0.39196987  1
  O2-  O233  1  0.21076438  0.83628310  0.73739442  1
  O2-  O234  1  0.70801303  0.33372788  0.07381672  1
  O2-  O235  1  0.70787609  0.34012666  0.39360629  1
  O2-  O236  1  0.71366052  0.33478214  0.73334086  1
  O2-  O237  1  0.70472651  0.83208239  0.06633430  1
  O2-  O238  1  0.70277971  0.82315307  0.39704796  1
  O2-  O239  1  0.70421906  0.83232797  0.73136407  1
  O2-  O240  1  0.45495720  0.41722032  0.26377499  1
  O2-  O241  1  0.45914021  0.42299887  0.60135750  1
  O2-  O242  1  0.45688988  0.42192187  0.93534904  1
  O2-  O243  1  0.45155919  0.92276316  0.27020798  1
  O2-  O244  1  0.45074157  0.91323407  0.60571590  1
  O2-  O245  1  0.45953357  0.91944749  0.92879537  1
  O2-  O246  1  0.95848981  0.41036756  0.26618974  1
  O2-  O247  1  0.95784542  0.41918143  0.59972213  1
  O2-  O248  1  0.95430065  0.41263616  0.93751571  1
  O2-  O249  1  0.95805799  0.92207902  0.26251618  1
  O2-  O250  1  0.96443264  0.91705965  0.60114097  1
  O2-  O251  1  0.95388723  0.91423555  0.93674825  1
  O2-  O252  1  0.32636189  0.29235256  0.26745256  1
  O2-  O253  1  0.32718608  0.30079340  0.60301236  1
  O2-  O254  1  0.33586110  0.28890393  0.92838856  1
  O2-  O255  1  0.33435125  0.78941528  0.26417487  1
  O2-  O256  1  0.33591234  0.79023206  0.60724693  1
  O2-  O257  1  0.33517774  0.78929913  0.93039187  1
  O2-  O258  1  0.83633711  0.29542069  0.26922505  1
  O2-  O259  1  0.83608323  0.28800943  0.59875527  1
  O2-  O260  1  0.83105117  0.29740749  0.94266307  1
  O2-  O261  1  0.83209749  0.79317903  0.26352269  1
  O2-  O262  1  0.83263517  0.79264872  0.59812811  1
  O2-  O263  1  0.83273576  0.79517231  0.93761105  1
  O2-  O264  1  0.41087352  0.04577001  0.05855298  1
  O2-  O265  1  0.41751059  0.04644280  0.40234539  1
  O2-  O266  1  0.41823992  0.04396615  0.73131707  1
  O2-  O267  1  0.41139946  0.54709855  0.06588387  1
  O2-  O268  1  0.41041763  0.54160361  0.39327281  1
  O2-  O269  1  0.41941143  0.54547535  0.73964896  1
  O2-  O270  1  0.91850364  0.04377666  0.06296295  1
  O2-  O271  1  0.92251387  0.04664569  0.40177381  1
  O2-  O272  1  0.91488446  0.03709645  0.73737428  1
  O2-  O273  1  0.91685246  0.54163518  0.06331585  1
  O2-  O274  1  0.91260286  0.53457974  0.39847252  1
  O2-  O275  1  0.91788786  0.55372592  0.72504765  1
  O2-  O276  1  0.28666772  0.16297913  0.05817724  1
  O2-  O277  1  0.28345823  0.16556223  0.40398105  1
  O2-  O278  1  0.30234502  0.16694020  0.72937096  1
  O2-  O279  1  0.28765741  0.66422167  0.06401075  1
  O2-  O280  1  0.29189042  0.66201371  0.39380207  1
  O2-  O281  1  0.29092972  0.66716612  0.73988118  1
  O2-  O282  1  0.80370516  0.16548978  0.06480597  1
  O2-  O283  1  0.79333857  0.17172653  0.40020394  1
  O2-  O284  1  0.79023778  0.16526366  0.73780023  1
  O2-  O285  1  0.80168719  0.66540434  0.06388492  1
  O2-  O286  1  0.80363763  0.66319885  0.39214623  1
  O2-  O287  1  0.79397626  0.66708230  0.72907125  1
