# generated using pymatgen
data_Ca2Al2SiO7
_symmetry_space_group_name_H-M   'P 1'
_cell_length_a   15.46338792
_cell_length_b   15.46356285
_cell_length_c   15.28725324
_cell_angle_alpha   90.00887845
_cell_angle_beta   90.00590992
_cell_angle_gamma   89.98068964
_symmetry_Int_Tables_number   1
_chemical_formula_structural   Ca2Al2SiO7
_chemical_formula_sum   'Ca48 Al48 Si24 O168'
_cell_volume   3655.47352013
_cell_formula_units_Z   24
loop_
 _symmetry_equiv_pos_site_id
 _symmetry_equiv_pos_as_xyz
  1  'x, y, z'
loop_
 _atom_type_symbol
 _atom_type_oxidation_number
  Ca2+  2.0
  Al0+  0.0
  Si0+  0.0
  O2-  -2.0
loop_
 _atom_site_type_symbol
 _atom_site_label
 _atom_site_symmetry_multiplicity
 _atom_site_fract_x
 _atom_site_fract_y
 _atom_site_fract_z
 _atom_site_occupancy
  Ca2+  Ca0  1  0.16812433  0.07700264  0.17496797  1
  Ca2+  Ca1  1  0.16986811  0.08151905  0.49786936  1
  Ca2+  Ca2  1  0.16674218  0.07712556  0.84337767  1
  Ca2+  Ca3  1  0.16869954  0.57468003  0.16643175  1
  Ca2+  Ca4  1  0.17215904  0.57898545  0.51422032  1
  Ca2+  Ca5  1  0.17303178  0.57615760  0.83022409  1
  Ca2+  Ca6  1  0.66409123  0.08007765  0.17228778  1
  Ca2+  Ca7  1  0.65561725  0.07214059  0.50675259  1
  Ca2+  Ca8  1  0.65694377  0.08339569  0.83384411  1
  Ca2+  Ca9  1  0.67008156  0.58503547  0.17069832  1
  Ca2+  Ca10  1  0.67853166  0.59034177  0.50868815  1
  Ca2+  Ca11  1  0.66958860  0.59383463  0.83503428  1
  Ca2+  Ca12  1  0.08245560  0.32056695  0.15717314  1
  Ca2+  Ca13  1  0.08050135  0.33453203  0.49871348  1
  Ca2+  Ca14  1  0.07752011  0.34359108  0.83044389  1
  Ca2+  Ca15  1  0.08660505  0.83758728  0.16216294  1
  Ca2+  Ca16  1  0.08803308  0.82571181  0.49614494  1
  Ca2+  Ca17  1  0.08561095  0.82712819  0.82631882  1
  Ca2+  Ca18  1  0.57540079  0.32505704  0.15389251  1
  Ca2+  Ca19  1  0.57810540  0.33233316  0.50265543  1
  Ca2+  Ca20  1  0.57351543  0.32487169  0.82702740  1
  Ca2+  Ca21  1  0.57280960  0.83457020  0.16153553  1
  Ca2+  Ca22  1  0.57683782  0.83505629  0.50034491  1
  Ca2+  Ca23  1  0.57354884  0.82729903  0.82648673  1
  Ca2+  Ca24  1  0.32880647  0.40845114  0.16622409  1
  Ca2+  Ca25  1  0.32650780  0.42188315  0.51499086  1
  Ca2+  Ca26  1  0.32953110  0.41310989  0.83737650  1
  Ca2+  Ca27  1  0.32859756  0.91974731  0.17346676  1
  Ca2+  Ca28  1  0.33887471  0.91969734  0.50149376  1
  Ca2+  Ca29  1  0.33258757  0.91281655  0.83871696  1
  Ca2+  Ca30  1  0.83467613  0.42017323  0.16878667  1
  Ca2+  Ca31  1  0.83576193  0.42522222  0.50902206  1
  Ca2+  Ca32  1  0.83754086  0.41643979  0.83427394  1
  Ca2+  Ca33  1  0.82369997  0.92002144  0.17489640  1
  Ca2+  Ca34  1  0.81794887  0.91670590  0.50733331  1
  Ca2+  Ca35  1  0.82398678  0.91679554  0.83446858  1
  Ca2+  Ca36  1  0.41911969  0.16641963  0.16103750  1
  Ca2+  Ca37  1  0.41505614  0.16799073  0.50189890  1
  Ca2+  Ca38  1  0.42205231  0.17515890  0.83022716  1
  Ca2+  Ca39  1  0.42092768  0.68028135  0.15764681  1
  Ca2+  Ca40  1  0.41247480  0.67805145  0.49855036  1
  Ca2+  Ca41  1  0.42061414  0.67527801  0.82317653  1
  Ca2+  Ca42  1  0.92824727  0.16897181  0.15758149  1
  Ca2+  Ca43  1  0.92315895  0.17259838  0.49680150  1
  Ca2+  Ca44  1  0.92425279  0.17828917  0.83023435  1
  Ca2+  Ca45  1  0.91562356  0.66676943  0.16602781  1
  Ca2+  Ca46  1  0.92062272  0.65792766  0.50050990  1
  Ca2+  Ca47  1  0.92405369  0.66303103  0.82475271  1
  Al0+  Al48  1  -0.00227218  -0.00006300  0.00020981  1
  Al0+  Al49  1  -0.00025692  -0.00144136  0.33438313  1
  Al0+  Al50  1  -0.00182074  0.00084851  0.66670211  1
  Al0+  Al51  1  0.00136148  0.50107628  0.00418850  1
  Al0+  Al52  1  -0.00025742  0.50035255  0.33424364  1
  Al0+  Al53  1  -0.00011241  0.50057913  0.66577872  1
  Al0+  Al54  1  0.49882576  -0.00205459  -0.00514630  1
  Al0+  Al55  1  0.49824615  0.00051553  0.33621493  1
  Al0+  Al56  1  0.49856070  -0.00061742  0.66689513  1
  Al0+  Al57  1  0.50318739  0.50146731  -0.00352828  1
  Al0+  Al58  1  0.50031937  0.49996844  0.33187193  1
  Al0+  Al59  1  0.50289335  0.50094216  0.66226906  1
  Al0+  Al60  1  0.25017237  0.24777419  -0.00099188  1
  Al0+  Al61  1  0.24842426  0.24850919  0.33394296  1
  Al0+  Al62  1  0.24865910  0.24766728  0.66868304  1
  Al0+  Al63  1  0.24862201  0.74890874  0.00194948  1
  Al0+  Al64  1  0.24950511  0.74875100  0.32879759  1
  Al0+  Al65  1  0.24891794  0.74882869  0.66210214  1
  Al0+  Al66  1  0.75233358  0.25082548  -0.00438553  1
  Al0+  Al67  1  0.74907930  0.25219922  0.33322448  1
  Al0+  Al68  1  0.75285220  0.24974549  0.65717220  1
  Al0+  Al69  1  0.75151488  0.75159685  0.00067179  1
  Al0+  Al70  1  0.75200441  0.74925552  0.34099696  1
  Al0+  Al71  1  0.74945114  0.75274932  0.67456652  1
  Al0+  Al72  1  0.42748174  0.32233360  0.98655214  1
  Al0+  Al73  1  0.57442254  0.67879466  0.65047118  1
  Al0+  Al74  1  0.07157171  0.17633622  0.98469142  1
  Al0+  Al75  1  0.06839770  0.68078169  0.65352245  1
  Al0+  Al76  1  0.32439971  0.57256453  0.68039764  1
  Al0+  Al77  1  0.18030102  0.42870760  0.01530910  1
  Al0+  Al78  1  0.67781947  0.93197339  0.68410377  1
  Al0+  Al79  1  0.42935943  0.82118173  0.31737538  1
  Al0+  Al80  1  0.93171122  0.32111022  0.65104184  1
  Al0+  Al81  1  0.17744095  0.92655899  0.34974288  1
  Al0+  Al82  1  0.18006419  0.42767915  0.68135478  1
  Al0+  Al83  1  0.93158438  0.32306343  0.98535187  1
  Al0+  Al84  1  0.57442122  0.68011059  0.98663705  1
  Al0+  Al85  1  0.42648339  0.81914602  0.98473508  1
  Al0+  Al86  1  0.82024337  0.56854459  0.34759987  1
  Al0+  Al87  1  0.42646650  0.32191215  0.65117095  1
  Al0+  Al88  1  0.57027846  0.17943403  0.64981908  1
  Al0+  Al89  1  0.42781432  0.81965332  0.64962193  1
  Al0+  Al90  1  0.32014986  0.07170057  0.34963114  1
  Al0+  Al91  1  0.81932992  0.56999119  0.68289451  1
  Al0+  Al92  1  0.06971353  0.17861904  0.31969591  1
  Al0+  Al93  1  0.67906970  0.93123290  0.34658226  1
  Al0+  Al94  1  0.57251191  0.17757478  0.98663390  1
  Al0+  Al95  1  0.17761894  0.92792308  0.01252842  1
  Si0+  Si96  1  0.82374102  0.07376806  0.68439796  1
  Si0+  Si97  1  0.67942225  0.42754712  0.01379582  1
  Si0+  Si98  1  0.92824587  0.82165562  0.98661079  1
  Si0+  Si99  1  0.92805577  0.81944346  0.31939913  1
  Si0+  Si100  1  0.32273662  0.06999785  0.01563425  1
  Si0+  Si101  1  0.82120592  0.57171022  0.01607161  1
  Si0+  Si102  1  0.18059082  0.42933242  0.34738887  1
  Si0+  Si103  1  0.67949563  0.92985121  0.01553435  1
  Si0+  Si104  1  0.32425177  0.57180033  0.01715592  1
  Si0+  Si105  1  0.57053482  0.17971920  0.31935011  1
  Si0+  Si106  1  0.92819975  0.32344172  0.31583386  1
  Si0+  Si107  1  0.92754834  0.82421764  0.65038062  1
  Si0+  Si108  1  0.31976838  0.06992319  0.68401026  1
  Si0+  Si109  1  0.32168927  0.57069632  0.34556728  1
  Si0+  Si110  1  0.07248747  0.17385107  0.64891294  1
  Si0+  Si111  1  0.67906011  0.42499548  0.68333950  1
  Si0+  Si112  1  0.07088243  0.67760199  0.31588455  1
  Si0+  Si113  1  0.06959314  0.67908129  0.98686519  1
  Si0+  Si114  1  0.82239082  0.07431203  0.34945809  1
  Si0+  Si115  1  0.82023621  0.07251322  0.01489465  1
  Si0+  Si116  1  0.57442040  0.67851364  0.31752747  1
  Si0+  Si117  1  0.42845313  0.32246948  0.31890136  1
  Si0+  Si118  1  0.17732947  0.92889505  0.68014042  1
  Si0+  Si119  1  0.67552827  0.42673001  0.35026631  1
  O2-  O120  1  0.25183394  0.00281774  0.05914306  1
  O2-  O121  1  0.25018883  -0.00279005  0.40007804  1
  O2-  O122  1  0.24741908  -0.00091348  0.72410409  1
  O2-  O123  1  0.25969627  0.49894918  0.06301562  1
  O2-  O124  1  0.25268250  0.49870059  0.38890183  1
  O2-  O125  1  0.25847797  0.49415109  0.72976193  1
  O2-  O126  1  0.74629909  0.00472359  0.05843794  1
  O2-  O127  1  0.75151880  0.00852864  0.39385915  1
  O2-  O128  1  0.75175295  0.00898210  0.72951255  1
  O2-  O129  1  0.74893784  0.50103068  0.05654583  1
  O2-  O130  1  0.74497278  0.49477378  0.39366595  1
  O2-  O131  1  0.74270521  0.49765176  0.72985036  1
  O2-  O132  1  -0.00759043  0.25083406  0.27246535  1
  O2-  O133  1  0.00697467  0.24621798  0.60590130  1
  O2-  O134  1  0.00622226  0.25421287  0.93486647  1
  O2-  O135  1  0.00173928  0.75159407  0.27508789  1
  O2-  O136  1  -0.00492148  0.75576478  0.60455625  1
  O2-  O137  1  0.00271814  0.75437717  0.94560417  1
  O2-  O138  1  0.50106202  0.25235525  0.27752375  1
  O2-  O139  1  0.49924678  0.25183080  0.59867308  1
  O2-  O140  1  0.50067322  0.25048385  0.93901172  1
  O2-  O141  1  0.50554716  0.74634652  0.27259781  1
  O2-  O142  1  0.49883182  0.74627356  0.59956956  1
  O2-  O143  1  0.49727974  0.74551807  0.93665362  1
  O2-  O144  1  0.06736661  0.17551343  0.09860301  1
  O2-  O145  1  0.06899706  0.18269823  0.43274464  1
  O2-  O146  1  0.06946536  0.16736015  0.75377666  1
  O2-  O147  1  0.06682349  0.67770157  0.09243597  1
  O2-  O148  1  0.06989574  0.67494186  0.42061008  1
  O2-  O149  1  0.06785349  0.68291268  0.76709643  1
  O2-  O150  1  0.57254899  0.17820169  0.10131024  1
  O2-  O151  1  0.57145387  0.18075242  0.42368252  1
  O2-  O152  1  0.56796916  0.18083913  0.76327593  1
  O2-  O153  1  0.57720719  0.68447179  0.10096492  1
  O2-  O154  1  0.57423451  0.67789728  0.42234487  1
  O2-  O155  1  0.57546537  0.68498308  0.76385762  1
  O2-  O156  1  0.18041247  0.43008405  0.24216758  1
  O2-  O157  1  0.17878219  0.43069217  0.56676396  1
  O2-  O158  1  0.17619600  0.43480892  0.90334994  1
  O2-  O159  1  0.17795863  0.92842375  0.23595585  1
  O2-  O160  1  0.17558797  0.93073790  0.57542212  1
  O2-  O161  1  0.17649352  0.92751526  0.89915899  1
  O2-  O162  1  0.67515761  0.42592541  0.24436280  1
  O2-  O163  1  0.68395448  0.42395626  0.57735258  1
  O2-  O164  1  0.68119338  0.42515417  0.90959171  1
  O2-  O165  1  0.68108786  0.93243361  0.23267507  1
  O2-  O166  1  0.67999824  0.93264337  0.57061691  1
  O2-  O167  1  0.68321156  0.92815758  0.91115918  1
  O2-  O168  1  0.43027358  0.31981816  0.10136065  1
  O2-  O169  1  0.42882114  0.32489401  0.42331474  1
  O2-  O170  1  0.42596688  0.31755226  0.76438674  1
  O2-  O171  1  0.42891328  0.82094185  0.09881841  1
  O2-  O172  1  0.42902927  0.81958335  0.42974347  1
  O2-  O173  1  0.42648623  0.82003344  0.76299596  1
  O2-  O174  1  0.93044415  0.32140811  0.09944320  1
  O2-  O175  1  0.93063056  0.32548440  0.42118101  1
  O2-  O176  1  0.93262396  0.32096557  0.76387096  1
  O2-  O177  1  0.92452872  0.81918256  0.09197225  1
  O2-  O178  1  0.92677415  0.81766522  0.42385369  1
  O2-  O179  1  0.93155359  0.82542549  0.75649828  1
  O2-  O180  1  0.32042472  0.07311449  0.23593562  1
  O2-  O181  1  0.31912686  0.07055169  0.57891793  1
  O2-  O182  1  0.32329184  0.06792577  0.91008821  1
  O2-  O183  1  0.32046187  0.56900190  0.24037329  1
  O2-  O184  1  0.31710955  0.57397268  0.56599659  1
  O2-  O185  1  0.32036666  0.57436686  0.91236898  1
  O2-  O186  1  0.82094935  0.07265619  0.24333683  1
  O2-  O187  1  0.82782699  0.06928344  0.57879852  1
  O2-  O188  1  0.82242154  0.06970557  0.91040696  1
  O2-  O189  1  0.82025112  0.56833244  0.23376616  1
  O2-  O190  1  0.82084030  0.56781205  0.56961561  1
  O2-  O191  1  0.82326423  0.57389516  0.91169210  1
  O2-  O192  1  0.04106504  0.08030547  0.26734695  1
  O2-  O193  1  0.04170322  0.08262970  0.59962457  1
  O2-  O194  1  0.03634176  0.08017644  0.93117821  1
  O2-  O195  1  0.03849219  0.58706272  0.26733662  1
  O2-  O196  1  0.03582267  0.58604089  0.59771490  1
  O2-  O197  1  0.03613598  0.59018469  0.93921383  1
  O2-  O198  1  0.54173691  0.08861908  0.27156643  1
  O2-  O199  1  0.53703847  0.08203699  0.59861290  1
  O2-  O200  1  0.54441941  0.08009783  0.93343216  1
  O2-  O201  1  0.54999718  0.58373249  0.27134755  1
  O2-  O202  1  0.55878383  0.57730422  0.59943168  1
  O2-  O203  1  0.55810329  0.57878224  0.93689779  1
  O2-  O204  1  0.16557151  0.21176930  0.26534187  1
  O2-  O205  1  0.16707564  0.19616366  0.60488294  1
  O2-  O206  1  0.17247017  0.19521655  0.93610272  1
  O2-  O207  1  0.16231225  0.70176304  0.26620933  1
  O2-  O208  1  0.16300461  0.71123798  0.59620863  1
  O2-  O209  1  0.16206315  0.70285438  0.94047479  1
  O2-  O210  1  0.66370291  0.20515261  0.27165383  1
  O2-  O211  1  0.66968049  0.20263288  0.59635466  1
  O2-  O212  1  0.67072254  0.20412343  0.93403695  1
  O2-  O213  1  0.66935456  0.70416365  0.27368286  1
  O2-  O214  1  0.67276579  0.71401790  0.60017154  1
  O2-  O215  1  0.67143794  0.71324576  0.93381306  1
  O2-  O216  1  0.08590958  0.46556906  0.07230950  1
  O2-  O217  1  0.08885349  0.45916192  0.39336797  1
  O2-  O218  1  0.08450579  0.46537651  0.73329330  1
  O2-  O219  1  0.07919954  0.95639727  0.06603206  1
  O2-  O220  1  0.07789232  0.95269635  0.40188368  1
  O2-  O221  1  0.08455559  0.95526904  0.72755967  1
  O2-  O222  1  0.58768108  0.45324983  0.06385970  1
  O2-  O223  1  0.58165543  0.45180050  0.39595910  1
  O2-  O224  1  0.58281078  0.44374918  0.72548192  1
  O2-  O225  1  0.58582166  0.95457031  0.06077383  1
  O2-  O226  1  0.58349430  0.96166452  0.40093439  1
  O2-  O227  1  0.58103139  0.96237180  0.73744816  1
  O2-  O228  1  0.20770553  0.32995821  0.06850416  1
  O2-  O229  1  0.20611763  0.33768932  0.39470768  1
  O2-  O230  1  0.19921023  0.32656460  0.73268034  1
  O2-  O231  1  0.20458288  0.83036036  0.06775649  1
  O2-  O232  1  0.20306783  0.82518040  0.39760933  1
  O2-  O233  1  0.20440608  0.83651989  0.72598267  1
  O2-  O234  1  0.71024293  0.33694179  0.06370449  1
  O2-  O235  1  0.69986013  0.33294515  0.39689696  1
  O2-  O236  1  0.71097108  0.33223987  0.72754443  1
  O2-  O237  1  0.71398013  0.84066355  0.06501234  1
  O2-  O238  1  0.71324929  0.83654850  0.40123556  1
  O2-  O239  1  0.71304194  0.83854382  0.74102478  1
  O2-  O240  1  0.45474079  0.41414653  0.26931002  1
  O2-  O241  1  0.45274773  0.42074627  0.59792277  1
  O2-  O242  1  0.45419292  0.42100395  0.93538975  1
  O2-  O243  1  0.46067321  0.91885664  0.26551318  1
  O2-  O244  1  0.45897724  0.91775592  0.59859525  1
  O2-  O245  1  0.45545980  0.91622038  0.93136607  1
  O2-  O246  1  0.95778349  0.41575209  0.26892528  1
  O2-  O247  1  0.96405284  0.41653024  0.59609630  1
  O2-  O248  1  0.95837610  0.42311845  0.93520875  1
  O2-  O249  1  0.95124598  0.91241904  0.27145088  1
  O2-  O250  1  0.95176749  0.91766869  0.60343992  1
  O2-  O251  1  0.95066875  0.91381935  0.93878973  1
  O2-  O252  1  0.33685092  0.29274410  0.27233308  1
  O2-  O253  1  0.32772123  0.29056014  0.59915027  1
  O2-  O254  1  0.32971682  0.29474163  0.93422683  1
  O2-  O255  1  0.33305668  0.78834397  0.26298141  1
  O2-  O256  1  0.32945489  0.79296546  0.59559920  1
  O2-  O257  1  0.32692400  0.79210936  0.93393613  1
  O2-  O258  1  0.83169450  0.30342071  0.27240521  1
  O2-  O259  1  0.83728619  0.29108014  0.59255653  1
  O2-  O260  1  0.83450233  0.29383711  0.93169765  1
  O2-  O261  1  0.83767425  0.78750452  0.27006728  1
  O2-  O262  1  0.83339719  0.79848312  0.60795574  1
  O2-  O263  1  0.83918747  0.79009487  0.93680969  1
  O2-  O264  1  0.41602967  0.04191358  0.06273249  1
  O2-  O265  1  0.41844918  0.04532698  0.40319315  1
  O2-  O266  1  0.41055581  0.04077441  0.73140283  1
  O2-  O267  1  0.42051756  0.55256496  0.06131614  1
  O2-  O268  1  0.41485955  0.54661223  0.39162048  1
  O2-  O269  1  0.42669904  0.55399770  0.72822999  1
  O2-  O270  1  0.90944471  0.03980837  0.06537379  1
  O2-  O271  1  0.91467524  0.04657307  0.39579222  1
  O2-  O272  1  0.91545388  0.04400715  0.73331395  1
  O2-  O273  1  0.91155039  0.54320675  0.06659143  1
  O2-  O274  1  0.91740226  0.53768123  0.40123752  1
  O2-  O275  1  0.91566342  0.53698732  0.73560900  1
  O2-  O276  1  0.30133540  0.16444001  0.06176274  1
  O2-  O277  1  0.28844461  0.16921338  0.40389696  1
  O2-  O278  1  0.29237348  0.16096145  0.73266233  1
  O2-  O279  1  0.29131247  0.66246307  0.06648010  1
  O2-  O280  1  0.29103805  0.66154130  0.39184645  1
  O2-  O281  1  0.28602422  0.66830005  0.73352627  1
  O2-  O282  1  0.79619229  0.16523962  0.06294477  1
  O2-  O283  1  0.80064150  0.16997798  0.39304775  1
  O2-  O284  1  0.80164814  0.16962427  0.72603502  1
  O2-  O285  1  0.79348064  0.66388858  0.06478237  1
  O2-  O286  1  0.79412256  0.66495670  0.40356760  1
  O2-  O287  1  0.79444097  0.66806687  0.73731647  1
