# generated using pymatgen
data_Ca2Al2SiO7
_symmetry_space_group_name_H-M   'P 1'
_cell_length_a   15.45689423
_cell_length_b   15.45725063
_cell_length_c   15.28296759
_cell_angle_alpha   89.98819789
_cell_angle_beta   90.01337531
_cell_angle_gamma   90.02379417
_symmetry_Int_Tables_number   1
_chemical_formula_structural   Ca2Al2SiO7
_chemical_formula_sum   'Ca48 Al48 Si24 O168'
_cell_volume   3651.42275539
_cell_formula_units_Z   24
loop_
 _symmetry_equiv_pos_site_id
 _symmetry_equiv_pos_as_xyz
  1  'x, y, z'
loop_
 _atom_type_symbol
 _atom_type_oxidation_number
  Ca2+  2.0
  Al0+  0.0
  Si0+  0.0
  O2-  -2.0
loop_
 _atom_site_type_symbol
 _atom_site_label
 _atom_site_symmetry_multiplicity
 _atom_site_fract_x
 _atom_site_fract_y
 _atom_site_fract_z
 _atom_site_occupancy
  Ca2+  Ca0  1  0.16810597  0.06882565  0.16839601  1
  Ca2+  Ca1  1  0.16768896  0.07697082  0.50683803  1
  Ca2+  Ca2  1  0.17414643  0.08340278  0.84072457  1
  Ca2+  Ca3  1  0.16243135  0.57737363  0.17613187  1
  Ca2+  Ca4  1  0.16950465  0.58235491  0.50726487  1
  Ca2+  Ca5  1  0.16216723  0.57807535  0.83730662  1
  Ca2+  Ca6  1  0.67430844  0.07606174  0.17191622  1
  Ca2+  Ca7  1  0.67047712  0.07163908  0.51179815  1
  Ca2+  Ca8  1  0.67433455  0.08286314  0.83304586  1
  Ca2+  Ca9  1  0.67684762  0.59830989  0.17104656  1
  Ca2+  Ca10  1  0.67350869  0.58646831  0.50263400  1
  Ca2+  Ca11  1  0.67043876  0.57968690  0.83935333  1
  Ca2+  Ca12  1  0.08655244  0.33798922  0.16259619  1
  Ca2+  Ca13  1  0.09687851  0.32829810  0.50081557  1
  Ca2+  Ca14  1  0.08520674  0.33133363  0.82555024  1
  Ca2+  Ca15  1  0.08828564  0.82371006  0.16370871  1
  Ca2+  Ca16  1  0.07925782  0.82369266  0.48972664  1
  Ca2+  Ca17  1  0.08909526  0.82337724  0.82906925  1
  Ca2+  Ca18  1  0.57761257  0.33267507  0.16117195  1
  Ca2+  Ca19  1  0.58801327  0.32870614  0.50009555  1
  Ca2+  Ca20  1  0.58209125  0.32748914  0.82135944  1
  Ca2+  Ca21  1  0.58636733  0.82521829  0.16647540  1
  Ca2+  Ca22  1  0.58350879  0.83348770  0.49173274  1
  Ca2+  Ca23  1  0.58492893  0.83101642  0.83011631  1
  Ca2+  Ca24  1  0.32112875  0.42311546  0.17281161  1
  Ca2+  Ca25  1  0.32524288  0.43026824  0.50339733  1
  Ca2+  Ca26  1  0.32095025  0.41967670  0.83274967  1
  Ca2+  Ca27  1  0.32232707  0.91345673  0.16580706  1
  Ca2+  Ca28  1  0.32610653  0.91686033  0.50382825  1
  Ca2+  Ca29  1  0.32828314  0.92831368  0.83706460  1
  Ca2+  Ca30  1  0.83461388  0.43370433  0.16994067  1
  Ca2+  Ca31  1  0.82944810  0.42404612  0.50257013  1
  Ca2+  Ca32  1  0.82766965  0.41956523  0.83553168  1
  Ca2+  Ca33  1  0.83273891  0.91594522  0.17315565  1
  Ca2+  Ca34  1  0.82372065  0.91190999  0.50318138  1
  Ca2+  Ca35  1  0.83364522  0.92705041  0.83367871  1
  Ca2+  Ca36  1  0.41407733  0.16616733  0.16132217  1
  Ca2+  Ca37  1  0.41981427  0.16282667  0.50069174  1
  Ca2+  Ca38  1  0.41720898  0.16383187  0.82278184  1
  Ca2+  Ca39  1  0.42760121  0.65857369  0.16415819  1
  Ca2+  Ca40  1  0.42070061  0.65977831  0.49424674  1
  Ca2+  Ca41  1  0.41892607  0.66622665  0.82872167  1
  Ca2+  Ca42  1  0.91637601  0.16915466  0.16112444  1
  Ca2+  Ca43  1  0.91804633  0.16661926  0.50154020  1
  Ca2+  Ca44  1  0.92036519  0.16329017  0.82383357  1
  Ca2+  Ca45  1  0.92146420  0.66944313  0.16377448  1
  Ca2+  Ca46  1  0.92593291  0.66877836  0.49027012  1
  Ca2+  Ca47  1  0.92734941  0.66180304  0.83155756  1
  Al0+  Al48  1  -0.00038287  0.00031843  0.00733270  1
  Al0+  Al49  1  0.00093258  0.00197908  0.33371243  1
  Al0+  Al50  1  -0.00173916  -0.00122775  0.66412295  1
  Al0+  Al51  1  -0.00293069  0.49989038  0.00225091  1
  Al0+  Al52  1  -0.00203442  0.49653311  0.33935702  1
  Al0+  Al53  1  -0.00035022  0.49957990  0.66402307  1
  Al0+  Al54  1  0.50107932  0.00018579  0.00326588  1
  Al0+  Al55  1  0.50210253  -0.00033602  0.33276261  1
  Al0+  Al56  1  0.49921458  -0.00160668  0.66920751  1
  Al0+  Al57  1  0.49842588  0.49724034  -0.00760228  1
  Al0+  Al58  1  0.49903736  0.49667905  0.33013938  1
  Al0+  Al59  1  0.49965749  0.49990916  0.67283766  1
  Al0+  Al60  1  0.25006782  0.25141013  0.00697386  1
  Al0+  Al61  1  0.25192723  0.25040519  0.33432268  1
  Al0+  Al62  1  0.25032250  0.25211744  0.66692132  1
  Al0+  Al63  1  0.25270512  0.74954807  -0.00275771  1
  Al0+  Al64  1  0.25168252  0.75124761  0.33647019  1
  Al0+  Al65  1  0.25261692  0.74980794  0.66552337  1
  Al0+  Al66  1  0.74884645  0.25013888  0.00423517  1
  Al0+  Al67  1  0.75152800  0.24982733  0.32947010  1
  Al0+  Al68  1  0.74977107  0.25027901  0.66724379  1
  Al0+  Al69  1  0.75056495  0.75059447  -0.00439769  1
  Al0+  Al70  1  0.75065511  0.75143508  0.33538215  1
  Al0+  Al71  1  0.74984010  0.75013648  0.67224120  1
  Al0+  Al72  1  0.81832546  0.57080773  0.01270104  1
  Al0+  Al73  1  0.82176630  0.07073257  0.68002195  1
  Al0+  Al74  1  0.32276561  0.57171339  0.34609460  1
  Al0+  Al75  1  0.57167040  0.67938972  0.98405184  1
  Al0+  Al76  1  0.17898159  0.92633824  0.01368349  1
  Al0+  Al77  1  0.67949317  0.42953995  0.67855755  1
  Al0+  Al78  1  0.07204227  0.67747950  0.31890613  1
  Al0+  Al79  1  0.07086098  0.67853950  0.98663606  1
  Al0+  Al80  1  0.81899961  0.57165702  0.34730510  1
  Al0+  Al81  1  0.07226265  0.17871254  0.65453099  1
  Al0+  Al82  1  0.17795107  0.43074066  0.68265824  1
  Al0+  Al83  1  0.67722877  0.92696519  0.68387178  1
  Al0+  Al84  1  0.07126457  0.67921494  0.65225336  1
  Al0+  Al85  1  0.32246787  0.07218879  0.01552759  1
  Al0+  Al86  1  0.17824498  0.43183463  0.01385256  1
  Al0+  Al87  1  0.17735868  0.42865467  0.35018983  1
  Al0+  Al88  1  0.92904398  0.82189661  0.31834748  1
  Al0+  Al89  1  0.57070284  0.17843450  0.65293276  1
  Al0+  Al90  1  0.82088122  0.07214413  0.01513077  1
  Al0+  Al91  1  0.17837517  0.92894290  0.34847692  1
  Al0+  Al92  1  0.56950543  0.67852502  0.32219425  1
  Al0+  Al93  1  0.31876394  0.07052293  0.67749157  1
  Al0+  Al94  1  0.68103587  0.93036820  0.34614990  1
  Al0+  Al95  1  0.32143575  0.57386211  0.68415090  1
  Si0+  Si96  1  0.92689060  0.31970010  0.31640270  1
  Si0+  Si97  1  0.92771150  0.32079687  0.98546720  1
  Si0+  Si98  1  0.92656389  0.82166072  0.65037833  1
  Si0+  Si99  1  0.42715863  0.31856506  0.98252220  1
  Si0+  Si100  1  0.67876515  0.92798601  0.01780082  1
  Si0+  Si101  1  0.57161838  0.67787165  0.65252232  1
  Si0+  Si102  1  0.06983240  0.17982317  0.98777847  1
  Si0+  Si103  1  0.92829557  0.82453627  0.98187179  1
  Si0+  Si104  1  0.42843461  0.32307528  0.64802015  1
  Si0+  Si105  1  0.42802440  0.82516870  0.31587112  1
  Si0+  Si106  1  0.92698851  0.32204614  0.64910534  1
  Si0+  Si107  1  0.67538540  0.42810842  0.01675533  1
  Si0+  Si108  1  0.07323958  0.18051531  0.31693338  1
  Si0+  Si109  1  0.82207101  0.57237731  0.68390237  1
  Si0+  Si110  1  0.32230226  0.07163595  0.35015080  1
  Si0+  Si111  1  0.67724787  0.42529123  0.34726951  1
  Si0+  Si112  1  0.43073001  0.82083416  0.65102418  1
  Si0+  Si113  1  0.42936806  0.31881911  0.31658048  1
  Si0+  Si114  1  0.82252730  0.07527746  0.35081257  1
  Si0+  Si115  1  0.57206170  0.17781571  0.31692580  1
  Si0+  Si116  1  0.42876900  0.82356220  0.98138952  1
  Si0+  Si117  1  0.17665340  0.92762653  0.68143153  1
  Si0+  Si118  1  0.32387444  0.57167930  0.01573816  1
  Si0+  Si119  1  0.57146687  0.17900903  0.98492461  1
  O2-  O120  1  0.25157359  -0.00129898  0.06358560  1
  O2-  O121  1  0.25444553  0.00296083  0.39448830  1
  O2-  O122  1  0.23942524  0.00189612  0.72540223  1
  O2-  O123  1  0.24940384  0.50989883  0.06018624  1
  O2-  O124  1  0.24349218  0.50780370  0.39662390  1
  O2-  O125  1  0.24568762  0.50580628  0.73379771  1
  O2-  O126  1  0.74826612  -0.00405016  0.06193776  1
  O2-  O127  1  0.75570885  0.00459168  0.39319219  1
  O2-  O128  1  0.74942107  -0.00003387  0.73149682  1
  O2-  O129  1  0.73923358  0.50064981  0.06101297  1
  O2-  O130  1  0.74158636  0.49767993  0.39121388  1
  O2-  O131  1  0.75241914  0.50424096  0.72736157  1
  O2-  O132  1  0.00153627  0.25153310  0.27509973  1
  O2-  O133  1  -0.00221025  0.25401239  0.60656458  1
  O2-  O134  1  -0.00265547  0.24838727  0.94362348  1
  O2-  O135  1  0.00220161  0.75130344  0.26738856  1
  O2-  O136  1  -0.00383042  0.75389397  0.60683253  1
  O2-  O137  1  -0.00094245  0.75681932  0.93902326  1
  O2-  O138  1  0.50089339  0.24795507  0.27359423  1
  O2-  O139  1  0.49692167  0.25342346  0.60373321  1
  O2-  O140  1  0.49825402  0.24691235  0.94143494  1
  O2-  O141  1  0.49260917  0.75093328  0.27397064  1
  O2-  O142  1  0.50181665  0.74918297  0.60952811  1
  O2-  O143  1  0.49683394  0.75385674  0.93705906  1
  O2-  O144  1  0.06847427  0.18219045  0.09313713  1
  O2-  O145  1  0.07382204  0.18074632  0.42202661  1
  O2-  O146  1  0.07162503  0.17968181  0.76816703  1
  O2-  O147  1  0.06897960  0.67635985  0.09927744  1
  O2-  O148  1  0.06998868  0.67898679  0.43260959  1
  O2-  O149  1  0.06931839  0.67960790  0.76591140  1
  O2-  O150  1  0.57181543  0.18242761  0.09050438  1
  O2-  O151  1  0.57241253  0.17829726  0.42170969  1
  O2-  O152  1  0.56910599  0.18071775  0.76644712  1
  O2-  O153  1  0.57109841  0.68080940  0.09738647  1
  O2-  O154  1  0.56937108  0.67941502  0.43552034  1
  O2-  O155  1  0.57073868  0.67883626  0.75768912  1
  O2-  O156  1  0.18061227  0.42642194  0.23620217  1
  O2-  O157  1  0.18169557  0.43024759  0.56961327  1
  O2-  O158  1  0.17916616  0.42817345  0.90127649  1
  O2-  O159  1  0.17934471  0.93062569  0.23542829  1
  O2-  O160  1  0.17970474  0.92790029  0.57578747  1
  O2-  O161  1  0.17958946  0.92956766  0.89986039  1
  O2-  O162  1  0.67986676  0.42110506  0.24165973  1
  O2-  O163  1  0.68096458  0.43117718  0.56522811  1
  O2-  O164  1  0.67794436  0.42523015  0.91123848  1
  O2-  O165  1  0.68016373  0.93334294  0.23286674  1
  O2-  O166  1  0.67764397  0.92594997  0.57014049  1
  O2-  O167  1  0.67760872  0.93041574  0.91245652  1
  O2-  O168  1  0.42960395  0.31936425  0.08803638  1
  O2-  O169  1  0.43012792  0.31779845  0.42118312  1
  O2-  O170  1  0.42945160  0.32113649  0.75399854  1
  O2-  O171  1  0.42926936  0.82430180  0.08691231  1
  O2-  O172  1  0.43188354  0.83147180  0.42131563  1
  O2-  O173  1  0.43077736  0.82150306  0.75614240  1
  O2-  O174  1  0.92812710  0.32041750  0.09078082  1
  O2-  O175  1  0.91875884  0.31622956  0.42073820  1
  O2-  O176  1  0.92579735  0.32209625  0.75508486  1
  O2-  O177  1  0.92587526  0.82305006  0.08721222  1
  O2-  O178  1  0.92879864  0.81928295  0.43202958  1
  O2-  O179  1  0.92710072  0.82214308  0.75614409  1
  O2-  O180  1  0.32106509  0.07250539  0.24454581  1
  O2-  O181  1  0.31979744  0.06629045  0.56432736  1
  O2-  O182  1  0.32103697  0.07361312  0.90190379  1
  O2-  O183  1  0.32789674  0.56519172  0.23248228  1
  O2-  O184  1  0.32424913  0.57227606  0.57084357  1
  O2-  O185  1  0.32528409  0.56799777  0.91042011  1
  O2-  O186  1  0.81881668  0.07862698  0.24489438  1
  O2-  O187  1  0.82005913  0.07013480  0.56655434  1
  O2-  O188  1  0.81992535  0.07432255  0.90252600  1
  O2-  O189  1  0.81835858  0.57087218  0.23397505  1
  O2-  O190  1  0.81998780  0.57312918  0.57827345  1
  O2-  O191  1  0.81885072  0.56502991  0.89965695  1
  O2-  O192  1  0.04489981  0.08924456  0.26886536  1
  O2-  O193  1  0.04174101  0.08204426  0.59917434  1
  O2-  O194  1  0.04433191  0.08667288  0.94231706  1
  O2-  O195  1  0.04135690  0.57671934  0.27137527  1
  O2-  O196  1  0.04057601  0.58239096  0.59876471  1
  O2-  O197  1  0.03380250  0.58294249  0.93284211  1
  O2-  O198  1  0.54441818  0.08667302  0.26775423  1
  O2-  O199  1  0.53810908  0.08164654  0.59988830  1
  O2-  O200  1  0.54810153  0.08515741  0.94011692  1
  O2-  O201  1  0.54379999  0.58030153  0.26693195  1
  O2-  O202  1  0.54392291  0.58543117  0.60658000  1
  O2-  O203  1  0.54237857  0.58136007  0.93081075  1
  O2-  O204  1  0.16523958  0.20856174  0.26963931  1
  O2-  O205  1  0.16819623  0.21021630  0.59845488  1
  O2-  O206  1  0.16238657  0.20962587  0.94291801  1
  O2-  O207  1  0.17281971  0.70404562  0.26893413  1
  O2-  O208  1  0.16904215  0.70958303  0.60052607  1
  O2-  O209  1  0.16961400  0.70488409  0.93348572  1
  O2-  O210  1  0.66342974  0.20673344  0.26821260  1
  O2-  O211  1  0.66689128  0.21032999  0.59841146  1
  O2-  O212  1  0.66286560  0.21007596  0.93821094  1
  O2-  O213  1  0.66436888  0.71460790  0.26824502  1
  O2-  O214  1  0.66513391  0.70437469  0.60764680  1
  O2-  O215  1  0.66783174  0.70977860  0.92847586  1
  O2-  O216  1  0.08045491  0.45773179  0.06716729  1
  O2-  O217  1  0.07595288  0.44261307  0.40090382  1
  O2-  O218  1  0.07676251  0.45339423  0.73266190  1
  O2-  O219  1  0.08236906  0.95540485  0.06918568  1
  O2-  O220  1  0.08273715  0.96295550  0.40243610  1
  O2-  O221  1  0.08085589  0.94560673  0.72433297  1
  O2-  O222  1  0.57903198  0.44855896  0.05886345  1
  O2-  O223  1  0.58201562  0.44426644  0.39087786  1
  O2-  O224  1  0.58398630  0.45709879  0.73565172  1
  O2-  O225  1  0.58592180  0.95390396  0.06502872  1
  O2-  O226  1  0.58436828  0.96196415  0.39999464  1
  O2-  O227  1  0.57975420  0.95593279  0.73704298  1
  O2-  O228  1  0.21210199  0.33727696  0.07009673  1
  O2-  O229  1  0.21509871  0.33200817  0.40170652  1
  O2-  O230  1  0.21005731  0.33326441  0.73567533  1
  O2-  O231  1  0.21093966  0.82864999  0.06689649  1
  O2-  O232  1  0.20864374  0.83339962  0.40383215  1
  O2-  O233  1  0.21004527  0.83710835  0.72812079  1
  O2-  O234  1  0.70331075  0.33619633  0.06512509  1
  O2-  O235  1  0.70817339  0.33318939  0.39423831  1
  O2-  O236  1  0.71035226  0.33398935  0.73442187  1
  O2-  O237  1  0.70479868  0.83385481  0.06148186  1
  O2-  O238  1  0.71047323  0.83522783  0.40240415  1
  O2-  O239  1  0.70599541  0.82946608  0.73871198  1
  O2-  O240  1  0.45760219  0.40854162  0.26500072  1
  O2-  O241  1  0.45764360  0.41655022  0.60364953  1
  O2-  O242  1  0.45430994  0.40898624  0.93223321  1
  O2-  O243  1  0.45915852  0.91623528  0.26623783  1
  O2-  O244  1  0.45881554  0.91161775  0.60200444  1
  O2-  O245  1  0.45697059  0.91759522  0.93607302  1
  O2-  O246  1  0.95248881  0.41240144  0.26999801  1
  O2-  O247  1  0.94988388  0.41577373  0.60214971  1
  O2-  O248  1  0.95582573  0.41135097  0.93664730  1
  O2-  O249  1  0.95254397  0.92354457  0.26845924  1
  O2-  O250  1  0.94795889  0.91541607  0.60286887  1
  O2-  O251  1  0.95322788  0.91983456  0.93821008  1
  O2-  O252  1  0.33861345  0.28876212  0.26715227  1
  O2-  O253  1  0.33553439  0.29747776  0.60150279  1
  O2-  O254  1  0.33486432  0.28993161  0.93673887  1
  O2-  O255  1  0.33303432  0.80423488  0.27173823  1
  O2-  O256  1  0.33941260  0.79398455  0.60180385  1
  O2-  O257  1  0.33586347  0.79956384  0.93310136  1
  O2-  O258  1  0.83759703  0.28924444  0.26359043  1
  O2-  O259  1  0.83483166  0.29428409  0.60094754  1
  O2-  O260  1  0.83419035  0.29418856  0.93996934  1
  O2-  O261  1  0.83098118  0.79223995  0.26514658  1
  O2-  O262  1  0.83227035  0.79375913  0.60594894  1
  O2-  O263  1  0.83546507  0.79870850  0.93415472  1
  O2-  O264  1  0.42191078  0.04666355  0.06846225  1
  O2-  O265  1  0.41736785  0.04751619  0.39340520  1
  O2-  O266  1  0.41292148  0.03615747  0.73338003  1
  O2-  O267  1  0.41573782  0.53763013  0.06106978  1
  O2-  O268  1  0.41874115  0.53388591  0.40030729  1
  O2-  O269  1  0.41823462  0.54211165  0.73834074  1
  O2-  O270  1  0.91715643  0.04572295  0.07119301  1
  O2-  O271  1  0.91796615  0.05518264  0.39359545  1
  O2-  O272  1  0.91996791  0.04136818  0.73427636  1
  O2-  O273  1  0.91151886  0.53489945  0.06908035  1
  O2-  O274  1  0.91222774  0.53596599  0.40385730  1
  O2-  O275  1  0.91481487  0.54378496  0.72895879  1
  O2-  O276  1  0.29291675  0.16888869  0.07096923  1
  O2-  O277  1  0.29723206  0.16506699  0.39598550  1
  O2-  O278  1  0.29483654  0.16885742  0.73035343  1
  O2-  O279  1  0.30884593  0.66850881  0.05727677  1
  O2-  O280  1  0.30813522  0.67348880  0.39608945  1
  O2-  O281  1  0.29848304  0.67407708  0.73574480  1
  O2-  O282  1  0.78757101  0.16775316  0.07123828  1
  O2-  O283  1  0.79348460  0.16799403  0.39654643  1
  O2-  O284  1  0.79478982  0.16937252  0.73261573  1
  O2-  O285  1  0.79057716  0.66927348  0.06420485  1
  O2-  O286  1  0.78796464  0.66640536  0.40313785  1
  O2-  O287  1  0.79756046  0.66484466  0.73191980  1
