# generated using pymatgen
data_Ca2Al2SiO7
_symmetry_space_group_name_H-M   'P 1'
_cell_length_a   15.45932063
_cell_length_b   15.46009218
_cell_length_c   15.28421414
_cell_angle_alpha   90.00909108
_cell_angle_beta   89.99202571
_cell_angle_gamma   89.99929504
_symmetry_Int_Tables_number   1
_chemical_formula_structural   Ca2Al2SiO7
_chemical_formula_sum   'Ca48 Al48 Si24 O168'
_cell_volume   3652.96564399
_cell_formula_units_Z   24
loop_
 _symmetry_equiv_pos_site_id
 _symmetry_equiv_pos_as_xyz
  1  'x, y, z'
loop_
 _atom_type_symbol
 _atom_type_oxidation_number
  Ca2+  2.0
  Al0+  0.0
  Si0+  0.0
  O2-  -2.0
loop_
 _atom_site_type_symbol
 _atom_site_label
 _atom_site_symmetry_multiplicity
 _atom_site_fract_x
 _atom_site_fract_y
 _atom_site_fract_z
 _atom_site_occupancy
  Ca2+  Ca0  1  0.16960111  0.07432474  0.16758148  1
  Ca2+  Ca1  1  0.16960899  0.07291461  0.51083645  1
  Ca2+  Ca2  1  0.17318274  0.07701311  0.83581582  1
  Ca2+  Ca3  1  0.17644331  0.58771824  0.17351485  1
  Ca2+  Ca4  1  0.17133094  0.58816445  0.49593581  1
  Ca2+  Ca5  1  0.17551232  0.58154132  0.84061049  1
  Ca2+  Ca6  1  0.66394439  0.07399059  0.17191232  1
  Ca2+  Ca7  1  0.66917097  0.08037598  0.49978894  1
  Ca2+  Ca8  1  0.67212699  0.07625289  0.83781815  1
  Ca2+  Ca9  1  0.67267054  0.57789325  0.16542162  1
  Ca2+  Ca10  1  0.66455099  0.58253929  0.50345665  1
  Ca2+  Ca11  1  0.66855321  0.58052718  0.84412842  1
  Ca2+  Ca12  1  0.07256713  0.33661165  0.16137252  1
  Ca2+  Ca13  1  0.07893317  0.32288525  0.49412262  1
  Ca2+  Ca14  1  0.07903127  0.32552598  0.82943583  1
  Ca2+  Ca15  1  0.07901054  0.83607072  0.16481301  1
  Ca2+  Ca16  1  0.08204583  0.83553746  0.48970104  1
  Ca2+  Ca17  1  0.08292010  0.84254316  0.83429439  1
  Ca2+  Ca18  1  0.57743598  0.32855552  0.16274221  1
  Ca2+  Ca19  1  0.57768219  0.32179710  0.48895887  1
  Ca2+  Ca20  1  0.57906245  0.33737464  0.83552536  1
  Ca2+  Ca21  1  0.57892894  0.84071429  0.16332145  1
  Ca2+  Ca22  1  0.57141318  0.83663323  0.49458587  1
  Ca2+  Ca23  1  0.57878226  0.82911909  0.82641415  1
  Ca2+  Ca24  1  0.34506174  0.42643641  0.17031573  1
  Ca2+  Ca25  1  0.34115120  0.42210167  0.49832339  1
  Ca2+  Ca26  1  0.33521998  0.42264884  0.84520247  1
  Ca2+  Ca27  1  0.32311718  0.91590899  0.17459308  1
  Ca2+  Ca28  1  0.32535103  0.91356764  0.50589871  1
  Ca2+  Ca29  1  0.32618915  0.92307743  0.83910662  1
  Ca2+  Ca30  1  0.83590876  0.41572410  0.16961720  1
  Ca2+  Ca31  1  0.83563465  0.41535904  0.50188811  1
  Ca2+  Ca32  1  0.82622505  0.42391376  0.84738195  1
  Ca2+  Ca33  1  0.82350346  0.90544643  0.17053474  1
  Ca2+  Ca34  1  0.82987205  0.91796729  0.50131225  1
  Ca2+  Ca35  1  0.83139750  0.92127658  0.84156213  1
  Ca2+  Ca36  1  0.41805205  0.17201024  0.16109212  1
  Ca2+  Ca37  1  0.41939633  0.16767630  0.49034816  1
  Ca2+  Ca38  1  0.40851989  0.16687594  0.83272843  1
  Ca2+  Ca39  1  0.40953983  0.67077159  0.16534066  1
  Ca2+  Ca40  1  0.41842135  0.67720814  0.49553066  1
  Ca2+  Ca41  1  0.42183654  0.67209213  0.82593525  1
  Ca2+  Ca42  1  0.91561774  0.17658703  0.16227155  1
  Ca2+  Ca43  1  0.92097520  0.16364203  0.49681722  1
  Ca2+  Ca44  1  0.92048575  0.16701640  0.82748480  1
  Ca2+  Ca45  1  0.92102286  0.67450677  0.16171640  1
  Ca2+  Ca46  1  0.92751199  0.67559569  0.48826851  1
  Ca2+  Ca47  1  0.91218419  0.67250235  0.83556077  1
  Al0+  Al48  1  0.00017329  0.00028417  -0.00053343  1
  Al0+  Al49  1  -0.00127585  0.00024137  0.33182008  1
  Al0+  Al50  1  -0.00095154  0.00126408  0.66968581  1
  Al0+  Al51  1  0.00065071  0.50193171  -0.00325727  1
  Al0+  Al52  1  0.00244521  0.50027241  0.32881817  1
  Al0+  Al53  1  -0.00102365  0.50122763  0.66796919  1
  Al0+  Al54  1  0.50039180  0.00192508  0.00356029  1
  Al0+  Al55  1  0.50068837  -0.00129106  0.33013784  1
  Al0+  Al56  1  0.49951320  0.00153784  0.66636738  1
  Al0+  Al57  1  0.50160128  0.49931435  0.00394361  1
  Al0+  Al58  1  0.50206958  0.50022694  0.33740098  1
  Al0+  Al59  1  0.50068991  0.49995059  0.66290577  1
  Al0+  Al60  1  0.24983785  0.25042112  -0.00056126  1
  Al0+  Al61  1  0.24951409  0.25191487  0.32873329  1
  Al0+  Al62  1  0.24703221  0.24998278  0.66389989  1
  Al0+  Al63  1  0.24897793  0.75008572  0.00453153  1
  Al0+  Al64  1  0.25193528  0.74907002  0.33568404  1
  Al0+  Al65  1  0.24876381  0.74825343  0.66870616  1
  Al0+  Al66  1  0.74831124  0.24960636  -0.00259420  1
  Al0+  Al67  1  0.74987592  0.24901561  0.32733891  1
  Al0+  Al68  1  0.74771265  0.25189371  0.67152697  1
  Al0+  Al69  1  0.75104859  0.74921534  0.00257621  1
  Al0+  Al70  1  0.74952820  0.74866341  0.33814081  1
  Al0+  Al71  1  0.75068028  0.74760234  0.66207173  1
  Al0+  Al72  1  0.42837204  0.32248247  0.31822752  1
  Al0+  Al73  1  0.17867156  0.92637278  0.68236375  1
  Al0+  Al74  1  0.43057583  0.32090909  0.98551636  1
  Al0+  Al75  1  0.32264174  0.07337780  0.68016292  1
  Al0+  Al76  1  0.57223804  0.67756573  0.65134760  1
  Al0+  Al77  1  0.68044109  0.92894567  0.01165411  1
  Al0+  Al78  1  0.07286396  0.68035368  0.31789905  1
  Al0+  Al79  1  0.93043153  0.32016595  0.32108111  1
  Al0+  Al80  1  0.17887970  0.93088954  0.34790014  1
  Al0+  Al81  1  0.92743786  0.82242707  0.31865284  1
  Al0+  Al82  1  0.92863117  0.82021445  0.98502405  1
  Al0+  Al83  1  0.67928084  0.42746736  0.01691446  1
  Al0+  Al84  1  0.17839611  0.92945098  0.01749453  1
  Al0+  Al85  1  0.43038752  0.81912830  0.31870395  1
  Al0+  Al86  1  0.92758657  0.32228413  0.98397596  1
  Al0+  Al87  1  0.67792065  0.92732673  0.34884828  1
  Al0+  Al88  1  0.32230815  0.56944347  0.34988033  1
  Al0+  Al89  1  0.42833229  0.82205757  0.65326126  1
  Al0+  Al90  1  0.32144564  0.57009619  0.01258294  1
  Al0+  Al91  1  0.32131882  0.07322413  0.01696214  1
  Al0+  Al92  1  0.57072465  0.17725190  0.31714745  1
  Al0+  Al93  1  0.81962648  0.07124457  0.67979254  1
  Al0+  Al94  1  0.82276265  0.57113115  0.01642381  1
  Al0+  Al95  1  0.06924077  0.17891335  0.65271195  1
  Si0+  Si96  1  0.32127096  0.07363201  0.34859792  1
  Si0+  Si97  1  0.82329094  0.56959969  0.35026358  1
  Si0+  Si98  1  0.56990051  0.68045647  0.98801220  1
  Si0+  Si99  1  0.92686575  0.32267548  0.65157863  1
  Si0+  Si100  1  0.07020809  0.67624892  0.65242745  1
  Si0+  Si101  1  0.67841664  0.92651903  0.68187758  1
  Si0+  Si102  1  0.68161058  0.42797357  0.35017118  1
  Si0+  Si103  1  0.57339089  0.67673674  0.31560012  1
  Si0+  Si104  1  0.82202919  0.57095393  0.68116418  1
  Si0+  Si105  1  0.17708008  0.42876110  0.68067248  1
  Si0+  Si106  1  0.82031574  0.07373723  0.34860369  1
  Si0+  Si107  1  0.82269194  0.07250149  0.01637312  1
  Si0+  Si108  1  0.42784555  0.32110462  0.65229369  1
  Si0+  Si109  1  0.32109936  0.56806883  0.68171059  1
  Si0+  Si110  1  0.92954970  0.82139497  0.65233968  1
  Si0+  Si111  1  0.42734751  0.82244904  0.98618298  1
  Si0+  Si112  1  0.07279013  0.17642559  0.31539531  1
  Si0+  Si113  1  0.07410681  0.67940158  0.98086757  1
  Si0+  Si114  1  0.07124933  0.17847934  0.98193718  1
  Si0+  Si115  1  0.17776572  0.42788374  0.01522801  1
  Si0+  Si116  1  0.67809922  0.43041343  0.68153903  1
  Si0+  Si117  1  0.57269103  0.18028538  0.65303932  1
  Si0+  Si118  1  0.17575520  0.42727173  0.35084955  1
  Si0+  Si119  1  0.57127255  0.17580186  0.97943230  1
  O2-  O120  1  0.25284008  -0.00134051  0.06723217  1
  O2-  O121  1  0.25148840  0.00756065  0.39485042  1
  O2-  O122  1  0.25368399  -0.00251445  0.72899659  1
  O2-  O123  1  0.24736357  0.49508427  0.05943724  1
  O2-  O124  1  0.24825661  0.49237505  0.39559760  1
  O2-  O125  1  0.25080181  0.49655271  0.72408282  1
  O2-  O126  1  0.75535398  0.00269315  0.05989691  1
  O2-  O127  1  0.75427994  0.00209701  0.39295140  1
  O2-  O128  1  0.74729692  -0.00559903  0.72687374  1
  O2-  O129  1  0.75678227  0.49372765  0.06683982  1
  O2-  O130  1  0.75314504  0.49796774  0.39422760  1
  O2-  O131  1  0.74842342  0.50243767  0.72274887  1
  O2-  O132  1  0.00557931  0.24739914  0.27255744  1
  O2-  O133  1  -0.00727570  0.25254799  0.60615177  1
  O2-  O134  1  0.00132037  0.24687276  0.93766412  1
  O2-  O135  1  0.00116758  0.75246331  0.26866136  1
  O2-  O136  1  0.00318154  0.75190845  0.61189634  1
  O2-  O137  1  0.00481333  0.74758007  0.93617019  1
  O2-  O138  1  0.49616992  0.24708274  0.26848010  1
  O2-  O139  1  0.49564874  0.24603271  0.61203423  1
  O2-  O140  1  0.50239990  0.24507675  0.93534604  1
  O2-  O141  1  0.50653264  0.74623481  0.27056556  1
  O2-  O142  1  0.50280807  0.75222106  0.60258013  1
  O2-  O143  1  0.49909097  0.75137389  0.94476362  1
  O2-  O144  1  0.06996067  0.17967572  0.08761020  1
  O2-  O145  1  0.07119928  0.17691190  0.42135717  1
  O2-  O146  1  0.06833290  0.18289418  0.76553169  1
  O2-  O147  1  0.07550616  0.67860761  0.08580625  1
  O2-  O148  1  0.06962589  0.67974840  0.43263373  1
  O2-  O149  1  0.06807020  0.67009689  0.75708385  1
  O2-  O150  1  0.57198226  0.17518015  0.08449854  1
  O2-  O151  1  0.57226098  0.18036543  0.43196601  1
  O2-  O152  1  0.57703202  0.18373039  0.75764468  1
  O2-  O153  1  0.56982865  0.68067686  0.09278178  1
  O2-  O154  1  0.57145596  0.67655615  0.42153343  1
  O2-  O155  1  0.57079445  0.67524826  0.76545995  1
  O2-  O156  1  0.17189457  0.42921358  0.24571754  1
  O2-  O157  1  0.17516639  0.43059479  0.57591748  1
  O2-  O158  1  0.17922138  0.42963564  0.90869158  1
  O2-  O159  1  0.17903153  0.93228388  0.23530925  1
  O2-  O160  1  0.17763482  0.92700589  0.56859144  1
  O2-  O161  1  0.17987359  0.93043547  0.90373891  1
  O2-  O162  1  0.68207846  0.42928664  0.24584139  1
  O2-  O163  1  0.67933683  0.42840125  0.57635708  1
  O2-  O164  1  0.67724061  0.43322232  0.90236158  1
  O2-  O165  1  0.67955335  0.92782652  0.23585647  1
  O2-  O166  1  0.67975141  0.92812551  0.57642079  1
  O2-  O167  1  0.68100212  0.92951521  0.89787366  1
  O2-  O168  1  0.43390462  0.32192663  0.09771782  1
  O2-  O169  1  0.43218317  0.32148278  0.43299137  1
  O2-  O170  1  0.43002422  0.32601444  0.75721917  1
  O2-  O171  1  0.42758600  0.82079448  0.09107104  1
  O2-  O172  1  0.42971372  0.81844165  0.43191874  1
  O2-  O173  1  0.42980928  0.81826081  0.76754711  1
  O2-  O174  1  0.93040568  0.32035043  0.09717254  1
  O2-  O175  1  0.93057698  0.31907854  0.43480834  1
  O2-  O176  1  0.92893701  0.32436831  0.75674941  1
  O2-  O177  1  0.92720413  0.81719994  0.09729020  1
  O2-  O178  1  0.92794868  0.82030774  0.43330453  1
  O2-  O179  1  0.92618563  0.81890920  0.75738454  1
  O2-  O180  1  0.31942614  0.07251600  0.24331033  1
  O2-  O181  1  0.32063242  0.07702376  0.56663138  1
  O2-  O182  1  0.31935904  0.07168515  0.90308365  1
  O2-  O183  1  0.32174235  0.56833544  0.23697375  1
  O2-  O184  1  0.32083424  0.56702704  0.57685943  1
  O2-  O185  1  0.32085564  0.56935688  0.89847650  1
  O2-  O186  1  0.81887037  0.07767101  0.24342657  1
  O2-  O187  1  0.81797826  0.07195345  0.56672182  1
  O2-  O188  1  0.82117861  0.07126237  0.91012670  1
  O2-  O189  1  0.82204353  0.56875349  0.24577195  1
  O2-  O190  1  0.82533826  0.56795956  0.57617427  1
  O2-  O191  1  0.81751564  0.57245876  0.90184555  1
  O2-  O192  1  0.04390227  0.08504738  0.26789168  1
  O2-  O193  1  0.03733970  0.08263206  0.59867395  1
  O2-  O194  1  0.04520521  0.08538786  0.93535712  1
  O2-  O195  1  0.04542221  0.58217460  0.26509990  1
  O2-  O196  1  0.03769212  0.58686056  0.60204135  1
  O2-  O197  1  0.04983499  0.58568752  0.93343870  1
  O2-  O198  1  0.54568451  0.07904313  0.26429001  1
  O2-  O199  1  0.55198327  0.08661163  0.60659272  1
  O2-  O200  1  0.54506080  0.08244121  0.93200847  1
  O2-  O201  1  0.54769110  0.58281854  0.27159428  1
  O2-  O202  1  0.54163375  0.58015523  0.59617346  1
  O2-  O203  1  0.54181080  0.58884661  0.94009768  1
  O2-  O204  1  0.16627103  0.20030441  0.26928457  1
  O2-  O205  1  0.16386990  0.21225705  0.59577142  1
  O2-  O206  1  0.16395485  0.20634101  0.93525309  1
  O2-  O207  1  0.17155971  0.70663988  0.26717669  1
  O2-  O208  1  0.16393477  0.69864893  0.60690156  1
  O2-  O209  1  0.16756203  0.70642874  0.93352575  1
  O2-  O210  1  0.66708894  0.20854518  0.26297012  1
  O2-  O211  1  0.66160831  0.21517221  0.60330734  1
  O2-  O212  1  0.66491298  0.20151274  0.93278410  1
  O2-  O213  1  0.66848254  0.69932689  0.27285149  1
  O2-  O214  1  0.67239183  0.69907808  0.59811013  1
  O2-  O215  1  0.66124592  0.70809525  0.93933708  1
  O2-  O216  1  0.08436570  0.45476241  0.05994993  1
  O2-  O217  1  0.08399376  0.45664138  0.39997005  1
  O2-  O218  1  0.08647983  0.45948818  0.72981580  1
  O2-  O219  1  0.07965988  0.95971223  0.06846280  1
  O2-  O220  1  0.08009399  0.95934815  0.40009413  1
  O2-  O221  1  0.08101225  0.95791500  0.73463228  1
  O2-  O222  1  0.58456839  0.46222116  0.07175886  1
  O2-  O223  1  0.59118657  0.45700180  0.40020728  1
  O2-  O224  1  0.58586096  0.45845617  0.72854700  1
  O2-  O225  1  0.58452720  0.95935970  0.06616775  1
  O2-  O226  1  0.58174591  0.96084471  0.40280848  1
  O2-  O227  1  0.58501940  0.95247921  0.72759885  1
  O2-  O228  1  0.19908733  0.33389840  0.06042331  1
  O2-  O229  1  0.19811376  0.33163843  0.39536802  1
  O2-  O230  1  0.20183563  0.33653097  0.72774479  1
  O2-  O231  1  0.20422089  0.83033978  0.06893922  1
  O2-  O232  1  0.21126735  0.83435482  0.40079920  1
  O2-  O233  1  0.20254126  0.82643045  0.73556697  1
  O2-  O234  1  0.70121844  0.32629433  0.06553696  1
  O2-  O235  1  0.71018599  0.33558402  0.39689780  1
  O2-  O236  1  0.70467820  0.34009111  0.73205719  1
  O2-  O237  1  0.71002489  0.83339283  0.06681140  1
  O2-  O238  1  0.70708754  0.83077124  0.40495870  1
  O2-  O239  1  0.70363834  0.83126342  0.72512919  1
  O2-  O240  1  0.46329695  0.42000494  0.26854735  1
  O2-  O241  1  0.46034634  0.41063287  0.60275438  1
  O2-  O242  1  0.46465266  0.41762632  0.93118352  1
  O2-  O243  1  0.45906907  0.91539263  0.26442083  1
  O2-  O244  1  0.45392222  0.92155422  0.60052344  1
  O2-  O245  1  0.45616393  0.91444556  0.94000278  1
  O2-  O246  1  0.96015799  0.41608254  0.26618601  1
  O2-  O247  1  0.95510228  0.41591104  0.60527751  1
  O2-  O248  1  0.95797077  0.41956331  0.93001209  1
  O2-  O249  1  0.95025697  0.92198863  0.26663925  1
  O2-  O250  1  0.95459113  0.91387642  0.60609629  1
  O2-  O251  1  0.95716896  0.91843367  0.93186914  1
  O2-  O252  1  0.32748721  0.30384727  0.26689865  1
  O2-  O253  1  0.33450612  0.29970103  0.60565520  1
  O2-  O254  1  0.33166759  0.29485613  0.93231064  1
  O2-  O255  1  0.33528975  0.78496125  0.26534143  1
  O2-  O256  1  0.33023108  0.78871138  0.60181828  1
  O2-  O257  1  0.33585510  0.79276548  0.93938989  1
  O2-  O258  1  0.83506853  0.29035840  0.26551854  1
  O2-  O259  1  0.83129243  0.30000979  0.60816460  1
  O2-  O260  1  0.82981633  0.29368654  0.93064531  1
  O2-  O261  1  0.82909545  0.78904027  0.26924667  1
  O2-  O262  1  0.83902068  0.79166223  0.60313972  1
  O2-  O263  1  0.83268570  0.78613833  0.92987724  1
  O2-  O264  1  0.42140229  0.04998279  0.06708952  1
  O2-  O265  1  0.41551089  0.04720817  0.39236315  1
  O2-  O266  1  0.42315309  0.05142491  0.73285851  1
  O2-  O267  1  0.41676539  0.53998920  0.06755683  1
  O2-  O268  1  0.41893724  0.53879745  0.40580664  1
  O2-  O269  1  0.41367512  0.53975562  0.72769160  1
  O2-  O270  1  0.91691063  0.05075805  0.06103446  1
  O2-  O271  1  0.91463353  0.04979523  0.39424596  1
  O2-  O272  1  0.91520258  0.04206667  0.73557615  1
  O2-  O273  1  0.92396296  0.54880367  0.06508725  1
  O2-  O274  1  0.91558695  0.54086249  0.39699401  1
  O2-  O275  1  0.91224473  0.54187917  0.73135381  1
  O2-  O276  1  0.29115811  0.17162106  0.06873652  1
  O2-  O277  1  0.29930068  0.16981993  0.39215068  1
  O2-  O278  1  0.29001567  0.17162687  0.73282966  1
  O2-  O279  1  0.29062261  0.66555954  0.06728382  1
  O2-  O280  1  0.28867242  0.66417485  0.40576095  1
  O2-  O281  1  0.29255269  0.65896029  0.72992132  1
  O2-  O282  1  0.79595533  0.16607538  0.06072223  1
  O2-  O283  1  0.79167786  0.16602978  0.39710816  1
  O2-  O284  1  0.78820712  0.16768138  0.73484899  1
  O2-  O285  1  0.78817695  0.66614401  0.07066185  1
  O2-  O286  1  0.79460642  0.65998330  0.40028851  1
  O2-  O287  1  0.79650117  0.66401487  0.72746653  1
