# generated using pymatgen
data_Ca2Al2SiO7
_symmetry_space_group_name_H-M   'P 1'
_cell_length_a   15.46861382
_cell_length_b   15.47051331
_cell_length_c   15.28986478
_cell_angle_alpha   89.96751123
_cell_angle_beta   89.99183819
_cell_angle_gamma   89.99473429
_symmetry_Int_Tables_number   1
_chemical_formula_structural   Ca2Al2SiO7
_chemical_formula_sum   'Ca48 Al48 Si24 O168'
_cell_volume   3658.97708421
_cell_formula_units_Z   24
loop_
 _symmetry_equiv_pos_site_id
 _symmetry_equiv_pos_as_xyz
  1  'x, y, z'
loop_
 _atom_type_symbol
 _atom_type_oxidation_number
  Ca2+  2.0
  Al0+  0.0
  Si0+  0.0
  O2-  -2.0
loop_
 _atom_site_type_symbol
 _atom_site_label
 _atom_site_symmetry_multiplicity
 _atom_site_fract_x
 _atom_site_fract_y
 _atom_site_fract_z
 _atom_site_occupancy
  Ca2+  Ca0  1  0.17772369  0.09023281  0.16719792  1
  Ca2+  Ca1  1  0.17656448  0.08153609  0.51160352  1
  Ca2+  Ca2  1  0.17166177  0.09066789  0.83663957  1
  Ca2+  Ca3  1  0.16367835  0.58179464  0.16855626  1
  Ca2+  Ca4  1  0.17250721  0.57785721  0.51646248  1
  Ca2+  Ca5  1  0.15936039  0.57993483  0.83316048  1
  Ca2+  Ca6  1  0.67479426  0.09119383  0.17144288  1
  Ca2+  Ca7  1  0.67126674  0.09018144  0.50107413  1
  Ca2+  Ca8  1  0.67439900  0.08464869  0.84226801  1
  Ca2+  Ca9  1  0.66915798  0.58609910  0.17389457  1
  Ca2+  Ca10  1  0.67515350  0.58114502  0.50969629  1
  Ca2+  Ca11  1  0.66940792  0.57752307  0.83378009  1
  Ca2+  Ca12  1  0.07814165  0.32617122  0.15932230  1
  Ca2+  Ca13  1  0.08393288  0.33389037  0.50740300  1
  Ca2+  Ca14  1  0.08217389  0.32312467  0.82348995  1
  Ca2+  Ca15  1  0.07531530  0.82671374  0.15485763  1
  Ca2+  Ca16  1  0.08449568  0.83222570  0.50592455  1
  Ca2+  Ca17  1  0.07588378  0.83043024  0.82303611  1
  Ca2+  Ca18  1  0.57677257  0.32129087  0.15990888  1
  Ca2+  Ca19  1  0.57959346  0.33334898  0.50092760  1
  Ca2+  Ca20  1  0.57441211  0.33121436  0.82975019  1
  Ca2+  Ca21  1  0.58887957  0.82177074  0.16352098  1
  Ca2+  Ca22  1  0.58188042  0.82606683  0.49531902  1
  Ca2+  Ca23  1  0.58417278  0.82733110  0.83220102  1
  Ca2+  Ca24  1  0.33410618  0.41222182  0.16389962  1
  Ca2+  Ca25  1  0.32980276  0.42098382  0.51407146  1
  Ca2+  Ca26  1  0.33344147  0.41433743  0.83056886  1
  Ca2+  Ca27  1  0.33483546  0.92949811  0.17037337  1
  Ca2+  Ca28  1  0.32975988  0.92834706  0.51001967  1
  Ca2+  Ca29  1  0.32437672  0.92718163  0.83444192  1
  Ca2+  Ca30  1  0.82965077  0.42474098  0.17514031  1
  Ca2+  Ca31  1  0.82867395  0.42589141  0.51314017  1
  Ca2+  Ca32  1  0.83411609  0.41576870  0.83099233  1
  Ca2+  Ca33  1  0.83734506  0.92607772  0.16541328  1
  Ca2+  Ca34  1  0.83412787  0.91938435  0.50273231  1
  Ca2+  Ca35  1  0.83852909  0.91640680  0.83791125  1
  Ca2+  Ca36  1  0.42417799  0.16505051  0.15737426  1
  Ca2+  Ca37  1  0.41477092  0.17014614  0.49606268  1
  Ca2+  Ca38  1  0.41312418  0.17298821  0.82836018  1
  Ca2+  Ca39  1  0.43025319  0.66664117  0.15956843  1
  Ca2+  Ca40  1  0.42047479  0.66371032  0.49582481  1
  Ca2+  Ca41  1  0.42168487  0.65985165  0.82767792  1
  Ca2+  Ca42  1  0.91968696  0.16115814  0.15736208  1
  Ca2+  Ca43  1  0.92073823  0.17001204  0.49979764  1
  Ca2+  Ca44  1  0.92737016  0.16531355  0.82494057  1
  Ca2+  Ca45  1  0.91828102  0.67271935  0.15701819  1
  Ca2+  Ca46  1  0.91481383  0.66576223  0.50168367  1
  Ca2+  Ca47  1  0.92475397  0.67583348  0.82475579  1
  Al0+  Al48  1  0.00013997  -0.00051846  -0.00233629  1
  Al0+  Al49  1  -0.00014523  -0.00036251  0.33619859  1
  Al0+  Al50  1  0.00027471  -0.00174222  0.65868355  1
  Al0+  Al51  1  -0.00044993  0.49987544  0.00053495  1
  Al0+  Al52  1  -0.00103744  0.49997798  0.33661566  1
  Al0+  Al53  1  0.00057934  0.50076783  0.66832517  1
  Al0+  Al54  1  0.50167635  -0.00299123  0.00188768  1
  Al0+  Al55  1  0.50014312  0.00057503  0.33369980  1
  Al0+  Al56  1  0.50214464  -0.00138778  0.67044449  1
  Al0+  Al57  1  0.49987442  0.49882494  -0.00437890  1
  Al0+  Al58  1  0.49863124  0.49924310  0.32744159  1
  Al0+  Al59  1  0.50221400  0.49712056  0.66863974  1
  Al0+  Al60  1  0.24848139  0.25165208  -0.00008482  1
  Al0+  Al61  1  0.24759674  0.25056857  0.33647168  1
  Al0+  Al62  1  0.25236752  0.25266634  0.66409839  1
  Al0+  Al63  1  0.25135600  0.74784870  0.00073544  1
  Al0+  Al64  1  0.24865536  0.74974796  0.33070437  1
  Al0+  Al65  1  0.25226346  0.75342109  0.66999407  1
  Al0+  Al66  1  0.74765107  0.25174286  0.00303689  1
  Al0+  Al67  1  0.74921523  0.25225460  0.33473377  1
  Al0+  Al68  1  0.74994631  0.24985427  0.66795809  1
  Al0+  Al69  1  0.75008678  0.74944961  -0.00699795  1
  Al0+  Al70  1  0.75129345  0.75161850  0.33245924  1
  Al0+  Al71  1  0.75074154  0.75043317  0.66672790  1
  Al0+  Al72  1  0.32127610  0.07086256  0.34722106  1
  Al0+  Al73  1  0.06886832  0.18009312  0.98885390  1
  Al0+  Al74  1  0.32291829  0.57264484  0.68082620  1
  Al0+  Al75  1  0.92715123  0.82081396  0.64702627  1
  Al0+  Al76  1  0.67976092  0.42690505  0.68368246  1
  Al0+  Al77  1  0.42857168  0.31855232  0.98415112  1
  Al0+  Al78  1  0.57053721  0.68000988  0.32120047  1
  Al0+  Al79  1  0.92686426  0.32111721  0.65198574  1
  Al0+  Al80  1  0.43135113  0.32006108  0.65151278  1
  Al0+  Al81  1  0.81989190  0.57241996  0.34656122  1
  Al0+  Al82  1  0.82080401  0.07117543  0.01126945  1
  Al0+  Al83  1  0.57045235  0.67896995  0.98429411  1
  Al0+  Al84  1  0.82115706  0.07275631  0.34806039  1
  Al0+  Al85  1  0.17765470  0.93040134  0.68188658  1
  Al0+  Al86  1  0.17882806  0.42986891  0.68332456  1
  Al0+  Al87  1  0.32036343  0.07153415  0.01444680  1
  Al0+  Al88  1  0.57290309  0.17586673  0.98498598  1
  Al0+  Al89  1  0.93060790  0.82087963  0.98488579  1
  Al0+  Al90  1  0.57107227  0.17931216  0.32035782  1
  Al0+  Al91  1  0.07309149  0.67634264  0.98549158  1
  Al0+  Al92  1  0.07332698  0.67992961  0.65084881  1
  Al0+  Al93  1  0.32230556  0.07262403  0.68226202  1
  Al0+  Al94  1  0.07246735  0.17909466  0.64976778  1
  Al0+  Al95  1  0.82182212  0.57278733  0.68464697  1
  Si0+  Si96  1  0.06946382  0.17879024  0.31781952  1
  Si0+  Si97  1  0.67908213  0.92790087  0.68162577  1
  Si0+  Si98  1  0.92955350  0.82189613  0.31637310  1
  Si0+  Si99  1  0.17815223  0.92669285  0.01721806  1
  Si0+  Si100  1  0.67885870  0.92521567  0.01735273  1
  Si0+  Si101  1  0.67603645  0.42953932  0.34938830  1
  Si0+  Si102  1  0.67874051  0.92818290  0.34946889  1
  Si0+  Si103  1  0.17809986  0.43047781  0.01702454  1
  Si0+  Si104  1  0.43050272  0.82307340  0.65228933  1
  Si0+  Si105  1  0.81927375  0.56969368  0.01511331  1
  Si0+  Si106  1  0.17796576  0.92600422  0.34915073  1
  Si0+  Si107  1  0.32084871  0.57078148  0.34492523  1
  Si0+  Si108  1  0.92950875  0.32227433  0.31887097  1
  Si0+  Si109  1  0.17798492  0.43013226  0.34824626  1
  Si0+  Si110  1  0.92566336  0.32318365  0.98678088  1
  Si0+  Si111  1  0.42611990  0.82212452  0.31668376  1
  Si0+  Si112  1  0.32341542  0.57097026  0.01708842  1
  Si0+  Si113  1  0.57232178  0.17488062  0.65052583  1
  Si0+  Si114  1  0.67610853  0.42992374  0.01839306  1
  Si0+  Si115  1  0.42492167  0.32112762  0.31597577  1
  Si0+  Si116  1  0.82049073  0.07002131  0.67961146  1
  Si0+  Si117  1  0.07053881  0.67741876  0.31843247  1
  Si0+  Si118  1  0.56975225  0.67914090  0.65190938  1
  Si0+  Si119  1  0.42715877  0.82204807  0.98289604  1
  O2-  O120  1  0.24654410  -0.00451611  0.06268244  1
  O2-  O121  1  0.24817836  -0.00615931  0.39166970  1
  O2-  O122  1  0.24453093  0.00683006  0.73211214  1
  O2-  O123  1  0.24871918  0.50291292  0.05933852  1
  O2-  O124  1  0.25041425  0.50066841  0.38783193  1
  O2-  O125  1  0.24745898  0.50565143  0.73283433  1
  O2-  O126  1  0.74364904  -0.00130811  0.05992132  1
  O2-  O127  1  0.74331211  0.00057419  0.39412427  1
  O2-  O128  1  0.75057952  -0.00147265  0.72218399  1
  O2-  O129  1  0.74856640  0.49994549  0.06058399  1
  O2-  O130  1  0.74207085  0.50098241  0.39236544  1
  O2-  O131  1  0.75352241  0.49696428  0.73421674  1
  O2-  O132  1  -0.00414481  0.24744160  0.27504068  1
  O2-  O133  1  -0.00032518  0.25102590  0.59955888  1
  O2-  O134  1  -0.01152836  0.24909788  0.94445536  1
  O2-  O135  1  0.00039306  0.74928736  0.27606577  1
  O2-  O136  1  -0.00118553  0.74778465  0.59749406  1
  O2-  O137  1  0.00603133  0.75228210  0.93668735  1
  O2-  O138  1  0.49236169  0.25037635  0.27388265  1
  O2-  O139  1  0.50284636  0.24206885  0.60547046  1
  O2-  O140  1  0.49727431  0.24311260  0.93501392  1
  O2-  O141  1  0.49514670  0.75342053  0.27251518  1
  O2-  O142  1  0.49678993  0.74770532  0.60899872  1
  O2-  O143  1  0.49429557  0.75204562  0.93812722  1
  O2-  O144  1  0.06929877  0.18346006  0.10308306  1
  O2-  O145  1  0.07054170  0.18002651  0.42210241  1
  O2-  O146  1  0.06990934  0.17915088  0.76349309  1
  O2-  O147  1  0.06851862  0.67570913  0.10055422  1
  O2-  O148  1  0.07322871  0.67641500  0.42250890  1
  O2-  O149  1  0.07272520  0.68346614  0.76401854  1
  O2-  O150  1  0.57336024  0.18031340  0.09915260  1
  O2-  O151  1  0.57159772  0.18246698  0.43319467  1
  O2-  O152  1  0.57269068  0.17320430  0.75571334  1
  O2-  O153  1  0.57095048  0.67996541  0.09813684  1
  O2-  O154  1  0.56807286  0.68080437  0.43414684  1
  O2-  O155  1  0.56977323  0.68165918  0.75694445  1
  O2-  O156  1  0.17608350  0.43040990  0.24263953  1
  O2-  O157  1  0.18308283  0.43058546  0.56865181  1
  O2-  O158  1  0.17567202  0.43028368  0.91313256  1
  O2-  O159  1  0.17788205  0.92475447  0.24339301  1
  O2-  O160  1  0.18355217  0.93008702  0.56757819  1
  O2-  O161  1  0.17948067  0.92690609  0.91249256  1
  O2-  O162  1  0.67792273  0.42993044  0.24336290  1
  O2-  O163  1  0.67782599  0.43119994  0.56935218  1
  O2-  O164  1  0.67594628  0.43037555  0.91403459  1
  O2-  O165  1  0.68160739  0.92467864  0.24412689  1
  O2-  O166  1  0.67642351  0.92738201  0.57635893  1
  O2-  O167  1  0.67995352  0.92264491  0.91183144  1
  O2-  O168  1  0.43017018  0.31904713  0.09876281  1
  O2-  O169  1  0.42472503  0.32449518  0.42097734  1
  O2-  O170  1  0.43316373  0.32045677  0.76395073  1
  O2-  O171  1  0.42823867  0.81980363  0.08910345  1
  O2-  O172  1  0.42550774  0.81945466  0.42221533  1
  O2-  O173  1  0.43562716  0.82559327  0.75698286  1
  O2-  O174  1  0.92922175  0.32652234  0.09332019  1
  O2-  O175  1  0.93202852  0.32408106  0.42304362  1
  O2-  O176  1  0.92514443  0.31416370  0.76572080  1
  O2-  O177  1  0.92988191  0.81867793  0.09969875  1
  O2-  O178  1  0.92846492  0.82241963  0.42068724  1
  O2-  O179  1  0.92580943  0.82077756  0.76011424  1
  O2-  O180  1  0.31907024  0.07170512  0.23374826  1
  O2-  O181  1  0.32491478  0.06845668  0.56813192  1
  O2-  O182  1  0.31821697  0.07212145  0.90234834  1
  O2-  O183  1  0.32000686  0.57047553  0.23965690  1
  O2-  O184  1  0.32449253  0.56971098  0.56593869  1
  O2-  O185  1  0.32676860  0.57030814  0.91306125  1
  O2-  O186  1  0.82309677  0.07019970  0.23489537  1
  O2-  O187  1  0.81690719  0.07056135  0.57413741  1
  O2-  O188  1  0.82048656  0.07001153  0.89842613  1
  O2-  O189  1  0.82054110  0.57019742  0.23264280  1
  O2-  O190  1  0.81569089  0.57403246  0.57040438  1
  O2-  O191  1  0.81901060  0.56742681  0.91101569  1
  O2-  O192  1  0.04429246  0.08558229  0.27174266  1
  O2-  O193  1  0.04417249  0.08177590  0.59511312  1
  O2-  O194  1  0.04454080  0.08287310  0.93553498  1
  O2-  O195  1  0.04151403  0.58556448  0.27084359  1
  O2-  O196  1  0.04944283  0.57940843  0.60053002  1
  O2-  O197  1  0.04060332  0.57932372  0.93414885  1
  O2-  O198  1  0.54628886  0.08033512  0.26765056  1
  O2-  O199  1  0.54966763  0.08019361  0.60458488  1
  O2-  O200  1  0.55417789  0.07345717  0.93795851  1
  O2-  O201  1  0.54069951  0.58377110  0.26471268  1
  O2-  O202  1  0.54426966  0.58699109  0.60527150  1
  O2-  O203  1  0.53979712  0.58310159  0.93128524  1
  O2-  O204  1  0.16041085  0.21141866  0.27038700  1
  O2-  O205  1  0.17008626  0.20984929  0.59663417  1
  O2-  O206  1  0.16241254  0.21644290  0.93522738  1
  O2-  O207  1  0.16275662  0.70340974  0.26915138  1
  O2-  O208  1  0.17267103  0.71134453  0.59885105  1
  O2-  O209  1  0.17548915  0.69437851  0.93891817  1
  O2-  O210  1  0.66734783  0.21340052  0.26604025  1
  O2-  O211  1  0.66526037  0.20296005  0.60459988  1
  O2-  O212  1  0.67023446  0.20903139  0.93310365  1
  O2-  O213  1  0.66668861  0.71284464  0.26632366  1
  O2-  O214  1  0.65988372  0.71134167  0.60439024  1
  O2-  O215  1  0.66500827  0.71060988  0.92890594  1
  O2-  O216  1  0.08660979  0.45858074  0.06748710  1
  O2-  O217  1  0.08751337  0.45891527  0.39652688  1
  O2-  O218  1  0.07912982  0.45154290  0.73534719  1
  O2-  O219  1  0.08437475  0.95209771  0.06329816  1
  O2-  O220  1  0.08514775  0.95234230  0.39528888  1
  O2-  O221  1  0.07569408  0.95202938  0.72921691  1
  O2-  O222  1  0.58510534  0.46049912  0.06613337  1
  O2-  O223  1  0.58033424  0.45266146  0.39224259  1
  O2-  O224  1  0.58397998  0.45976932  0.73776917  1
  O2-  O225  1  0.58388162  0.94290204  0.06400191  1
  O2-  O226  1  0.58326172  0.94763561  0.39421749  1
  O2-  O227  1  0.58903771  0.95466456  0.73261204  1
  O2-  O228  1  0.20786107  0.34042476  0.06770990  1
  O2-  O229  1  0.20392762  0.33844603  0.39577445  1
  O2-  O230  1  0.21135130  0.33267122  0.73471830  1
  O2-  O231  1  0.20333947  0.83218946  0.06410617  1
  O2-  O232  1  0.20202255  0.83132181  0.39459487  1
  O2-  O233  1  0.21149801  0.83534713  0.73704377  1
  O2-  O234  1  0.70302150  0.33852885  0.06774177  1
  O2-  O235  1  0.70377694  0.33776245  0.39657177  1
  O2-  O236  1  0.70535602  0.32774542  0.73660850  1
  O2-  O237  1  0.71052414  0.83284165  0.06428654  1
  O2-  O238  1  0.70910192  0.83690766  0.39799011  1
  O2-  O239  1  0.70645956  0.83687513  0.73011173  1
  O2-  O240  1  0.45140423  0.41378121  0.26719013  1
  O2-  O241  1  0.46611974  0.41572094  0.59619022  1
  O2-  O242  1  0.45968156  0.41579329  0.93232330  1
  O2-  O243  1  0.45198309  0.91564970  0.27113338  1
  O2-  O244  1  0.46517244  0.91183364  0.60199007  1
  O2-  O245  1  0.45460415  0.91436492  0.93665216  1
  O2-  O246  1  0.96187303  0.41256243  0.26933793  1
  O2-  O247  1  0.95268247  0.42098148  0.60111664  1
  O2-  O248  1  0.95666481  0.41394302  0.93980710  1
  O2-  O249  1  0.95941992  0.91363651  0.26910737  1
  O2-  O250  1  0.95523206  0.91804451  0.59142252  1
  O2-  O251  1  0.95539203  0.91942230  0.93243029  1
  O2-  O252  1  0.32996411  0.29735180  0.27099168  1
  O2-  O253  1  0.33512519  0.29382379  0.59525429  1
  O2-  O254  1  0.32856268  0.29586431  0.93423464  1
  O2-  O255  1  0.33295005  0.79670642  0.26884184  1
  O2-  O256  1  0.33817645  0.80115712  0.60444697  1
  O2-  O257  1  0.33312257  0.79805712  0.93868198  1
  O2-  O258  1  0.83569285  0.30027019  0.27281909  1
  O2-  O259  1  0.82875435  0.29143183  0.59771826  1
  O2-  O260  1  0.82979024  0.30568767  0.94469483  1
  O2-  O261  1  0.83801981  0.79484747  0.26827639  1
  O2-  O262  1  0.82749094  0.79264338  0.59460239  1
  O2-  O263  1  0.83374123  0.79111225  0.93156732  1
  O2-  O264  1  0.41804198  0.03928467  0.06759345  1
  O2-  O265  1  0.41878739  0.04268206  0.40049556  1
  O2-  O266  1  0.41926980  0.03830427  0.73473944  1
  O2-  O267  1  0.41381555  0.53821202  0.06599528  1
  O2-  O268  1  0.41340087  0.54383013  0.39113550  1
  O2-  O269  1  0.41951920  0.53938980  0.73360687  1
  O2-  O270  1  0.91693026  0.03833729  0.06728714  1
  O2-  O271  1  0.91693785  0.03968805  0.40185801  1
  O2-  O272  1  0.91331212  0.04244311  0.72306873  1
  O2-  O273  1  0.91107656  0.54156937  0.06400749  1
  O2-  O274  1  0.91548324  0.53935034  0.40039467  1
  O2-  O275  1  0.92157258  0.54960900  0.73473720  1
  O2-  O276  1  0.28640253  0.16779290  0.06904246  1
  O2-  O277  1  0.28854149  0.16739653  0.40009835  1
  O2-  O278  1  0.29834937  0.17275137  0.73062370  1
  O2-  O279  1  0.30027563  0.66362965  0.06639239  1
  O2-  O280  1  0.29547346  0.66389789  0.39086035  1
  O2-  O281  1  0.30538255  0.67382204  0.73085839  1
  O2-  O282  1  0.79339743  0.16909500  0.06702515  1
  O2-  O283  1  0.79209060  0.17032296  0.40096531  1
  O2-  O284  1  0.79300320  0.16059399  0.72814102  1
  O2-  O285  1  0.79036237  0.66248424  0.06048227  1
  O2-  O286  1  0.79208104  0.67000834  0.39888451  1
  O2-  O287  1  0.78752306  0.66982714  0.73652894  1
