# generated using pymatgen
data_Ca2Al2SiO7
_symmetry_space_group_name_H-M   'P 1'
_cell_length_a   15.45638763
_cell_length_b   15.45710024
_cell_length_c   15.28241768
_cell_angle_alpha   90.00118815
_cell_angle_beta   90.00867627
_cell_angle_gamma   90.00540588
_symmetry_Int_Tables_number   1
_chemical_formula_structural   Ca2Al2SiO7
_chemical_formula_sum   'Ca48 Al48 Si24 O168'
_cell_volume   3651.13660572
_cell_formula_units_Z   24
loop_
 _symmetry_equiv_pos_site_id
 _symmetry_equiv_pos_as_xyz
  1  'x, y, z'
loop_
 _atom_type_symbol
 _atom_type_oxidation_number
  Ca2+  2.0
  Al0+  0.0
  Si0+  0.0
  O2-  -2.0
loop_
 _atom_site_type_symbol
 _atom_site_label
 _atom_site_symmetry_multiplicity
 _atom_site_fract_x
 _atom_site_fract_y
 _atom_site_fract_z
 _atom_site_occupancy
  Ca2+  Ca0  1  0.17202815  0.07552760  0.17570257  1
  Ca2+  Ca1  1  0.17236526  0.07290545  0.50220029  1
  Ca2+  Ca2  1  0.16396933  0.06973035  0.83792426  1
  Ca2+  Ca3  1  0.17472489  0.57448757  0.17077267  1
  Ca2+  Ca4  1  0.17111699  0.58458109  0.50760213  1
  Ca2+  Ca5  1  0.16233722  0.57485188  0.83307008  1
  Ca2+  Ca6  1  0.67254165  0.08558330  0.17405356  1
  Ca2+  Ca7  1  0.66260063  0.07582565  0.50367797  1
  Ca2+  Ca8  1  0.66507134  0.08502755  0.83455940  1
  Ca2+  Ca9  1  0.66414297  0.58072545  0.17434828  1
  Ca2+  Ca10  1  0.66910891  0.58179232  0.51118697  1
  Ca2+  Ca11  1  0.66828130  0.58193690  0.82967710  1
  Ca2+  Ca12  1  0.07852553  0.33063645  0.15673641  1
  Ca2+  Ca13  1  0.07718215  0.33977117  0.50144527  1
  Ca2+  Ca14  1  0.07551711  0.34171917  0.82625270  1
  Ca2+  Ca15  1  0.08096867  0.84353728  0.16655188  1
  Ca2+  Ca16  1  0.08139703  0.83560456  0.49641229  1
  Ca2+  Ca17  1  0.08658809  0.82886332  0.82340040  1
  Ca2+  Ca18  1  0.57536956  0.31968231  0.15895088  1
  Ca2+  Ca19  1  0.59165797  0.32163363  0.49745416  1
  Ca2+  Ca20  1  0.58509866  0.32251522  0.82796702  1
  Ca2+  Ca21  1  0.58803900  0.83032639  0.16938858  1
  Ca2+  Ca22  1  0.58891219  0.82647434  0.49601314  1
  Ca2+  Ca23  1  0.57617518  0.83221327  0.81855670  1
  Ca2+  Ca24  1  0.33366510  0.41569593  0.16966597  1
  Ca2+  Ca25  1  0.33031274  0.42481671  0.50553069  1
  Ca2+  Ca26  1  0.32326964  0.41165175  0.83890522  1
  Ca2+  Ca27  1  0.32235956  0.92111397  0.17438479  1
  Ca2+  Ca28  1  0.33089045  0.91700752  0.50468984  1
  Ca2+  Ca29  1  0.32536974  0.90993715  0.83325124  1
  Ca2+  Ca30  1  0.83319883  0.41560578  0.16711755  1
  Ca2+  Ca31  1  0.82795796  0.42281552  0.51348633  1
  Ca2+  Ca32  1  0.83389283  0.41619764  0.82978459  1
  Ca2+  Ca33  1  0.83106557  0.93043493  0.17799083  1
  Ca2+  Ca34  1  0.82444913  0.91671583  0.49993344  1
  Ca2+  Ca35  1  0.82397056  0.92335677  0.83750565  1
  Ca2+  Ca36  1  0.42613708  0.16028538  0.16259442  1
  Ca2+  Ca37  1  0.42672095  0.16209027  0.49511718  1
  Ca2+  Ca38  1  0.42515201  0.16955380  0.82918598  1
  Ca2+  Ca39  1  0.41912040  0.66256824  0.16933421  1
  Ca2+  Ca40  1  0.42436678  0.67003759  0.49660701  1
  Ca2+  Ca41  1  0.42257983  0.67446616  0.82302444  1
  Ca2+  Ca42  1  0.91280890  0.16736923  0.15937615  1
  Ca2+  Ca43  1  0.91225242  0.17108418  0.49688481  1
  Ca2+  Ca44  1  0.91176008  0.17663288  0.83148480  1
  Ca2+  Ca45  1  0.91722486  0.67886419  0.16615313  1
  Ca2+  Ca46  1  0.92079270  0.66990268  0.49796404  1
  Ca2+  Ca47  1  0.92329574  0.66522145  0.82290200  1
  Al0+  Al48  1  -0.00350665  0.00016205  0.00534864  1
  Al0+  Al49  1  -0.00087375  0.00237420  0.33734732  1
  Al0+  Al50  1  0.00130189  0.00189768  0.67121285  1
  Al0+  Al51  1  0.00082673  0.50119717  0.00337937  1
  Al0+  Al52  1  -0.00056428  0.50125616  0.32957120  1
  Al0+  Al53  1  0.00041855  0.50173910  0.66370516  1
  Al0+  Al54  1  0.49970435  -0.00410133  -0.00420572  1
  Al0+  Al55  1  0.50002529  -0.00216663  0.33306450  1
  Al0+  Al56  1  0.49928196  0.00181617  0.66390157  1
  Al0+  Al57  1  0.49999180  0.49967424  -0.00409905  1
  Al0+  Al58  1  0.49897570  0.49939953  0.33365853  1
  Al0+  Al59  1  0.50054161  0.49944467  0.66931082  1
  Al0+  Al60  1  0.24962426  0.24764201  0.00131578  1
  Al0+  Al61  1  0.24736747  0.24992776  0.33783228  1
  Al0+  Al62  1  0.24989665  0.24963543  0.66995441  1
  Al0+  Al63  1  0.25008774  0.74813420  0.00571890  1
  Al0+  Al64  1  0.25041929  0.74587713  0.33846723  1
  Al0+  Al65  1  0.25002176  0.75048264  0.66260319  1
  Al0+  Al66  1  0.75064860  0.25148588  -0.00372944  1
  Al0+  Al67  1  0.74932895  0.25109137  0.33074189  1
  Al0+  Al68  1  0.75064605  0.25178837  0.66145750  1
  Al0+  Al69  1  0.75153701  0.74930215  -0.00064025  1
  Al0+  Al70  1  0.75247477  0.75015595  0.32588195  1
  Al0+  Al71  1  0.75111775  0.75200198  0.67348713  1
  Al0+  Al72  1  0.68007927  0.92730073  0.34695374  1
  Al0+  Al73  1  0.67791872  0.42710027  0.68240217  1
  Al0+  Al74  1  0.06969519  0.68004997  0.65325325  1
  Al0+  Al75  1  0.57017902  0.18144272  0.65074055  1
  Al0+  Al76  1  0.18017606  0.43000616  0.67927618  1
  Al0+  Al77  1  0.57331024  0.67886870  0.65263392  1
  Al0+  Al78  1  0.17872663  0.42757313  0.01391086  1
  Al0+  Al79  1  0.32208540  0.56804499  0.34833068  1
  Al0+  Al80  1  0.17887668  0.92751829  0.01413166  1
  Al0+  Al81  1  0.81631255  0.07189926  0.01278263  1
  Al0+  Al82  1  0.93177314  0.82178515  0.32007315  1
  Al0+  Al83  1  0.17979920  0.92906300  0.68089579  1
  Al0+  Al84  1  0.17833911  0.92833629  0.34982754  1
  Al0+  Al85  1  0.82136041  0.57224568  0.68103306  1
  Al0+  Al86  1  0.42862240  0.82143576  0.64995418  1
  Al0+  Al87  1  0.57104915  0.17750621  0.98399828  1
  Al0+  Al88  1  0.93185159  0.31991341  0.65183440  1
  Al0+  Al89  1  0.42652345  0.32173734  0.98443323  1
  Al0+  Al90  1  0.32262277  0.07208231  0.34841278  1
  Al0+  Al91  1  0.57001357  0.17718752  0.31877026  1
  Al0+  Al92  1  0.67831262  0.93048397  0.68019668  1
  Al0+  Al93  1  0.82023642  0.07487870  0.35014489  1
  Al0+  Al94  1  0.57106708  0.67834436  0.31922406  1
  Al0+  Al95  1  0.93143221  0.32251283  0.98537369  1
  Si0+  Si96  1  0.07134140  0.17556382  0.98439579  1
  Si0+  Si97  1  0.07390470  0.67633884  0.31376198  1
  Si0+  Si98  1  0.17494496  0.42828531  0.35049462  1
  Si0+  Si99  1  0.32345741  0.57072670  0.01649882  1
  Si0+  Si100  1  0.42454192  0.32247419  0.64970323  1
  Si0+  Si101  1  0.42599319  0.82037706  0.31496165  1
  Si0+  Si102  1  0.32258522  0.57261048  0.68425025  1
  Si0+  Si103  1  0.92900632  0.82260547  0.98414648  1
  Si0+  Si104  1  0.57325876  0.67807951  0.98420482  1
  Si0+  Si105  1  0.67988605  0.43054187  0.34560818  1
  Si0+  Si106  1  0.07065061  0.68121736  0.98688191  1
  Si0+  Si107  1  0.32338631  0.06995253  0.01527518  1
  Si0+  Si108  1  0.42778220  0.81765826  0.98669162  1
  Si0+  Si109  1  0.42631156  0.32124451  0.31908570  1
  Si0+  Si110  1  0.82202112  0.57245159  0.01769618  1
  Si0+  Si111  1  0.07400636  0.17591628  0.64976857  1
  Si0+  Si112  1  0.07062885  0.18043172  0.31880678  1
  Si0+  Si113  1  0.82212823  0.07359977  0.68354174  1
  Si0+  Si114  1  0.67906186  0.43101016  0.01535758  1
  Si0+  Si115  1  0.82154995  0.57130829  0.34574000  1
  Si0+  Si116  1  0.67639950  0.92527817  0.01665937  1
  Si0+  Si117  1  0.92807051  0.82583836  0.65253646  1
  Si0+  Si118  1  0.32270065  0.07243693  0.68543671  1
  Si0+  Si119  1  0.92901316  0.32268680  0.31690910  1
  O2-  O120  1  0.25168643  0.00431883  0.05951262  1
  O2-  O121  1  0.25426112  -0.00332604  0.39862846  1
  O2-  O122  1  0.25363884  0.00354901  0.72942802  1
  O2-  O123  1  0.25878096  0.49716723  0.05964270  1
  O2-  O124  1  0.24463388  0.49568086  0.39368168  1
  O2-  O125  1  0.25681768  0.50125740  0.72870162  1
  O2-  O126  1  0.74086081  -0.00207181  0.05956223  1
  O2-  O127  1  0.74727395  0.00319989  0.39818040  1
  O2-  O128  1  0.75326901  0.00491617  0.72748410  1
  O2-  O129  1  0.74882776  0.50318898  0.05944310  1
  O2-  O130  1  0.75064032  0.50134144  0.38787806  1
  O2-  O131  1  0.74775559  0.50201411  0.73219150  1
  O2-  O132  1  -0.00031259  0.25138534  0.27541993  1
  O2-  O133  1  0.00616497  0.24513329  0.60457247  1
  O2-  O134  1  0.00795051  0.24886967  0.93958225  1
  O2-  O135  1  0.00989139  0.75021046  0.27072955  1
  O2-  O136  1  -0.00370443  0.75666470  0.60838981  1
  O2-  O137  1  0.00202460  0.75359738  0.94280398  1
  O2-  O138  1  0.49006996  0.24822618  0.27424500  1
  O2-  O139  1  0.49592215  0.25759474  0.60463774  1
  O2-  O140  1  0.49786474  0.24918306  0.93481266  1
  O2-  O141  1  0.49700201  0.75317430  0.27042112  1
  O2-  O142  1  0.50300698  0.75114687  0.60094066  1
  O2-  O143  1  0.50292292  0.75059518  0.94474635  1
  O2-  O144  1  0.06894971  0.17580184  0.09035322  1
  O2-  O145  1  0.07131724  0.18278354  0.42364416  1
  O2-  O146  1  0.07260688  0.17414736  0.75549393  1
  O2-  O147  1  0.06887208  0.68103950  0.09193580  1
  O2-  O148  1  0.06991000  0.67042299  0.41876686  1
  O2-  O149  1  0.06921753  0.68037842  0.76729341  1
  O2-  O150  1  0.57039975  0.17861209  0.09785472  1
  O2-  O151  1  0.57250941  0.18147347  0.43146115  1
  O2-  O152  1  0.56897918  0.18115155  0.76385848  1
  O2-  O153  1  0.57385259  0.67677866  0.08950702  1
  O2-  O154  1  0.57223225  0.67643015  0.43129250  1
  O2-  O155  1  0.57023481  0.68139214  0.76709927  1
  O2-  O156  1  0.17332050  0.42867476  0.24464335  1
  O2-  O157  1  0.18119917  0.43263840  0.56603012  1
  O2-  O158  1  0.17551095  0.43363240  0.90128959  1
  O2-  O159  1  0.17895495  0.93267020  0.23560118  1
  O2-  O160  1  0.17853015  0.93088053  0.56857604  1
  O2-  O161  1  0.18111518  0.92480628  0.90109128  1
  O2-  O162  1  0.68147708  0.43148529  0.23985271  1
  O2-  O163  1  0.68171793  0.42631935  0.56817830  1
  O2-  O164  1  0.67977773  0.43290272  0.91087812  1
  O2-  O165  1  0.68383270  0.92704746  0.23280923  1
  O2-  O166  1  0.68033672  0.92891501  0.56759851  1
  O2-  O167  1  0.67822967  0.92208516  0.91121839  1
  O2-  O168  1  0.43058320  0.32356603  0.09843712  1
  O2-  O169  1  0.42894891  0.32387192  0.42436599  1
  O2-  O170  1  0.42183550  0.31847431  0.75515007  1
  O2-  O171  1  0.42625982  0.81643210  0.09159426  1
  O2-  O172  1  0.42484640  0.81810190  0.41987594  1
  O2-  O173  1  0.42777098  0.81827736  0.76483194  1
  O2-  O174  1  0.93197601  0.32240194  0.09913134  1
  O2-  O175  1  0.93011554  0.32608534  0.42159678  1
  O2-  O176  1  0.93275020  0.31932272  0.76502107  1
  O2-  O177  1  0.92800368  0.82090256  0.08924942  1
  O2-  O178  1  0.93032583  0.81678169  0.43289606  1
  O2-  O179  1  0.93063891  0.82616174  0.75876668  1
  O2-  O180  1  0.31910552  0.07222628  0.23411812  1
  O2-  O181  1  0.32102283  0.07334528  0.58000837  1
  O2-  O182  1  0.32378805  0.06757242  0.90984737  1
  O2-  O183  1  0.32187761  0.56444237  0.23454769  1
  O2-  O184  1  0.32129757  0.57131233  0.57859880  1
  O2-  O185  1  0.32148320  0.57566264  0.91148853  1
  O2-  O186  1  0.81949934  0.07595211  0.23610891  1
  O2-  O187  1  0.82293027  0.07257156  0.57823786  1
  O2-  O188  1  0.81765498  0.06912244  0.89974932  1
  O2-  O189  1  0.82222554  0.56845652  0.24000295  1
  O2-  O190  1  0.82211173  0.57026854  0.56690953  1
  O2-  O191  1  0.82326926  0.57485521  0.91329523  1
  O2-  O192  1  0.04322017  0.08892340  0.27108383  1
  O2-  O193  1  0.04681415  0.08291600  0.60317553  1
  O2-  O194  1  0.03972866  0.08351761  0.93783157  1
  O2-  O195  1  0.04180193  0.58523228  0.26396368  1
  O2-  O196  1  0.03772862  0.58605939  0.59579274  1
  O2-  O197  1  0.03965300  0.59024735  0.94009366  1
  O2-  O198  1  0.54391293  0.07915768  0.26466512  1
  O2-  O199  1  0.53782739  0.08577339  0.59703335  1
  O2-  O200  1  0.54526047  0.07717257  0.93268593  1
  O2-  O201  1  0.53733479  0.58201738  0.26381877  1
  O2-  O202  1  0.54683793  0.57841926  0.60267326  1
  O2-  O203  1  0.54531170  0.58717142  0.93606123  1
  O2-  O204  1  0.16235212  0.20839359  0.26973483  1
  O2-  O205  1  0.16816778  0.20105852  0.60494701  1
  O2-  O206  1  0.16745682  0.19300707  0.94112749  1
  O2-  O207  1  0.16998218  0.69537043  0.27031651  1
  O2-  O208  1  0.16570744  0.70874804  0.59855126  1
  O2-  O209  1  0.16396755  0.70613603  0.94099052  1
  O2-  O210  1  0.66488717  0.21479713  0.26390588  1
  O2-  O211  1  0.66642123  0.21167823  0.59623936  1
  O2-  O212  1  0.66781495  0.21019609  0.93091785  1
  O2-  O213  1  0.66715435  0.70714206  0.26171987  1
  O2-  O214  1  0.67384027  0.70598859  0.60380055  1
  O2-  O215  1  0.66631021  0.70371286  0.93819791  1
  O2-  O216  1  0.08496033  0.46442960  0.07099041  1
  O2-  O217  1  0.08128270  0.45708060  0.39513064  1
  O2-  O218  1  0.08503841  0.46541683  0.73255847  1
  O2-  O219  1  0.08151690  0.95720667  0.06667934  1
  O2-  O220  1  0.08192218  0.96094010  0.40268886  1
  O2-  O221  1  0.08348011  0.95969894  0.73743837  1
  O2-  O222  1  0.58673430  0.45905767  0.06250018  1
  O2-  O223  1  0.58835695  0.45666289  0.39253458  1
  O2-  O224  1  0.57835606  0.45065467  0.73580709  1
  O2-  O225  1  0.58010316  0.94414813  0.05996334  1
  O2-  O226  1  0.57917766  0.94729657  0.39615050  1
  O2-  O227  1  0.58130976  0.96192553  0.73353740  1
  O2-  O228  1  0.20272225  0.32855444  0.06722111  1
  O2-  O229  1  0.19623125  0.33438209  0.39671965  1
  O2-  O230  1  0.20515980  0.33186382  0.73378249  1
  O2-  O231  1  0.21075277  0.83207536  0.07027947  1
  O2-  O232  1  0.19942919  0.82667075  0.39750140  1
  O2-  O233  1  0.21129758  0.83178918  0.73401137  1
  O2-  O234  1  0.70938716  0.34001520  0.06251822  1
  O2-  O235  1  0.70957067  0.33986974  0.39273619  1
  O2-  O236  1  0.71272502  0.33040161  0.73513839  1
  O2-  O237  1  0.70637500  0.83231007  0.06280415  1
  O2-  O238  1  0.71465159  0.82925564  0.39746321  1
  O2-  O239  1  0.70835436  0.83576540  0.73850546  1
  O2-  O240  1  0.45711582  0.41226428  0.27023098  1
  O2-  O241  1  0.44610018  0.41853028  0.60762758  1
  O2-  O242  1  0.45283928  0.42096395  0.93163180  1
  O2-  O243  1  0.44926602  0.91415763  0.26819779  1
  O2-  O244  1  0.45234688  0.92121120  0.59995056  1
  O2-  O245  1  0.45066032  0.90936401  0.93702515  1
  O2-  O246  1  0.95688731  0.41429303  0.26736112  1
  O2-  O247  1  0.96415337  0.41548710  0.59673805  1
  O2-  O248  1  0.96175093  0.42060342  0.93393364  1
  O2-  O249  1  0.96022857  0.92014447  0.26676085  1
  O2-  O250  1  0.95477355  0.91914727  0.60678440  1
  O2-  O251  1  0.95339976  0.91539479  0.93805500  1
  O2-  O252  1  0.32945107  0.30189539  0.27597690  1
  O2-  O253  1  0.33142607  0.29559248  0.60240473  1
  O2-  O254  1  0.32655941  0.29470991  0.93333040  1
  O2-  O255  1  0.33295416  0.78993048  0.26878497  1
  O2-  O256  1  0.33193347  0.79085892  0.59608286  1
  O2-  O257  1  0.33707377  0.78511443  0.93900681  1
  O2-  O258  1  0.83720066  0.29630355  0.26868775  1
  O2-  O259  1  0.83612791  0.29072423  0.59589439  1
  O2-  O260  1  0.83529301  0.29212737  0.93149163  1
  O2-  O261  1  0.83909559  0.78666204  0.26011317  1
  O2-  O262  1  0.83440239  0.79999515  0.60847272  1
  O2-  O263  1  0.83777215  0.79180184  0.93664120  1
  O2-  O264  1  0.41583333  0.03916811  0.06174330  1
  O2-  O265  1  0.42170362  0.04622542  0.39945216  1
  O2-  O266  1  0.41565609  0.04641421  0.73162944  1
  O2-  O267  1  0.41876691  0.54861582  0.06177007  1
  O2-  O268  1  0.41726819  0.53547000  0.40376048  1
  O2-  O269  1  0.41688638  0.55119643  0.73042358  1
  O2-  O270  1  0.91208544  0.04043175  0.06889220  1
  O2-  O271  1  0.91839114  0.04783444  0.40243800  1
  O2-  O272  1  0.91571339  0.04967690  0.73107247  1
  O2-  O273  1  0.91227687  0.54310693  0.06712549  1
  O2-  O274  1  0.91376207  0.54317224  0.39227576  1
  O2-  O275  1  0.91861040  0.53959203  0.73423402  1
  O2-  O276  1  0.30246101  0.16446395  0.06132034  1
  O2-  O277  1  0.29167323  0.16953488  0.40254752  1
  O2-  O278  1  0.29712482  0.16568450  0.73245197  1
  O2-  O279  1  0.29229632  0.66069463  0.06740073  1
  O2-  O280  1  0.29412078  0.66401413  0.40334413  1
  O2-  O281  1  0.29282228  0.66503595  0.72983193  1
  O2-  O282  1  0.78948111  0.17017885  0.06624481  1
  O2-  O283  1  0.79377986  0.17488522  0.40065877  1
  O2-  O284  1  0.79480801  0.16719460  0.72768060  1
  O2-  O285  1  0.79426224  0.66487714  0.06547244  1
  O2-  O286  1  0.79563966  0.66338709  0.39057212  1
  O2-  O287  1  0.79810081  0.67035946  0.73762737  1
