# generated using pymatgen
data_Ca2Al2SiO7
_symmetry_space_group_name_H-M   'P 1'
_cell_length_a   15.45206873
_cell_length_b   15.45296543
_cell_length_c   15.28005036
_cell_angle_alpha   90.01175097
_cell_angle_beta   89.99741881
_cell_angle_gamma   89.99809893
_symmetry_Int_Tables_number   1
_chemical_formula_structural   Ca2Al2SiO7
_chemical_formula_sum   'Ca48 Al48 Si24 O168'
_cell_volume   3648.57468252
_cell_formula_units_Z   24
loop_
 _symmetry_equiv_pos_site_id
 _symmetry_equiv_pos_as_xyz
  1  'x, y, z'
loop_
 _atom_type_symbol
 _atom_type_oxidation_number
  Ca2+  2.0
  Al0+  0.0
  Si0+  0.0
  O2-  -2.0
loop_
 _atom_site_type_symbol
 _atom_site_label
 _atom_site_symmetry_multiplicity
 _atom_site_fract_x
 _atom_site_fract_y
 _atom_site_fract_z
 _atom_site_occupancy
  Ca2+  Ca0  1  0.17172507  0.07130864  0.16857351  1
  Ca2+  Ca1  1  0.16176892  0.07945446  0.50235240  1
  Ca2+  Ca2  1  0.16962500  0.08002329  0.84004291  1
  Ca2+  Ca3  1  0.16486355  0.58191339  0.17047475  1
  Ca2+  Ca4  1  0.17241944  0.57959401  0.50711635  1
  Ca2+  Ca5  1  0.16912003  0.57181029  0.83573717  1
  Ca2+  Ca6  1  0.66797600  0.07692464  0.17550913  1
  Ca2+  Ca7  1  0.67454425  0.06901208  0.50671088  1
  Ca2+  Ca8  1  0.67059879  0.07974294  0.83216454  1
  Ca2+  Ca9  1  0.67150711  0.58160975  0.17294904  1
  Ca2+  Ca10  1  0.66665744  0.58537478  0.50530987  1
  Ca2+  Ca11  1  0.67698888  0.59085042  0.83173245  1
  Ca2+  Ca12  1  0.07080379  0.34018267  0.16044294  1
  Ca2+  Ca13  1  0.08109503  0.32868629  0.49728797  1
  Ca2+  Ca14  1  0.08694336  0.33088553  0.82852621  1
  Ca2+  Ca15  1  0.08722311  0.83105349  0.16787628  1
  Ca2+  Ca16  1  0.07204974  0.82930366  0.48960178  1
  Ca2+  Ca17  1  0.07799682  0.83505439  0.82713550  1
  Ca2+  Ca18  1  0.57925446  0.33740296  0.16813018  1
  Ca2+  Ca19  1  0.57312856  0.34075073  0.49276068  1
  Ca2+  Ca20  1  0.57482593  0.33108862  0.82552734  1
  Ca2+  Ca21  1  0.57678496  0.83508394  0.16582193  1
  Ca2+  Ca22  1  0.58635907  0.82391923  0.49288001  1
  Ca2+  Ca23  1  0.57845624  0.83038803  0.82557701  1
  Ca2+  Ca24  1  0.32634606  0.41394089  0.17232222  1
  Ca2+  Ca25  1  0.33331545  0.42189244  0.51144358  1
  Ca2+  Ca26  1  0.32525493  0.41612414  0.83134162  1
  Ca2+  Ca27  1  0.32898720  0.91163382  0.17195519  1
  Ca2+  Ca28  1  0.32699164  0.90821455  0.49922825  1
  Ca2+  Ca29  1  0.32680959  0.92099993  0.84735423  1
  Ca2+  Ca30  1  0.83325877  0.41993400  0.17362253  1
  Ca2+  Ca31  1  0.82918106  0.42125110  0.50266212  1
  Ca2+  Ca32  1  0.84020241  0.43034163  0.83995740  1
  Ca2+  Ca33  1  0.82856636  0.91710482  0.17773960  1
  Ca2+  Ca34  1  0.82719545  0.90958205  0.50800070  1
  Ca2+  Ca35  1  0.83068828  0.91654619  0.82865515  1
  Ca2+  Ca36  1  0.41425208  0.16705764  0.16513563  1
  Ca2+  Ca37  1  0.41438529  0.18153226  0.49639337  1
  Ca2+  Ca38  1  0.41185909  0.16969859  0.82848792  1
  Ca2+  Ca39  1  0.42190824  0.67791156  0.16670568  1
  Ca2+  Ca40  1  0.42766262  0.66580491  0.49279097  1
  Ca2+  Ca41  1  0.42080457  0.66890053  0.82610026  1
  Ca2+  Ca42  1  0.91250923  0.18133663  0.16288439  1
  Ca2+  Ca43  1  0.91883203  0.16731545  0.49851772  1
  Ca2+  Ca44  1  0.92324183  0.17116612  0.82433946  1
  Ca2+  Ca45  1  0.91920924  0.66905647  0.16708093  1
  Ca2+  Ca46  1  0.91692735  0.67446484  0.49599354  1
  Ca2+  Ca47  1  0.91285871  0.66911320  0.82627556  1
  Al0+  Al48  1  -0.00061763  0.00089137  0.00480499  1
  Al0+  Al49  1  0.00215408  0.00088544  0.33238221  1
  Al0+  Al50  1  -0.00132352  0.00122035  0.66220021  1
  Al0+  Al51  1  -0.00071189  0.50242382  0.00368633  1
  Al0+  Al52  1  0.00054032  0.49958383  0.32859949  1
  Al0+  Al53  1  -0.00002746  0.49892491  0.67341533  1
  Al0+  Al54  1  0.50034467  0.00090350  -0.00197856  1
  Al0+  Al55  1  0.50055126  0.00228670  0.33767940  1
  Al0+  Al56  1  0.49920971  0.00004351  0.66909995  1
  Al0+  Al57  1  0.50120880  0.50009372  -0.00265438  1
  Al0+  Al58  1  0.50031278  0.49983372  0.32554104  1
  Al0+  Al59  1  0.49955794  0.50132039  0.66515336  1
  Al0+  Al60  1  0.24883623  0.24949095  0.00971480  1
  Al0+  Al61  1  0.24946075  0.24887416  0.32878747  1
  Al0+  Al62  1  0.24853576  0.24836685  0.66041468  1
  Al0+  Al63  1  0.24973773  0.74844442  -0.00269320  1
  Al0+  Al64  1  0.25042889  0.74908208  0.33224308  1
  Al0+  Al65  1  0.24994331  0.74915842  0.67279850  1
  Al0+  Al66  1  0.74889987  0.25156387  -0.00677844  1
  Al0+  Al67  1  0.74937275  0.25129518  0.33547368  1
  Al0+  Al68  1  0.74992748  0.24842649  0.66993899  1
  Al0+  Al69  1  0.75104732  0.74944053  0.00509200  1
  Al0+  Al70  1  0.75163295  0.74940991  0.32850958  1
  Al0+  Al71  1  0.74809714  0.74951185  0.66784650  1
  Al0+  Al72  1  0.17954974  0.42671564  0.67968274  1
  Al0+  Al73  1  0.92881245  0.32296892  0.98399523  1
  Al0+  Al74  1  0.57315810  0.67813989  0.31620310  1
  Al0+  Al75  1  0.43087043  0.31846120  0.65434719  1
  Al0+  Al76  1  0.07189174  0.67849003  0.31930134  1
  Al0+  Al77  1  0.18063735  0.43037972  0.01582560  1
  Al0+  Al78  1  0.92920265  0.82239982  0.31733602  1
  Al0+  Al79  1  0.81991335  0.57130431  0.01639265  1
  Al0+  Al80  1  0.81953606  0.56944944  0.67815570  1
  Al0+  Al81  1  0.42822745  0.32158641  0.31798776  1
  Al0+  Al82  1  0.93075016  0.81870724  0.65496837  1
  Al0+  Al83  1  0.92908460  0.31903929  0.32149007  1
  Al0+  Al84  1  0.67961181  0.92801847  0.34654485  1
  Al0+  Al85  1  0.32342402  0.57230721  0.68183097  1
  Al0+  Al86  1  0.56923557  0.68145357  0.65389039  1
  Al0+  Al87  1  0.32281086  0.07070370  0.01590999  1
  Al0+  Al88  1  0.42982792  0.82274023  0.32059450  1
  Al0+  Al89  1  0.07000929  0.17972837  0.65316885  1
  Al0+  Al90  1  0.18060510  0.92814522  0.34963422  1
  Al0+  Al91  1  0.82305553  0.07156841  0.68246829  1
  Al0+  Al92  1  0.67827009  0.92774879  0.68300411  1
  Al0+  Al93  1  0.67846596  0.43000965  0.34648835  1
  Al0+  Al94  1  0.42928926  0.82072820  0.98506761  1
  Al0+  Al95  1  0.17754462  0.92647915  0.01526350  1
  Si0+  Si96  1  0.67637903  0.42679682  0.68312891  1
  Si0+  Si97  1  0.32034750  0.56895313  0.34592457  1
  Si0+  Si98  1  0.92782002  0.82272708  0.98508042  1
  Si0+  Si99  1  0.82043954  0.07362418  0.01490628  1
  Si0+  Si100  1  0.32478128  0.57161964  0.01786955  1
  Si0+  Si101  1  0.07034390  0.17875249  0.98517386  1
  Si0+  Si102  1  0.57146371  0.17953758  0.31831455  1
  Si0+  Si103  1  0.07328882  0.17712881  0.31262955  1
  Si0+  Si104  1  0.31953610  0.07075977  0.67891913  1
  Si0+  Si105  1  0.17745645  0.42789022  0.34790689  1
  Si0+  Si106  1  0.57114671  0.17836948  0.98360037  1
  Si0+  Si107  1  0.68051553  0.93065563  0.01504660  1
  Si0+  Si108  1  0.07019079  0.67960892  0.98298894  1
  Si0+  Si109  1  0.42520608  0.82449820  0.65120070  1
  Si0+  Si110  1  0.82247767  0.07328855  0.34885646  1
  Si0+  Si111  1  0.57337353  0.67857520  0.98183813  1
  Si0+  Si112  1  0.57440237  0.17575052  0.64880619  1
  Si0+  Si113  1  0.67693353  0.42624437  0.01556326  1
  Si0+  Si114  1  0.32183769  0.07388256  0.35354849  1
  Si0+  Si115  1  0.92647161  0.32461385  0.65097311  1
  Si0+  Si116  1  0.07379547  0.67576120  0.65283392  1
  Si0+  Si117  1  0.42704980  0.32046397  0.98529490  1
  Si0+  Si118  1  0.17812405  0.92905028  0.67997434  1
  Si0+  Si119  1  0.82342914  0.57078977  0.35050027  1
  O2-  O120  1  0.25419925  -0.00533991  0.06419293  1
  O2-  O121  1  0.25540079  0.00287269  0.39765036  1
  O2-  O122  1  0.25374442  -0.00465904  0.72169365  1
  O2-  O123  1  0.25769539  0.50223109  0.06354290  1
  O2-  O124  1  0.25039633  0.49683471  0.38929880  1
  O2-  O125  1  0.24974984  0.50066619  0.73012215  1
  O2-  O126  1  0.75177337  0.00114052  0.05807649  1
  O2-  O127  1  0.75959441  -0.00146658  0.39144889  1
  O2-  O128  1  0.74917404  0.00149925  0.73320060  1
  O2-  O129  1  0.74558252  0.49456052  0.05959470  1
  O2-  O130  1  0.75162102  0.50517228  0.39438625  1
  O2-  O131  1  0.74885346  0.49126962  0.72727844  1
  O2-  O132  1  0.00343070  0.24582506  0.27083651  1
  O2-  O133  1  -0.00585448  0.25441293  0.60773481  1
  O2-  O134  1  0.00341013  0.24771910  0.93847303  1
  O2-  O135  1  0.00184466  0.75143019  0.26681306  1
  O2-  O136  1  0.00607988  0.74462924  0.60849698  1
  O2-  O137  1  0.00150141  0.75432754  0.94265162  1
  O2-  O138  1  0.50243159  0.24639546  0.27121556  1
  O2-  O139  1  0.50868332  0.24760987  0.60566638  1
  O2-  O140  1  0.49818110  0.24909829  0.94334120  1
  O2-  O141  1  0.50486507  0.75507137  0.26858715  1
  O2-  O142  1  0.49312660  0.75526944  0.60807337  1
  O2-  O143  1  0.50280718  0.74528453  0.93772297  1
  O2-  O144  1  0.06658332  0.17872559  0.09046609  1
  O2-  O145  1  0.07425252  0.17867024  0.41850149  1
  O2-  O146  1  0.07207860  0.17963334  0.76658094  1
  O2-  O147  1  0.06968695  0.67859024  0.08786279  1
  O2-  O148  1  0.07095727  0.67718652  0.43317195  1
  O2-  O149  1  0.07325399  0.67796133  0.75881962  1
  O2-  O150  1  0.57444964  0.17795551  0.08852123  1
  O2-  O151  1  0.57046296  0.18120768  0.42354729  1
  O2-  O152  1  0.57194947  0.17611686  0.75501793  1
  O2-  O153  1  0.57363261  0.67906768  0.08701429  1
  O2-  O154  1  0.57071857  0.67653128  0.42981252  1
  O2-  O155  1  0.56940474  0.68365412  0.76743854  1
  O2-  O156  1  0.17781464  0.42955447  0.24260247  1
  O2-  O157  1  0.18053012  0.42733943  0.56570143  1
  O2-  O158  1  0.18299150  0.42909034  0.90283442  1
  O2-  O159  1  0.18229614  0.92950074  0.23678801  1
  O2-  O160  1  0.17849057  0.92880105  0.57507997  1
  O2-  O161  1  0.17563953  0.93059301  0.90084002  1
  O2-  O162  1  0.68091648  0.42901435  0.23310867  1
  O2-  O163  1  0.67582032  0.42809633  0.57756015  1
  O2-  O164  1  0.67485297  0.42552350  0.91004656  1
  O2-  O165  1  0.67906543  0.93371738  0.23261147  1
  O2-  O166  1  0.68032237  0.92745901  0.56960471  1
  O2-  O167  1  0.68153383  0.93118158  0.91013458  1
  O2-  O168  1  0.42944542  0.32088122  0.09025448  1
  O2-  O169  1  0.42755436  0.32179548  0.43106123  1
  O2-  O170  1  0.42996316  0.31453089  0.76814554  1
  O2-  O171  1  0.43258706  0.82112400  0.09787763  1
  O2-  O172  1  0.42828321  0.81777997  0.43416059  1
  O2-  O173  1  0.42574656  0.82547155  0.75703544  1
  O2-  O174  1  0.92707531  0.32033341  0.09734036  1
  O2-  O175  1  0.93060623  0.31889476  0.43456824  1
  O2-  O176  1  0.92813507  0.32461749  0.75661854  1
  O2-  O177  1  0.92587530  0.82218335  0.08969260  1
  O2-  O178  1  0.92884602  0.81976632  0.43103461  1
  O2-  O179  1  0.93281495  0.81875515  0.76891926  1
  O2-  O180  1  0.32047695  0.07535678  0.24806018  1
  O2-  O181  1  0.31858228  0.07212683  0.57417353  1
  O2-  O182  1  0.31995765  0.07220118  0.90150264  1
  O2-  O183  1  0.31861869  0.56730530  0.24057267  1
  O2-  O184  1  0.32323747  0.57120396  0.56777332  1
  O2-  O185  1  0.32453527  0.56956260  0.91232573  1
  O2-  O186  1  0.81788442  0.07623186  0.24248734  1
  O2-  O187  1  0.82216557  0.07095456  0.56898503  1
  O2-  O188  1  0.82017408  0.07302729  0.91016038  1
  O2-  O189  1  0.82413323  0.56756985  0.24468145  1
  O2-  O190  1  0.81932706  0.56896853  0.56535084  1
  O2-  O191  1  0.81831403  0.57339879  0.90299511  1
  O2-  O192  1  0.04916725  0.08349918  0.26698601  1
  O2-  O193  1  0.03841009  0.08507728  0.59563722  1
  O2-  O194  1  0.04396776  0.08477410  0.93909975  1
  O2-  O195  1  0.04286024  0.58134987  0.26330896  1
  O2-  O196  1  0.04887529  0.58121448  0.60896029  1
  O2-  O197  1  0.03788435  0.58940862  0.93548949  1
  O2-  O198  1  0.54609593  0.08621276  0.27120364  1
  O2-  O199  1  0.54560461  0.08270883  0.60359742  1
  O2-  O200  1  0.54442598  0.08756818  0.93367907  1
  O2-  O201  1  0.54014003  0.58293744  0.25948614  1
  O2-  O202  1  0.54132440  0.58422534  0.59973580  1
  O2-  O203  1  0.55053961  0.58357929  0.93606533  1
  O2-  O204  1  0.16612819  0.20275932  0.26577853  1
  O2-  O205  1  0.16409082  0.20998726  0.59402603  1
  O2-  O206  1  0.16575323  0.20446309  0.94247649  1
  O2-  O207  1  0.16971094  0.70578713  0.26469360  1
  O2-  O208  1  0.16844204  0.70048144  0.60831729  1
  O2-  O209  1  0.16288677  0.70258474  0.93468768  1
  O2-  O210  1  0.66433670  0.20584720  0.27079061  1
  O2-  O211  1  0.66980218  0.19701787  0.60503453  1
  O2-  O212  1  0.66091576  0.20762613  0.93224458  1
  O2-  O213  1  0.67206488  0.70201331  0.26331822  1
  O2-  O214  1  0.66469036  0.71272406  0.59897012  1
  O2-  O215  1  0.66697919  0.70847132  0.93759631  1
  O2-  O216  1  0.08513330  0.46513962  0.06899557  1
  O2-  O217  1  0.08613023  0.45653313  0.39514673  1
  O2-  O218  1  0.08185350  0.45221034  0.73567201  1
  O2-  O219  1  0.08026791  0.95777501  0.06991781  1
  O2-  O220  1  0.08313184  0.96044190  0.40214119  1
  O2-  O221  1  0.08813021  0.96179102  0.72698915  1
  O2-  O222  1  0.58282010  0.45210409  0.06160373  1
  O2-  O223  1  0.57997094  0.45982345  0.39737892  1
  O2-  O224  1  0.58446363  0.45571151  0.73046703  1
  O2-  O225  1  0.58913306  0.96081493  0.06111010  1
  O2-  O226  1  0.58463890  0.96125113  0.40227277  1
  O2-  O227  1  0.57910539  0.95662573  0.73620119  1
  O2-  O228  1  0.20760330  0.33435144  0.07261594  1
  O2-  O229  1  0.20319108  0.33388115  0.39155920  1
  O2-  O230  1  0.21240530  0.32896868  0.73219052  1
  O2-  O231  1  0.20323219  0.82616295  0.06486162  1
  O2-  O232  1  0.21112987  0.83096044  0.40328629  1
  O2-  O233  1  0.19992394  0.83646955  0.72929028  1
  O2-  O234  1  0.70146128  0.33176470  0.06060829  1
  O2-  O235  1  0.70840371  0.33381290  0.40213823  1
  O2-  O236  1  0.69536309  0.33103965  0.72801843  1
  O2-  O237  1  0.70750274  0.83914154  0.06270944  1
  O2-  O238  1  0.70824737  0.82945064  0.39730301  1
  O2-  O239  1  0.70990446  0.83178722  0.73833040  1
  O2-  O240  1  0.45951011  0.41525722  0.25984461  1
  O2-  O241  1  0.45885591  0.41591734  0.60123393  1
  O2-  O242  1  0.45503320  0.41238322  0.93731663  1
  O2-  O243  1  0.45362885  0.92399865  0.27083303  1
  O2-  O244  1  0.44851646  0.91899957  0.60581169  1
  O2-  O245  1  0.46031421  0.91796289  0.93149284  1
  O2-  O246  1  0.96024773  0.41430378  0.26528324  1
  O2-  O247  1  0.95337564  0.41778907  0.60497046  1
  O2-  O248  1  0.96142488  0.42039947  0.93350034  1
  O2-  O249  1  0.95482089  0.92250174  0.26615641  1
  O2-  O250  1  0.95950219  0.91471505  0.60011012  1
  O2-  O251  1  0.95308830  0.91649877  0.93952153  1
  O2-  O252  1  0.33207648  0.28981264  0.26331588  1
  O2-  O253  1  0.33671433  0.28475343  0.59789214  1
  O2-  O254  1  0.33449500  0.29099828  0.94083726  1
  O2-  O255  1  0.33381916  0.78924923  0.26619540  1
  O2-  O256  1  0.33002678  0.79921503  0.60789981  1
  O2-  O257  1  0.33164279  0.79194921  0.93128883  1
  O2-  O258  1  0.83246951  0.28803802  0.26650296  1
  O2-  O259  1  0.83134389  0.29999800  0.60716569  1
  O2-  O260  1  0.83191549  0.29383602  0.92953503  1
  O2-  O261  1  0.83232650  0.79378130  0.26195467  1
  O2-  O262  1  0.83457058  0.78615491  0.60262504  1
  O2-  O263  1  0.83639926  0.79135426  0.93837146  1
  O2-  O264  1  0.42369911  0.04774194  0.06653707  1
  O2-  O265  1  0.41691401  0.05467780  0.39874852  1
  O2-  O266  1  0.41295694  0.05026849  0.72723544  1
  O2-  O267  1  0.41983053  0.54775664  0.06205951  1
  O2-  O268  1  0.41271688  0.54019355  0.39095697  1
  O2-  O269  1  0.42049135  0.54167261  0.73632039  1
  O2-  O270  1  0.91213105  0.04919601  0.06361021  1
  O2-  O271  1  0.91903806  0.05526023  0.39064742  1
  O2-  O272  1  0.92082940  0.04065774  0.73592192  1
  O2-  O273  1  0.91581762  0.54122182  0.07073670  1
  O2-  O274  1  0.91624562  0.54113445  0.39594735  1
  O2-  O275  1  0.91616571  0.54339168  0.73572342  1
  O2-  O276  1  0.29264240  0.16663814  0.07262231  1
  O2-  O277  1  0.29087983  0.16715068  0.39886266  1
  O2-  O278  1  0.28659659  0.16022369  0.72745255  1
  O2-  O279  1  0.29660100  0.66485355  0.06218151  1
  O2-  O280  1  0.29302874  0.65979912  0.39451599  1
  O2-  O281  1  0.29616881  0.67009186  0.73805332  1
  O2-  O282  1  0.78858516  0.16539985  0.06062297  1
  O2-  O283  1  0.79143223  0.16376657  0.39778680  1
  O2-  O284  1  0.79637051  0.17052317  0.73713640  1
  O2-  O285  1  0.78895673  0.66703679  0.07234434  1
  O2-  O286  1  0.80064967  0.66607934  0.39294646  1
  O2-  O287  1  0.78487743  0.66356602  0.73490048  1
