# generated using pymatgen
data_Ca2Al2SiO7
_symmetry_space_group_name_H-M   'P 1'
_cell_length_a   15.46267103
_cell_length_b   15.46058433
_cell_length_c   15.28607147
_cell_angle_alpha   89.99846912
_cell_angle_beta   90.01732932
_cell_angle_gamma   90.01633321
_symmetry_Int_Tables_number   1
_chemical_formula_structural   Ca2Al2SiO7
_chemical_formula_sum   'Ca48 Al48 Si24 O168'
_cell_volume   3654.31742318
_cell_formula_units_Z   24
loop_
 _symmetry_equiv_pos_site_id
 _symmetry_equiv_pos_as_xyz
  1  'x, y, z'
loop_
 _atom_type_symbol
 _atom_type_oxidation_number
  Ca2+  2.0
  Al0+  0.0
  Si0+  0.0
  O2-  -2.0
loop_
 _atom_site_type_symbol
 _atom_site_label
 _atom_site_symmetry_multiplicity
 _atom_site_fract_x
 _atom_site_fract_y
 _atom_site_fract_z
 _atom_site_occupancy
  Ca2+  Ca0  1  0.15316828  0.07237404  0.16887213  1
  Ca2+  Ca1  1  0.16621233  0.08197731  0.50705421  1
  Ca2+  Ca2  1  0.16709900  0.08298346  0.83876862  1
  Ca2+  Ca3  1  0.15525134  0.57783904  0.16722775  1
  Ca2+  Ca4  1  0.16601463  0.58123195  0.50895367  1
  Ca2+  Ca5  1  0.15545817  0.57628665  0.83678466  1
  Ca2+  Ca6  1  0.67243016  0.07916017  0.17117577  1
  Ca2+  Ca7  1  0.67312283  0.07953421  0.50811043  1
  Ca2+  Ca8  1  0.68194278  0.07284711  0.83601192  1
  Ca2+  Ca9  1  0.67916340  0.57866049  0.17125203  1
  Ca2+  Ca10  1  0.66341146  0.56926180  0.50609401  1
  Ca2+  Ca11  1  0.67418295  0.57891439  0.83724734  1
  Ca2+  Ca12  1  0.08092789  0.32154599  0.15460401  1
  Ca2+  Ca13  1  0.09068685  0.32115132  0.49903406  1
  Ca2+  Ca14  1  0.08162049  0.32831964  0.83070838  1
  Ca2+  Ca15  1  0.09085559  0.82482095  0.16060489  1
  Ca2+  Ca16  1  0.08085174  0.82675441  0.49560809  1
  Ca2+  Ca17  1  0.08207478  0.82406334  0.82431742  1
  Ca2+  Ca18  1  0.58693190  0.33085474  0.16740317  1
  Ca2+  Ca19  1  0.58648263  0.32933361  0.49133254  1
  Ca2+  Ca20  1  0.58274782  0.33374592  0.82660007  1
  Ca2+  Ca21  1  0.58462939  0.84175978  0.16190763  1
  Ca2+  Ca22  1  0.57721449  0.84660749  0.49919105  1
  Ca2+  Ca23  1  0.58083538  0.84086109  0.82455378  1
  Ca2+  Ca24  1  0.32651428  0.41763468  0.16599882  1
  Ca2+  Ca25  1  0.32645471  0.42565356  0.51254091  1
  Ca2+  Ca26  1  0.31834626  0.42323605  0.83171254  1
  Ca2+  Ca27  1  0.31970526  0.91721600  0.16832687  1
  Ca2+  Ca28  1  0.32830126  0.92199508  0.50583366  1
  Ca2+  Ca29  1  0.32985685  0.91979868  0.83316297  1
  Ca2+  Ca30  1  0.84136224  0.42099686  0.16646103  1
  Ca2+  Ca31  1  0.82212002  0.41169929  0.50421891  1
  Ca2+  Ca32  1  0.83584802  0.42002590  0.83913199  1
  Ca2+  Ca33  1  0.82632045  0.92157837  0.16948693  1
  Ca2+  Ca34  1  0.82508667  0.91929019  0.51018978  1
  Ca2+  Ca35  1  0.83601946  0.92267973  0.83728620  1
  Ca2+  Ca36  1  0.42595813  0.16302261  0.16571668  1
  Ca2+  Ca37  1  0.42230738  0.16430221  0.49652346  1
  Ca2+  Ca38  1  0.41644380  0.16505059  0.82575864  1
  Ca2+  Ca39  1  0.42208474  0.66869031  0.16260668  1
  Ca2+  Ca40  1  0.41231847  0.67209309  0.50210677  1
  Ca2+  Ca41  1  0.41772117  0.67328000  0.82332307  1
  Ca2+  Ca42  1  0.92244786  0.17126238  0.15835503  1
  Ca2+  Ca43  1  0.92598319  0.16136503  0.50026085  1
  Ca2+  Ca44  1  0.92438862  0.16111518  0.83058092  1
  Ca2+  Ca45  1  0.92505165  0.66594050  0.15887088  1
  Ca2+  Ca46  1  0.92513056  0.67130416  0.50012045  1
  Ca2+  Ca47  1  0.92232045  0.67095886  0.82841113  1
  Al0+  Al48  1  -0.00030277  -0.00084260  0.00571299  1
  Al0+  Al49  1  -0.00135747  -0.00187633  0.33444086  1
  Al0+  Al50  1  -0.00064718  -0.00070760  0.66088472  1
  Al0+  Al51  1  -0.00008218  0.49837038  0.00165741  1
  Al0+  Al52  1  0.00101311  0.50142584  0.33400981  1
  Al0+  Al53  1  -0.00309439  0.49757744  0.66353312  1
  Al0+  Al54  1  0.49864433  0.00048079  0.00188854  1
  Al0+  Al55  1  0.49888854  0.00157240  0.32943204  1
  Al0+  Al56  1  0.49897288  0.00089213  0.66891192  1
  Al0+  Al57  1  0.49934463  0.50091305  -0.00096713  1
  Al0+  Al58  1  0.49981373  0.50196255  0.33460289  1
  Al0+  Al59  1  0.49719098  0.50008647  0.67457070  1
  Al0+  Al60  1  0.25305483  0.25158256  0.00152181  1
  Al0+  Al61  1  0.25130009  0.25063282  0.32687563  1
  Al0+  Al62  1  0.25083177  0.25133793  0.66959501  1
  Al0+  Al63  1  0.25358935  0.75001075  -0.00167595  1
  Al0+  Al64  1  0.25023564  0.75117607  0.33198292  1
  Al0+  Al65  1  0.25366803  0.75060453  0.66008720  1
  Al0+  Al66  1  0.74820880  0.24915982  -0.00109895  1
  Al0+  Al67  1  0.75039010  0.25088318  0.33150026  1
  Al0+  Al68  1  0.75042012  0.24777300  0.67523373  1
  Al0+  Al69  1  0.74994058  0.74666565  0.00817278  1
  Al0+  Al70  1  0.74958681  0.75060672  0.33895750  1
  Al0+  Al71  1  0.74740103  0.74653034  0.66337189  1
  Al0+  Al72  1  0.92799230  0.32050667  0.98465272  1
  Al0+  Al73  1  0.67753343  0.93015981  0.34893663  1
  Al0+  Al74  1  0.07194879  0.68015217  0.98641887  1
  Al0+  Al75  1  0.67868219  0.92918868  0.01522717  1
  Al0+  Al76  1  0.17843467  0.92898150  0.34832344  1
  Al0+  Al77  1  0.82147862  0.56834371  0.01362182  1
  Al0+  Al78  1  0.57120232  0.17990136  0.31997522  1
  Al0+  Al79  1  0.31902049  0.57425714  0.68188789  1
  Al0+  Al80  1  0.17959318  0.42999550  0.01497140  1
  Al0+  Al81  1  0.82258538  0.07263057  0.01756505  1
  Al0+  Al82  1  0.07242439  0.18040286  0.65361119  1
  Al0+  Al83  1  0.68047082  0.43045101  0.34553087  1
  Al0+  Al84  1  0.92653621  0.82174050  0.65183329  1
  Al0+  Al85  1  0.07102070  0.68101254  0.31778088  1
  Al0+  Al86  1  0.82451372  0.06927335  0.68197546  1
  Al0+  Al87  1  0.31984247  0.07143184  0.67824638  1
  Al0+  Al88  1  0.17584953  0.42957069  0.68060219  1
  Al0+  Al89  1  0.43141251  0.82282523  0.65172900  1
  Al0+  Al90  1  0.17998273  0.92831078  0.01050225  1
  Al0+  Al91  1  0.67827990  0.42749470  0.68125496  1
  Al0+  Al92  1  0.07244069  0.17779239  0.31900771  1
  Al0+  Al93  1  0.07124046  0.67739388  0.65136099  1
  Al0+  Al94  1  0.07184761  0.17626576  0.98446830  1
  Al0+  Al95  1  0.67841018  0.92756461  0.68003992  1
  Si0+  Si96  1  0.92505190  0.32074369  0.64929495  1
  Si0+  Si97  1  0.82133662  0.07281939  0.35090871  1
  Si0+  Si98  1  0.92518444  0.82113063  0.31527928  1
  Si0+  Si99  1  0.82101465  0.57108782  0.68239627  1
  Si0+  Si100  1  0.42869177  0.32557142  0.31572359  1
  Si0+  Si101  1  0.32155880  0.57123721  0.34736521  1
  Si0+  Si102  1  0.67467869  0.42809737  0.01694145  1
  Si0+  Si103  1  0.17805345  0.92795592  0.68001759  1
  Si0+  Si104  1  0.57055561  0.18097827  0.65356798  1
  Si0+  Si105  1  0.57048950  0.67473872  0.64951142  1
  Si0+  Si106  1  0.92589949  0.82018594  0.98680963  1
  Si0+  Si107  1  0.43143500  0.82097482  0.98460945  1
  Si0+  Si108  1  0.57230177  0.67831090  0.98600878  1
  Si0+  Si109  1  0.42961436  0.32184461  0.65249568  1
  Si0+  Si110  1  0.32328213  0.57236981  0.01802172  1
  Si0+  Si111  1  0.17970803  0.42826447  0.34713064  1
  Si0+  Si112  1  0.32237757  0.07331976  0.01803967  1
  Si0+  Si113  1  0.57132002  0.67715903  0.31875176  1
  Si0+  Si114  1  0.82436256  0.57252400  0.35310694  1
  Si0+  Si115  1  0.92889024  0.32162906  0.31816746  1
  Si0+  Si116  1  0.43011521  0.32328764  0.98259960  1
  Si0+  Si117  1  0.56910930  0.17785025  0.98266076  1
  Si0+  Si118  1  0.32122464  0.07277394  0.34796362  1
  Si0+  Si119  1  0.43062761  0.82104843  0.31596671  1
  O2-  O120  1  0.24838776  0.00915441  0.05956079  1
  O2-  O121  1  0.24817997  0.00961337  0.39267788  1
  O2-  O122  1  0.24334084  -0.00065448  0.72523153  1
  O2-  O123  1  0.25224203  0.50698139  0.06323867  1
  O2-  O124  1  0.25056382  0.49981711  0.38827454  1
  O2-  O125  1  0.24030436  0.50916005  0.73040876  1
  O2-  O126  1  0.74980499  0.00053520  0.06696707  1
  O2-  O127  1  0.75258856  0.00393243  0.39481371  1
  O2-  O128  1  0.75714611  -0.00865371  0.72965339  1
  O2-  O129  1  0.74799143  0.49161603  0.06057932  1
  O2-  O130  1  0.75429751  0.50387168  0.39533411  1
  O2-  O131  1  0.75282684  0.50186531  0.72699784  1
  O2-  O132  1  -0.00116159  0.25435581  0.27443921  1
  O2-  O133  1  -0.00312236  0.25474686  0.60589983  1
  O2-  O134  1  -0.00201980  0.24649986  0.93463301  1
  O2-  O135  1  -0.00454751  0.75437261  0.27024639  1
  O2-  O136  1  0.00099714  0.75155345  0.60169959  1
  O2-  O137  1  -0.00101785  0.75683976  0.94143889  1
  O2-  O138  1  0.49736351  0.25610436  0.27238063  1
  O2-  O139  1  0.50275825  0.25414345  0.60896989  1
  O2-  O140  1  0.50039945  0.25146749  0.94049965  1
  O2-  O141  1  0.50531914  0.75257700  0.27498040  1
  O2-  O142  1  0.50676328  0.74806797  0.60465654  1
  O2-  O143  1  0.50612662  0.75334377  0.94370567  1
  O2-  O144  1  0.07084681  0.17846052  0.09847183  1
  O2-  O145  1  0.07487515  0.18064115  0.43219312  1
  O2-  O146  1  0.07446005  0.18076328  0.76603700  1
  O2-  O147  1  0.07099930  0.68139678  0.09992068  1
  O2-  O148  1  0.07144761  0.68009984  0.43039398  1
  O2-  O149  1  0.06861274  0.67839301  0.76512780  1
  O2-  O150  1  0.56648820  0.17803731  0.08807833  1
  O2-  O151  1  0.56889386  0.18123574  0.43324663  1
  O2-  O152  1  0.56712271  0.18245654  0.75870092  1
  O2-  O153  1  0.56843338  0.67542691  0.09141715  1
  O2-  O154  1  0.56637976  0.67172441  0.42313611  1
  O2-  O155  1  0.56859291  0.67271144  0.75530255  1
  O2-  O156  1  0.18059402  0.42875136  0.24205065  1
  O2-  O157  1  0.18231386  0.42684999  0.56624532  1
  O2-  O158  1  0.18096524  0.43015615  0.90251955  1
  O2-  O159  1  0.18295574  0.92649366  0.23501524  1
  O2-  O160  1  0.18114108  0.92959935  0.57412125  1
  O2-  O161  1  0.18531654  0.92536207  0.89779024  1
  O2-  O162  1  0.67975092  0.43332954  0.23272633  1
  O2-  O163  1  0.67781057  0.42697320  0.56765373  1
  O2-  O164  1  0.66999848  0.43305145  0.91159912  1
  O2-  O165  1  0.67823537  0.93156931  0.23596912  1
  O2-  O166  1  0.67617090  0.93540072  0.56647315  1
  O2-  O167  1  0.67681268  0.93000154  0.90228414  1
  O2-  O168  1  0.43184991  0.32525914  0.08797660  1
  O2-  O169  1  0.42801690  0.32744313  0.42115905  1
  O2-  O170  1  0.43063041  0.32003056  0.75768953  1
  O2-  O171  1  0.43092550  0.81922505  0.09015310  1
  O2-  O172  1  0.43015369  0.82106041  0.42076376  1
  O2-  O173  1  0.43335766  0.82352222  0.76507970  1
  O2-  O174  1  0.93190916  0.32116993  0.09889037  1
  O2-  O175  1  0.92730241  0.32117189  0.42374811  1
  O2-  O176  1  0.92380981  0.32123549  0.75439955  1
  O2-  O177  1  0.92418229  0.81597405  0.09254652  1
  O2-  O178  1  0.92501853  0.81859446  0.42060891  1
  O2-  O179  1  0.92809783  0.82031523  0.76589306  1
  O2-  O180  1  0.32487716  0.06937875  0.24244698  1
  O2-  O181  1  0.32171978  0.07110173  0.56494381  1
  O2-  O182  1  0.32702211  0.07109283  0.91256749  1
  O2-  O183  1  0.32513016  0.56998035  0.24219465  1
  O2-  O184  1  0.32222942  0.56946985  0.56755467  1
  O2-  O185  1  0.32721144  0.57074687  0.91335447  1
  O2-  O186  1  0.81941655  0.07290578  0.24545155  1
  O2-  O187  1  0.82013658  0.07384227  0.56814818  1
  O2-  O188  1  0.82183777  0.07052432  0.90432826  1
  O2-  O189  1  0.82431713  0.57153616  0.24733816  1
  O2-  O190  1  0.81929798  0.56908507  0.57660823  1
  O2-  O191  1  0.81749600  0.57018066  0.90077406  1
  O2-  O192  1  0.04047174  0.08022299  0.26802640  1
  O2-  O193  1  0.04340054  0.08409407  0.59778182  1
  O2-  O194  1  0.04654863  0.07542329  0.93487999  1
  O2-  O195  1  0.04048829  0.58264284  0.26588525  1
  O2-  O196  1  0.04120079  0.57879778  0.59784706  1
  O2-  O197  1  0.03833701  0.58373689  0.93586183  1
  O2-  O198  1  0.53663688  0.08571409  0.26240056  1
  O2-  O199  1  0.53863450  0.09106375  0.60563218  1
  O2-  O200  1  0.53614027  0.08745435  0.93587118  1
  O2-  O201  1  0.53863379  0.58837711  0.26721627  1
  O2-  O202  1  0.53710382  0.58264397  0.60338931  1
  O2-  O203  1  0.54054878  0.58828974  0.93693257  1
  O2-  O204  1  0.16939962  0.20632829  0.26378708  1
  O2-  O205  1  0.16900720  0.21362919  0.59897148  1
  O2-  O206  1  0.17311287  0.20508464  0.93709995  1
  O2-  O207  1  0.16841496  0.71114188  0.26398379  1
  O2-  O208  1  0.17085209  0.70290107  0.59936472  1
  O2-  O209  1  0.17068969  0.70706786  0.93464942  1
  O2-  O210  1  0.66677138  0.21162937  0.26429304  1
  O2-  O211  1  0.66355595  0.20700573  0.60810316  1
  O2-  O212  1  0.66136121  0.20266843  0.93587185  1
  O2-  O213  1  0.66595044  0.70035937  0.27496838  1
  O2-  O214  1  0.66541509  0.69060159  0.60306884  1
  O2-  O215  1  0.66598390  0.70076886  0.94091537  1
  O2-  O216  1  0.08406364  0.45957887  0.07057070  1
  O2-  O217  1  0.08799483  0.45517678  0.39442226  1
  O2-  O218  1  0.07446116  0.44932884  0.73011186  1
  O2-  O219  1  0.08307234  0.95092829  0.06753955  1
  O2-  O220  1  0.07968808  0.95325453  0.40034595  1
  O2-  O221  1  0.08304210  0.94853741  0.72297188  1
  O2-  O222  1  0.58318358  0.45932527  0.06500525  1
  O2-  O223  1  0.58313282  0.46132514  0.39916717  1
  O2-  O224  1  0.58256990  0.45833209  0.73617933  1
  O2-  O225  1  0.57953228  0.95936568  0.06772001  1
  O2-  O226  1  0.57917049  0.96205116  0.39843172  1
  O2-  O227  1  0.58342556  0.96386610  0.73428877  1
  O2-  O228  1  0.21592476  0.33499016  0.07008819  1
  O2-  O229  1  0.20932393  0.33610050  0.39288289  1
  O2-  O230  1  0.21439459  0.33592877  0.73556033  1
  O2-  O231  1  0.21967862  0.83459224  0.06661567  1
  O2-  O232  1  0.21617587  0.83422885  0.40147433  1
  O2-  O233  1  0.20844224  0.83547700  0.72426533  1
  O2-  O234  1  0.69305990  0.33174550  0.05879281  1
  O2-  O235  1  0.70970235  0.33323089  0.39936037  1
  O2-  O236  1  0.70663663  0.33212631  0.73738307  1
  O2-  O237  1  0.70273079  0.82966751  0.06861912  1
  O2-  O238  1  0.70250944  0.83147694  0.40188413  1
  O2-  O239  1  0.69336901  0.82356403  0.72558079  1
  O2-  O240  1  0.45603173  0.41842591  0.26808806  1
  O2-  O241  1  0.45522129  0.41499922  0.60659309  1
  O2-  O242  1  0.45929876  0.41463244  0.93466194  1
  O2-  O243  1  0.45569329  0.91282036  0.26702733  1
  O2-  O244  1  0.46283076  0.91942014  0.59636306  1
  O2-  O245  1  0.45546659  0.91440957  0.93851614  1
  O2-  O246  1  0.95383123  0.41639791  0.27399125  1
  O2-  O247  1  0.94464308  0.41487385  0.60154588  1
  O2-  O248  1  0.95875442  0.41812111  0.93205128  1
  O2-  O249  1  0.94796960  0.91599579  0.27131159  1
  O2-  O250  1  0.95156975  0.91946877  0.59583299  1
  O2-  O251  1  0.94694885  0.91595710  0.94516496  1
  O2-  O252  1  0.33646636  0.29969384  0.26657192  1
  O2-  O253  1  0.33949019  0.29212875  0.60347870  1
  O2-  O254  1  0.33852999  0.29594635  0.93555057  1
  O2-  O255  1  0.34102465  0.78793491  0.26729118  1
  O2-  O256  1  0.33669644  0.79310231  0.59303913  1
  O2-  O257  1  0.34236477  0.78967949  0.93489680  1
  O2-  O258  1  0.83602778  0.29699660  0.26992762  1
  O2-  O259  1  0.83170496  0.29037007  0.60387116  1
  O2-  O260  1  0.82575829  0.30039414  0.93522690  1
  O2-  O261  1  0.83090672  0.79424875  0.27017319  1
  O2-  O262  1  0.82818756  0.79104638  0.59780763  1
  O2-  O263  1  0.83357301  0.78894356  0.94104080  1
  O2-  O264  1  0.41269400  0.04026970  0.06718770  1
  O2-  O265  1  0.41295877  0.04212236  0.39487434  1
  O2-  O266  1  0.41429466  0.03884544  0.73520829  1
  O2-  O267  1  0.41562517  0.54185455  0.06629112  1
  O2-  O268  1  0.41255653  0.54403444  0.39654414  1
  O2-  O269  1  0.41353993  0.53950665  0.73889683  1
  O2-  O270  1  0.92004224  0.04549216  0.07263300  1
  O2-  O271  1  0.91470253  0.04672304  0.39656277  1
  O2-  O272  1  0.92414697  0.04380991  0.73325819  1
  O2-  O273  1  0.91631015  0.53756607  0.07081650  1
  O2-  O274  1  0.91735288  0.54558161  0.39953349  1
  O2-  O275  1  0.91417289  0.54539656  0.72813060  1
  O2-  O276  1  0.30662483  0.16914849  0.06270358  1
  O2-  O277  1  0.30310178  0.16988954  0.39016769  1
  O2-  O278  1  0.29393883  0.16790422  0.73415772  1
  O2-  O279  1  0.30272048  0.66717363  0.06336022  1
  O2-  O280  1  0.29363459  0.66312257  0.39348323  1
  O2-  O281  1  0.30226959  0.67635786  0.73063910  1
  O2-  O282  1  0.79070394  0.17127618  0.06924114  1
  O2-  O283  1  0.79531383  0.16665946  0.39568522  1
  O2-  O284  1  0.79075589  0.16405869  0.73830090  1
  O2-  O285  1  0.78802895  0.66138361  0.07361270  1
  O2-  O286  1  0.79836425  0.66563455  0.39873025  1
  O2-  O287  1  0.79446958  0.66384634  0.72904827  1
