# generated using pymatgen
data_Ca2Al2SiO7
_symmetry_space_group_name_H-M   'P 1'
_cell_length_a   15.45552832
_cell_length_b   15.45656609
_cell_length_c   15.28236246
_cell_angle_alpha   90.01157093
_cell_angle_beta   90.00160177
_cell_angle_gamma   89.99238879
_symmetry_Int_Tables_number   1
_chemical_formula_structural   Ca2Al2SiO7
_chemical_formula_sum   'Ca48 Al48 Si24 O168'
_cell_volume   3650.79421300
_cell_formula_units_Z   24
loop_
 _symmetry_equiv_pos_site_id
 _symmetry_equiv_pos_as_xyz
  1  'x, y, z'
loop_
 _atom_type_symbol
 _atom_type_oxidation_number
  Ca2+  2.0
  Al0+  0.0
  Si0+  0.0
  O2-  -2.0
loop_
 _atom_site_type_symbol
 _atom_site_label
 _atom_site_symmetry_multiplicity
 _atom_site_fract_x
 _atom_site_fract_y
 _atom_site_fract_z
 _atom_site_occupancy
  Ca2+  Ca0  1  0.16505043  0.07536850  0.16531941  1
  Ca2+  Ca1  1  0.17564819  0.08707686  0.51024972  1
  Ca2+  Ca2  1  0.17031787  0.08395659  0.83622373  1
  Ca2+  Ca3  1  0.17281140  0.57207524  0.16485065  1
  Ca2+  Ca4  1  0.16450491  0.57935085  0.50506076  1
  Ca2+  Ca5  1  0.16998482  0.58218140  0.84209798  1
  Ca2+  Ca6  1  0.66547695  0.07859869  0.16192645  1
  Ca2+  Ca7  1  0.65923717  0.07060595  0.50731577  1
  Ca2+  Ca8  1  0.66739495  0.07657694  0.84145072  1
  Ca2+  Ca9  1  0.66452920  0.57667390  0.16356273  1
  Ca2+  Ca10  1  0.67125974  0.58394801  0.51159184  1
  Ca2+  Ca11  1  0.66983365  0.57977242  0.83549504  1
  Ca2+  Ca12  1  0.08112932  0.33666762  0.15979149  1
  Ca2+  Ca13  1  0.08082523  0.33295286  0.50107260  1
  Ca2+  Ca14  1  0.07373119  0.33502822  0.82814590  1
  Ca2+  Ca15  1  0.07846785  0.83413534  0.15281632  1
  Ca2+  Ca16  1  0.07829392  0.82851390  0.50085260  1
  Ca2+  Ca17  1  0.07193581  0.83461145  0.82851207  1
  Ca2+  Ca18  1  0.57509389  0.33107808  0.15208516  1
  Ca2+  Ca19  1  0.57726634  0.32413344  0.49545174  1
  Ca2+  Ca20  1  0.58879720  0.32035478  0.83319240  1
  Ca2+  Ca21  1  0.57605497  0.84001042  0.16140944  1
  Ca2+  Ca22  1  0.58522104  0.83215631  0.49770892  1
  Ca2+  Ca23  1  0.58409958  0.83351323  0.82890510  1
  Ca2+  Ca24  1  0.32965307  0.41329442  0.16959637  1
  Ca2+  Ca25  1  0.32742266  0.40790242  0.50167340  1
  Ca2+  Ca26  1  0.32801623  0.42415434  0.84703041  1
  Ca2+  Ca27  1  0.33307259  0.91114923  0.16690423  1
  Ca2+  Ca28  1  0.33712504  0.92289189  0.50727330  1
  Ca2+  Ca29  1  0.32938001  0.92088291  0.84056189  1
  Ca2+  Ca30  1  0.82545007  0.40831941  0.16331962  1
  Ca2+  Ca31  1  0.83467366  0.42388515  0.50988676  1
  Ca2+  Ca32  1  0.83584460  0.41893367  0.84001660  1
  Ca2+  Ca33  1  0.82383127  0.91923902  0.16570910  1
  Ca2+  Ca34  1  0.82141841  0.91292397  0.50899543  1
  Ca2+  Ca35  1  0.82597115  0.91708821  0.84226089  1
  Ca2+  Ca36  1  0.42363881  0.17757763  0.15834767  1
  Ca2+  Ca37  1  0.42007559  0.16552437  0.49924404  1
  Ca2+  Ca38  1  0.42660375  0.16501903  0.83068297  1
  Ca2+  Ca39  1  0.41282337  0.67594999  0.15930795  1
  Ca2+  Ca40  1  0.42529450  0.67328803  0.49590006  1
  Ca2+  Ca41  1  0.41933085  0.67001500  0.83273902  1
  Ca2+  Ca42  1  0.91623516  0.16942172  0.15449347  1
  Ca2+  Ca43  1  0.92206145  0.16867577  0.50345083  1
  Ca2+  Ca44  1  0.91735032  0.17497835  0.82945931  1
  Ca2+  Ca45  1  0.91963318  0.67458822  0.15889246  1
  Ca2+  Ca46  1  0.91557327  0.66845830  0.50738629  1
  Ca2+  Ca47  1  0.91714808  0.67675846  0.82365692  1
  Al0+  Al48  1  0.00004885  0.00049088  0.00324686  1
  Al0+  Al49  1  -0.00005539  -0.00001511  0.33450705  1
  Al0+  Al50  1  -0.00131477  0.00110351  0.65609061  1
  Al0+  Al51  1  0.00205795  0.50082675  0.00179393  1
  Al0+  Al52  1  0.00120174  0.49951177  0.33650724  1
  Al0+  Al53  1  -0.00113756  0.50196238  0.66400043  1
  Al0+  Al54  1  0.49928574  -0.00034684  -0.00350746  1
  Al0+  Al55  1  0.50067567  -0.00074949  0.33288596  1
  Al0+  Al56  1  0.49840436  0.00164187  0.67229373  1
  Al0+  Al57  1  0.50056671  0.50271228  0.00492090  1
  Al0+  Al58  1  0.50024082  0.50067372  0.33150908  1
  Al0+  Al59  1  0.49840727  0.50080309  0.66201168  1
  Al0+  Al60  1  0.25029729  0.24959887  0.00155689  1
  Al0+  Al61  1  0.24890753  0.24908220  0.33333446  1
  Al0+  Al62  1  0.24955418  0.25023505  0.67124353  1
  Al0+  Al63  1  0.25102310  0.74976451  0.00389108  1
  Al0+  Al64  1  0.24970444  0.74759693  0.33141214  1
  Al0+  Al65  1  0.24882184  0.74994812  0.66246423  1
  Al0+  Al66  1  0.75156677  0.25039793  0.00017033  1
  Al0+  Al67  1  0.75221226  0.24920174  0.33602285  1
  Al0+  Al68  1  0.74738463  0.24818078  0.65366599  1
  Al0+  Al69  1  0.74976816  0.75055664  0.00207780  1
  Al0+  Al70  1  0.75135853  0.74973186  0.33561458  1
  Al0+  Al71  1  0.74825096  0.74767244  0.66788209  1
  Al0+  Al72  1  0.18073538  0.42913647  0.35008588  1
  Al0+  Al73  1  0.32293969  0.57167718  0.01570012  1
  Al0+  Al74  1  0.17851977  0.42713257  0.01411679  1
  Al0+  Al75  1  0.82118872  0.07156330  0.01271939  1
  Al0+  Al76  1  0.68015033  0.93136812  0.34836179  1
  Al0+  Al77  1  0.31971249  0.07153544  0.68192100  1
  Al0+  Al78  1  0.92637784  0.82208069  0.65117737  1
  Al0+  Al79  1  0.07305994  0.17996292  0.65220524  1
  Al0+  Al80  1  0.68118973  0.42919890  0.01100892  1
  Al0+  Al81  1  0.43030531  0.82034333  0.32038863  1
  Al0+  Al82  1  0.56946179  0.67840929  0.65452020  1
  Al0+  Al83  1  0.42833062  0.82037651  0.98515302  1
  Al0+  Al84  1  0.93086529  0.32160912  0.98830654  1
  Al0+  Al85  1  0.18004098  0.93046331  0.01132972  1
  Al0+  Al86  1  0.67695510  0.92720376  0.01560057  1
  Al0+  Al87  1  0.92828365  0.82207955  0.98799263  1
  Al0+  Al88  1  0.42677969  0.32444768  0.98440569  1
  Al0+  Al89  1  0.07248609  0.67948579  0.65195328  1
  Al0+  Al90  1  0.42909184  0.31985448  0.31994053  1
  Al0+  Al91  1  0.68015999  0.92933996  0.68156467  1
  Al0+  Al92  1  0.57085566  0.18034430  0.98496443  1
  Al0+  Al93  1  0.82001774  0.56829269  0.68162770  1
  Al0+  Al94  1  0.92781339  0.32214158  0.65053801  1
  Al0+  Al95  1  0.56960615  0.17720884  0.65134041  1
  Si0+  Si96  1  0.93039533  0.32191388  0.31770463  1
  Si0+  Si97  1  0.42772182  0.32249128  0.65125738  1
  Si0+  Si98  1  0.32338553  0.07208436  0.01851317  1
  Si0+  Si99  1  0.17632833  0.92678094  0.68049080  1
  Si0+  Si100  1  0.92944587  0.82060517  0.31723166  1
  Si0+  Si101  1  0.67558589  0.42570219  0.68017489  1
  Si0+  Si102  1  0.07032865  0.67769659  0.31639784  1
  Si0+  Si103  1  0.57351222  0.67816500  0.98373450  1
  Si0+  Si104  1  0.17948134  0.43074332  0.68192568  1
  Si0+  Si105  1  0.17680119  0.92581256  0.34910928  1
  Si0+  Si106  1  0.82313803  0.07358050  0.68077497  1
  Si0+  Si107  1  0.42804202  0.82232843  0.65165951  1
  Si0+  Si108  1  0.82506160  0.07346717  0.35353928  1
  Si0+  Si109  1  0.07067135  0.17845671  0.31713897  1
  Si0+  Si110  1  0.82059300  0.56950659  0.34842367  1
  Si0+  Si111  1  0.57314646  0.17780151  0.31617062  1
  Si0+  Si112  1  0.07132549  0.67929570  0.98540827  1
  Si0+  Si113  1  0.82355454  0.57295612  0.01703407  1
  Si0+  Si114  1  0.31827944  0.06839760  0.34650858  1
  Si0+  Si115  1  0.32270950  0.57312873  0.35291896  1
  Si0+  Si116  1  0.67744326  0.42784331  0.34897337  1
  Si0+  Si117  1  0.07267715  0.17626459  0.98500919  1
  Si0+  Si118  1  0.32206135  0.57273551  0.67981340  1
  Si0+  Si119  1  0.57535619  0.67800039  0.31547487  1
  O2-  O120  1  0.25458698  0.00315212  0.06265698  1
  O2-  O121  1  0.24971597  -0.00491979  0.39032121  1
  O2-  O122  1  0.24265538  -0.00271953  0.72489625  1
  O2-  O123  1  0.25588619  0.49372608  0.06437863  1
  O2-  O124  1  0.25771006  0.50127153  0.39823142  1
  O2-  O125  1  0.24985996  0.50310489  0.72196438  1
  O2-  O126  1  0.74941425  -0.00021247  0.06407133  1
  O2-  O127  1  0.75436945  0.00628134  0.39627231  1
  O2-  O128  1  0.75722045  0.00302664  0.72539528  1
  O2-  O129  1  0.75606457  0.50294563  0.06128265  1
  O2-  O130  1  0.74773531  0.49974095  0.39057087  1
  O2-  O131  1  0.74811331  0.48969140  0.72526447  1
  O2-  O132  1  -0.00264780  0.24723464  0.27557448  1
  O2-  O133  1  0.00045191  0.25044985  0.60008559  1
  O2-  O134  1  0.00811062  0.24950963  0.94265521  1
  O2-  O135  1  0.00345815  0.75283233  0.27426510  1
  O2-  O136  1  0.00116342  0.75211001  0.60101938  1
  O2-  O137  1  0.00161351  0.74640181  0.94146360  1
  O2-  O138  1  0.50943247  0.25151212  0.27321180  1
  O2-  O139  1  0.49628227  0.25414822  0.60588814  1
  O2-  O140  1  0.49828075  0.25225916  0.93449185  1
  O2-  O141  1  0.50466314  0.74524670  0.27297782  1
  O2-  O142  1  0.49677435  0.75431187  0.60674169  1
  O2-  O143  1  0.50580719  0.74816330  0.94005238  1
  O2-  O144  1  0.07033119  0.17436738  0.09130274  1
  O2-  O145  1  0.07179794  0.17885297  0.42197172  1
  O2-  O146  1  0.07417273  0.18242507  0.76539285  1
  O2-  O147  1  0.06882665  0.68018306  0.09184078  1
  O2-  O148  1  0.06914492  0.67796916  0.42134471  1
  O2-  O149  1  0.07403141  0.68044422  0.76514121  1
  O2-  O150  1  0.56958149  0.18213518  0.09926493  1
  O2-  O151  1  0.56966830  0.17668736  0.42196948  1
  O2-  O152  1  0.57070289  0.17725557  0.76364183  1
  O2-  O153  1  0.57433141  0.67827096  0.08970208  1
  O2-  O154  1  0.57593118  0.67802974  0.42126763  1
  O2-  O155  1  0.56662982  0.67557614  0.76699987  1
  O2-  O156  1  0.17849949  0.43064031  0.23774161  1
  O2-  O157  1  0.18176448  0.42960618  0.57624373  1
  O2-  O158  1  0.17507911  0.43253901  0.90048261  1
  O2-  O159  1  0.17404742  0.92736534  0.24411934  1
  O2-  O160  1  0.18097541  0.92585070  0.57419074  1
  O2-  O161  1  0.17923424  0.93227518  0.89843486  1
  O2-  O162  1  0.67889220  0.42699202  0.24393993  1
  O2-  O163  1  0.67487852  0.42972500  0.57380310  1
  O2-  O164  1  0.68329445  0.42971255  0.89810187  1
  O2-  O165  1  0.68084799  0.93180702  0.23590939  1
  O2-  O166  1  0.67866855  0.93025016  0.56766551  1
  O2-  O167  1  0.67904185  0.92648237  0.90230988  1
  O2-  O168  1  0.42890947  0.32067870  0.09867129  1
  O2-  O169  1  0.42895369  0.31519285  0.43340349  1
  O2-  O170  1  0.42848532  0.32466620  0.75600997  1
  O2-  O171  1  0.42849519  0.81850136  0.09873444  1
  O2-  O172  1  0.43116803  0.82032334  0.43372126  1
  O2-  O173  1  0.42577361  0.81978287  0.75685658  1
  O2-  O174  1  0.93123238  0.31990669  0.10231099  1
  O2-  O175  1  0.93177107  0.32334662  0.42247956  1
  O2-  O176  1  0.92941555  0.32269494  0.76392414  1
  O2-  O177  1  0.93039043  0.81942716  0.10210817  1
  O2-  O178  1  0.92924482  0.81864487  0.42205303  1
  O2-  O179  1  0.92768174  0.82137074  0.76463166  1
  O2-  O180  1  0.31569075  0.06821204  0.24175660  1
  O2-  O181  1  0.32046610  0.06974509  0.56759652  1
  O2-  O182  1  0.32168166  0.07149910  0.91302741  1
  O2-  O183  1  0.31954900  0.57505601  0.24794722  1
  O2-  O184  1  0.32280698  0.57167217  0.57455816  1
  O2-  O185  1  0.31902540  0.57378036  0.90145035  1
  O2-  O186  1  0.82830773  0.07413289  0.24838486  1
  O2-  O187  1  0.82085875  0.07185477  0.57461869  1
  O2-  O188  1  0.82213668  0.07154816  0.89931400  1
  O2-  O189  1  0.82157942  0.56945134  0.24337296  1
  O2-  O190  1  0.81751552  0.56790466  0.56754271  1
  O2-  O191  1  0.82329554  0.57326237  0.91180410  1
  O2-  O192  1  0.04485574  0.08492705  0.27094833  1
  O2-  O193  1  0.04875808  0.08228094  0.59439651  1
  O2-  O194  1  0.04349306  0.08507289  0.93724148  1
  O2-  O195  1  0.03704295  0.58722360  0.26975562  1
  O2-  O196  1  0.04151467  0.58302787  0.59623949  1
  O2-  O197  1  0.04781792  0.58559233  0.93977241  1
  O2-  O198  1  0.54249353  0.08632607  0.26987388  1
  O2-  O199  1  0.53211936  0.08217531  0.59739985  1
  O2-  O200  1  0.54236341  0.08232534  0.93230875  1
  O2-  O201  1  0.55185943  0.58320018  0.27062388  1
  O2-  O202  1  0.53772540  0.58379059  0.59510530  1
  O2-  O203  1  0.54751942  0.58504911  0.93788063  1
  O2-  O204  1  0.16130246  0.20740357  0.26897712  1
  O2-  O205  1  0.17111956  0.21155775  0.59840674  1
  O2-  O206  1  0.16827671  0.19594564  0.94182287  1
  O2-  O207  1  0.16351865  0.70103185  0.27032084  1
  O2-  O208  1  0.17013982  0.70629764  0.59404088  1
  O2-  O209  1  0.16476807  0.70541493  0.94132637  1
  O2-  O210  1  0.66996717  0.19894778  0.27502122  1
  O2-  O211  1  0.66360098  0.20413241  0.59022580  1
  O2-  O212  1  0.66863503  0.21080585  0.93278593  1
  O2-  O213  1  0.66906874  0.70368881  0.26987053  1
  O2-  O214  1  0.66518769  0.70780455  0.59875644  1
  O2-  O215  1  0.66753316  0.70198278  0.93809781  1
  O2-  O216  1  0.08278553  0.46160084  0.07114001  1
  O2-  O217  1  0.08459712  0.46306926  0.40426244  1
  O2-  O218  1  0.08700796  0.45863774  0.72631077  1
  O2-  O219  1  0.08569309  0.96268042  0.07014567  1
  O2-  O220  1  0.08546980  0.95502377  0.39703939  1
  O2-  O221  1  0.08017250  0.95044248  0.72107060  1
  O2-  O222  1  0.58658775  0.46134320  0.06875800  1
  O2-  O223  1  0.58495465  0.45393328  0.39604962  1
  O2-  O224  1  0.58301693  0.45578290  0.72524903  1
  O2-  O225  1  0.57829818  0.95784074  0.06719074  1
  O2-  O226  1  0.58280390  0.96176453  0.40249492  1
  O2-  O227  1  0.58378380  0.96059672  0.73434337  1
  O2-  O228  1  0.19989834  0.32682535  0.06728106  1
  O2-  O229  1  0.21058757  0.33117549  0.40321199  1
  O2-  O230  1  0.20688216  0.33997334  0.73017549  1
  O2-  O231  1  0.20905292  0.83474748  0.06831399  1
  O2-  O232  1  0.20215797  0.83249073  0.39446180  1
  O2-  O233  1  0.20299086  0.83354073  0.72654327  1
  O2-  O234  1  0.71339839  0.33514349  0.06930779  1
  O2-  O235  1  0.70544707  0.33563911  0.39635611  1
  O2-  O236  1  0.69719079  0.32890911  0.71974727  1
  O2-  O237  1  0.70575363  0.82939204  0.07040861  1
  O2-  O238  1  0.71174029  0.83333975  0.40068039  1
  O2-  O239  1  0.70775361  0.83164678  0.73342015  1
  O2-  O240  1  0.45367964  0.41951016  0.26920581  1
  O2-  O241  1  0.45145218  0.41510303  0.60126711  1
  O2-  O242  1  0.45294842  0.42527710  0.93695275  1
  O2-  O243  1  0.46001785  0.91708497  0.26608336  1
  O2-  O244  1  0.45451552  0.91594979  0.60693722  1
  O2-  O245  1  0.45403147  0.91768005  0.93148887  1
  O2-  O246  1  0.96095170  0.41301795  0.27087506  1
  O2-  O247  1  0.95867786  0.41945884  0.59649356  1
  O2-  O248  1  0.95969799  0.41940324  0.93558098  1
  O2-  O249  1  0.95504089  0.91429905  0.27250396  1
  O2-  O250  1  0.95055572  0.91953957  0.59382000  1
  O2-  O251  1  0.96144908  0.91775868  0.93524320  1
  O2-  O252  1  0.33336401  0.28491509  0.26694472  1
  O2-  O253  1  0.33433260  0.29417531  0.60603600  1
  O2-  O254  1  0.32670647  0.29819261  0.93415871  1
  O2-  O255  1  0.33208490  0.79080024  0.26760579  1
  O2-  O256  1  0.33513126  0.79743329  0.60320051  1
  O2-  O257  1  0.33191459  0.78742174  0.93215239  1
  O2-  O258  1  0.83608715  0.29693044  0.27302091  1
  O2-  O259  1  0.83063188  0.29586380  0.59315474  1
  O2-  O260  1  0.83562214  0.29121477  0.93361595  1
  O2-  O261  1  0.83871664  0.78872839  0.27025556  1
  O2-  O262  1  0.83062187  0.78583177  0.59749217  1
  O2-  O263  1  0.83155009  0.79177387  0.93549930  1
  O2-  O264  1  0.41615672  0.04542370  0.06464335  1
  O2-  O265  1  0.41098332  0.04255279  0.39359710  1
  O2-  O266  1  0.41356318  0.03894870  0.73842676  1
  O2-  O267  1  0.42225866  0.55236772  0.07045456  1
  O2-  O268  1  0.41931799  0.55224069  0.39553176  1
  O2-  O269  1  0.41325914  0.54375504  0.72749510  1
  O2-  O270  1  0.91824791  0.04310590  0.06956863  1
  O2-  O271  1  0.91853695  0.04587484  0.39992130  1
  O2-  O272  1  0.91974120  0.05319731  0.72244372  1
  O2-  O273  1  0.91719758  0.54938182  0.06395208  1
  O2-  O274  1  0.91111942  0.53901972  0.39686510  1
  O2-  O275  1  0.91831012  0.54196970  0.73421440  1
  O2-  O276  1  0.29777236  0.16533710  0.06558064  1
  O2-  O277  1  0.28715793  0.15843282  0.39558533  1
  O2-  O278  1  0.28991645  0.16757984  0.73740611  1
  O2-  O279  1  0.28772350  0.66654722  0.07235470  1
  O2-  O280  1  0.29274514  0.66552517  0.40019075  1
  O2-  O281  1  0.29532191  0.66546969  0.72592752  1
  O2-  O282  1  0.79242223  0.16867342  0.06899194  1
  O2-  O283  1  0.80279193  0.16854745  0.39908108  1
  O2-  O284  1  0.79531092  0.16847467  0.72219377  1
  O2-  O285  1  0.79532547  0.66472152  0.06597816  1
  O2-  O286  1  0.79473054  0.66158329  0.39650210  1
  O2-  O287  1  0.78627482  0.66313935  0.73576736  1
