# generated using pymatgen
data_Ca2Al2SiO7
_symmetry_space_group_name_H-M   'P 1'
_cell_length_a   15.46273355
_cell_length_b   15.46247912
_cell_length_c   15.28715421
_cell_angle_alpha   90.00184150
_cell_angle_beta   89.99725117
_cell_angle_gamma   89.99362071
_symmetry_Int_Tables_number   1
_chemical_formula_structural   Ca2Al2SiO7
_chemical_formula_sum   'Ca48 Al48 Si24 O168'
_cell_volume   3655.03922063
_cell_formula_units_Z   24
loop_
 _symmetry_equiv_pos_site_id
 _symmetry_equiv_pos_as_xyz
  1  'x, y, z'
loop_
 _atom_type_symbol
 _atom_type_oxidation_number
  Ca2+  2.0
  Al0+  0.0
  Si0+  0.0
  O2-  -2.0
loop_
 _atom_site_type_symbol
 _atom_site_label
 _atom_site_symmetry_multiplicity
 _atom_site_fract_x
 _atom_site_fract_y
 _atom_site_fract_z
 _atom_site_occupancy
  Ca2+  Ca0  1  0.16297903  0.08973603  0.16926531  1
  Ca2+  Ca1  1  0.16308220  0.08734179  0.50280201  1
  Ca2+  Ca2  1  0.16509935  0.08837299  0.83685210  1
  Ca2+  Ca3  1  0.16925221  0.58341354  0.16977577  1
  Ca2+  Ca4  1  0.17153456  0.58435617  0.50694792  1
  Ca2+  Ca5  1  0.17932059  0.58132817  0.84404708  1
  Ca2+  Ca6  1  0.66978823  0.07192546  0.17246010  1
  Ca2+  Ca7  1  0.67003893  0.07405446  0.50686060  1
  Ca2+  Ca8  1  0.67795126  0.07367825  0.84010558  1
  Ca2+  Ca9  1  0.66672185  0.58445921  0.17203431  1
  Ca2+  Ca10  1  0.66710329  0.58084501  0.50918202  1
  Ca2+  Ca11  1  0.66556281  0.58185365  0.82799018  1
  Ca2+  Ca12  1  0.07483696  0.32720847  0.15964540  1
  Ca2+  Ca13  1  0.07508964  0.32383322  0.49182265  1
  Ca2+  Ca14  1  0.08322465  0.32672666  0.83391149  1
  Ca2+  Ca15  1  0.07122644  0.83248537  0.16481453  1
  Ca2+  Ca16  1  0.07281350  0.82478759  0.49142709  1
  Ca2+  Ca17  1  0.07417043  0.83649407  0.83280872  1
  Ca2+  Ca18  1  0.58096284  0.32729802  0.16730486  1
  Ca2+  Ca19  1  0.58254185  0.33003093  0.49156491  1
  Ca2+  Ca20  1  0.58607766  0.33482577  0.82761181  1
  Ca2+  Ca21  1  0.58668286  0.83146246  0.16143746  1
  Ca2+  Ca22  1  0.58968671  0.82533501  0.49747354  1
  Ca2+  Ca23  1  0.57627222  0.83496420  0.82597278  1
  Ca2+  Ca24  1  0.32778953  0.41645418  0.16899220  1
  Ca2+  Ca25  1  0.33523832  0.42199149  0.50644185  1
  Ca2+  Ca26  1  0.32893925  0.43048501  0.84141526  1
  Ca2+  Ca27  1  0.33340899  0.91467104  0.16824704  1
  Ca2+  Ca28  1  0.33076391  0.91475042  0.50507491  1
  Ca2+  Ca29  1  0.33460212  0.91198385  0.83943210  1
  Ca2+  Ca30  1  0.84002866  0.41371995  0.16951447  1
  Ca2+  Ca31  1  0.83033835  0.42265176  0.50751702  1
  Ca2+  Ca32  1  0.83279279  0.41993477  0.83450804  1
  Ca2+  Ca33  1  0.83021771  0.91600035  0.17026608  1
  Ca2+  Ca34  1  0.82305093  0.91710752  0.50605144  1
  Ca2+  Ca35  1  0.82539468  0.92298409  0.84065242  1
  Ca2+  Ca36  1  0.42262901  0.16806380  0.16892805  1
  Ca2+  Ca37  1  0.42613941  0.17543540  0.49032865  1
  Ca2+  Ca38  1  0.41941108  0.16973101  0.82926660  1
  Ca2+  Ca39  1  0.42325908  0.67039832  0.16037804  1
  Ca2+  Ca40  1  0.42736924  0.66673105  0.50132327  1
  Ca2+  Ca41  1  0.41663501  0.67387553  0.82533434  1
  Ca2+  Ca42  1  0.92103562  0.17399751  0.15642882  1
  Ca2+  Ca43  1  0.92159017  0.16697635  0.49461406  1
  Ca2+  Ca44  1  0.92165556  0.16160906  0.83040257  1
  Ca2+  Ca45  1  0.91691360  0.67911479  0.16519505  1
  Ca2+  Ca46  1  0.91533444  0.67014733  0.49087982  1
  Ca2+  Ca47  1  0.91066759  0.67143501  0.83062456  1
  Al0+  Al48  1  0.00074532  -0.00013615  -0.00388851  1
  Al0+  Al49  1  0.00053692  -0.00074933  0.32934797  1
  Al0+  Al50  1  0.00142401  -0.00086202  0.66405483  1
  Al0+  Al51  1  0.00078740  0.49825907  0.00002310  1
  Al0+  Al52  1  0.00268752  0.49931554  0.32927900  1
  Al0+  Al53  1  -0.00003814  0.49815739  0.67095213  1
  Al0+  Al54  1  0.50031434  -0.00098465  -0.00007875  1
  Al0+  Al55  1  0.49904626  0.00003487  0.33683129  1
  Al0+  Al56  1  0.49640064  0.00198517  0.66577658  1
  Al0+  Al57  1  0.50093367  0.50000882  0.00455402  1
  Al0+  Al58  1  0.49918850  0.50205416  0.32578153  1
  Al0+  Al59  1  0.49810785  0.50218731  0.67215258  1
  Al0+  Al60  1  0.25111695  0.25134820  0.00065460  1
  Al0+  Al61  1  0.25003176  0.25179227  0.32990693  1
  Al0+  Al62  1  0.24905848  0.24898279  0.66257609  1
  Al0+  Al63  1  0.25248861  0.75120668  0.00284990  1
  Al0+  Al64  1  0.25098317  0.74980237  0.33360336  1
  Al0+  Al65  1  0.24887749  0.75175091  0.66705761  1
  Al0+  Al66  1  0.75127948  0.25003891  -0.00018147  1
  Al0+  Al67  1  0.74895627  0.24866327  0.32726689  1
  Al0+  Al68  1  0.75103854  0.24990896  0.67275986  1
  Al0+  Al69  1  0.74958031  0.74765159  -0.00221956  1
  Al0+  Al70  1  0.74887775  0.74939217  0.32988437  1
  Al0+  Al71  1  0.74765642  0.74953881  0.67056550  1
  Al0+  Al72  1  0.07195414  0.17969579  0.98277885  1
  Al0+  Al73  1  0.92833918  0.81990605  0.98417429  1
  Al0+  Al74  1  0.32213001  0.57307164  0.01897844  1
  Al0+  Al75  1  0.67576817  0.92891060  0.68213014  1
  Al0+  Al76  1  0.82354766  0.06977302  0.68069751  1
  Al0+  Al77  1  0.31848499  0.57195835  0.67976890  1
  Al0+  Al78  1  0.92703056  0.32276680  0.98025269  1
  Al0+  Al79  1  0.92748842  0.32121588  0.31982375  1
  Al0+  Al80  1  0.42953737  0.32298101  0.31830036  1
  Al0+  Al81  1  0.82330488  0.57201324  0.68085707  1
  Al0+  Al82  1  0.57158683  0.17591584  0.31875019  1
  Al0+  Al83  1  0.67873681  0.92780901  0.34877385  1
  Al0+  Al84  1  0.92748400  0.81987643  0.31993776  1
  Al0+  Al85  1  0.07074580  0.17842650  0.31805463  1
  Al0+  Al86  1  0.82291436  0.07038578  0.01714120  1
  Al0+  Al87  1  0.42629793  0.82362526  0.64987236  1
  Al0+  Al88  1  0.67788657  0.42857359  0.67953192  1
  Al0+  Al89  1  0.57045284  0.68038318  0.31938798  1
  Al0+  Al90  1  0.57005993  0.67977020  0.65189354  1
  Al0+  Al91  1  0.43073165  0.82044640  0.98725815  1
  Al0+  Al92  1  0.07009598  0.17912032  0.65054518  1
  Al0+  Al93  1  0.67862217  0.92797324  0.01599421  1
  Al0+  Al94  1  0.07415321  0.67800081  0.31948494  1
  Al0+  Al95  1  0.17937457  0.42892275  0.01718884  1
  Si0+  Si96  1  0.17971933  0.42900818  0.35050434  1
  Si0+  Si97  1  0.92890607  0.81921138  0.65288013  1
  Si0+  Si98  1  0.57247598  0.67514463  0.98118697  1
  Si0+  Si99  1  0.57033209  0.17896147  0.98423135  1
  Si0+  Si100  1  0.17975561  0.92960044  0.68127712  1
  Si0+  Si101  1  0.07256028  0.67913323  0.98373200  1
  Si0+  Si102  1  0.32216668  0.07191742  0.01492800  1
  Si0+  Si103  1  0.17953302  0.92944812  0.01509882  1
  Si0+  Si104  1  0.42958278  0.32088793  0.65455667  1
  Si0+  Si105  1  0.17869986  0.42564369  0.68243708  1
  Si0+  Si106  1  0.92663249  0.32288836  0.64975783  1
  Si0+  Si107  1  0.31936707  0.07330200  0.68079808  1
  Si0+  Si108  1  0.43065069  0.32117357  0.98407341  1
  Si0+  Si109  1  0.67732959  0.42898657  0.34479575  1
  Si0+  Si110  1  0.42753370  0.82257627  0.31783095  1
  Si0+  Si111  1  0.31971329  0.07250402  0.34945934  1
  Si0+  Si112  1  0.82130811  0.57028645  0.01625330  1
  Si0+  Si113  1  0.67887148  0.42788513  0.01733517  1
  Si0+  Si114  1  0.32202646  0.57171853  0.35044957  1
  Si0+  Si115  1  0.82259413  0.07239609  0.34907391  1
  Si0+  Si116  1  0.17860692  0.92838518  0.34888568  1
  Si0+  Si117  1  0.07091368  0.67778131  0.65539499  1
  Si0+  Si118  1  0.57232376  0.17982961  0.65380998  1
  Si0+  Si119  1  0.82112787  0.56914525  0.34502951  1
  O2-  O120  1  0.24947096  0.00235229  0.05651884  1
  O2-  O121  1  0.24782243  0.00166546  0.39131415  1
  O2-  O122  1  0.25145394  0.00000208  0.72358171  1
  O2-  O123  1  0.24915987  0.50235396  0.06918771  1
  O2-  O124  1  0.25039045  0.50085753  0.39293699  1
  O2-  O125  1  0.24249168  0.49868005  0.72638044  1
  O2-  O126  1  0.75228361  -0.00272480  0.06734798  1
  O2-  O127  1  0.75370544  0.00372534  0.39365505  1
  O2-  O128  1  0.74978333  -0.00050647  0.73047681  1
  O2-  O129  1  0.75110081  0.49816800  0.05862981  1
  O2-  O130  1  0.75231187  0.49566206  0.38679451  1
  O2-  O131  1  0.75122484  0.49920651  0.72999858  1
  O2-  O132  1  -0.00417501  0.24660686  0.26895687  1
  O2-  O133  1  -0.00607016  0.25270316  0.60564844  1
  O2-  O134  1  -0.00190683  0.24895292  0.93168225  1
  O2-  O135  1  0.00171135  0.74942313  0.27054960  1
  O2-  O136  1  -0.00575401  0.74187536  0.61199971  1
  O2-  O137  1  0.00266716  0.74464140  0.93662113  1
  O2-  O138  1  0.50093310  0.24986469  0.26884031  1
  O2-  O139  1  0.50429591  0.25428421  0.61195485  1
  O2-  O140  1  0.50190345  0.25189044  0.93996701  1
  O2-  O141  1  0.49847889  0.75754505  0.27324996  1
  O2-  O142  1  0.50162880  0.75502489  0.60067937  1
  O2-  O143  1  0.50392407  0.74520499  0.94001731  1
  O2-  O144  1  0.07316175  0.18142767  0.09590857  1
  O2-  O145  1  0.07060767  0.18082525  0.43205317  1
  O2-  O146  1  0.07473993  0.18090943  0.76272135  1
  O2-  O147  1  0.07175972  0.68254805  0.08916822  1
  O2-  O148  1  0.07333593  0.67903455  0.43402850  1
  O2-  O149  1  0.07345848  0.68226587  0.76018696  1
  O2-  O150  1  0.56665282  0.17937759  0.08910984  1
  O2-  O151  1  0.56992572  0.17851133  0.43305141  1
  O2-  O152  1  0.56793756  0.17979576  0.75914093  1
  O2-  O153  1  0.57216675  0.67461352  0.08717745  1
  O2-  O154  1  0.57014507  0.67657483  0.43194916  1
  O2-  O155  1  0.56618517  0.67756822  0.76512423  1
  O2-  O156  1  0.18090022  0.42884225  0.24607984  1
  O2-  O157  1  0.18112452  0.42533645  0.57650278  1
  O2-  O158  1  0.18442338  0.42949501  0.90293699  1
  O2-  O159  1  0.18114985  0.92638799  0.24384313  1
  O2-  O160  1  0.17930941  0.92925299  0.57606579  1
  O2-  O161  1  0.18158725  0.92767734  0.90966252  1
  O2-  O162  1  0.67617307  0.43176469  0.23968798  1
  O2-  O163  1  0.67766462  0.42791136  0.56537648  1
  O2-  O164  1  0.67537816  0.42918008  0.91250836  1
  O2-  O165  1  0.67892074  0.92763652  0.23608975  1
  O2-  O166  1  0.67846493  0.92993712  0.56810200  1
  O2-  O167  1  0.67632399  0.93158395  0.90268807  1
  O2-  O168  1  0.43172840  0.31914237  0.08891503  1
  O2-  O169  1  0.43121335  0.32298360  0.43282664  1
  O2-  O170  1  0.42763239  0.31711358  0.75985119  1
  O2-  O171  1  0.43071483  0.82117478  0.10045058  1
  O2-  O172  1  0.42427864  0.82025467  0.42305180  1
  O2-  O173  1  0.42407056  0.82157920  0.76330885  1
  O2-  O174  1  0.92797963  0.32184986  0.09380560  1
  O2-  O175  1  0.92903262  0.32383325  0.43377757  1
  O2-  O176  1  0.92854385  0.32487433  0.75459630  1
  O2-  O177  1  0.93019717  0.81817464  0.09701003  1
  O2-  O178  1  0.92835054  0.81722049  0.43426467  1
  O2-  O179  1  0.93281904  0.82094777  0.75788130  1
  O2-  O180  1  0.32090173  0.07115114  0.24419618  1
  O2-  O181  1  0.31756938  0.07638496  0.57587783  1
  O2-  O182  1  0.32346699  0.07234118  0.90949015  1
  O2-  O183  1  0.32118556  0.57250770  0.24589017  1
  O2-  O184  1  0.31787867  0.56900559  0.56616213  1
  O2-  O185  1  0.32107903  0.57182731  0.90500385  1
  O2-  O186  1  0.82201418  0.07155316  0.24393368  1
  O2-  O187  1  0.82315546  0.06821989  0.56661574  1
  O2-  O188  1  0.82059610  0.06867307  0.90340117  1
  O2-  O189  1  0.81938294  0.56972671  0.23982285  1
  O2-  O190  1  0.82577806  0.57013802  0.56665472  1
  O2-  O191  1  0.81971007  0.57106564  0.91138574  1
  O2-  O192  1  0.05156188  0.07762199  0.26754657  1
  O2-  O193  1  0.04270240  0.08098745  0.59679038  1
  O2-  O194  1  0.04847952  0.07965282  0.93075876  1
  O2-  O195  1  0.04878833  0.58025059  0.26616664  1
  O2-  O196  1  0.05155074  0.58263245  0.61051115  1
  O2-  O197  1  0.05060447  0.58424695  0.93996465  1
  O2-  O198  1  0.53706224  0.07956860  0.26562366  1
  O2-  O199  1  0.53965664  0.09067644  0.60474045  1
  O2-  O200  1  0.53814748  0.08905700  0.93623326  1
  O2-  O201  1  0.53823381  0.58657712  0.26142969  1
  O2-  O202  1  0.53707562  0.58113151  0.59988618  1
  O2-  O203  1  0.54600070  0.58081054  0.93707785  1
  O2-  O204  1  0.16878974  0.20794651  0.26645129  1
  O2-  O205  1  0.16678294  0.21084527  0.59548923  1
  O2-  O206  1  0.17198246  0.20953062  0.93136970  1
  O2-  O207  1  0.17166709  0.70809690  0.26646524  1
  O2-  O208  1  0.15920402  0.71181745  0.60494743  1
  O2-  O209  1  0.16586434  0.70842792  0.93911921  1
  O2-  O210  1  0.66823284  0.20225887  0.26316414  1
  O2-  O211  1  0.66525356  0.20432975  0.60765298  1
  O2-  O212  1  0.66218665  0.20635635  0.93803899  1
  O2-  O213  1  0.66630455  0.70801684  0.26327846  1
  O2-  O214  1  0.67074483  0.70352330  0.60010540  1
  O2-  O215  1  0.66642318  0.69783424  0.93589153  1
  O2-  O216  1  0.07961373  0.45446609  0.06836354  1
  O2-  O217  1  0.08782929  0.45693072  0.39850034  1
  O2-  O218  1  0.08390380  0.44489824  0.72736574  1
  O2-  O219  1  0.08776540  0.95585325  0.06203157  1
  O2-  O220  1  0.08603314  0.95334289  0.39666587  1
  O2-  O221  1  0.08887477  0.95841838  0.72933608  1
  O2-  O222  1  0.58794584  0.45619284  0.06664643  1
  O2-  O223  1  0.58625718  0.46066171  0.39165235  1
  O2-  O224  1  0.58076833  0.45745016  0.73585479  1
  O2-  O225  1  0.58045562  0.95974149  0.06873967  1
  O2-  O226  1  0.58099132  0.95706738  0.40222491  1
  O2-  O227  1  0.57640102  0.95945413  0.73210581  1
  O2-  O228  1  0.21299860  0.33168997  0.07007322  1
  O2-  O229  1  0.20910560  0.33737625  0.39828471  1
  O2-  O230  1  0.21105478  0.33421334  0.72865664  1
  O2-  O231  1  0.20966961  0.83975924  0.06502635  1
  O2-  O232  1  0.20903713  0.83760077  0.39821991  1
  O2-  O233  1  0.20601409  0.83876399  0.73101376  1
  O2-  O234  1  0.70441644  0.33557177  0.06430624  1
  O2-  O235  1  0.69903758  0.33450264  0.38995017  1
  O2-  O236  1  0.70303242  0.33076612  0.73542100  1
  O2-  O237  1  0.70456889  0.82681296  0.06442902  1
  O2-  O238  1  0.71204549  0.83060563  0.40125569  1
  O2-  O239  1  0.70064090  0.83013757  0.73409032  1
  O2-  O240  1  0.45754200  0.41896309  0.26197927  1
  O2-  O241  1  0.45279623  0.41421902  0.60927519  1
  O2-  O242  1  0.45880806  0.41395294  0.93869391  1
  O2-  O243  1  0.44760485  0.91813287  0.27460116  1
  O2-  O244  1  0.44636718  0.92542365  0.59955712  1
  O2-  O245  1  0.45823203  0.91808169  0.93249450  1
  O2-  O246  1  0.95878560  0.41797201  0.26569686  1
  O2-  O247  1  0.95421270  0.41655711  0.60332839  1
  O2-  O248  1  0.95659323  0.42193843  0.92891997  1
  O2-  O249  1  0.95644594  0.91707568  0.26651386  1
  O2-  O250  1  0.96388319  0.90740610  0.60336968  1
  O2-  O251  1  0.96267745  0.91453809  0.92946296  1
  O2-  O252  1  0.33250970  0.29295984  0.26517628  1
  O2-  O253  1  0.34028972  0.28906355  0.60438416  1
  O2-  O254  1  0.34006882  0.29180345  0.93607026  1
  O2-  O255  1  0.33515920  0.79476015  0.27056135  1
  O2-  O256  1  0.32782789  0.79242067  0.59708816  1
  O2-  O257  1  0.33262776  0.79230949  0.93390905  1
  O2-  O258  1  0.82816869  0.29977761  0.26649222  1
  O2-  O259  1  0.83153145  0.29946355  0.60566581  1
  O2-  O260  1  0.82626682  0.29799934  0.93015156  1
  O2-  O261  1  0.83259857  0.78750604  0.26402460  1
  O2-  O262  1  0.83524521  0.79623608  0.60799442  1
  O2-  O263  1  0.83242451  0.78710043  0.93020962  1
  O2-  O264  1  0.41222937  0.04153041  0.06393348  1
  O2-  O265  1  0.41051837  0.04505266  0.39925126  1
  O2-  O266  1  0.41157209  0.05034708  0.72949674  1
  O2-  O267  1  0.42058199  0.54255108  0.07055079  1
  O2-  O268  1  0.41406837  0.54102347  0.39602025  1
  O2-  O269  1  0.41241186  0.54006151  0.73669671  1
  O2-  O270  1  0.92312637  0.04317139  0.06641778  1
  O2-  O271  1  0.91739950  0.04712342  0.39375131  1
  O2-  O272  1  0.92180136  0.03865596  0.73247990  1
  O2-  O273  1  0.91399832  0.54517159  0.06274043  1
  O2-  O274  1  0.91447178  0.54448328  0.39166228  1
  O2-  O275  1  0.92163157  0.54548981  0.73648377  1
  O2-  O276  1  0.29666714  0.16378389  0.06281731  1
  O2-  O277  1  0.29251303  0.16500355  0.39653055  1
  O2-  O278  1  0.28914410  0.16383172  0.73043627  1
  O2-  O279  1  0.29465039  0.67196772  0.07157709  1
  O2-  O280  1  0.29460655  0.66372729  0.39823109  1
  O2-  O281  1  0.28663558  0.66835029  0.73348890  1
  O2-  O282  1  0.79283672  0.16969780  0.06716835  1
  O2-  O283  1  0.79679801  0.16687191  0.39425221  1
  O2-  O284  1  0.79867044  0.16853392  0.73358838  1
  O2-  O285  1  0.79143112  0.66115412  0.06441380  1
  O2-  O286  1  0.79098884  0.65984115  0.39278108  1
  O2-  O287  1  0.79444383  0.66902960  0.73556482  1
