# generated using pymatgen
data_Ca2Al2SiO7
_symmetry_space_group_name_H-M   'P 1'
_cell_length_a   15.46358625
_cell_length_b   15.46368269
_cell_length_c   15.28772801
_cell_angle_alpha   89.99521644
_cell_angle_beta   90.00140457
_cell_angle_gamma   89.99569674
_symmetry_Int_Tables_number   1
_chemical_formula_structural   Ca2Al2SiO7
_chemical_formula_sum   'Ca48 Al48 Si24 O168'
_cell_volume   3655.66251149
_cell_formula_units_Z   24
loop_
 _symmetry_equiv_pos_site_id
 _symmetry_equiv_pos_as_xyz
  1  'x, y, z'
loop_
 _atom_type_symbol
 _atom_type_oxidation_number
  Ca2+  2.0
  Al0+  0.0
  Si0+  0.0
  O2-  -2.0
loop_
 _atom_site_type_symbol
 _atom_site_label
 _atom_site_symmetry_multiplicity
 _atom_site_fract_x
 _atom_site_fract_y
 _atom_site_fract_z
 _atom_site_occupancy
  Ca2+  Ca0  1  0.16951255  0.07264054  0.17743206  1
  Ca2+  Ca1  1  0.16067903  0.08299541  0.50074240  1
  Ca2+  Ca2  1  0.16444069  0.07986178  0.83766154  1
  Ca2+  Ca3  1  0.17378320  0.58232393  0.17520124  1
  Ca2+  Ca4  1  0.17214059  0.59131609  0.50451580  1
  Ca2+  Ca5  1  0.16153838  0.58663399  0.83466387  1
  Ca2+  Ca6  1  0.67017034  0.07869644  0.17792390  1
  Ca2+  Ca7  1  0.67627623  0.07537350  0.50459226  1
  Ca2+  Ca8  1  0.67317517  0.08067357  0.83422428  1
  Ca2+  Ca9  1  0.67028521  0.58351692  0.17280349  1
  Ca2+  Ca10  1  0.67807636  0.58075781  0.51001176  1
  Ca2+  Ca11  1  0.66769521  0.58493109  0.83024392  1
  Ca2+  Ca12  1  0.07711224  0.32611521  0.16404937  1
  Ca2+  Ca13  1  0.07627275  0.32190210  0.49821903  1
  Ca2+  Ca14  1  0.07019116  0.32898792  0.82412067  1
  Ca2+  Ca15  1  0.07295556  0.84495296  0.16550369  1
  Ca2+  Ca16  1  0.06905977  0.83492908  0.49657193  1
  Ca2+  Ca17  1  0.07371594  0.83388756  0.82763732  1
  Ca2+  Ca18  1  0.58625369  0.31769499  0.16414777  1
  Ca2+  Ca19  1  0.58990604  0.32797302  0.49648388  1
  Ca2+  Ca20  1  0.58699418  0.32991643  0.82985208  1
  Ca2+  Ca21  1  0.57788821  0.83028860  0.15874246  1
  Ca2+  Ca22  1  0.59568876  0.83203712  0.49851828  1
  Ca2+  Ca23  1  0.58468712  0.82425308  0.82771207  1
  Ca2+  Ca24  1  0.33402276  0.42499786  0.17366570  1
  Ca2+  Ca25  1  0.33298515  0.42148789  0.50181946  1
  Ca2+  Ca26  1  0.33040066  0.41944232  0.83605087  1
  Ca2+  Ca27  1  0.32197759  0.91426989  0.17365012  1
  Ca2+  Ca28  1  0.32653962  0.92187010  0.49832246  1
  Ca2+  Ca29  1  0.32465912  0.91209131  0.84148915  1
  Ca2+  Ca30  1  0.83665904  0.42404921  0.17078313  1
  Ca2+  Ca31  1  0.83338966  0.42649643  0.51020102  1
  Ca2+  Ca32  1  0.83628801  0.41775709  0.83279901  1
  Ca2+  Ca33  1  0.82769515  0.91748932  0.17799693  1
  Ca2+  Ca34  1  0.83058634  0.92110155  0.50370588  1
  Ca2+  Ca35  1  0.83674319  0.91620098  0.83133069  1
  Ca2+  Ca36  1  0.42922180  0.15214838  0.16889262  1
  Ca2+  Ca37  1  0.42298924  0.16499420  0.48997557  1
  Ca2+  Ca38  1  0.42618277  0.16248116  0.83180986  1
  Ca2+  Ca39  1  0.42147089  0.67178303  0.15878961  1
  Ca2+  Ca40  1  0.42364244  0.66594441  0.49668731  1
  Ca2+  Ca41  1  0.42685892  0.67216707  0.83073275  1
  Ca2+  Ca42  1  0.92088912  0.16350293  0.16543833  1
  Ca2+  Ca43  1  0.91910493  0.16073267  0.49640702  1
  Ca2+  Ca44  1  0.91749711  0.17525003  0.82232489  1
  Ca2+  Ca45  1  0.91058301  0.68018394  0.16479949  1
  Ca2+  Ca46  1  0.90728712  0.67554758  0.49751127  1
  Ca2+  Ca47  1  0.91809486  0.67832527  0.82234420  1
  Al0+  Al48  1  0.00064260  0.00082823  0.00015665  1
  Al0+  Al49  1  -0.00099697  -0.00008180  0.33069963  1
  Al0+  Al50  1  0.00108364  -0.00074681  0.66505321  1
  Al0+  Al51  1  -0.00044962  0.49935279  0.00034370  1
  Al0+  Al52  1  0.00123359  0.50060516  0.33677359  1
  Al0+  Al53  1  0.00311405  0.49949352  0.66388258  1
  Al0+  Al54  1  0.50037141  -0.00063141  -0.00969364  1
  Al0+  Al55  1  0.49757483  -0.00296873  0.33639903  1
  Al0+  Al56  1  0.49863468  0.00039603  0.67079947  1
  Al0+  Al57  1  0.50163547  0.49766705  -0.00128749  1
  Al0+  Al58  1  0.49896664  0.49944520  0.33611292  1
  Al0+  Al59  1  0.49927791  0.50165206  0.66745684  1
  Al0+  Al60  1  0.25197477  0.25033492  0.00368307  1
  Al0+  Al61  1  0.24978583  0.25141261  0.32985413  1
  Al0+  Al62  1  0.25110497  0.25110369  0.66545067  1
  Al0+  Al63  1  0.24989107  0.74959019  0.00293986  1
  Al0+  Al64  1  0.24982935  0.74906967  0.34263069  1
  Al0+  Al65  1  0.25193209  0.75223999  0.66514948  1
  Al0+  Al66  1  0.75004794  0.25096976  -0.00581084  1
  Al0+  Al67  1  0.74939854  0.25030882  0.33007404  1
  Al0+  Al68  1  0.74887371  0.25063192  0.66942226  1
  Al0+  Al69  1  0.75119586  0.75000610  -0.00727243  1
  Al0+  Al70  1  0.74994415  0.74791356  0.33393438  1
  Al0+  Al71  1  0.74841654  0.74896146  0.66695554  1
  Al0+  Al72  1  0.67704236  0.92728971  0.34500577  1
  Al0+  Al73  1  0.82311628  0.06978750  0.68276568  1
  Al0+  Al74  1  0.56867135  0.68003977  0.65044902  1
  Al0+  Al75  1  0.32131373  0.57052483  0.34802920  1
  Al0+  Al76  1  0.32078334  0.07167521  0.34742071  1
  Al0+  Al77  1  0.93006113  0.82272950  0.98650296  1
  Al0+  Al78  1  0.57081660  0.17839152  0.98487071  1
  Al0+  Al79  1  0.07388873  0.67897899  0.65194179  1
  Al0+  Al80  1  0.92804528  0.81991320  0.64962487  1
  Al0+  Al81  1  0.82404150  0.57043714  0.68388677  1
  Al0+  Al82  1  0.57208311  0.67712866  0.98496387  1
  Al0+  Al83  1  0.67773658  0.92858345  0.68470435  1
  Al0+  Al84  1  0.57031428  0.17785114  0.32199942  1
  Al0+  Al85  1  0.92866006  0.81895756  0.31858182  1
  Al0+  Al86  1  0.82065456  0.07281293  0.34549392  1
  Al0+  Al87  1  0.67778268  0.42921602  0.68270538  1
  Al0+  Al88  1  0.92585615  0.32100349  0.64969824  1
  Al0+  Al89  1  0.42656861  0.82040875  0.98583044  1
  Al0+  Al90  1  0.07161389  0.17916596  0.65252869  1
  Al0+  Al91  1  0.17883351  0.92986993  0.01367340  1
  Al0+  Al92  1  0.93054680  0.32187204  0.98670351  1
  Al0+  Al93  1  0.82110950  0.57006843  0.34526018  1
  Al0+  Al94  1  0.07081370  0.17903019  0.31720357  1
  Al0+  Al95  1  0.17671256  0.92930633  0.35116510  1
  Si0+  Si96  1  0.17770860  0.42823858  0.01555001  1
  Si0+  Si97  1  0.32066654  0.57262070  0.68425213  1
  Si0+  Si98  1  0.18106470  0.92982743  0.68242734  1
  Si0+  Si99  1  0.07389727  0.67755134  0.31676239  1
  Si0+  Si100  1  0.56963424  0.17853286  0.65139075  1
  Si0+  Si101  1  0.56992671  0.67794080  0.31918565  1
  Si0+  Si102  1  0.32456797  0.07306971  0.01639897  1
  Si0+  Si103  1  0.42655455  0.81904789  0.31969486  1
  Si0+  Si104  1  0.42883074  0.32153686  0.65214000  1
  Si0+  Si105  1  0.67950007  0.92820032  0.01310818  1
  Si0+  Si106  1  0.92787155  0.32449799  0.31630895  1
  Si0+  Si107  1  0.18176977  0.42791354  0.68219118  1
  Si0+  Si108  1  0.17773902  0.42756375  0.35131152  1
  Si0+  Si109  1  0.42738676  0.32283148  0.98347232  1
  Si0+  Si110  1  0.67898030  0.42756314  0.01679884  1
  Si0+  Si111  1  0.82098293  0.57142802  0.01487635  1
  Si0+  Si112  1  0.07328485  0.17899087  0.98501600  1
  Si0+  Si113  1  0.42790664  0.82436492  0.64730789  1
  Si0+  Si114  1  0.32171526  0.56878219  0.01393749  1
  Si0+  Si115  1  0.67781209  0.42774258  0.34726017  1
  Si0+  Si116  1  0.32098577  0.07402280  0.68329087  1
  Si0+  Si117  1  0.42811799  0.32374612  0.31607455  1
  Si0+  Si118  1  0.07201532  0.67693879  0.98760987  1
  Si0+  Si119  1  0.81931282  0.07271982  0.01435719  1
  O2-  O120  1  0.25521100  0.00437696  0.05879160  1
  O2-  O121  1  0.24536078  0.00560310  0.40035023  1
  O2-  O122  1  0.25001740  0.00312549  0.72504679  1
  O2-  O123  1  0.24980684  0.49880892  0.05699297  1
  O2-  O124  1  0.24574244  0.49723358  0.39538748  1
  O2-  O125  1  0.24686116  0.50434084  0.72632544  1
  O2-  O126  1  0.74965429  -0.00027544  0.05625980  1
  O2-  O127  1  0.74775316  0.00103753  0.39344550  1
  O2-  O128  1  0.75202414  -0.00201292  0.73543518  1
  O2-  O129  1  0.74858930  0.50092077  0.05750772  1
  O2-  O130  1  0.74874649  0.49326439  0.39083815  1
  O2-  O131  1  0.75248748  0.49753636  0.73469600  1
  O2-  O132  1  -0.00627870  0.25282382  0.27177832  1
  O2-  O133  1  -0.00559229  0.24491292  0.60142680  1
  O2-  O134  1  0.00571049  0.24780627  0.94069091  1
  O2-  O135  1  0.00530304  0.74512138  0.27118159  1
  O2-  O136  1  -0.00280250  0.74407713  0.60055687  1
  O2-  O137  1  0.00615582  0.74762904  0.94372916  1
  O2-  O138  1  0.49415000  0.25170247  0.27338471  1
  O2-  O139  1  0.50118590  0.25265753  0.61001319  1
  O2-  O140  1  0.49313363  0.25169042  0.93956143  1
  O2-  O141  1  0.49933862  0.74941073  0.27736879  1
  O2-  O142  1  0.49939358  0.75926685  0.60249456  1
  O2-  O143  1  0.50086485  0.75083718  0.93621757  1
  O2-  O144  1  0.07221017  0.18026073  0.09058520  1
  O2-  O145  1  0.07212545  0.18234559  0.42963496  1
  O2-  O146  1  0.07631981  0.18375671  0.76661291  1
  O2-  O147  1  0.07144980  0.67272825  0.09303397  1
  O2-  O148  1  0.07416015  0.67781349  0.42175253  1
  O2-  O149  1  0.07704746  0.68478715  0.76626753  1
  O2-  O150  1  0.57086849  0.17832148  0.09815727  1
  O2-  O151  1  0.56914636  0.18171935  0.43483956  1
  O2-  O152  1  0.56604722  0.17874103  0.75678534  1
  O2-  O153  1  0.57034641  0.67663789  0.09939488  1
  O2-  O154  1  0.56831372  0.67621578  0.42386476  1
  O2-  O155  1  0.56364929  0.67806348  0.76344561  1
  O2-  O156  1  0.17880617  0.42980935  0.24495345  1
  O2-  O157  1  0.18821672  0.42411316  0.57767645  1
  O2-  O158  1  0.17857923  0.42816582  0.91053964  1
  O2-  O159  1  0.17970915  0.92830807  0.23710958  1
  O2-  O160  1  0.18345852  0.92912146  0.57790030  1
  O2-  O161  1  0.17938973  0.93162039  0.90022013  1
  O2-  O162  1  0.67596947  0.42958560  0.24112590  1
  O2-  O163  1  0.67465220  0.43174463  0.56894805  1
  O2-  O164  1  0.67754014  0.42660472  0.91243757  1
  O2-  O165  1  0.67643690  0.92677300  0.23030365  1
  O2-  O166  1  0.67481424  0.93372453  0.57142260  1
  O2-  O167  1  0.68066419  0.92901413  0.90853659  1
  O2-  O168  1  0.42849409  0.32800050  0.08859250  1
  O2-  O169  1  0.42995300  0.32725894  0.42166015  1
  O2-  O170  1  0.42598969  0.31964848  0.75746911  1
  O2-  O171  1  0.42683704  0.81753907  0.09994124  1
  O2-  O172  1  0.42516463  0.81750838  0.42448182  1
  O2-  O173  1  0.42432647  0.82057869  0.75293219  1
  O2-  O174  1  0.93282265  0.32416257  0.09988409  1
  O2-  O175  1  0.92937877  0.32693721  0.42110753  1
  O2-  O176  1  0.93098660  0.32061828  0.76380828  1
  O2-  O177  1  0.92704558  0.82177650  0.09962269  1
  O2-  O178  1  0.92659044  0.81733258  0.43066950  1
  O2-  O179  1  0.93347037  0.82133759  0.76377310  1
  O2-  O180  1  0.32260535  0.06555497  0.23367021  1
  O2-  O181  1  0.32274175  0.07558252  0.57871834  1
  O2-  O182  1  0.32167678  0.07653106  0.91060567  1
  O2-  O183  1  0.32195220  0.56883180  0.23413155  1
  O2-  O184  1  0.32181950  0.57015385  0.57926224  1
  O2-  O185  1  0.32083677  0.56670791  0.90888434  1
  O2-  O186  1  0.81833001  0.07224136  0.23079020  1
  O2-  O187  1  0.82042255  0.06984702  0.56944412  1
  O2-  O188  1  0.81872508  0.07353036  0.90965755  1
  O2-  O189  1  0.81795282  0.57039494  0.23111890  1
  O2-  O190  1  0.82030327  0.56937822  0.57015442  1
  O2-  O191  1  0.82351224  0.56981373  0.91065012  1
  O2-  O192  1  0.04088541  0.08297686  0.26178566  1
  O2-  O193  1  0.05000463  0.07930069  0.60171736  1
  O2-  O194  1  0.04766571  0.08607709  0.93885728  1
  O2-  O195  1  0.05106071  0.58218075  0.27184818  1
  O2-  O196  1  0.05947386  0.57647783  0.60338690  1
  O2-  O197  1  0.04585043  0.58426623  0.93967301  1
  O2-  O198  1  0.53769478  0.08085196  0.26824421  1
  O2-  O199  1  0.53687968  0.08799246  0.60550802  1
  O2-  O200  1  0.54147406  0.08395465  0.92652541  1
  O2-  O201  1  0.54066462  0.58600043  0.27178343  1
  O2-  O202  1  0.53149346  0.58486231  0.59715568  1
  O2-  O203  1  0.54206012  0.57877523  0.93317121  1
  O2-  O204  1  0.16721648  0.21163445  0.26191438  1
  O2-  O205  1  0.16887418  0.21348128  0.59942488  1
  O2-  O206  1  0.16872566  0.20312183  0.94183877  1
  O2-  O207  1  0.16918747  0.70239832  0.27287158  1
  O2-  O208  1  0.17179246  0.71079870  0.59910601  1
  O2-  O209  1  0.16686924  0.69827229  0.94283725  1
  O2-  O210  1  0.66505715  0.21010742  0.26367633  1
  O2-  O211  1  0.66184790  0.20440808  0.60576938  1
  O2-  O212  1  0.66468280  0.21337276  0.92959934  1
  O2-  O213  1  0.66103960  0.70463105  0.27048079  1
  O2-  O214  1  0.66663596  0.70550809  0.59826456  1
  O2-  O215  1  0.66917904  0.70461203  0.93066522  1
  O2-  O216  1  0.08722938  0.45731183  0.06490066  1
  O2-  O217  1  0.08459785  0.45108524  0.39778605  1
  O2-  O218  1  0.08902993  0.45075352  0.72934335  1
  O2-  O219  1  0.08309136  0.96300826  0.06882228  1
  O2-  O220  1  0.07787615  0.95672333  0.40099476  1
  O2-  O221  1  0.08916052  0.95555814  0.72982251  1
  O2-  O222  1  0.58631724  0.45306928  0.06460931  1
  O2-  O223  1  0.58504115  0.45343268  0.39433646  1
  O2-  O224  1  0.57882191  0.45969334  0.73601588  1
  O2-  O225  1  0.58523661  0.95498596  0.05660332  1
  O2-  O226  1  0.57867304  0.95036059  0.39884229  1
  O2-  O227  1  0.57879091  0.95889750  0.73773486  1
  O2-  O228  1  0.20562266  0.33690485  0.06469007  1
  O2-  O229  1  0.20579193  0.33496730  0.39665204  1
  O2-  O230  1  0.21693615  0.33965818  0.73310759  1
  O2-  O231  1  0.20762868  0.83239373  0.06800242  1
  O2-  O232  1  0.20841369  0.83295638  0.40516235  1
  O2-  O233  1  0.21342515  0.83944144  0.73086021  1
  O2-  O234  1  0.70990109  0.33640561  0.06433181  1
  O2-  O235  1  0.70008562  0.33340351  0.39187015  1
  O2-  O236  1  0.70044081  0.32951990  0.73559534  1
  O2-  O237  1  0.70688657  0.83534590  0.05914400  1
  O2-  O238  1  0.70731661  0.82997367  0.39772095  1
  O2-  O239  1  0.70209643  0.82841334  0.73469909  1
  O2-  O240  1  0.45784044  0.41604319  0.26778676  1
  O2-  O241  1  0.45311594  0.41441352  0.60573469  1
  O2-  O242  1  0.45524207  0.41423688  0.93411703  1
  O2-  O243  1  0.45180029  0.91079438  0.27155938  1
  O2-  O244  1  0.44877191  0.92044490  0.60500110  1
  O2-  O245  1  0.44853851  0.91892175  0.93127323  1
  O2-  O246  1  0.95868625  0.41699904  0.26874043  1
  O2-  O247  1  0.96009314  0.41772925  0.59785033  1
  O2-  O248  1  0.96279475  0.41778411  0.93217138  1
  O2-  O249  1  0.95783914  0.91567270  0.26380590  1
  O2-  O250  1  0.96100257  0.91706740  0.59805156  1
  O2-  O251  1  0.96165219  0.91898931  0.93251965  1
  O2-  O252  1  0.33353391  0.30471348  0.26958677  1
  O2-  O253  1  0.33902987  0.29199040  0.60238273  1
  O2-  O254  1  0.33207184  0.30032400  0.93840457  1
  O2-  O255  1  0.33532513  0.78741843  0.27287299  1
  O2-  O256  1  0.33645613  0.79449567  0.60002849  1
  O2-  O257  1  0.32929256  0.78783852  0.93196072  1
  O2-  O258  1  0.83297389  0.30378396  0.27035536  1
  O2-  O259  1  0.82461701  0.29961748  0.60052235  1
  O2-  O260  1  0.83447933  0.29302420  0.93257064  1
  O2-  O261  1  0.83262619  0.78421011  0.26334890  1
  O2-  O262  1  0.82809644  0.79505296  0.59989497  1
  O2-  O263  1  0.83563053  0.79125339  0.93044579  1
  O2-  O264  1  0.41950840  0.04619813  0.05870934  1
  O2-  O265  1  0.41605393  0.03896796  0.40372925  1
  O2-  O266  1  0.41153012  0.04552566  0.73284360  1
  O2-  O267  1  0.41288977  0.53853029  0.06186226  1
  O2-  O268  1  0.41649401  0.53705734  0.40379688  1
  O2-  O269  1  0.40967848  0.53958590  0.73324403  1
  O2-  O270  1  0.91281080  0.04739935  0.05959053  1
  O2-  O271  1  0.91865323  0.04505203  0.39640333  1
  O2-  O272  1  0.92292654  0.04355648  0.73553811  1
  O2-  O273  1  0.91210463  0.54171152  0.06370641  1
  O2-  O274  1  0.91869887  0.54451802  0.39870012  1
  O2-  O275  1  0.92507258  0.54484233  0.73396830  1
  O2-  O276  1  0.30299691  0.16761157  0.06357943  1
  O2-  O277  1  0.30134552  0.17452993  0.39447440  1
  O2-  O278  1  0.29390565  0.16589480  0.73174386  1
  O2-  O279  1  0.29552502  0.66006208  0.06277192  1
  O2-  O280  1  0.29318950  0.66501355  0.40592547  1
  O2-  O281  1  0.29532899  0.66560914  0.73056033  1
  O2-  O282  1  0.78990896  0.16452751  0.06096010  1
  O2-  O283  1  0.79408119  0.17214277  0.39695125  1
  O2-  O284  1  0.79255902  0.16841710  0.73484514  1
  O2-  O285  1  0.79218412  0.66391794  0.06097198  1
  O2-  O286  1  0.78585951  0.66344316  0.40027393  1
  O2-  O287  1  0.79273308  0.66836004  0.73551000  1
