# generated using pymatgen
data_Ca2Al2SiO7
_symmetry_space_group_name_H-M   'P 1'
_cell_length_a   15.46134216
_cell_length_b   15.46085463
_cell_length_c   15.28695978
_cell_angle_alpha   89.99850314
_cell_angle_beta   89.99710417
_cell_angle_gamma   89.99118353
_symmetry_Int_Tables_number   1
_chemical_formula_structural   Ca2Al2SiO7
_chemical_formula_sum   'Ca48 Al48 Si24 O168'
_cell_volume   3654.27986816
_cell_formula_units_Z   24
loop_
 _symmetry_equiv_pos_site_id
 _symmetry_equiv_pos_as_xyz
  1  'x, y, z'
loop_
 _atom_type_symbol
 _atom_type_oxidation_number
  Ca2+  2.0
  Al0+  0.0
  Si0+  0.0
  O2-  -2.0
loop_
 _atom_site_type_symbol
 _atom_site_label
 _atom_site_symmetry_multiplicity
 _atom_site_fract_x
 _atom_site_fract_y
 _atom_site_fract_z
 _atom_site_occupancy
  Ca2+  Ca0  1  0.17391679  0.09687582  0.16907645  1
  Ca2+  Ca1  1  0.17324971  0.09248891  0.50029826  1
  Ca2+  Ca2  1  0.17159967  0.07826510  0.84817937  1
  Ca2+  Ca3  1  0.17393850  0.58089965  0.16640620  1
  Ca2+  Ca4  1  0.16293986  0.58344330  0.50618561  1
  Ca2+  Ca5  1  0.17093878  0.58557337  0.84003324  1
  Ca2+  Ca6  1  0.65591060  0.08028147  0.16862691  1
  Ca2+  Ca7  1  0.66984681  0.08505347  0.51050976  1
  Ca2+  Ca8  1  0.66549913  0.07848857  0.83347038  1
  Ca2+  Ca9  1  0.67458200  0.56953320  0.17281859  1
  Ca2+  Ca10  1  0.66742824  0.57840537  0.49641855  1
  Ca2+  Ca11  1  0.67510808  0.57410881  0.84650311  1
  Ca2+  Ca12  1  0.07412979  0.32610961  0.16159826  1
  Ca2+  Ca13  1  0.06934376  0.32838173  0.49334855  1
  Ca2+  Ca14  1  0.07318073  0.32869304  0.83250333  1
  Ca2+  Ca15  1  0.08442064  0.83308308  0.16126919  1
  Ca2+  Ca16  1  0.07731789  0.82970365  0.50220289  1
  Ca2+  Ca17  1  0.07932852  0.82931095  0.82624242  1
  Ca2+  Ca18  1  0.58568694  0.32593063  0.15820561  1
  Ca2+  Ca19  1  0.58830774  0.32189618  0.49378580  1
  Ca2+  Ca20  1  0.58397232  0.32483716  0.83561847  1
  Ca2+  Ca21  1  0.58873218  0.82618744  0.16217102  1
  Ca2+  Ca22  1  0.58064766  0.83519831  0.49748033  1
  Ca2+  Ca23  1  0.58061908  0.83919039  0.82784804  1
  Ca2+  Ca24  1  0.34076199  0.41790628  0.16707556  1
  Ca2+  Ca25  1  0.32951337  0.41747475  0.50307496  1
  Ca2+  Ca26  1  0.33520905  0.42307198  0.84432481  1
  Ca2+  Ca27  1  0.32462358  0.93053610  0.16674079  1
  Ca2+  Ca28  1  0.33597576  0.92161063  0.50333918  1
  Ca2+  Ca29  1  0.32827621  0.91918721  0.84289163  1
  Ca2+  Ca30  1  0.82917087  0.41614521  0.17149269  1
  Ca2+  Ca31  1  0.83347109  0.41332494  0.50028731  1
  Ca2+  Ca32  1  0.83328335  0.41832555  0.84153783  1
  Ca2+  Ca33  1  0.82695884  0.91988169  0.16674380  1
  Ca2+  Ca34  1  0.82635505  0.92517680  0.51302578  1
  Ca2+  Ca35  1  0.82499413  0.91761276  0.83665616  1
  Ca2+  Ca36  1  0.42255572  0.16735926  0.15838092  1
  Ca2+  Ca37  1  0.42847406  0.16200128  0.49381366  1
  Ca2+  Ca38  1  0.42814035  0.15869413  0.83611743  1
  Ca2+  Ca39  1  0.42454515  0.66292041  0.16135339  1
  Ca2+  Ca40  1  0.42449133  0.67648285  0.49551615  1
  Ca2+  Ca41  1  0.41697534  0.67275499  0.82743733  1
  Ca2+  Ca42  1  0.92222406  0.17893142  0.15846931  1
  Ca2+  Ca43  1  0.91377264  0.17525317  0.49347893  1
  Ca2+  Ca44  1  0.91045174  0.17643035  0.82981815  1
  Ca2+  Ca45  1  0.90923645  0.66358419  0.16304161  1
  Ca2+  Ca46  1  0.91313883  0.67076713  0.49861274  1
  Ca2+  Ca47  1  0.91955894  0.67140454  0.82704752  1
  Al0+  Al48  1  -0.00172657  -0.00343714  0.00031915  1
  Al0+  Al49  1  0.00063006  -0.00238682  0.33103227  1
  Al0+  Al50  1  0.00186399  0.00070850  0.66680926  1
  Al0+  Al51  1  0.00276655  0.50224241  -0.00028223  1
  Al0+  Al52  1  0.00034030  0.50257566  0.33338667  1
  Al0+  Al53  1  0.00079701  0.49743581  0.66091083  1
  Al0+  Al54  1  0.49808586  -0.00222999  0.00498830  1
  Al0+  Al55  1  0.49530741  -0.00053064  0.33325544  1
  Al0+  Al56  1  0.49984705  -0.00040185  0.66210530  1
  Al0+  Al57  1  0.50280023  0.49981945  0.00262157  1
  Al0+  Al58  1  0.50164301  0.50208656  0.33679562  1
  Al0+  Al59  1  0.49891321  0.49939807  0.66717115  1
  Al0+  Al60  1  0.25005543  0.25199483  -0.00412749  1
  Al0+  Al61  1  0.25104987  0.25167421  0.33801148  1
  Al0+  Al62  1  0.25019643  0.25265485  0.67000270  1
  Al0+  Al63  1  0.25100655  0.75033245  0.00925327  1
  Al0+  Al64  1  0.24843040  0.75224389  0.33393503  1
  Al0+  Al65  1  0.25220339  0.75066302  0.65756098  1
  Al0+  Al66  1  0.75002587  0.24850053  -0.00582637  1
  Al0+  Al67  1  0.74854316  0.24910438  0.32784092  1
  Al0+  Al68  1  0.74943676  0.25018977  0.66356200  1
  Al0+  Al69  1  0.75008785  0.75025678  0.00542038  1
  Al0+  Al70  1  0.74909380  0.74920115  0.33337511  1
  Al0+  Al71  1  0.74973048  0.74810997  0.66698921  1
  Al0+  Al72  1  0.56791664  0.18107649  0.65254756  1
  Al0+  Al73  1  0.57025261  0.17483691  0.98345425  1
  Al0+  Al74  1  0.31884650  0.07297705  0.01439462  1
  Al0+  Al75  1  0.43098061  0.82054640  0.65362580  1
  Al0+  Al76  1  0.57078971  0.68044539  0.31856303  1
  Al0+  Al77  1  0.82365336  0.57075791  0.01332245  1
  Al0+  Al78  1  0.68081626  0.42599768  0.01400915  1
  Al0+  Al79  1  0.07123083  0.17668463  0.98423235  1
  Al0+  Al80  1  0.07259596  0.17826154  0.31982350  1
  Al0+  Al81  1  0.92960296  0.32251149  0.98345687  1
  Al0+  Al82  1  0.67804359  0.93041771  0.01462190  1
  Al0+  Al83  1  0.67825808  0.92774521  0.68054902  1
  Al0+  Al84  1  0.31851500  0.07177592  0.34946770  1
  Al0+  Al85  1  0.56982611  0.17796572  0.31947708  1
  Al0+  Al86  1  0.07042912  0.67956148  0.65233145  1
  Al0+  Al87  1  0.92923838  0.31854830  0.65171789  1
  Al0+  Al88  1  0.42970737  0.32373175  0.98563164  1
  Al0+  Al89  1  0.82178776  0.57115101  0.35147875  1
  Al0+  Al90  1  0.32245777  0.57097994  0.01300620  1
  Al0+  Al91  1  0.92656157  0.82279864  0.65226161  1
  Al0+  Al92  1  0.82299079  0.07303932  0.68100784  1
  Al0+  Al93  1  0.67896822  0.42630058  0.35032964  1
  Al0+  Al94  1  0.92846434  0.32193523  0.31690612  1
  Al0+  Al95  1  0.17594854  0.92838292  0.01434548  1
  Si0+  Si96  1  0.31993711  0.57185254  0.68004082  1
  Si0+  Si97  1  0.07345172  0.68148765  0.98731376  1
  Si0+  Si98  1  0.67804986  0.42894970  0.68187987  1
  Si0+  Si99  1  0.18030418  0.43134928  0.34937970  1
  Si0+  Si100  1  0.57267148  0.67408421  0.65133062  1
  Si0+  Si101  1  0.82120092  0.06947560  0.34544130  1
  Si0+  Si102  1  0.17825422  0.43019564  0.68292438  1
  Si0+  Si103  1  0.07565423  0.17742418  0.65115377  1
  Si0+  Si104  1  0.92827357  0.82014903  0.31710668  1
  Si0+  Si105  1  0.42832846  0.32348841  0.31988248  1
  Si0+  Si106  1  0.82198565  0.07150975  0.01652885  1
  Si0+  Si107  1  0.92624799  0.81964276  0.98561850  1
  Si0+  Si108  1  0.17623492  0.92645210  0.35418366  1
  Si0+  Si109  1  0.42596359  0.82173553  0.31299192  1
  Si0+  Si110  1  0.32173793  0.57381804  0.35064650  1
  Si0+  Si111  1  0.42922915  0.81752326  0.98717055  1
  Si0+  Si112  1  0.07200945  0.67969550  0.31604555  1
  Si0+  Si113  1  0.42636107  0.32461997  0.64934188  1
  Si0+  Si114  1  0.67813321  0.92916466  0.34777220  1
  Si0+  Si115  1  0.32070723  0.07177857  0.68168559  1
  Si0+  Si116  1  0.18098031  0.92770365  0.67992202  1
  Si0+  Si117  1  0.57259075  0.67955479  0.98496871  1
  Si0+  Si118  1  0.17870013  0.42905717  0.01661997  1
  Si0+  Si119  1  0.82254712  0.56935552  0.68123176  1
  O2-  O120  1  0.23938664  0.00812843  0.06394232  1
  O2-  O121  1  0.24195339  -0.00153012  0.39730613  1
  O2-  O122  1  0.24625015  0.00369705  0.72246928  1
  O2-  O123  1  0.25283191  0.49229711  0.06123615  1
  O2-  O124  1  0.25081089  0.50312419  0.39316639  1
  O2-  O125  1  0.24969242  0.50153812  0.72394432  1
  O2-  O126  1  0.74884250  0.00803569  0.06240867  1
  O2-  O127  1  0.74664453  0.00242481  0.38913297  1
  O2-  O128  1  0.75401565  -0.00346961  0.72959127  1
  O2-  O129  1  0.75675585  0.49447173  0.06276530  1
  O2-  O130  1  0.75307088  0.49617864  0.40188643  1
  O2-  O131  1  0.74821759  0.50174339  0.72288516  1
  O2-  O132  1  -0.00075511  0.24767536  0.26927468  1
  O2-  O133  1  0.00132550  0.23987156  0.60726202  1
  O2-  O134  1  -0.00167600  0.24694992  0.93294795  1
  O2-  O135  1  -0.00059055  0.74892128  0.27439777  1
  O2-  O136  1  -0.00316245  0.74916741  0.60088837  1
  O2-  O137  1  0.00042755  0.75033332  0.94554152  1
  O2-  O138  1  0.49751782  0.25609646  0.27587942  1
  O2-  O139  1  0.49331568  0.25548934  0.60474164  1
  O2-  O140  1  0.49821884  0.24862876  0.93495808  1
  O2-  O141  1  0.49491944  0.75316811  0.26960806  1
  O2-  O142  1  0.50917254  0.74848139  0.60823116  1
  O2-  O143  1  0.50057260  0.74869587  0.94171880  1
  O2-  O144  1  0.06922830  0.18066470  0.09775634  1
  O2-  O145  1  0.07144148  0.18096097  0.43386103  1
  O2-  O146  1  0.08112620  0.18120203  0.75601786  1
  O2-  O147  1  0.07544058  0.68269796  0.09254779  1
  O2-  O148  1  0.07510992  0.68139664  0.42094774  1
  O2-  O149  1  0.07351596  0.68134513  0.76613091  1
  O2-  O150  1  0.56638302  0.17384880  0.09695849  1
  O2-  O151  1  0.56862795  0.17679413  0.43293734  1
  O2-  O152  1  0.56644227  0.17969437  0.76496883  1
  O2-  O153  1  0.57165273  0.68171817  0.08994459  1
  O2-  O154  1  0.56809252  0.68321407  0.43213124  1
  O2-  O155  1  0.56830742  0.66957214  0.75687959  1
  O2-  O156  1  0.18242015  0.43280471  0.24458585  1
  O2-  O157  1  0.18029356  0.43017979  0.57748029  1
  O2-  O158  1  0.17676829  0.43504785  0.91084375  1
  O2-  O159  1  0.17842279  0.92048735  0.24922652  1
  O2-  O160  1  0.18334580  0.92632359  0.57483710  1
  O2-  O161  1  0.18170102  0.92222325  0.90040538  1
  O2-  O162  1  0.67736689  0.42764306  0.23745576  1
  O2-  O163  1  0.67648263  0.43016408  0.57700061  1
  O2-  O164  1  0.67942330  0.43123385  0.89954951  1
  O2-  O165  1  0.68021386  0.92821203  0.24250268  1
  O2-  O166  1  0.67670337  0.93061389  0.56642593  1
  O2-  O167  1  0.67986233  0.92630045  0.90196376  1
  O2-  O168  1  0.43225475  0.32513436  0.09939304  1
  O2-  O169  1  0.42665233  0.32233441  0.42595142  1
  O2-  O170  1  0.42647108  0.32884263  0.75416170  1
  O2-  O171  1  0.42976134  0.81414312  0.09196414  1
  O2-  O172  1  0.42649486  0.82095990  0.41909812  1
  O2-  O173  1  0.42726493  0.81754696  0.76686932  1
  O2-  O174  1  0.93214172  0.32382929  0.09668100  1
  O2-  O175  1  0.93050364  0.32009433  0.43090445  1
  O2-  O176  1  0.93175580  0.32247912  0.76423959  1
  O2-  O177  1  0.92453020  0.81802799  0.09098795  1
  O2-  O178  1  0.92896521  0.82031224  0.42193996  1
  O2-  O179  1  0.92854166  0.81918596  0.76600855  1
  O2-  O180  1  0.31815919  0.07127794  0.23709489  1
  O2-  O181  1  0.31988627  0.07131224  0.57636825  1
  O2-  O182  1  0.32152656  0.06538208  0.90025304  1
  O2-  O183  1  0.32083275  0.57366875  0.24563124  1
  O2-  O184  1  0.31956105  0.57000064  0.57477737  1
  O2-  O185  1  0.31799648  0.57526254  0.89945705  1
  O2-  O186  1  0.82254848  0.06527048  0.24047121  1
  O2-  O187  1  0.81953352  0.07344141  0.56650241  1
  O2-  O188  1  0.82361374  0.06716753  0.91113899  1
  O2-  O189  1  0.82010946  0.57236543  0.23843741  1
  O2-  O190  1  0.82268531  0.56889195  0.57645829  1
  O2-  O191  1  0.82127491  0.57400736  0.89902169  1
  O2-  O192  1  0.05145256  0.07681799  0.27029464  1
  O2-  O193  1  0.05997979  0.08112602  0.60756564  1
  O2-  O194  1  0.04695852  0.07501034  0.93544317  1
  O2-  O195  1  0.04796371  0.58747986  0.26875346  1
  O2-  O196  1  0.04462567  0.58109401  0.59868764  1
  O2-  O197  1  0.04977464  0.58979490  0.93834642  1
  O2-  O198  1  0.53537628  0.08161933  0.26723294  1
  O2-  O199  1  0.53681310  0.08529401  0.59741253  1
  O2-  O200  1  0.53739421  0.07603281  0.93189279  1
  O2-  O201  1  0.53901918  0.58341959  0.26642638  1
  O2-  O202  1  0.53950977  0.58395792  0.60180367  1
  O2-  O203  1  0.54583568  0.58792099  0.93785722  1
  O2-  O204  1  0.17049212  0.21272697  0.26969937  1
  O2-  O205  1  0.16709583  0.21111824  0.60336802  1
  O2-  O206  1  0.16961300  0.20461976  0.93108698  1
  O2-  O207  1  0.16366038  0.70966198  0.26858866  1
  O2-  O208  1  0.16713149  0.70932436  0.59574129  1
  O2-  O209  1  0.16495067  0.71200469  0.94045710  1
  O2-  O210  1  0.66667307  0.20223683  0.26444105  1
  O2-  O211  1  0.66377313  0.21268938  0.59825482  1
  O2-  O212  1  0.66913781  0.19992174  0.93057887  1
  O2-  O213  1  0.66617325  0.71360341  0.26419717  1
  O2-  O214  1  0.66793677  0.69295245  0.60731707  1
  O2-  O215  1  0.66381130  0.70991048  0.93814661  1
  O2-  O216  1  0.08938642  0.46310172  0.06589855  1
  O2-  O217  1  0.08933851  0.46128750  0.39726202  1
  O2-  O218  1  0.08692520  0.45909145  0.72996670  1
  O2-  O219  1  0.07413779  0.94348061  0.06506067  1
  O2-  O220  1  0.08058281  0.94735835  0.39821715  1
  O2-  O221  1  0.08714601  0.94770424  0.72632573  1
  O2-  O222  1  0.58494881  0.45931148  0.06812868  1
  O2-  O223  1  0.58124572  0.45887096  0.40488012  1
  O2-  O224  1  0.58526381  0.45595940  0.72858588  1
  O2-  O225  1  0.58117836  0.95476444  0.07077467  1
  O2-  O226  1  0.58375009  0.95235808  0.39187177  1
  O2-  O227  1  0.57965521  0.95940359  0.73224836  1
  O2-  O228  1  0.19771849  0.33384693  0.06031855  1
  O2-  O229  1  0.20914796  0.34159749  0.40043063  1
  O2-  O230  1  0.20646325  0.33932638  0.73196974  1
  O2-  O231  1  0.21326506  0.83520062  0.07303908  1
  O2-  O232  1  0.20630647  0.83411728  0.40207124  1
  O2-  O233  1  0.21473611  0.83674793  0.72583428  1
  O2-  O234  1  0.70383000  0.32527414  0.06355606  1
  O2-  O235  1  0.70621521  0.32600590  0.40118916  1
  O2-  O236  1  0.70735231  0.33791366  0.72814252  1
  O2-  O237  1  0.71381164  0.83601904  0.07067894  1
  O2-  O238  1  0.70847006  0.83869928  0.39541117  1
  O2-  O239  1  0.70037477  0.82647186  0.73193113  1
  O2-  O240  1  0.45018027  0.41900621  0.27684542  1
  O2-  O241  1  0.45107696  0.41836343  0.60195849  1
  O2-  O242  1  0.46023252  0.42219552  0.93129477  1
  O2-  O243  1  0.45080988  0.91523871  0.26822322  1
  O2-  O244  1  0.45920750  0.91578966  0.59590012  1
  O2-  O245  1  0.45582979  0.90937376  0.94043785  1
  O2-  O246  1  0.96000126  0.42091589  0.26751002  1
  O2-  O247  1  0.96472701  0.41250002  0.59552552  1
  O2-  O248  1  0.96263978  0.42115791  0.93157624  1
  O2-  O249  1  0.95628956  0.91087169  0.26776163  1
  O2-  O250  1  0.95715829  0.92084553  0.59881412  1
  O2-  O251  1  0.95052953  0.91120878  0.93722923  1
  O2-  O252  1  0.33458685  0.29861817  0.27463707  1
  O2-  O253  1  0.33156085  0.30003659  0.60447559  1
  O2-  O254  1  0.32897911  0.30431488  0.93358769  1
  O2-  O255  1  0.33184578  0.79496964  0.26923907  1
  O2-  O256  1  0.33856642  0.78652972  0.59328482  1
  O2-  O257  1  0.33745799  0.78726698  0.94049345  1
  O2-  O258  1  0.83077093  0.29368679  0.26440533  1
  O2-  O259  1  0.83241421  0.29125432  0.59714744  1
  O2-  O260  1  0.83100353  0.29621015  0.92989915  1
  O2-  O261  1  0.83668393  0.79228054  0.26959013  1
  O2-  O262  1  0.82779763  0.79468839  0.59903092  1
  O2-  O263  1  0.83606586  0.78816145  0.93704009  1
  O2-  O264  1  0.41305201  0.03588061  0.06962888  1
  O2-  O265  1  0.41370167  0.03541494  0.40461077  1
  O2-  O266  1  0.41115590  0.03901892  0.72723023  1
  O2-  O267  1  0.41956752  0.54446364  0.06724523  1
  O2-  O268  1  0.41290948  0.54759367  0.39954464  1
  O2-  O269  1  0.41191510  0.54497653  0.72802499  1
  O2-  O270  1  0.91257088  0.03927857  0.06492642  1
  O2-  O271  1  0.91227733  0.03895626  0.39337660  1
  O2-  O272  1  0.92427311  0.05147601  0.73136430  1
  O2-  O273  1  0.92490287  0.55155052  0.06418171  1
  O2-  O274  1  0.92337190  0.54955920  0.40197248  1
  O2-  O275  1  0.91447631  0.53875619  0.72692564  1
  O2-  O276  1  0.29781874  0.17445981  0.06427306  1
  O2-  O277  1  0.29089369  0.16872745  0.40612290  1
  O2-  O278  1  0.29767218  0.16551138  0.72754593  1
  O2-  O279  1  0.28730470  0.66315615  0.07251397  1
  O2-  O280  1  0.29185943  0.66585060  0.39700895  1
  O2-  O281  1  0.29195230  0.66450654  0.72548710  1
  O2-  O282  1  0.80231188  0.16731438  0.05864826  1
  O2-  O283  1  0.79583475  0.16240611  0.39086444  1
  O2-  O284  1  0.78899619  0.17003283  0.73368644  1
  O2-  O285  1  0.79049571  0.66663401  0.06840234  1
  O2-  O286  1  0.78825157  0.66937084  0.40373081  1
  O2-  O287  1  0.79905375  0.66249044  0.72810471  1
