# generated using pymatgen
data_Ca2Al2SiO7
_symmetry_space_group_name_H-M   'P 1'
_cell_length_a   15.46697586
_cell_length_b   15.46979589
_cell_length_c   15.29168997
_cell_angle_alpha   90.00138766
_cell_angle_beta   89.99082720
_cell_angle_gamma   90.02982927
_symmetry_Int_Tables_number   1
_chemical_formula_structural   Ca2Al2SiO7
_chemical_formula_sum   'Ca48 Al48 Si24 O168'
_cell_volume   3658.85678766
_cell_formula_units_Z   24
loop_
 _symmetry_equiv_pos_site_id
 _symmetry_equiv_pos_as_xyz
  1  'x, y, z'
loop_
 _atom_type_symbol
 _atom_type_oxidation_number
  Ca2+  2.0
  Al0+  0.0
  Si0+  0.0
  O2-  -2.0
loop_
 _atom_site_type_symbol
 _atom_site_label
 _atom_site_symmetry_multiplicity
 _atom_site_fract_x
 _atom_site_fract_y
 _atom_site_fract_z
 _atom_site_occupancy
  Ca2+  Ca0  1  0.16804844  0.08615556  0.16733747  1
  Ca2+  Ca1  1  0.16398625  0.08411593  0.50164940  1
  Ca2+  Ca2  1  0.17495037  0.07965340  0.84135573  1
  Ca2+  Ca3  1  0.17411052  0.58612884  0.16958907  1
  Ca2+  Ca4  1  0.17195003  0.58819562  0.50803968  1
  Ca2+  Ca5  1  0.17092382  0.58075066  0.83570369  1
  Ca2+  Ca6  1  0.67304296  0.07145907  0.16538282  1
  Ca2+  Ca7  1  0.66546484  0.07168409  0.50271238  1
  Ca2+  Ca8  1  0.66978457  0.06986214  0.83976762  1
  Ca2+  Ca9  1  0.68226688  0.58108023  0.17432372  1
  Ca2+  Ca10  1  0.67825602  0.57578465  0.50782368  1
  Ca2+  Ca11  1  0.67457978  0.58943181  0.83367094  1
  Ca2+  Ca12  1  0.07279536  0.33507312  0.16124075  1
  Ca2+  Ca13  1  0.07983617  0.33230485  0.49178941  1
  Ca2+  Ca14  1  0.08244559  0.34324265  0.83375898  1
  Ca2+  Ca15  1  0.07463152  0.82493865  0.16161576  1
  Ca2+  Ca16  1  0.08147290  0.81888700  0.49607564  1
  Ca2+  Ca17  1  0.07484348  0.82688947  0.82862492  1
  Ca2+  Ca18  1  0.58688490  0.33462164  0.16327577  1
  Ca2+  Ca19  1  0.58762180  0.34126607  0.49532893  1
  Ca2+  Ca20  1  0.58552947  0.33194927  0.82638036  1
  Ca2+  Ca21  1  0.58191758  0.83548541  0.15896759  1
  Ca2+  Ca22  1  0.58498620  0.82842163  0.50333893  1
  Ca2+  Ca23  1  0.57735636  0.83078259  0.82657316  1
  Ca2+  Ca24  1  0.32845910  0.42939532  0.16878741  1
  Ca2+  Ca25  1  0.32536381  0.43176599  0.50793782  1
  Ca2+  Ca26  1  0.32281078  0.43025345  0.83842165  1
  Ca2+  Ca27  1  0.33721684  0.91983679  0.16535494  1
  Ca2+  Ca28  1  0.33442948  0.91642985  0.50463845  1
  Ca2+  Ca29  1  0.33922443  0.91656553  0.84045077  1
  Ca2+  Ca30  1  0.83671271  0.42212474  0.17091303  1
  Ca2+  Ca31  1  0.83286476  0.42263522  0.50325220  1
  Ca2+  Ca32  1  0.83311921  0.42873807  0.83644537  1
  Ca2+  Ca33  1  0.82405702  0.90957467  0.16866692  1
  Ca2+  Ca34  1  0.82087228  0.91310496  0.50439925  1
  Ca2+  Ca35  1  0.82257809  0.91477969  0.84452381  1
  Ca2+  Ca36  1  0.41780696  0.16743644  0.15911691  1
  Ca2+  Ca37  1  0.42028417  0.17290730  0.49542353  1
  Ca2+  Ca38  1  0.41522366  0.16687948  0.83097999  1
  Ca2+  Ca39  1  0.41791684  0.66817419  0.15878564  1
  Ca2+  Ca40  1  0.41974127  0.66279460  0.49879011  1
  Ca2+  Ca41  1  0.41754341  0.67316341  0.82382636  1
  Ca2+  Ca42  1  0.91292688  0.17821785  0.15941270  1
  Ca2+  Ca43  1  0.92316245  0.17640143  0.48795526  1
  Ca2+  Ca44  1  0.90755429  0.17393696  0.83368324  1
  Ca2+  Ca45  1  0.91913151  0.66119870  0.16094262  1
  Ca2+  Ca46  1  0.92598679  0.65244683  0.49791690  1
  Ca2+  Ca47  1  0.91633682  0.66455819  0.83036068  1
  Al0+  Al48  1  0.00043015  0.00126485  -0.00126729  1
  Al0+  Al49  1  0.00148770  -0.00105802  0.33011333  1
  Al0+  Al50  1  0.00059098  0.00196173  0.66560591  1
  Al0+  Al51  1  -0.00039455  0.49706187  0.00155247  1
  Al0+  Al52  1  0.00280762  0.49850407  0.32644836  1
  Al0+  Al53  1  -0.00102401  0.49935159  0.66893796  1
  Al0+  Al54  1  0.49998177  -0.00025718  0.00379810  1
  Al0+  Al55  1  0.49930481  0.00151183  0.33769654  1
  Al0+  Al56  1  0.50050883  0.00182287  0.66482733  1
  Al0+  Al57  1  0.49915777  0.49849172  0.00012629  1
  Al0+  Al58  1  0.49945511  0.50211844  0.33766132  1
  Al0+  Al59  1  0.49937435  0.49997962  0.66870041  1
  Al0+  Al60  1  0.24999000  0.24959074  0.00696224  1
  Al0+  Al61  1  0.25308492  0.25039079  0.32954342  1
  Al0+  Al62  1  0.25014184  0.25009792  0.66812424  1
  Al0+  Al63  1  0.25059276  0.75089644  -0.00079758  1
  Al0+  Al64  1  0.25000937  0.75326216  0.33188185  1
  Al0+  Al65  1  0.24761347  0.75414008  0.66338048  1
  Al0+  Al66  1  0.74992566  0.24740165  -0.00381489  1
  Al0+  Al67  1  0.74834126  0.24678573  0.33057287  1
  Al0+  Al68  1  0.75011578  0.24952085  0.66548810  1
  Al0+  Al69  1  0.74998463  0.74775596  0.00495442  1
  Al0+  Al70  1  0.74883682  0.74856233  0.34368169  1
  Al0+  Al71  1  0.74684628  0.75157686  0.67042667  1
  Al0+  Al72  1  0.81945663  0.56940919  0.01396136  1
  Al0+  Al73  1  0.67877046  0.93084141  0.68182668  1
  Al0+  Al74  1  0.67771013  0.92905187  0.34966556  1
  Al0+  Al75  1  0.17887273  0.42978795  0.01784005  1
  Al0+  Al76  1  0.92830304  0.31946915  0.31691758  1
  Al0+  Al77  1  0.32209429  0.57385605  0.01483750  1
  Al0+  Al78  1  0.07385190  0.17680510  0.31652181  1
  Al0+  Al79  1  0.43015013  0.82042607  0.98809148  1
  Al0+  Al80  1  0.32052752  0.06917138  0.01349042  1
  Al0+  Al81  1  0.67896737  0.42709079  0.34580052  1
  Al0+  Al82  1  0.68028068  0.92783793  0.01517988  1
  Al0+  Al83  1  0.92868089  0.32002780  0.98184086  1
  Al0+  Al84  1  0.07202826  0.67940844  0.31872930  1
  Al0+  Al85  1  0.06743760  0.67960203  0.65491779  1
  Al0+  Al86  1  0.82285110  0.07219774  0.01443690  1
  Al0+  Al87  1  0.82081110  0.57077307  0.68292937  1
  Al0+  Al88  1  0.92766139  0.82097557  0.98807690  1
  Al0+  Al89  1  0.57161331  0.67689535  0.65016844  1
  Al0+  Al90  1  0.42884974  0.82291859  0.65005891  1
  Al0+  Al91  1  0.67819557  0.42637803  0.68212289  1
  Al0+  Al92  1  0.32023385  0.57570768  0.68154359  1
  Al0+  Al93  1  0.82504378  0.56912305  0.34932695  1
  Al0+  Al94  1  0.17856177  0.42766641  0.68030733  1
  Al0+  Al95  1  0.31932234  0.57446798  0.34803071  1
  Si0+  Si96  1  0.57080363  0.67948132  0.31899233  1
  Si0+  Si97  1  0.57205254  0.67571474  0.98557693  1
  Si0+  Si98  1  0.42727458  0.32042268  0.65183927  1
  Si0+  Si99  1  0.07136580  0.67790908  0.98324823  1
  Si0+  Si100  1  0.56907931  0.17636013  0.31674595  1
  Si0+  Si101  1  0.56921962  0.17930285  0.98416342  1
  Si0+  Si102  1  0.92568489  0.82068147  0.31923305  1
  Si0+  Si103  1  0.32023720  0.07092399  0.67973878  1
  Si0+  Si104  1  0.57070839  0.18062943  0.65031547  1
  Si0+  Si105  1  0.43031478  0.82290744  0.31776100  1
  Si0+  Si106  1  0.92674406  0.82510897  0.65098083  1
  Si0+  Si107  1  0.17621867  0.92708665  0.01690866  1
  Si0+  Si108  1  0.67705174  0.42550229  0.01421571  1
  Si0+  Si109  1  0.43147739  0.32267206  0.31773432  1
  Si0+  Si110  1  0.82309400  0.07062403  0.34925543  1
  Si0+  Si111  1  0.07346827  0.17804622  0.65234904  1
  Si0+  Si112  1  0.17707616  0.93048258  0.68101269  1
  Si0+  Si113  1  0.42758293  0.32089235  0.98445369  1
  Si0+  Si114  1  0.07435426  0.17869278  0.98108530  1
  Si0+  Si115  1  0.18100326  0.42767969  0.34855477  1
  Si0+  Si116  1  0.82395886  0.07154283  0.68148136  1
  Si0+  Si117  1  0.32063800  0.07201880  0.34985755  1
  Si0+  Si118  1  0.17848885  0.93006377  0.34851431  1
  Si0+  Si119  1  0.92942756  0.31916344  0.65164675  1
  O2-  O120  1  0.24585744  -0.00464066  0.06115947  1
  O2-  O121  1  0.24601076  0.00506800  0.39130419  1
  O2-  O122  1  0.25115764  -0.00111771  0.72206973  1
  O2-  O123  1  0.24901201  0.50417237  0.06644452  1
  O2-  O124  1  0.24316243  0.50113262  0.39422666  1
  O2-  O125  1  0.24796917  0.50274251  0.72906651  1
  O2-  O126  1  0.75759938  -0.00540371  0.06498844  1
  O2-  O127  1  0.75662505  0.00070339  0.39501658  1
  O2-  O128  1  0.75922450  0.00004752  0.72616277  1
  O2-  O129  1  0.74422173  0.49439437  0.05890526  1
  O2-  O130  1  0.75417738  0.49438030  0.39664158  1
  O2-  O131  1  0.74548233  0.50154349  0.73271278  1
  O2-  O132  1  0.00003057  0.24623636  0.26689705  1
  O2-  O133  1  0.00237765  0.24881572  0.61100005  1
  O2-  O134  1  0.00414810  0.24468962  0.93520047  1
  O2-  O135  1  -0.00888046  0.74903257  0.27478849  1
  O2-  O136  1  -0.00934488  0.75227736  0.60659555  1
  O2-  O137  1  0.00220651  0.74691694  0.94005952  1
  O2-  O138  1  0.50455788  0.25353043  0.27501734  1
  O2-  O139  1  0.50381293  0.25553311  0.60796650  1
  O2-  O140  1  0.50024121  0.25194424  0.94108339  1
  O2-  O141  1  0.50130873  0.75212017  0.27602894  1
  O2-  O142  1  0.49665905  0.74722562  0.59962354  1
  O2-  O143  1  0.50104029  0.74264956  0.94226451  1
  O2-  O144  1  0.07573202  0.18109084  0.08632935  1
  O2-  O145  1  0.07371552  0.17886013  0.43110711  1
  O2-  O146  1  0.07615904  0.17406159  0.75668154  1
  O2-  O147  1  0.07189812  0.68051520  0.08914615  1
  O2-  O148  1  0.07425909  0.68242851  0.43190582  1
  O2-  O149  1  0.06800879  0.68297210  0.76784279  1
  O2-  O150  1  0.56761363  0.17995949  0.08949654  1
  O2-  O151  1  0.56448753  0.17257616  0.42190336  1
  O2-  O152  1  0.56791952  0.17855390  0.75544873  1
  O2-  O153  1  0.57140322  0.67593993  0.09162628  1
  O2-  O154  1  0.56906340  0.67942237  0.42357822  1
  O2-  O155  1  0.57209473  0.68081228  0.76389958  1
  O2-  O156  1  0.18610365  0.42625954  0.24346463  1
  O2-  O157  1  0.18130734  0.42277843  0.56664882  1
  O2-  O158  1  0.18170831  0.43064758  0.90413678  1
  O2-  O159  1  0.18158505  0.92841095  0.24375048  1
  O2-  O160  1  0.17484075  0.93400702  0.57578507  1
  O2-  O161  1  0.17671626  0.92860748  0.91103997  1
  O2-  O162  1  0.67615408  0.43086473  0.23216379  1
  O2-  O163  1  0.68490537  0.42208231  0.56895511  1
  O2-  O164  1  0.67698777  0.42524375  0.90890538  1
  O2-  O165  1  0.67473827  0.93111980  0.23703680  1
  O2-  O166  1  0.67822829  0.93499821  0.56841740  1
  O2-  O167  1  0.67761796  0.93106897  0.90191817  1
  O2-  O168  1  0.43013680  0.31989513  0.08979402  1
  O2-  O169  1  0.42958918  0.31844482  0.42293689  1
  O2-  O170  1  0.42449170  0.31370577  0.75681929  1
  O2-  O171  1  0.43275123  0.82246852  0.10171708  1
  O2-  O172  1  0.42991486  0.82498984  0.42247094  1
  O2-  O173  1  0.43145783  0.82709348  0.76341193  1
  O2-  O174  1  0.92717682  0.31882604  0.09442405  1
  O2-  O175  1  0.93024447  0.31745233  0.43135286  1
  O2-  O176  1  0.92752815  0.31666530  0.75648205  1
  O2-  O177  1  0.92931951  0.81836004  0.10139134  1
  O2-  O178  1  0.92929679  0.82489627  0.42476840  1
  O2-  O179  1  0.93187016  0.82980491  0.75633225  1
  O2-  O180  1  0.32470552  0.07012001  0.24518338  1
  O2-  O181  1  0.31843791  0.07351089  0.57442557  1
  O2-  O182  1  0.32039762  0.06926439  0.89994282  1
  O2-  O183  1  0.32119821  0.57326257  0.23521194  1
  O2-  O184  1  0.31755852  0.57290915  0.56758808  1
  O2-  O185  1  0.32248436  0.57314635  0.90173703  1
  O2-  O186  1  0.82043946  0.07026924  0.24415180  1
  O2-  O187  1  0.82379770  0.07169167  0.57570510  1
  O2-  O188  1  0.81611928  0.07321737  0.90066065  1
  O2-  O189  1  0.82174611  0.57142004  0.23572577  1
  O2-  O190  1  0.82494145  0.56512039  0.56973183  1
  O2-  O191  1  0.81883144  0.57065826  0.90127766  1
  O2-  O192  1  0.05159630  0.07601747  0.26550051  1
  O2-  O193  1  0.04574326  0.08694973  0.60200978  1
  O2-  O194  1  0.05425947  0.08316636  0.93633540  1
  O2-  O195  1  0.04927526  0.58189236  0.26394961  1
  O2-  O196  1  0.03974021  0.58178176  0.60073426  1
  O2-  O197  1  0.04511560  0.58422527  0.93944323  1
  O2-  O198  1  0.53197996  0.08814393  0.26818105  1
  O2-  O199  1  0.53673427  0.09214265  0.60001446  1
  O2-  O200  1  0.53671975  0.08894327  0.93698512  1
  O2-  O201  1  0.54101314  0.58847782  0.27117686  1
  O2-  O202  1  0.54690182  0.57626550  0.59854870  1
  O2-  O203  1  0.55010119  0.58111484  0.93955651  1
  O2-  O204  1  0.17406715  0.20325172  0.26568376  1
  O2-  O205  1  0.16525354  0.20522670  0.60353567  1
  O2-  O206  1  0.16877571  0.20595066  0.93616332  1
  O2-  O207  1  0.16581315  0.71877189  0.26369017  1
  O2-  O208  1  0.16179388  0.71522447  0.59894180  1
  O2-  O209  1  0.16465134  0.70501364  0.93760505  1
  O2-  O210  1  0.66238588  0.19598559  0.26957398  1
  O2-  O211  1  0.66368743  0.20336380  0.60244946  1
  O2-  O212  1  0.66022408  0.20444724  0.93441690  1
  O2-  O213  1  0.66411345  0.70713531  0.27438121  1
  O2-  O214  1  0.66962365  0.70984029  0.59734148  1
  O2-  O215  1  0.66469681  0.70410938  0.94019299  1
  O2-  O216  1  0.08004870  0.45522271  0.06934853  1
  O2-  O217  1  0.08485215  0.44668774  0.38998761  1
  O2-  O218  1  0.08027820  0.45343217  0.73268113  1
  O2-  O219  1  0.08379672  0.95359766  0.06414159  1
  O2-  O220  1  0.08600541  0.95396116  0.39691452  1
  O2-  O221  1  0.08699131  0.96184473  0.73014671  1
  O2-  O222  1  0.58219306  0.44678428  0.05952380  1
  O2-  O223  1  0.58182974  0.45794039  0.40021626  1
  O2-  O224  1  0.57632999  0.44494589  0.73102187  1
  O2-  O225  1  0.58505397  0.96418586  0.06952203  1
  O2-  O226  1  0.58346360  0.96721032  0.40411504  1
  O2-  O227  1  0.58404846  0.96990236  0.73393179  1
  O2-  O228  1  0.20961731  0.33251883  0.07080549  1
  O2-  O229  1  0.21204524  0.33508213  0.39476932  1
  O2-  O230  1  0.20984596  0.33020434  0.73477856  1
  O2-  O231  1  0.20205895  0.83425161  0.06335824  1
  O2-  O232  1  0.21188839  0.84149149  0.39834359  1
  O2-  O233  1  0.20141823  0.83927014  0.72920806  1
  O2-  O234  1  0.70225978  0.33137531  0.05861854  1
  O2-  O235  1  0.69683666  0.32396005  0.39427653  1
  O2-  O236  1  0.70787515  0.32736751  0.73443885  1
  O2-  O237  1  0.70455673  0.82954459  0.06962137  1
  O2-  O238  1  0.70543259  0.83327685  0.40603100  1
  O2-  O239  1  0.70270428  0.83384131  0.73595136  1
  O2-  O240  1  0.45766802  0.41501396  0.27095518  1
  O2-  O241  1  0.44833895  0.41381823  0.60573746  1
  O2-  O242  1  0.45303830  0.41274491  0.93605057  1
  O2-  O243  1  0.45870817  0.91588313  0.27219940  1
  O2-  O244  1  0.45980901  0.92161714  0.59632087  1
  O2-  O245  1  0.46170235  0.91773879  0.93509769  1
  O2-  O246  1  0.95794129  0.41639538  0.26235435  1
  O2-  O247  1  0.95696752  0.41063080  0.60479071  1
  O2-  O248  1  0.96123524  0.41662059  0.92864188  1
  O2-  O249  1  0.95408771  0.91283235  0.27143020  1
  O2-  O250  1  0.95705950  0.91712846  0.60246091  1
  O2-  O251  1  0.95669763  0.91846484  0.93378625  1
  O2-  O252  1  0.34207891  0.29091030  0.26829877  1
  O2-  O253  1  0.33890508  0.28459037  0.60170182  1
  O2-  O254  1  0.33699917  0.28785676  0.93857946  1
  O2-  O255  1  0.33822541  0.79748595  0.27034566  1
  O2-  O256  1  0.32739715  0.80345068  0.59918283  1
  O2-  O257  1  0.33129144  0.79716053  0.93433431  1
  O2-  O258  1  0.82887130  0.29077635  0.26487966  1
  O2-  O259  1  0.83899781  0.28856844  0.60256451  1
  O2-  O260  1  0.83225776  0.28660979  0.92768256  1
  O2-  O261  1  0.82965414  0.79803144  0.27732065  1
  O2-  O262  1  0.83063402  0.80523149  0.60961744  1
  O2-  O263  1  0.83056730  0.78981236  0.93537275  1
  O2-  O264  1  0.41555138  0.03887293  0.07049754  1
  O2-  O265  1  0.40983298  0.04082492  0.40056823  1
  O2-  O266  1  0.41257284  0.04579338  0.72645231  1
  O2-  O267  1  0.42003826  0.54155132  0.06777699  1
  O2-  O268  1  0.41450256  0.54046238  0.40203816  1
  O2-  O269  1  0.41866066  0.54718466  0.73246567  1
  O2-  O270  1  0.92486337  0.05497878  0.06288185  1
  O2-  O271  1  0.91864891  0.04839671  0.39344888  1
  O2-  O272  1  0.91920838  0.05228861  0.72705265  1
  O2-  O273  1  0.91575745  0.53814060  0.06649727  1
  O2-  O274  1  0.92535957  0.54068780  0.39820257  1
  O2-  O275  1  0.91725243  0.53868795  0.73719962  1
  O2-  O276  1  0.29188635  0.16460586  0.07029569  1
  O2-  O277  1  0.29693053  0.16535123  0.39683059  1
  O2-  O278  1  0.29117503  0.16102603  0.72931638  1
  O2-  O279  1  0.29582626  0.67308300  0.06749779  1
  O2-  O280  1  0.29083819  0.67247826  0.39978093  1
  O2-  O281  1  0.29147474  0.67516842  0.73124429  1
  O2-  O282  1  0.78517629  0.16737179  0.06819065  1
  O2-  O283  1  0.79415792  0.16284236  0.39634821  1
  O2-  O284  1  0.79346975  0.16344983  0.72713155  1
  O2-  O285  1  0.78948974  0.66411478  0.07133844  1
  O2-  O286  1  0.79628462  0.66631226  0.40403464  1
  O2-  O287  1  0.79609848  0.67112657  0.73318190  1
