# generated using pymatgen
data_Ca2Al2SiO7
_symmetry_space_group_name_H-M   'P 1'
_cell_length_a   15.46594705
_cell_length_b   15.46833387
_cell_length_c   15.29038796
_cell_angle_alpha   90.01277433
_cell_angle_beta   90.00648456
_cell_angle_gamma   89.98062720
_symmetry_Int_Tables_number   1
_chemical_formula_structural   Ca2Al2SiO7
_chemical_formula_sum   'Ca48 Al48 Si24 O168'
_cell_volume   3657.95638143
_cell_formula_units_Z   24
loop_
 _symmetry_equiv_pos_site_id
 _symmetry_equiv_pos_as_xyz
  1  'x, y, z'
loop_
 _atom_type_symbol
 _atom_type_oxidation_number
  Ca2+  2.0
  Al0+  0.0
  Si0+  0.0
  O2-  -2.0
loop_
 _atom_site_type_symbol
 _atom_site_label
 _atom_site_symmetry_multiplicity
 _atom_site_fract_x
 _atom_site_fract_y
 _atom_site_fract_z
 _atom_site_occupancy
  Ca2+  Ca0  1  0.17873866  0.08867284  0.17200172  1
  Ca2+  Ca1  1  0.16977570  0.09395823  0.50015207  1
  Ca2+  Ca2  1  0.17157241  0.08555643  0.84149766  1
  Ca2+  Ca3  1  0.16558703  0.57076876  0.17081008  1
  Ca2+  Ca4  1  0.16418758  0.56943383  0.50501003  1
  Ca2+  Ca5  1  0.16798596  0.56980834  0.83839421  1
  Ca2+  Ca6  1  0.66077390  0.07642813  0.17287405  1
  Ca2+  Ca7  1  0.65657789  0.07433353  0.50221025  1
  Ca2+  Ca8  1  0.65802677  0.07733108  0.83788008  1
  Ca2+  Ca9  1  0.66586335  0.58103087  0.17265269  1
  Ca2+  Ca10  1  0.67160070  0.58326431  0.50487213  1
  Ca2+  Ca11  1  0.67384642  0.57905826  0.83457234  1
  Ca2+  Ca12  1  0.08006656  0.33516962  0.16554712  1
  Ca2+  Ca13  1  0.07989854  0.33038727  0.49667400  1
  Ca2+  Ca14  1  0.08115909  0.33320956  0.82652672  1
  Ca2+  Ca15  1  0.07297466  0.84066894  0.15963417  1
  Ca2+  Ca16  1  0.07415237  0.82934308  0.48976472  1
  Ca2+  Ca17  1  0.07715591  0.84036579  0.83250560  1
  Ca2+  Ca18  1  0.57732739  0.31682451  0.15506845  1
  Ca2+  Ca19  1  0.58159268  0.32096541  0.49344241  1
  Ca2+  Ca20  1  0.57066145  0.31985518  0.82546247  1
  Ca2+  Ca21  1  0.58362959  0.83606324  0.16942578  1
  Ca2+  Ca22  1  0.58395302  0.83192043  0.48900358  1
  Ca2+  Ca23  1  0.58696454  0.83885216  0.83147402  1
  Ca2+  Ca24  1  0.32213878  0.40435529  0.16968394  1
  Ca2+  Ca25  1  0.32230707  0.40613956  0.50448429  1
  Ca2+  Ca26  1  0.32514977  0.40273153  0.83734795  1
  Ca2+  Ca27  1  0.33397708  0.92821468  0.17240284  1
  Ca2+  Ca28  1  0.34039242  0.92374513  0.49929850  1
  Ca2+  Ca29  1  0.32416615  0.92663985  0.84552280  1
  Ca2+  Ca30  1  0.83894592  0.41510182  0.17211265  1
  Ca2+  Ca31  1  0.84091269  0.42070908  0.50661080  1
  Ca2+  Ca32  1  0.84436452  0.42033730  0.83582107  1
  Ca2+  Ca33  1  0.82659427  0.91295370  0.17165825  1
  Ca2+  Ca34  1  0.82274152  0.91534120  0.50370675  1
  Ca2+  Ca35  1  0.82359884  0.92123231  0.84115369  1
  Ca2+  Ca36  1  0.42282907  0.15921306  0.16319764  1
  Ca2+  Ca37  1  0.42352238  0.16667828  0.49862768  1
  Ca2+  Ca38  1  0.41966266  0.16859930  0.83332254  1
  Ca2+  Ca39  1  0.41986989  0.67137318  0.16779478  1
  Ca2+  Ca40  1  0.42475104  0.67594969  0.48948225  1
  Ca2+  Ca41  1  0.41663711  0.67073457  0.83047729  1
  Ca2+  Ca42  1  0.92173697  0.17689086  0.16250388  1
  Ca2+  Ca43  1  0.92979170  0.17411561  0.49212615  1
  Ca2+  Ca44  1  0.92475469  0.17821189  0.82533921  1
  Ca2+  Ca45  1  0.91643031  0.67977870  0.16446785  1
  Ca2+  Ca46  1  0.91261193  0.67028798  0.49570362  1
  Ca2+  Ca47  1  0.91405267  0.67116652  0.83256008  1
  Al0+  Al48  1  -0.00345744  0.00105820  -0.00322174  1
  Al0+  Al49  1  0.00059173  0.00181004  0.32531039  1
  Al0+  Al50  1  -0.00277485  -0.00036309  0.66176447  1
  Al0+  Al51  1  0.00153868  0.50309328  0.00246967  1
  Al0+  Al52  1  0.00010189  0.50132313  0.33544662  1
  Al0+  Al53  1  0.00150958  0.50283830  0.67344582  1
  Al0+  Al54  1  0.49980397  -0.00372578  0.00379180  1
  Al0+  Al55  1  0.49886419  -0.00062594  0.33551702  1
  Al0+  Al56  1  0.49735421  -0.00082411  0.66990571  1
  Al0+  Al57  1  0.50093645  0.50049901  -0.00467086  1
  Al0+  Al58  1  0.49998798  0.50058808  0.33135622  1
  Al0+  Al59  1  0.49927421  0.50238531  0.66315165  1
  Al0+  Al60  1  0.25026361  0.24966220  0.00720701  1
  Al0+  Al61  1  0.24970432  0.24892256  0.34118717  1
  Al0+  Al62  1  0.25094824  0.24859607  0.66591627  1
  Al0+  Al63  1  0.24962794  0.74731130  0.00313551  1
  Al0+  Al64  1  0.25029182  0.74956262  0.32968573  1
  Al0+  Al65  1  0.24895483  0.74961891  0.66616406  1
  Al0+  Al66  1  0.75044668  0.25032069  -0.01051060  1
  Al0+  Al67  1  0.75042062  0.24913977  0.32686757  1
  Al0+  Al68  1  0.74962407  0.24916785  0.65975999  1
  Al0+  Al69  1  0.75158584  0.74999051  -0.00059430  1
  Al0+  Al70  1  0.75016647  0.74880752  0.33005540  1
  Al0+  Al71  1  0.74901005  0.74927222  0.67621511  1
  Al0+  Al72  1  0.93012109  0.32512718  0.65219074  1
  Al0+  Al73  1  0.18289326  0.42940803  0.68174638  1
  Al0+  Al74  1  0.67925482  0.93170970  0.68102032  1
  Al0+  Al75  1  0.42837993  0.82203200  0.31764826  1
  Al0+  Al76  1  0.31943495  0.06957478  0.01632151  1
  Al0+  Al77  1  0.57037864  0.17471253  0.98402676  1
  Al0+  Al78  1  0.32008265  0.06864538  0.35125594  1
  Al0+  Al79  1  0.42754390  0.32145583  0.98628871  1
  Al0+  Al80  1  0.07412231  0.18022592  0.31552388  1
  Al0+  Al81  1  0.57010518  0.17877356  0.31916246  1
  Al0+  Al82  1  0.92906852  0.82190463  0.98390867  1
  Al0+  Al83  1  0.68266033  0.93060381  0.34722763  1
  Al0+  Al84  1  0.81990258  0.56901921  0.68163762  1
  Al0+  Al85  1  0.07098699  0.17720824  0.65220123  1
  Al0+  Al86  1  0.18041704  0.43041714  0.01497019  1
  Al0+  Al87  1  0.57028278  0.17585275  0.65036588  1
  Al0+  Al88  1  0.92945620  0.82106842  0.32119034  1
  Al0+  Al89  1  0.18016487  0.43141388  0.34993455  1
  Al0+  Al90  1  0.68117037  0.92922466  0.01634726  1
  Al0+  Al91  1  0.17499349  0.92717544  0.01430351  1
  Al0+  Al92  1  0.57219103  0.67779664  0.31831362  1
  Al0+  Al93  1  0.93014890  0.32308476  0.31827312  1
  Al0+  Al94  1  0.93053873  0.32382584  0.98494232  1
  Al0+  Al95  1  0.42868335  0.32208156  0.65027289  1
  Si0+  Si96  1  0.82036434  0.56996277  0.01735442  1
  Si0+  Si97  1  0.32411022  0.57441483  0.35106659  1
  Si0+  Si98  1  0.42852688  0.81846476  0.98473496  1
  Si0+  Si99  1  0.32306019  0.57565278  0.68296818  1
  Si0+  Si100  1  0.07214421  0.67759110  0.31742058  1
  Si0+  Si101  1  0.17525286  0.92630933  0.34970478  1
  Si0+  Si102  1  0.67503104  0.42584613  0.68173015  1
  Si0+  Si103  1  0.67887606  0.42899523  0.01227726  1
  Si0+  Si104  1  0.57239200  0.68087331  0.65359595  1
  Si0+  Si105  1  0.82118774  0.07574703  0.01569202  1
  Si0+  Si106  1  0.31837456  0.06799087  0.68270892  1
  Si0+  Si107  1  0.42757094  0.81970185  0.65417150  1
  Si0+  Si108  1  0.82474057  0.07282401  0.68215831  1
  Si0+  Si109  1  0.07245735  0.67880669  0.98252917  1
  Si0+  Si110  1  0.42808662  0.32204118  0.31833553  1
  Si0+  Si111  1  0.92658413  0.81909392  0.65236073  1
  Si0+  Si112  1  0.81871812  0.56945113  0.34718332  1
  Si0+  Si113  1  0.32611799  0.57301559  0.01802767  1
  Si0+  Si114  1  0.07184594  0.17944560  0.98469732  1
  Si0+  Si115  1  0.17580034  0.92565043  0.67871905  1
  Si0+  Si116  1  0.07117581  0.68091717  0.65268763  1
  Si0+  Si117  1  0.67755048  0.42636350  0.34578573  1
  Si0+  Si118  1  0.57270344  0.67836025  0.98235397  1
  Si0+  Si119  1  0.82437843  0.07482365  0.34932979  1
  O2-  O120  1  0.24570044  -0.00141827  0.06583510  1
  O2-  O121  1  0.24393771  -0.00682188  0.39691172  1
  O2-  O122  1  0.24230377  0.00026811  0.72147971  1
  O2-  O123  1  0.26010551  0.50126562  0.06069946  1
  O2-  O124  1  0.25653411  0.50558844  0.39622579  1
  O2-  O125  1  0.26149581  0.50129860  0.72766134  1
  O2-  O126  1  0.75247501  0.00761782  0.06134829  1
  O2-  O127  1  0.75669809  0.00531636  0.39509551  1
  O2-  O128  1  0.75085802  0.00955687  0.72706386  1
  O2-  O129  1  0.75196226  0.49636243  0.05853899  1
  O2-  O130  1  0.74969083  0.49642603  0.38891821  1
  O2-  O131  1  0.74914059  0.48925671  0.72697499  1
  O2-  O132  1  0.00102122  0.25151079  0.26677012  1
  O2-  O133  1  -0.00108763  0.24998690  0.60317889  1
  O2-  O134  1  0.00521377  0.24931526  0.93931851  1
  O2-  O135  1  0.00988804  0.75232675  0.27419664  1
  O2-  O136  1  0.00025320  0.75144675  0.60952758  1
  O2-  O137  1  0.00893215  0.75216136  0.93738532  1
  O2-  O138  1  0.49835992  0.25625217  0.27320176  1
  O2-  O139  1  0.50477106  0.25414095  0.60076736  1
  O2-  O140  1  0.49859793  0.24846268  0.93676859  1
  O2-  O141  1  0.49952770  0.74860720  0.26811667  1
  O2-  O142  1  0.49936187  0.74956935  0.61251442  1
  O2-  O143  1  0.50024360  0.74849107  0.94074520  1
  O2-  O144  1  0.07054172  0.18023553  0.08984521  1
  O2-  O145  1  0.07245335  0.18205291  0.42920066  1
  O2-  O146  1  0.07117197  0.17599998  0.76607601  1
  O2-  O147  1  0.06807341  0.67593636  0.08794048  1
  O2-  O148  1  0.06867527  0.67644836  0.42356224  1
  O2-  O149  1  0.07299426  0.68355081  0.75745292  1
  O2-  O150  1  0.57011096  0.17585812  0.09766915  1
  O2-  O151  1  0.56900569  0.17920609  0.43216519  1
  O2-  O152  1  0.56423380  0.17255979  0.76354876  1
  O2-  O153  1  0.57350029  0.67653612  0.08691462  1
  O2-  O154  1  0.57366483  0.67940703  0.43248599  1
  O2-  O155  1  0.57245892  0.68131529  0.75891144  1
  O2-  O156  1  0.17966232  0.43383247  0.23679283  1
  O2-  O157  1  0.18150383  0.43315769  0.56887800  1
  O2-  O158  1  0.17965027  0.43259822  0.90185625  1
  O2-  O159  1  0.17619404  0.92683331  0.24457836  1
  O2-  O160  1  0.17817205  0.91952211  0.57417596  1
  O2-  O161  1  0.17845738  0.92855669  0.89954741  1
  O2-  O162  1  0.67752495  0.42862339  0.24056718  1
  O2-  O163  1  0.67277742  0.43189874  0.57606480  1
  O2-  O164  1  0.67898623  0.43454859  0.90742593  1
  O2-  O165  1  0.68415665  0.92981812  0.23448538  1
  O2-  O166  1  0.68062849  0.92696375  0.56815461  1
  O2-  O167  1  0.68220727  0.92802001  0.90284510  1
  O2-  O168  1  0.43139825  0.32390756  0.09976428  1
  O2-  O169  1  0.43111022  0.32199045  0.42400152  1
  O2-  O170  1  0.42768321  0.31855867  0.76364091  1
  O2-  O171  1  0.42893981  0.81665898  0.08913684  1
  O2-  O172  1  0.43098434  0.82020007  0.43226951  1
  O2-  O173  1  0.42563373  0.81784506  0.75943894  1
  O2-  O174  1  0.93109057  0.32431882  0.09765444  1
  O2-  O175  1  0.93144792  0.32574504  0.43152813  1
  O2-  O176  1  0.93573375  0.32512044  0.76588443  1
  O2-  O177  1  0.92642554  0.81644411  0.09677493  1
  O2-  O178  1  0.92781575  0.81570360  0.43498788  1
  O2-  O179  1  0.92778978  0.81825459  0.75727580  1
  O2-  O180  1  0.32094531  0.06826496  0.23872611  1
  O2-  O181  1  0.32180393  0.06481936  0.57785115  1
  O2-  O182  1  0.31835809  0.06788832  0.90191529  1
  O2-  O183  1  0.32338189  0.57472416  0.24561504  1
  O2-  O184  1  0.31860782  0.58350712  0.57819606  1
  O2-  O185  1  0.32453322  0.57781951  0.91235934  1
  O2-  O186  1  0.82246060  0.07463337  0.24377926  1
  O2-  O187  1  0.83027121  0.06580389  0.57712631  1
  O2-  O188  1  0.82197427  0.07280601  0.90989391  1
  O2-  O189  1  0.81857637  0.57002063  0.24200826  1
  O2-  O190  1  0.81689820  0.57455105  0.56842494  1
  O2-  O191  1  0.81932121  0.57107170  0.91214530  1
  O2-  O192  1  0.04978887  0.08131410  0.26265337  1
  O2-  O193  1  0.04382519  0.07855380  0.59711045  1
  O2-  O194  1  0.04586485  0.08647962  0.93728695  1
  O2-  O195  1  0.03844153  0.58794892  0.26929400  1
  O2-  O196  1  0.04139943  0.59001671  0.60597957  1
  O2-  O197  1  0.03917766  0.58867073  0.93400116  1
  O2-  O198  1  0.53612254  0.08312855  0.26743956  1
  O2-  O199  1  0.53311874  0.07891523  0.59849407  1
  O2-  O200  1  0.53975736  0.07568556  0.93340835  1
  O2-  O201  1  0.54463508  0.57933049  0.26380518  1
  O2-  O202  1  0.54885623  0.58915730  0.60445460  1
  O2-  O203  1  0.54627867  0.58747804  0.93217289  1
  O2-  O204  1  0.17293249  0.21143902  0.26630206  1
  O2-  O205  1  0.16952387  0.20476767  0.60110089  1
  O2-  O206  1  0.16647411  0.20405614  0.94119152  1
  O2-  O207  1  0.16775802  0.69365811  0.27289409  1
  O2-  O208  1  0.16217551  0.70804952  0.60285107  1
  O2-  O209  1  0.16868136  0.69638629  0.93827343  1
  O2-  O210  1  0.66689519  0.20550819  0.26430024  1
  O2-  O211  1  0.67149796  0.19422779  0.59920063  1
  O2-  O212  1  0.66793312  0.20256295  0.92926468  1
  O2-  O213  1  0.66911319  0.70604916  0.26328843  1
  O2-  O214  1  0.66370199  0.71159175  0.60733334  1
  O2-  O215  1  0.66376733  0.70835595  0.93491940  1
  O2-  O216  1  0.08603372  0.46824874  0.06966727  1
  O2-  O217  1  0.08424347  0.46682089  0.40357659  1
  O2-  O218  1  0.08889450  0.46644736  0.73682056  1
  O2-  O219  1  0.07397843  0.95198861  0.06233495  1
  O2-  O220  1  0.08027585  0.95106145  0.39418111  1
  O2-  O221  1  0.08154721  0.94921431  0.72335565  1
  O2-  O222  1  0.58832922  0.46033090  0.06022678  1
  O2-  O223  1  0.58639993  0.45540227  0.39433598  1
  O2-  O224  1  0.58374513  0.45915627  0.72929541  1
  O2-  O225  1  0.58271445  0.95310162  0.06856378  1
  O2-  O226  1  0.58534753  0.95966367  0.40052541  1
  O2-  O227  1  0.58092421  0.95816687  0.73507010  1
  O2-  O228  1  0.20689036  0.33411298  0.07072580  1
  O2-  O229  1  0.21043281  0.33563976  0.40479541  1
  O2-  O230  1  0.21155615  0.33153454  0.73447308  1
  O2-  O231  1  0.20014925  0.82681920  0.06453480  1
  O2-  O232  1  0.19799832  0.83026556  0.39368973  1
  O2-  O233  1  0.20693112  0.83598018  0.72932927  1
  O2-  O234  1  0.70343194  0.33485070  0.05571637  1
  O2-  O235  1  0.70395098  0.33408833  0.39250365  1
  O2-  O236  1  0.69279408  0.32898758  0.72343941  1
  O2-  O237  1  0.71526089  0.83223716  0.06783926  1
  O2-  O238  1  0.71412923  0.83233598  0.39935528  1
  O2-  O239  1  0.71205769  0.83672986  0.73750167  1
  O2-  O240  1  0.44802237  0.41717156  0.27371358  1
  O2-  O241  1  0.44823917  0.42441252  0.60053339  1
  O2-  O242  1  0.45459745  0.42031949  0.93204557  1
  O2-  O243  1  0.46037086  0.91823446  0.26500458  1
  O2-  O244  1  0.45555361  0.91088781  0.60747000  1
  O2-  O245  1  0.45655764  0.90948767  0.93669883  1
  O2-  O246  1  0.95844914  0.42256257  0.26656835  1
  O2-  O247  1  0.96079485  0.42472007  0.60237969  1
  O2-  O248  1  0.96158216  0.42211755  0.93450326  1
  O2-  O249  1  0.95291208  0.91790734  0.26553740  1
  O2-  O250  1  0.95011803  0.91086365  0.60404081  1
  O2-  O251  1  0.95343388  0.91957500  0.92832148  1
  O2-  O252  1  0.33455769  0.29328045  0.27620499  1
  O2-  O253  1  0.33279244  0.28745053  0.59739508  1
  O2-  O254  1  0.32822456  0.29173977  0.93618066  1
  O2-  O255  1  0.32945671  0.79572259  0.26450676  1
  O2-  O256  1  0.33656181  0.79184052  0.60509777  1
  O2-  O257  1  0.33648519  0.78965785  0.93698598  1
  O2-  O258  1  0.83144112  0.29710319  0.26469066  1
  O2-  O259  1  0.82847645  0.30601082  0.60257660  1
  O2-  O260  1  0.83417363  0.29676470  0.92866127  1
  O2-  O261  1  0.83714984  0.78251016  0.26505651  1
  O2-  O262  1  0.83567875  0.78510816  0.60739354  1
  O2-  O263  1  0.83498181  0.78323132  0.92915404  1
  O2-  O264  1  0.41615829  0.03567633  0.06877543  1
  O2-  O265  1  0.41508409  0.03440980  0.40674355  1
  O2-  O266  1  0.40670396  0.03424582  0.73303637  1
  O2-  O267  1  0.42188397  0.55182620  0.06129848  1
  O2-  O268  1  0.41906745  0.55104980  0.39634646  1
  O2-  O269  1  0.42007315  0.55878985  0.72575792  1
  O2-  O270  1  0.91468983  0.04985653  0.06121881  1
  O2-  O271  1  0.91921665  0.04915830  0.39296080  1
  O2-  O272  1  0.91565291  0.04116374  0.73181911  1
  O2-  O273  1  0.91283321  0.54631395  0.06473639  1
  O2-  O274  1  0.91084235  0.54518203  0.39611918  1
  O2-  O275  1  0.91714064  0.54541643  0.73822548  1
  O2-  O276  1  0.29452353  0.16743939  0.07130847  1
  O2-  O277  1  0.29012927  0.16446747  0.40725834  1
  O2-  O278  1  0.29347989  0.16019892  0.72963657  1
  O2-  O279  1  0.29750258  0.66453850  0.06679981  1
  O2-  O280  1  0.29906630  0.66884237  0.39672263  1
  O2-  O281  1  0.29065718  0.66639239  0.73343130  1
  O2-  O282  1  0.79739564  0.17088085  0.05932705  1
  O2-  O283  1  0.79854313  0.16871051  0.39475238  1
  O2-  O284  1  0.80559495  0.16980610  0.72362160  1
  O2-  O285  1  0.78830816  0.66045813  0.06425101  1
  O2-  O286  1  0.78840420  0.65980446  0.39611046  1
  O2-  O287  1  0.78390644  0.66216641  0.74047136  1
