# generated using pymatgen
data_Ca2Al2SiO7
_symmetry_space_group_name_H-M   'P 1'
_cell_length_a   15.45402573
_cell_length_b   15.45475829
_cell_length_c   15.28088768
_cell_angle_alpha   90.00957227
_cell_angle_beta   89.99627603
_cell_angle_gamma   89.99975028
_symmetry_Int_Tables_number   1
_chemical_formula_structural   Ca2Al2SiO7
_chemical_formula_sum   'Ca48 Al48 Si24 O168'
_cell_volume   3649.66014151
_cell_formula_units_Z   24
loop_
 _symmetry_equiv_pos_site_id
 _symmetry_equiv_pos_as_xyz
  1  'x, y, z'
loop_
 _atom_type_symbol
 _atom_type_oxidation_number
  Ca2+  2.0
  Al0+  0.0
  Si0+  0.0
  O2-  -2.0
loop_
 _atom_site_type_symbol
 _atom_site_label
 _atom_site_symmetry_multiplicity
 _atom_site_fract_x
 _atom_site_fract_y
 _atom_site_fract_z
 _atom_site_occupancy
  Ca2+  Ca0  1  0.16386827  0.08164176  0.17116251  1
  Ca2+  Ca1  1  0.16936488  0.08542680  0.50048442  1
  Ca2+  Ca2  1  0.16366753  0.07116130  0.83940366  1
  Ca2+  Ca3  1  0.17054557  0.57984809  0.17303793  1
  Ca2+  Ca4  1  0.16962237  0.57698158  0.49680294  1
  Ca2+  Ca5  1  0.16507982  0.58492547  0.83827452  1
  Ca2+  Ca6  1  0.66846317  0.08098288  0.16741080  1
  Ca2+  Ca7  1  0.67556970  0.08716054  0.49862043  1
  Ca2+  Ca8  1  0.66780793  0.08002461  0.84274478  1
  Ca2+  Ca9  1  0.67213433  0.57364724  0.16951838  1
  Ca2+  Ca10  1  0.67228713  0.56989074  0.50804864  1
  Ca2+  Ca11  1  0.67778944  0.57422620  0.84038611  1
  Ca2+  Ca12  1  0.08580355  0.32387538  0.16503850  1
  Ca2+  Ca13  1  0.07112677  0.33291383  0.48761375  1
  Ca2+  Ca14  1  0.07768281  0.32575801  0.82817538  1
  Ca2+  Ca15  1  0.07816279  0.82795690  0.15301636  1
  Ca2+  Ca16  1  0.08188514  0.83670591  0.50282036  1
  Ca2+  Ca17  1  0.07582776  0.83248774  0.83154247  1
  Ca2+  Ca18  1  0.58356519  0.33351127  0.16460685  1
  Ca2+  Ca19  1  0.57658501  0.34340157  0.49534907  1
  Ca2+  Ca20  1  0.58737392  0.33282185  0.83065035  1
  Ca2+  Ca21  1  0.57623673  0.83553311  0.15592586  1
  Ca2+  Ca22  1  0.57788889  0.83019736  0.49778069  1
  Ca2+  Ca23  1  0.57153547  0.84132625  0.82983357  1
  Ca2+  Ca24  1  0.32708520  0.42042339  0.18062221  1
  Ca2+  Ca25  1  0.33268788  0.41379294  0.50021867  1
  Ca2+  Ca26  1  0.33571046  0.41619625  0.83440477  1
  Ca2+  Ca27  1  0.32843879  0.92195917  0.16945990  1
  Ca2+  Ca28  1  0.32807205  0.92486007  0.50751982  1
  Ca2+  Ca29  1  0.32362755  0.90823882  0.83962609  1
  Ca2+  Ca30  1  0.82586615  0.41375514  0.17118272  1
  Ca2+  Ca31  1  0.82631391  0.41227332  0.51012005  1
  Ca2+  Ca32  1  0.82978842  0.42285681  0.83837312  1
  Ca2+  Ca33  1  0.83198039  0.91964238  0.16748530  1
  Ca2+  Ca34  1  0.84060521  0.92518468  0.50394444  1
  Ca2+  Ca35  1  0.83045906  0.91167114  0.84158314  1
  Ca2+  Ca36  1  0.41858215  0.17069648  0.16356753  1
  Ca2+  Ca37  1  0.41505682  0.17823429  0.49248624  1
  Ca2+  Ca38  1  0.42743913  0.17126208  0.82966421  1
  Ca2+  Ca39  1  0.41506254  0.67012923  0.16062664  1
  Ca2+  Ca40  1  0.41257017  0.66971872  0.49675635  1
  Ca2+  Ca41  1  0.41748578  0.67912991  0.83002258  1
  Ca2+  Ca42  1  0.92306355  0.16762983  0.16767736  1
  Ca2+  Ca43  1  0.91973927  0.17641329  0.48961531  1
  Ca2+  Ca44  1  0.92222466  0.16957558  0.83004446  1
  Ca2+  Ca45  1  0.92348461  0.66922928  0.15460832  1
  Ca2+  Ca46  1  0.91012416  0.67108808  0.50113659  1
  Ca2+  Ca47  1  0.91223168  0.67095706  0.83161250  1
  Al0+  Al48  1  0.00093234  0.00001569  -0.00301122  1
  Al0+  Al49  1  -0.00212126  -0.00037771  0.33405742  1
  Al0+  Al50  1  0.00244381  -0.00203098  0.66744597  1
  Al0+  Al51  1  0.00151519  0.49959941  0.00051556  1
  Al0+  Al52  1  -0.00125102  0.50320179  0.33251473  1
  Al0+  Al53  1  0.00144909  0.49996833  0.66613229  1
  Al0+  Al54  1  0.49989703  0.00304641  -0.00490095  1
  Al0+  Al55  1  0.49767892  -0.00056282  0.33862243  1
  Al0+  Al56  1  0.50047918  0.00160001  0.65899770  1
  Al0+  Al57  1  0.49948327  0.50149336  0.00324331  1
  Al0+  Al58  1  0.50125618  0.50291966  0.33605157  1
  Al0+  Al59  1  0.50026135  0.49973619  0.66892601  1
  Al0+  Al60  1  0.25000595  0.24990584  -0.00663208  1
  Al0+  Al61  1  0.24938218  0.24921818  0.33359990  1
  Al0+  Al62  1  0.25377252  0.24887883  0.66567015  1
  Al0+  Al63  1  0.24859671  0.75006317  -0.00273065  1
  Al0+  Al64  1  0.24864106  0.75058983  0.33721220  1
  Al0+  Al65  1  0.24947551  0.75035385  0.66451463  1
  Al0+  Al66  1  0.74887738  0.24971269  -0.00024451  1
  Al0+  Al67  1  0.74901127  0.24816681  0.33791397  1
  Al0+  Al68  1  0.75158361  0.24784579  0.66886049  1
  Al0+  Al69  1  0.74842334  0.74879222  0.00694435  1
  Al0+  Al70  1  0.74671453  0.74895886  0.33211825  1
  Al0+  Al71  1  0.75045136  0.75042587  0.66399301  1
  Al0+  Al72  1  0.68152609  0.42909847  0.34792027  1
  Al0+  Al73  1  0.17758397  0.42823372  0.34772137  1
  Al0+  Al74  1  0.07078938  0.17830862  0.31878302  1
  Al0+  Al75  1  0.82302262  0.57236776  0.68207045  1
  Al0+  Al76  1  0.67842371  0.42747444  0.01765278  1
  Al0+  Al77  1  0.42738243  0.82124762  0.65041642  1
  Al0+  Al78  1  0.93091328  0.32034329  0.65478731  1
  Al0+  Al79  1  0.32152765  0.57240582  0.34859940  1
  Al0+  Al80  1  0.18124606  0.92986937  0.68221469  1
  Al0+  Al81  1  0.43012101  0.82120076  0.98812141  1
  Al0+  Al82  1  0.67695868  0.92986533  0.01133122  1
  Al0+  Al83  1  0.43041109  0.32234057  0.31984421  1
  Al0+  Al84  1  0.57122626  0.18083076  0.98782367  1
  Al0+  Al85  1  0.92659276  0.82008793  0.98656231  1
  Al0+  Al86  1  0.32140289  0.07114254  0.34655347  1
  Al0+  Al87  1  0.82025229  0.06790662  0.34647849  1
  Al0+  Al88  1  0.82325632  0.57069610  0.01760910  1
  Al0+  Al89  1  0.17918445  0.92926061  0.01395032  1
  Al0+  Al90  1  0.07134056  0.67704876  0.98470790  1
  Al0+  Al91  1  0.67831743  0.42731455  0.68389643  1
  Al0+  Al92  1  0.92585354  0.32348153  0.31755906  1
  Al0+  Al93  1  0.43126564  0.32127968  0.65260766  1
  Al0+  Al94  1  0.07228578  0.17882136  0.98442691  1
  Al0+  Al95  1  0.92863667  0.82028790  0.65181390  1
  Si0+  Si96  1  0.57114894  0.17599789  0.31728178  1
  Si0+  Si97  1  0.92749830  0.82078026  0.31860863  1
  Si0+  Si98  1  0.17990678  0.42740901  0.68187078  1
  Si0+  Si99  1  0.07157184  0.68108502  0.31873144  1
  Si0+  Si100  1  0.18030303  0.42629644  0.01285562  1
  Si0+  Si101  1  0.67846178  0.92969281  0.67922085  1
  Si0+  Si102  1  0.07251694  0.17720499  0.65025144  1
  Si0+  Si103  1  0.82323480  0.07217834  0.01554158  1
  Si0+  Si104  1  0.57092565  0.67925046  0.65044767  1
  Si0+  Si105  1  0.32028722  0.57100139  0.68279815  1
  Si0+  Si106  1  0.82220034  0.57446077  0.35061895  1
  Si0+  Si107  1  0.42792434  0.82141144  0.31829839  1
  Si0+  Si108  1  0.31963573  0.57105049  0.01281450  1
  Si0+  Si109  1  0.57031787  0.68029977  0.31680320  1
  Si0+  Si110  1  0.82218396  0.06923546  0.68252573  1
  Si0+  Si111  1  0.92787467  0.32113746  0.98373169  1
  Si0+  Si112  1  0.67626612  0.92587510  0.35135976  1
  Si0+  Si113  1  0.07321456  0.67692147  0.64693310  1
  Si0+  Si114  1  0.42815597  0.32443163  0.98421517  1
  Si0+  Si115  1  0.57423784  0.17721812  0.64730201  1
  Si0+  Si116  1  0.17706852  0.92812266  0.35001271  1
  Si0+  Si117  1  0.57134843  0.67637979  0.98369554  1
  Si0+  Si118  1  0.32440683  0.07314426  0.68541223  1
  Si0+  Si119  1  0.32139558  0.07330646  0.01474601  1
  O2-  O120  1  0.25224747  0.00558994  0.06022644  1
  O2-  O121  1  0.24462384  -0.00169906  0.39316626  1
  O2-  O122  1  0.25772162  0.00284805  0.72957785  1
  O2-  O123  1  0.25089826  0.49797909  0.05449188  1
  O2-  O124  1  0.25308229  0.49686768  0.39869192  1
  O2-  O125  1  0.25022824  0.49906516  0.72536752  1
  O2-  O126  1  0.75495853  0.00126013  0.05779827  1
  O2-  O127  1  0.74641937  -0.00721633  0.39553142  1
  O2-  O128  1  0.75020604  -0.00135438  0.72333412  1
  O2-  O129  1  0.75265356  0.49720460  0.06745978  1
  O2-  O130  1  0.76140261  0.49871088  0.39419858  1
  O2-  O131  1  0.75290816  0.49807295  0.73116891  1
  O2-  O132  1  0.00134146  0.25356442  0.26901423  1
  O2-  O133  1  0.00663665  0.24790983  0.60624441  1
  O2-  O134  1  -0.00377335  0.25226895  0.93868979  1
  O2-  O135  1  -0.00215736  0.74942479  0.27712512  1
  O2-  O136  1  0.00141194  0.74382838  0.60415395  1
  O2-  O137  1  -0.00321073  0.74678308  0.93550985  1
  O2-  O138  1  0.50382929  0.24628731  0.27329748  1
  O2-  O139  1  0.50785601  0.24898116  0.60523720  1
  O2-  O140  1  0.49990191  0.25869172  0.94094322  1
  O2-  O141  1  0.49866143  0.75128933  0.27490396  1
  O2-  O142  1  0.50183671  0.74672048  0.60342777  1
  O2-  O143  1  0.50740482  0.74975548  0.93950616  1
  O2-  O144  1  0.07414682  0.18056367  0.09711465  1
  O2-  O145  1  0.06735782  0.17645403  0.43264328  1
  O2-  O146  1  0.07086508  0.17751165  0.75613625  1
  O2-  O147  1  0.07417226  0.67970435  0.09880674  1
  O2-  O148  1  0.07324322  0.68250989  0.42388003  1
  O2-  O149  1  0.07637447  0.67782396  0.75201651  1
  O2-  O150  1  0.56817954  0.17815150  0.10074753  1
  O2-  O151  1  0.57003400  0.17460583  0.42294974  1
  O2-  O152  1  0.57246143  0.17351883  0.75290944  1
  O2-  O153  1  0.56593686  0.67504899  0.08955184  1
  O2-  O154  1  0.57257852  0.68335753  0.42195438  1
  O2-  O155  1  0.56873599  0.68163867  0.75584402  1
  O2-  O156  1  0.17997994  0.43150432  0.23361013  1
  O2-  O157  1  0.18040384  0.42805086  0.57706891  1
  O2-  O158  1  0.18285372  0.42531112  0.90734331  1
  O2-  O159  1  0.17884774  0.92516841  0.24453724  1
  O2-  O160  1  0.18127531  0.93221079  0.56874921  1
  O2-  O161  1  0.18069115  0.92888800  0.90089150  1
  O2-  O162  1  0.67993882  0.43206111  0.23506312  1
  O2-  O163  1  0.67753292  0.42975454  0.57016347  1
  O2-  O164  1  0.67821320  0.42940171  0.90425915  1
  O2-  O165  1  0.67466604  0.92577168  0.24593099  1
  O2-  O166  1  0.67877620  0.93119618  0.57387054  1
  O2-  O167  1  0.67470261  0.93339893  0.89784418  1
  O2-  O168  1  0.42508960  0.32366325  0.08961768  1
  O2-  O169  1  0.43268157  0.32110739  0.43298406  1
  O2-  O170  1  0.42930373  0.31847820  0.76593498  1
  O2-  O171  1  0.42977078  0.81939820  0.10170118  1
  O2-  O172  1  0.42955832  0.82026244  0.42350188  1
  O2-  O173  1  0.42852045  0.82006601  0.76357761  1
  O2-  O174  1  0.92858861  0.31986924  0.08916959  1
  O2-  O175  1  0.92623764  0.32034595  0.43150302  1
  O2-  O176  1  0.93348492  0.31695005  0.76807594  1
  O2-  O177  1  0.93055303  0.82051748  0.10079547  1
  O2-  O178  1  0.92823072  0.82051326  0.42401135  1
  O2-  O179  1  0.92802010  0.82213722  0.76409996  1
  O2-  O180  1  0.32609953  0.06611949  0.23360073  1
  O2-  O181  1  0.32239131  0.07334155  0.57961046  1
  O2-  O182  1  0.32063799  0.07329946  0.90914057  1
  O2-  O183  1  0.31825435  0.57603050  0.23467333  1
  O2-  O184  1  0.31925332  0.57152913  0.57785779  1
  O2-  O185  1  0.32054572  0.57018683  0.90739984  1
  O2-  O186  1  0.82025333  0.06441356  0.23354570  1
  O2-  O187  1  0.82199007  0.06871968  0.57721432  1
  O2-  O188  1  0.82158425  0.07296940  0.90947275  1
  O2-  O189  1  0.81860498  0.57984363  0.24568744  1
  O2-  O190  1  0.81936999  0.57280316  0.56818372  1
  O2-  O191  1  0.82165978  0.56948995  0.90398005  1
  O2-  O192  1  0.03823479  0.08011457  0.26594050  1
  O2-  O193  1  0.04521825  0.08436401  0.60464777  1
  O2-  O194  1  0.04111739  0.08313207  0.92948120  1
  O2-  O195  1  0.04747590  0.58893176  0.27067149  1
  O2-  O196  1  0.05072164  0.58253155  0.60112122  1
  O2-  O197  1  0.04857217  0.57684966  0.93222632  1
  O2-  O198  1  0.54356590  0.08170886  0.27272551  1
  O2-  O199  1  0.54764534  0.08562462  0.59722733  1
  O2-  O200  1  0.53759124  0.08765876  0.92815494  1
  O2-  O201  1  0.54199692  0.58961012  0.26884519  1
  O2-  O202  1  0.54387195  0.58576906  0.60521684  1
  O2-  O203  1  0.53977850  0.58542291  0.93540145  1
  O2-  O204  1  0.17015760  0.20220051  0.26601111  1
  O2-  O205  1  0.16821397  0.19993835  0.60772382  1
  O2-  O206  1  0.16711335  0.21107045  0.92681034  1
  O2-  O207  1  0.16285719  0.71130695  0.27098758  1
  O2-  O208  1  0.16471599  0.70712815  0.59888282  1
  O2-  O209  1  0.16822838  0.70746384  0.92965047  1
  O2-  O210  1  0.66520262  0.19999654  0.27264949  1
  O2-  O211  1  0.66956754  0.19934089  0.60385270  1
  O2-  O212  1  0.66829315  0.20683110  0.93146625  1
  O2-  O213  1  0.66111850  0.70869705  0.26680702  1
  O2-  O214  1  0.66297358  0.70642643  0.60199425  1
  O2-  O215  1  0.66693788  0.69713984  0.94207380  1
  O2-  O216  1  0.08868351  0.45167223  0.06049304  1
  O2-  O217  1  0.08016368  0.46226205  0.40076748  1
  O2-  O218  1  0.08870534  0.45488872  0.73014869  1
  O2-  O219  1  0.08210436  0.95932837  0.06703484  1
  O2-  O220  1  0.08322314  0.95268783  0.39577769  1
  O2-  O221  1  0.08484156  0.96149212  0.73648070  1
  O2-  O222  1  0.57946216  0.45836283  0.06939251  1
  O2-  O223  1  0.58714340  0.46700087  0.40174931  1
  O2-  O224  1  0.57998944  0.45721058  0.73664141  1
  O2-  O225  1  0.58165842  0.96515787  0.06626766  1
  O2-  O226  1  0.58363440  0.95229766  0.39922106  1
  O2-  O227  1  0.58576390  0.95909226  0.72457153  1
  O2-  O228  1  0.20988533  0.33499919  0.06048132  1
  O2-  O229  1  0.20164766  0.32920271  0.40000490  1
  O2-  O230  1  0.20935309  0.33549390  0.72915887  1
  O2-  O231  1  0.21212036  0.83286197  0.06734673  1
  O2-  O232  1  0.20450752  0.83639507  0.39894207  1
  O2-  O233  1  0.21138809  0.83182026  0.73351268  1
  O2-  O234  1  0.70449069  0.32757957  0.06893992  1
  O2-  O235  1  0.70358131  0.33063798  0.40189452  1
  O2-  O236  1  0.70543028  0.32721897  0.73425267  1
  O2-  O237  1  0.70054840  0.83295456  0.06808738  1
  O2-  O238  1  0.70083090  0.83168559  0.39700787  1
  O2-  O239  1  0.70349154  0.83730966  0.72540569  1
  O2-  O240  1  0.46002082  0.42047428  0.26804301  1
  O2-  O241  1  0.45752003  0.41992108  0.60021758  1
  O2-  O242  1  0.45090654  0.41933511  0.93907109  1
  O2-  O243  1  0.45636121  0.91354424  0.27224487  1
  O2-  O244  1  0.45843870  0.91756481  0.59572916  1
  O2-  O245  1  0.45844447  0.91726213  0.93220465  1
  O2-  O246  1  0.94925929  0.42464820  0.26796971  1
  O2-  O247  1  0.95925509  0.41747652  0.60080801  1
  O2-  O248  1  0.95561382  0.41412118  0.93833677  1
  O2-  O249  1  0.95527469  0.91191024  0.27124259  1
  O2-  O250  1  0.96448389  0.91600656  0.59743436  1
  O2-  O251  1  0.95476515  0.91828556  0.93350042  1
  O2-  O252  1  0.33313473  0.29258779  0.26732995  1
  O2-  O253  1  0.33474921  0.28915982  0.59794003  1
  O2-  O254  1  0.33686014  0.29641858  0.93432509  1
  O2-  O255  1  0.33496311  0.79383056  0.27315726  1
  O2-  O256  1  0.33194717  0.78885614  0.59574356  1
  O2-  O257  1  0.33614842  0.78536536  0.93281372  1
  O2-  O258  1  0.82824480  0.28888461  0.26682647  1
  O2-  O259  1  0.83423772  0.28734794  0.60243142  1
  O2-  O260  1  0.83453953  0.29532479  0.93761578  1
  O2-  O261  1  0.83378798  0.79537912  0.27360770  1
  O2-  O262  1  0.83151766  0.79363363  0.59544602  1
  O2-  O263  1  0.82561322  0.79484431  0.93710031  1
  O2-  O264  1  0.41451299  0.04667728  0.06024420  1
  O2-  O265  1  0.41548934  0.03839786  0.40540469  1
  O2-  O266  1  0.42035749  0.04849746  0.72681526  1
  O2-  O267  1  0.41146225  0.54712342  0.06215044  1
  O2-  O268  1  0.42057082  0.54942905  0.40159761  1
  O2-  O269  1  0.41177999  0.54428964  0.73105749  1
  O2-  O270  1  0.91655887  0.04701711  0.06138420  1
  O2-  O271  1  0.91528375  0.03582634  0.40374115  1
  O2-  O272  1  0.91393849  0.04111947  0.72910449  1
  O2-  O273  1  0.92357229  0.54457058  0.06876158  1
  O2-  O274  1  0.91884883  0.55974186  0.39365568  1
  O2-  O275  1  0.92346696  0.54750686  0.73244974  1
  O2-  O276  1  0.29577814  0.16781870  0.05933423  1
  O2-  O277  1  0.29216132  0.16708878  0.40186420  1
  O2-  O278  1  0.29903736  0.16645841  0.73236053  1
  O2-  O279  1  0.28979460  0.66152588  0.06108128  1
  O2-  O280  1  0.28818552  0.66895779  0.40405302  1
  O2-  O281  1  0.29106783  0.66265968  0.72957690  1
  O2-  O282  1  0.79512690  0.16429952  0.06230070  1
  O2-  O283  1  0.78839827  0.16257403  0.40373270  1
  O2-  O284  1  0.79480985  0.15993581  0.73186316  1
  O2-  O285  1  0.79438612  0.66830072  0.07235113  1
  O2-  O286  1  0.78807874  0.66571270  0.39839841  1
  O2-  O287  1  0.79154743  0.67127124  0.73318605  1
