# generated using pymatgen
data_Ca2Al2SiO7
_symmetry_space_group_name_H-M   'P 1'
_cell_length_a   15.45347319
_cell_length_b   15.45341456
_cell_length_c   15.28019659
_cell_angle_alpha   89.99584612
_cell_angle_beta   90.00287899
_cell_angle_gamma   90.00291076
_symmetry_Int_Tables_number   1
_chemical_formula_structural   Ca2Al2SiO7
_chemical_formula_sum   'Ca48 Al48 Si24 O168'
_cell_volume   3649.04734218
_cell_formula_units_Z   24
loop_
 _symmetry_equiv_pos_site_id
 _symmetry_equiv_pos_as_xyz
  1  'x, y, z'
loop_
 _atom_type_symbol
 _atom_type_oxidation_number
  Ca2+  2.0
  Al0+  0.0
  Si0+  0.0
  O2-  -2.0
loop_
 _atom_site_type_symbol
 _atom_site_label
 _atom_site_symmetry_multiplicity
 _atom_site_fract_x
 _atom_site_fract_y
 _atom_site_fract_z
 _atom_site_occupancy
  Ca2+  Ca0  1  0.17385766  0.08509689  0.17155673  1
  Ca2+  Ca1  1  0.17941910  0.08922002  0.50492156  1
  Ca2+  Ca2  1  0.17026708  0.09316912  0.83663641  1
  Ca2+  Ca3  1  0.17054331  0.57275482  0.17710126  1
  Ca2+  Ca4  1  0.17341588  0.58572459  0.50063466  1
  Ca2+  Ca5  1  0.17192374  0.57575175  0.84068645  1
  Ca2+  Ca6  1  0.66627800  0.08145305  0.17233000  1
  Ca2+  Ca7  1  0.66527359  0.07264256  0.50889594  1
  Ca2+  Ca8  1  0.67426115  0.08810266  0.83586735  1
  Ca2+  Ca9  1  0.66763567  0.58069403  0.17344879  1
  Ca2+  Ca10  1  0.65358192  0.56854434  0.50087647  1
  Ca2+  Ca11  1  0.67072439  0.57527915  0.83727930  1
  Ca2+  Ca12  1  0.08972918  0.33090060  0.15950628  1
  Ca2+  Ca13  1  0.08493614  0.33120709  0.49803572  1
  Ca2+  Ca14  1  0.08533514  0.32495402  0.83241523  1
  Ca2+  Ca15  1  0.07330363  0.82789366  0.16365901  1
  Ca2+  Ca16  1  0.07479597  0.82818430  0.48924509  1
  Ca2+  Ca17  1  0.07353392  0.83714621  0.83090174  1
  Ca2+  Ca18  1  0.57869198  0.32516479  0.16175460  1
  Ca2+  Ca19  1  0.59047167  0.32204182  0.49373705  1
  Ca2+  Ca20  1  0.58601464  0.32432862  0.82895126  1
  Ca2+  Ca21  1  0.58140610  0.83042918  0.16583317  1
  Ca2+  Ca22  1  0.58847820  0.82905633  0.49111162  1
  Ca2+  Ca23  1  0.58056637  0.83533996  0.83161869  1
  Ca2+  Ca24  1  0.32469404  0.41272057  0.17259706  1
  Ca2+  Ca25  1  0.33260615  0.42921880  0.50035976  1
  Ca2+  Ca26  1  0.33172611  0.41693667  0.83899559  1
  Ca2+  Ca27  1  0.33767939  0.92183258  0.17097238  1
  Ca2+  Ca28  1  0.33658102  0.93005547  0.50308899  1
  Ca2+  Ca29  1  0.33586101  0.92326748  0.83582916  1
  Ca2+  Ca30  1  0.82846734  0.42336302  0.17123438  1
  Ca2+  Ca31  1  0.82033717  0.41460796  0.50232136  1
  Ca2+  Ca32  1  0.82832217  0.41933424  0.83765533  1
  Ca2+  Ca33  1  0.83367896  0.91946441  0.16983238  1
  Ca2+  Ca34  1  0.82309095  0.91616124  0.50402573  1
  Ca2+  Ca35  1  0.82881303  0.92492962  0.83821911  1
  Ca2+  Ca36  1  0.42731846  0.16746431  0.16028634  1
  Ca2+  Ca37  1  0.42595305  0.16028060  0.49523459  1
  Ca2+  Ca38  1  0.42663120  0.17180169  0.82856014  1
  Ca2+  Ca39  1  0.42070120  0.66608526  0.16504676  1
  Ca2+  Ca40  1  0.41714504  0.66540868  0.49242408  1
  Ca2+  Ca41  1  0.41049712  0.67333581  0.82974951  1
  Ca2+  Ca42  1  0.92243421  0.16758068  0.15736350  1
  Ca2+  Ca43  1  0.91919835  0.16214882  0.50134142  1
  Ca2+  Ca44  1  0.92571759  0.15523057  0.82861635  1
  Ca2+  Ca45  1  0.91234049  0.67694264  0.16223957  1
  Ca2+  Ca46  1  0.92247161  0.67362151  0.48684486  1
  Ca2+  Ca47  1  0.91112165  0.66956461  0.83425311  1
  Al0+  Al48  1  -0.00027028  -0.00121503  -0.00310474  1
  Al0+  Al49  1  0.00092869  0.00122471  0.32921464  1
  Al0+  Al50  1  -0.00000342  -0.00111385  0.66053754  1
  Al0+  Al51  1  0.00015877  0.50027925  0.00806624  1
  Al0+  Al52  1  0.00014877  0.49861946  0.33486346  1
  Al0+  Al53  1  0.00006205  0.49989285  0.66476622  1
  Al0+  Al54  1  0.50105711  -0.00168388  -0.00782359  1
  Al0+  Al55  1  0.50249794  -0.00015772  0.33678815  1
  Al0+  Al56  1  0.49766675  -0.00041402  0.67135835  1
  Al0+  Al57  1  0.49966608  0.50027251  -0.00325486  1
  Al0+  Al58  1  0.49865355  0.49897687  0.33471368  1
  Al0+  Al59  1  0.49864320  0.50078684  0.67789182  1
  Al0+  Al60  1  0.25186291  0.25048366  -0.00314905  1
  Al0+  Al61  1  0.25070718  0.25093101  0.34307797  1
  Al0+  Al62  1  0.25034747  0.25176003  0.66517622  1
  Al0+  Al63  1  0.24988839  0.75035056  -0.00344156  1
  Al0+  Al64  1  0.24818359  0.75116788  0.33141807  1
  Al0+  Al65  1  0.24941501  0.75068282  0.66954580  1
  Al0+  Al66  1  0.75191845  0.24982292  0.00221030  1
  Al0+  Al67  1  0.75252625  0.24962423  0.33139770  1
  Al0+  Al68  1  0.75070761  0.24971622  0.67011614  1
  Al0+  Al69  1  0.74973198  0.75041548  -0.00151281  1
  Al0+  Al70  1  0.74897415  0.75155670  0.32816721  1
  Al0+  Al71  1  0.74816474  0.74943466  0.66890695  1
  Al0+  Al72  1  0.32162785  0.06968741  0.34514734  1
  Al0+  Al73  1  0.17643914  0.42811967  0.35160592  1
  Al0+  Al74  1  0.07270474  0.67695995  0.31693601  1
  Al0+  Al75  1  0.18213324  0.42857895  0.01301119  1
  Al0+  Al76  1  0.92866708  0.82014913  0.98332701  1
  Al0+  Al77  1  0.07153785  0.17926327  0.65070961  1
  Al0+  Al78  1  0.67931521  0.42817480  0.68128385  1
  Al0+  Al79  1  0.81926174  0.57166487  0.01462227  1
  Al0+  Al80  1  0.57383407  0.17875491  0.98395388  1
  Al0+  Al81  1  0.67731699  0.92610856  0.68379753  1
  Al0+  Al82  1  0.42805142  0.81965795  0.98580552  1
  Al0+  Al83  1  0.32062596  0.57301382  0.34651749  1
  Al0+  Al84  1  0.57077390  0.17994204  0.65141393  1
  Al0+  Al85  1  0.42886054  0.32149818  0.98537390  1
  Al0+  Al86  1  0.57221099  0.17737516  0.32064894  1
  Al0+  Al87  1  0.31990804  0.07280572  0.68293099  1
  Al0+  Al88  1  0.56864966  0.67662931  0.32108355  1
  Al0+  Al89  1  0.67940958  0.42838751  0.34464864  1
  Al0+  Al90  1  0.92782917  0.82188760  0.31682927  1
  Al0+  Al91  1  0.82219780  0.07059472  0.01508141  1
  Al0+  Al92  1  0.68108265  0.92984474  0.34506947  1
  Al0+  Al93  1  0.31963768  0.57221777  0.68294116  1
  Al0+  Al94  1  0.82191012  0.06918344  0.68085400  1
  Al0+  Al95  1  0.07013594  0.17999316  0.98810880  1
  Si0+  Si96  1  0.82025572  0.57299428  0.34914855  1
  Si0+  Si97  1  0.07313947  0.18134414  0.31888054  1
  Si0+  Si98  1  0.67654816  0.42766210  0.01817338  1
  Si0+  Si99  1  0.92835359  0.32054989  0.31776079  1
  Si0+  Si100  1  0.42811213  0.32068109  0.31937996  1
  Si0+  Si101  1  0.17839725  0.92864993  0.68252682  1
  Si0+  Si102  1  0.92801198  0.32405991  0.64936313  1
  Si0+  Si103  1  0.56982495  0.67881349  0.65306922  1
  Si0+  Si104  1  0.32132081  0.06937825  0.01337649  1
  Si0+  Si105  1  0.32245788  0.57482047  0.01725279  1
  Si0+  Si106  1  0.82397756  0.57167573  0.68105399  1
  Si0+  Si107  1  0.67698586  0.92916729  0.01774258  1
  Si0+  Si108  1  0.42804122  0.82342252  0.31934409  1
  Si0+  Si109  1  0.42739629  0.82031235  0.65047596  1
  Si0+  Si110  1  0.07089599  0.67677735  0.98256896  1
  Si0+  Si111  1  0.17634000  0.42935370  0.68468516  1
  Si0+  Si112  1  0.57245509  0.67762973  0.98166325  1
  Si0+  Si113  1  0.42860680  0.32475490  0.64822819  1
  Si0+  Si114  1  0.82490378  0.07304043  0.34929435  1
  Si0+  Si115  1  0.17822200  0.92790007  0.01444877  1
  Si0+  Si116  1  0.17597038  0.92913991  0.34822466  1
  Si0+  Si117  1  0.07143045  0.67869139  0.65273042  1
  Si0+  Si118  1  0.92772424  0.81927368  0.65076946  1
  Si0+  Si119  1  0.92850614  0.32451870  0.98490941  1
  O2-  O120  1  0.25055609  -0.00193560  0.05629963  1
  O2-  O121  1  0.24638447  -0.00457854  0.39281539  1
  O2-  O122  1  0.24215828  0.00054941  0.72910198  1
  O2-  O123  1  0.25662464  0.50337694  0.06017228  1
  O2-  O124  1  0.24587447  0.50443616  0.39825749  1
  O2-  O125  1  0.24540839  0.49718120  0.72904621  1
  O2-  O126  1  0.74445498  -0.00082714  0.06174230  1
  O2-  O127  1  0.75599283  0.00420518  0.39193037  1
  O2-  O128  1  0.74754388  0.00043707  0.73239073  1
  O2-  O129  1  0.74427223  0.49765016  0.06179345  1
  O2-  O130  1  0.75064249  0.50585972  0.39423605  1
  O2-  O131  1  0.75616649  0.50239290  0.72520087  1
  O2-  O132  1  0.00255987  0.25214785  0.27610503  1
  O2-  O133  1  -0.00395635  0.25409890  0.60523761  1
  O2-  O134  1  -0.00593700  0.25310447  0.94033999  1
  O2-  O135  1  -0.00138828  0.74747285  0.26778815  1
  O2-  O136  1  -0.00192868  0.74685931  0.61006332  1
  O2-  O137  1  0.00244897  0.74443940  0.93561617  1
  O2-  O138  1  0.49684125  0.25198599  0.27520178  1
  O2-  O139  1  0.49647583  0.25541688  0.60335037  1
  O2-  O140  1  0.50410103  0.25351944  0.93475781  1
  O2-  O141  1  0.49211645  0.75022857  0.27533172  1
  O2-  O142  1  0.50047398  0.75096339  0.60929560  1
  O2-  O143  1  0.50050509  0.74327397  0.93775902  1
  O2-  O144  1  0.07186936  0.18109624  0.10162543  1
  O2-  O145  1  0.07155222  0.18083767  0.42392119  1
  O2-  O146  1  0.07092478  0.18079481  0.76386246  1
  O2-  O147  1  0.07133051  0.67910295  0.08754465  1
  O2-  O148  1  0.07073001  0.68082155  0.43163086  1
  O2-  O149  1  0.07090608  0.67881374  0.75788463  1
  O2-  O150  1  0.57047973  0.17740394  0.09800559  1
  O2-  O151  1  0.57155895  0.17675415  0.43383132  1
  O2-  O152  1  0.57067907  0.18237070  0.76420929  1
  O2-  O153  1  0.57234083  0.67796351  0.08735232  1
  O2-  O154  1  0.56796852  0.67710230  0.43465170  1
  O2-  O155  1  0.56972566  0.68004104  0.75819950  1
  O2-  O156  1  0.18041362  0.42373502  0.23799707  1
  O2-  O157  1  0.17471556  0.43225662  0.57945017  1
  O2-  O158  1  0.18175287  0.43039184  0.89968432  1
  O2-  O159  1  0.17495719  0.93206367  0.24241622  1
  O2-  O160  1  0.18168705  0.92612713  0.57696941  1
  O2-  O161  1  0.17805881  0.92779368  0.90919508  1
  O2-  O162  1  0.68221790  0.42878416  0.23180711  1
  O2-  O163  1  0.67896155  0.42939944  0.56790230  1
  O2-  O164  1  0.67871398  0.42891325  0.91230907  1
  O2-  O165  1  0.67838560  0.93120365  0.23217395  1
  O2-  O166  1  0.68045151  0.92228235  0.57002902  1
  O2-  O167  1  0.67828976  0.92825728  0.91219277  1
  O2-  O168  1  0.42756144  0.31771433  0.09936017  1
  O2-  O169  1  0.42928910  0.32124957  0.42496702  1
  O2-  O170  1  0.42935357  0.32314162  0.75389878  1
  O2-  O171  1  0.42875085  0.82081145  0.09899169  1
  O2-  O172  1  0.43022813  0.82497544  0.42513275  1
  O2-  O173  1  0.42525000  0.81756694  0.75566168  1
  O2-  O174  1  0.93003206  0.32388220  0.09074962  1
  O2-  O175  1  0.92545643  0.31843215  0.42286177  1
  O2-  O176  1  0.93080845  0.32990390  0.75463679  1
  O2-  O177  1  0.93080529  0.82020505  0.09589710  1
  O2-  O178  1  0.92933858  0.82065099  0.43119654  1
  O2-  O179  1  0.92921164  0.81867495  0.75594944  1
  O2-  O180  1  0.32025789  0.06898511  0.23143923  1
  O2-  O181  1  0.32061992  0.06934956  0.56957533  1
  O2-  O182  1  0.31903487  0.06853312  0.90835829  1
  O2-  O183  1  0.32184726  0.57014833  0.23308884  1
  O2-  O184  1  0.31876911  0.57433468  0.57013229  1
  O2-  O185  1  0.31823880  0.57656952  0.91145079  1
  O2-  O186  1  0.82641004  0.07315554  0.24362358  1
  O2-  O187  1  0.82260272  0.06539389  0.56697300  1
  O2-  O188  1  0.82459312  0.06729236  0.90232178  1
  O2-  O189  1  0.81881441  0.57080654  0.24350809  1
  O2-  O190  1  0.82582007  0.57231119  0.57572693  1
  O2-  O191  1  0.81778999  0.56930572  0.90081762  1
  O2-  O192  1  0.04764296  0.08927394  0.27064044  1
  O2-  O193  1  0.04258272  0.08228519  0.59531051  1
  O2-  O194  1  0.04215061  0.08327009  0.93314822  1
  O2-  O195  1  0.04749718  0.57620737  0.26798015  1
  O2-  O196  1  0.04665836  0.58631857  0.60479139  1
  O2-  O197  1  0.04402350  0.58265186  0.93797676  1
  O2-  O198  1  0.53941437  0.08158673  0.26648358  1
  O2-  O199  1  0.53746197  0.08126794  0.60185075  1
  O2-  O200  1  0.54418671  0.08156246  0.93034631  1
  O2-  O201  1  0.53921001  0.58054151  0.26488953  1
  O2-  O202  1  0.53918363  0.58623504  0.60884772  1
  O2-  O203  1  0.55102545  0.58304343  0.93572787  1
  O2-  O204  1  0.16604174  0.20936559  0.27375258  1
  O2-  O205  1  0.16805071  0.21171210  0.59672226  1
  O2-  O206  1  0.16537438  0.21248987  0.93287281  1
  O2-  O207  1  0.17024341  0.70647194  0.26251716  1
  O2-  O208  1  0.16218779  0.71036692  0.60534934  1
  O2-  O209  1  0.16433650  0.70284371  0.93593499  1
  O2-  O210  1  0.66916787  0.20765556  0.26727897  1
  O2-  O211  1  0.66923517  0.20970436  0.60001593  1
  O2-  O212  1  0.67374310  0.20650678  0.93331485  1
  O2-  O213  1  0.66378397  0.70859506  0.26543117  1
  O2-  O214  1  0.66271553  0.70327866  0.60570202  1
  O2-  O215  1  0.66416856  0.70654676  0.93392960  1
  O2-  O216  1  0.08562627  0.45675251  0.06834037  1
  O2-  O217  1  0.07641728  0.45183210  0.40420524  1
  O2-  O218  1  0.08256013  0.45554989  0.73071836  1
  O2-  O219  1  0.08764760  0.95708578  0.06244968  1
  O2-  O220  1  0.08351230  0.95703374  0.39597186  1
  O2-  O221  1  0.08262794  0.95036952  0.72504728  1
  O2-  O222  1  0.58189735  0.45318374  0.06215235  1
  O2-  O223  1  0.58295276  0.45668993  0.39969061  1
  O2-  O224  1  0.58578861  0.46147800  0.73901404  1
  O2-  O225  1  0.58195365  0.95337671  0.06180013  1
  O2-  O226  1  0.58583452  0.95905399  0.40241668  1
  O2-  O227  1  0.57744348  0.94994374  0.73413502  1
  O2-  O228  1  0.21431606  0.33205555  0.06744033  1
  O2-  O229  1  0.20796233  0.33247225  0.40830383  1
  O2-  O230  1  0.20218189  0.33535600  0.72880913  1
  O2-  O231  1  0.20596630  0.83568005  0.06131022  1
  O2-  O232  1  0.19741444  0.83454918  0.39349384  1
  O2-  O233  1  0.20642245  0.83707757  0.73178677  1
  O2-  O234  1  0.70311077  0.33459452  0.06404337  1
  O2-  O235  1  0.71553090  0.33338570  0.39932128  1
  O2-  O236  1  0.71171986  0.33377358  0.73723696  1
  O2-  O237  1  0.70373209  0.83510962  0.06189468  1
  O2-  O238  1  0.71093930  0.83240275  0.39916904  1
  O2-  O239  1  0.70739529  0.82822663  0.73793260  1
  O2-  O240  1  0.45282903  0.41342254  0.27173430  1
  O2-  O241  1  0.45531504  0.42026144  0.60673262  1
  O2-  O242  1  0.45047755  0.42226602  0.93315686  1
  O2-  O243  1  0.45997566  0.91403623  0.27102732  1
  O2-  O244  1  0.45230614  0.91344152  0.60524647  1
  O2-  O245  1  0.45943532  0.91406040  0.92801602  1
  O2-  O246  1  0.95210310  0.41387441  0.27178548  1
  O2-  O247  1  0.95436465  0.41684477  0.59994584  1
  O2-  O248  1  0.95657550  0.41757288  0.93875712  1
  O2-  O249  1  0.95892723  0.92005993  0.26375975  1
  O2-  O250  1  0.95676048  0.90901340  0.60076922  1
  O2-  O251  1  0.96359904  0.91451354  0.92794091  1
  O2-  O252  1  0.33374363  0.29325079  0.27558269  1
  O2-  O253  1  0.33381392  0.30209610  0.60361286  1
  O2-  O254  1  0.33332479  0.28969802  0.92880146  1
  O2-  O255  1  0.33240809  0.80569753  0.27440218  1
  O2-  O256  1  0.33566364  0.79085467  0.60320917  1
  O2-  O257  1  0.33113904  0.79164664  0.92905334  1
  O2-  O258  1  0.83939380  0.29077046  0.26587124  1
  O2-  O259  1  0.83455098  0.29764465  0.60386356  1
  O2-  O260  1  0.83366041  0.30303346  0.94045810  1
  O2-  O261  1  0.83046622  0.79454276  0.26185629  1
  O2-  O262  1  0.83532842  0.79092204  0.60465101  1
  O2-  O263  1  0.83207332  0.78903928  0.92948651  1
  O2-  O264  1  0.41360980  0.03926769  0.05853867  1
  O2-  O265  1  0.41604461  0.03648927  0.40163576  1
  O2-  O266  1  0.41361648  0.03800725  0.73868592  1
  O2-  O267  1  0.41895643  0.55359042  0.05866309  1
  O2-  O268  1  0.41710731  0.54118438  0.40211870  1
  O2-  O269  1  0.41467502  0.54416218  0.74066967  1
  O2-  O270  1  0.91877497  0.03666559  0.06838978  1
  O2-  O271  1  0.91932942  0.04800765  0.39458387  1
  O2-  O272  1  0.92093463  0.03707928  0.73146555  1
  O2-  O273  1  0.91515983  0.54255540  0.07047395  1
  O2-  O274  1  0.91363216  0.54640718  0.39497704  1
  O2-  O275  1  0.91760572  0.54729495  0.72869608  1
  O2-  O276  1  0.29257252  0.16063242  0.06025122  1
  O2-  O277  1  0.29097777  0.16382467  0.40315340  1
  O2-  O278  1  0.29056372  0.17080435  0.73450191  1
  O2-  O279  1  0.29547818  0.66828490  0.06282588  1
  O2-  O280  1  0.29576490  0.67347784  0.39872731  1
  O2-  O281  1  0.28654105  0.66831354  0.73748031  1
  O2-  O282  1  0.79771729  0.16949629  0.06843022  1
  O2-  O283  1  0.80097735  0.16679429  0.39492203  1
  O2-  O284  1  0.80020292  0.16928157  0.73266166  1
  O2-  O285  1  0.78787102  0.66853534  0.06767655  1
  O2-  O286  1  0.79727861  0.66770562  0.39280996  1
  O2-  O287  1  0.79591955  0.66384184  0.72864635  1
