# generated using pymatgen
data_Ca2Al2SiO7
_symmetry_space_group_name_H-M   'P 1'
_cell_length_a   15.47740118
_cell_length_b   15.48161810
_cell_length_c   15.30066875
_cell_angle_alpha   89.99704125
_cell_angle_beta   90.00739591
_cell_angle_gamma   90.04312963
_symmetry_Int_Tables_number   1
_chemical_formula_structural   Ca2Al2SiO7
_chemical_formula_sum   'Ca48 Al48 Si24 O168'
_cell_volume   3666.27194618
_cell_formula_units_Z   24
loop_
 _symmetry_equiv_pos_site_id
 _symmetry_equiv_pos_as_xyz
  1  'x, y, z'
loop_
 _atom_type_symbol
 _atom_type_oxidation_number
  Ca2+  2.0
  Al0+  0.0
  Si0+  0.0
  O2-  -2.0
loop_
 _atom_site_type_symbol
 _atom_site_label
 _atom_site_symmetry_multiplicity
 _atom_site_fract_x
 _atom_site_fract_y
 _atom_site_fract_z
 _atom_site_occupancy
  Ca2+  Ca0  1  0.17431250  0.07517222  0.17099808  1
  Ca2+  Ca1  1  0.16226028  0.07193094  0.50089527  1
  Ca2+  Ca2  1  0.17339789  0.07910121  0.84008197  1
  Ca2+  Ca3  1  0.16872934  0.58201410  0.17085585  1
  Ca2+  Ca4  1  0.17229732  0.58415024  0.50055996  1
  Ca2+  Ca5  1  0.16858543  0.58561981  0.83852039  1
  Ca2+  Ca6  1  0.66478959  0.07950712  0.17420575  1
  Ca2+  Ca7  1  0.66034951  0.07345396  0.49862935  1
  Ca2+  Ca8  1  0.66683795  0.07580174  0.83389177  1
  Ca2+  Ca9  1  0.68096421  0.57759477  0.17508312  1
  Ca2+  Ca10  1  0.67688432  0.58101692  0.50965356  1
  Ca2+  Ca11  1  0.67922239  0.57549621  0.83973530  1
  Ca2+  Ca12  1  0.07938968  0.34488755  0.15918800  1
  Ca2+  Ca13  1  0.08811708  0.34005061  0.49600102  1
  Ca2+  Ca14  1  0.08243329  0.34346897  0.83277703  1
  Ca2+  Ca15  1  0.08892342  0.82009596  0.16423252  1
  Ca2+  Ca16  1  0.07974125  0.81933593  0.49328103  1
  Ca2+  Ca17  1  0.07674272  0.81667968  0.82545770  1
  Ca2+  Ca18  1  0.59445229  0.32997644  0.16338786  1
  Ca2+  Ca19  1  0.59325812  0.33007913  0.49180460  1
  Ca2+  Ca20  1  0.58671728  0.33898974  0.82907945  1
  Ca2+  Ca21  1  0.57427484  0.83251101  0.16571478  1
  Ca2+  Ca22  1  0.57947395  0.83494465  0.49261950  1
  Ca2+  Ca23  1  0.57810981  0.83213324  0.83086433  1
  Ca2+  Ca24  1  0.32206038  0.42948556  0.17209433  1
  Ca2+  Ca25  1  0.32771899  0.43015263  0.50609144  1
  Ca2+  Ca26  1  0.32172863  0.43224109  0.83841276  1
  Ca2+  Ca27  1  0.33498636  0.91496050  0.17159273  1
  Ca2+  Ca28  1  0.32789700  0.90948287  0.49518893  1
  Ca2+  Ca29  1  0.33567398  0.92231904  0.84319559  1
  Ca2+  Ca30  1  0.83120984  0.42326414  0.16648554  1
  Ca2+  Ca31  1  0.82486881  0.42808319  0.50015724  1
  Ca2+  Ca32  1  0.83135127  0.42559389  0.84007753  1
  Ca2+  Ca33  1  0.82601468  0.91879179  0.17571135  1
  Ca2+  Ca34  1  0.82250798  0.91021490  0.50686987  1
  Ca2+  Ca35  1  0.82883589  0.90583235  0.83062144  1
  Ca2+  Ca36  1  0.42066331  0.16771040  0.16278423  1
  Ca2+  Ca37  1  0.42392011  0.17487475  0.49046644  1
  Ca2+  Ca38  1  0.41399197  0.17065110  0.83051061  1
  Ca2+  Ca39  1  0.40552086  0.67483999  0.16307681  1
  Ca2+  Ca40  1  0.41503259  0.66661424  0.49220299  1
  Ca2+  Ca41  1  0.41034826  0.66774592  0.83158963  1
  Ca2+  Ca42  1  0.92011726  0.17655164  0.15866937  1
  Ca2+  Ca43  1  0.91717165  0.17169480  0.49509963  1
  Ca2+  Ca44  1  0.91607238  0.17691661  0.83154078  1
  Ca2+  Ca45  1  0.92737320  0.65162224  0.16418742  1
  Ca2+  Ca46  1  0.92508897  0.65535468  0.49824450  1
  Ca2+  Ca47  1  0.92523781  0.65844251  0.82761412  1
  Al0+  Al48  1  -0.00056448  0.00025544  -0.00142696  1
  Al0+  Al49  1  0.00064462  0.00104433  0.33563988  1
  Al0+  Al50  1  -0.00135790  0.00177861  0.66439566  1
  Al0+  Al51  1  -0.00173194  0.49936416  -0.00480832  1
  Al0+  Al52  1  -0.00076950  0.49868051  0.33605803  1
  Al0+  Al53  1  -0.00074402  0.49716547  0.66447773  1
  Al0+  Al54  1  0.50039788  0.00062763  -0.00128609  1
  Al0+  Al55  1  0.50136853  0.00171459  0.32892049  1
  Al0+  Al56  1  0.50137437  0.00152326  0.66954101  1
  Al0+  Al57  1  0.49970368  0.49833708  0.00618060  1
  Al0+  Al58  1  0.49977509  0.49809439  0.33657436  1
  Al0+  Al59  1  0.49688003  0.50112404  0.67269409  1
  Al0+  Al60  1  0.25218918  0.24767926  0.00727134  1
  Al0+  Al61  1  0.25139036  0.24822636  0.33356325  1
  Al0+  Al62  1  0.25139166  0.25013618  0.66655409  1
  Al0+  Al63  1  0.24885074  0.75221902  -0.00842296  1
  Al0+  Al64  1  0.24860660  0.75141221  0.33272858  1
  Al0+  Al65  1  0.24749849  0.75299460  0.66591486  1
  Al0+  Al66  1  0.75186825  0.24726758  -0.00437275  1
  Al0+  Al67  1  0.75280427  0.24954485  0.33058239  1
  Al0+  Al68  1  0.74994759  0.24618390  0.66614049  1
  Al0+  Al69  1  0.74857689  0.74988444  0.00598021  1
  Al0+  Al70  1  0.75072164  0.75189599  0.34106449  1
  Al0+  Al71  1  0.74660172  0.75080650  0.67401608  1
  Al0+  Al72  1  0.82090909  0.57077257  0.68302371  1
  Al0+  Al73  1  0.31883323  0.57565520  0.68282631  1
  Al0+  Al74  1  0.57062773  0.18275535  0.31837036  1
  Al0+  Al75  1  0.82099568  0.57199366  0.01578862  1
  Al0+  Al76  1  0.43100915  0.81802289  0.32082585  1
  Al0+  Al77  1  0.06765504  0.67947690  0.31826993  1
  Al0+  Al78  1  0.17985367  0.42662492  0.68162338  1
  Al0+  Al79  1  0.43128497  0.81979475  0.98562073  1
  Al0+  Al80  1  0.32071377  0.57560557  0.01554309  1
  Al0+  Al81  1  0.92618068  0.82121356  0.65126492  1
  Al0+  Al82  1  0.17877275  0.92944956  0.34635740  1
  Al0+  Al83  1  0.67903035  0.42552255  0.01486916  1
  Al0+  Al84  1  0.93119550  0.31890595  0.98471370  1
  Al0+  Al85  1  0.67821166  0.92983606  0.68221984  1
  Al0+  Al86  1  0.82086969  0.57169714  0.34981516  1
  Al0+  Al87  1  0.32275243  0.07026781  0.01454262  1
  Al0+  Al88  1  0.67966324  0.42688705  0.34648219  1
  Al0+  Al89  1  0.67869168  0.93074573  0.34594701  1
  Al0+  Al90  1  0.17867964  0.42792323  0.34765684  1
  Al0+  Al91  1  0.06784699  0.68071653  0.98633098  1
  Al0+  Al92  1  0.07035040  0.67695110  0.64796066  1
  Al0+  Al93  1  0.17859428  0.43052327  0.01401034  1
  Al0+  Al94  1  0.32091308  0.57331952  0.34757389  1
  Al0+  Al95  1  0.67795106  0.42673353  0.68079659  1
  Si0+  Si96  1  0.67888195  0.93023638  0.01583913  1
  Si0+  Si97  1  0.57430154  0.67630864  0.98508403  1
  Si0+  Si98  1  0.82274965  0.07219821  0.34937174  1
  Si0+  Si99  1  0.42549213  0.32353487  0.31453030  1
  Si0+  Si100  1  0.57555546  0.67557637  0.31953041  1
  Si0+  Si101  1  0.32341204  0.07086841  0.35086276  1
  Si0+  Si102  1  0.07440158  0.17546781  0.98340212  1
  Si0+  Si103  1  0.17784497  0.92910509  0.01446145  1
  Si0+  Si104  1  0.57091175  0.17965557  0.98190880  1
  Si0+  Si105  1  0.42983144  0.32052980  0.65268437  1
  Si0+  Si106  1  0.82133944  0.07070007  0.01359442  1
  Si0+  Si107  1  0.92422295  0.82635708  0.98551825  1
  Si0+  Si108  1  0.07307761  0.17963892  0.65090041  1
  Si0+  Si109  1  0.57077718  0.17814090  0.65085389  1
  Si0+  Si110  1  0.07391085  0.17492872  0.31708711  1
  Si0+  Si111  1  0.42739538  0.32088180  0.98481136  1
  Si0+  Si112  1  0.42897189  0.82526156  0.65209987  1
  Si0+  Si113  1  0.82380731  0.07183903  0.68460867  1
  Si0+  Si114  1  0.92629034  0.82483928  0.31741627  1
  Si0+  Si115  1  0.56710867  0.67989854  0.65488990  1
  Si0+  Si116  1  0.17659131  0.93081027  0.68189469  1
  Si0+  Si117  1  0.92735166  0.31905451  0.64907214  1
  Si0+  Si118  1  0.32064759  0.06963018  0.67958551  1
  Si0+  Si119  1  0.93302759  0.31764016  0.31769469  1
  O2-  O120  1  0.24755790  -0.00382969  0.05962451  1
  O2-  O121  1  0.25271878  0.00470747  0.39530038  1
  O2-  O122  1  0.25089946  -0.00123906  0.72357171  1
  O2-  O123  1  0.24865326  0.50350223  0.06425665  1
  O2-  O124  1  0.25222036  0.49799414  0.39708935  1
  O2-  O125  1  0.24296322  0.50656090  0.73055573  1
  O2-  O126  1  0.75497726  -0.00366351  0.05642317  1
  O2-  O127  1  0.75690480  0.00133344  0.39345193  1
  O2-  O128  1  0.75808697  -0.00014404  0.72802716  1
  O2-  O129  1  0.74622875  0.50173286  0.06391645  1
  O2-  O130  1  0.74077852  0.50703584  0.39754889  1
  O2-  O131  1  0.75083378  0.49605831  0.73165850  1
  O2-  O132  1  0.00819606  0.25028589  0.27529377  1
  O2-  O133  1  0.00310606  0.25136560  0.60835441  1
  O2-  O134  1  0.00960256  0.24681595  0.93821090  1
  O2-  O135  1  -0.00870137  0.75400522  0.27204554  1
  O2-  O136  1  -0.00513771  0.74754509  0.59954975  1
  O2-  O137  1  -0.00956981  0.75515090  0.94313417  1
  O2-  O138  1  0.49928533  0.25952229  0.27026417  1
  O2-  O139  1  0.50622110  0.25503053  0.60969854  1
  O2-  O140  1  0.50250956  0.25342403  0.94075090  1
  O2-  O141  1  0.50295746  0.74018809  0.27444430  1
  O2-  O142  1  0.49481426  0.74947869  0.61136758  1
  O2-  O143  1  0.50231755  0.74169641  0.93926738  1
  O2-  O144  1  0.07004617  0.17020006  0.08864850  1
  O2-  O145  1  0.07052016  0.17150312  0.42228966  1
  O2-  O146  1  0.07406412  0.17692731  0.75572626  1
  O2-  O147  1  0.06910134  0.68198676  0.09952016  1
  O2-  O148  1  0.06835553  0.67986806  0.43081478  1
  O2-  O149  1  0.07213806  0.68031397  0.76162676  1
  O2-  O150  1  0.57141522  0.17706615  0.08682299  1
  O2-  O151  1  0.56834463  0.18130573  0.43183603  1
  O2-  O152  1  0.56813508  0.17384161  0.75586269  1
  O2-  O153  1  0.57851670  0.68223866  0.09028255  1
  O2-  O154  1  0.57608612  0.67994355  0.42540791  1
  O2-  O155  1  0.56618018  0.68219625  0.75986596  1
  O2-  O156  1  0.17787998  0.42902272  0.23447550  1
  O2-  O157  1  0.18793280  0.41973376  0.56892536  1
  O2-  O158  1  0.18093492  0.43052879  0.90072913  1
  O2-  O159  1  0.17967598  0.93185108  0.23342010  1
  O2-  O160  1  0.17719710  0.93261896  0.57682673  1
  O2-  O161  1  0.17859400  0.93319433  0.90858821  1
  O2-  O162  1  0.68723812  0.42347548  0.23369647  1
  O2-  O163  1  0.67971347  0.42743204  0.56742860  1
  O2-  O164  1  0.68266620  0.42487945  0.90134150  1
  O2-  O165  1  0.67901758  0.93445859  0.23256210  1
  O2-  O166  1  0.67274416  0.93524864  0.56966259  1
  O2-  O167  1  0.67740954  0.93244117  0.91071747  1
  O2-  O168  1  0.42603465  0.31602418  0.08944579  1
  O2-  O169  1  0.42203749  0.31800388  0.42024074  1
  O2-  O170  1  0.42846426  0.31488096  0.75763749  1
  O2-  O171  1  0.43385901  0.82382779  0.09835696  1
  O2-  O172  1  0.43262788  0.82015919  0.43441298  1
  O2-  O173  1  0.43210731  0.82998892  0.75704736  1
  O2-  O174  1  0.93026985  0.31463973  0.09792933  1
  O2-  O175  1  0.93161858  0.31321398  0.42287754  1
  O2-  O176  1  0.92469980  0.31482988  0.75388611  1
  O2-  O177  1  0.92572604  0.83465917  0.09046228  1
  O2-  O178  1  0.92899938  0.82873596  0.42246233  1
  O2-  O179  1  0.93170085  0.82302326  0.76511340  1
  O2-  O180  1  0.32324861  0.06976764  0.24538263  1
  O2-  O181  1  0.32098808  0.06950788  0.57481856  1
  O2-  O182  1  0.32217943  0.06934942  0.90061273  1
  O2-  O183  1  0.31716588  0.57516419  0.23442887  1
  O2-  O184  1  0.32307618  0.57362909  0.56965009  1
  O2-  O185  1  0.31894565  0.57463332  0.90210720  1
  O2-  O186  1  0.82252260  0.07231161  0.24347528  1
  O2-  O187  1  0.82306072  0.07559761  0.57929062  1
  O2-  O188  1  0.81899413  0.07241178  0.90874971  1
  O2-  O189  1  0.82351993  0.56781989  0.23657670  1
  O2-  O190  1  0.81837609  0.56979864  0.56965065  1
  O2-  O191  1  0.82101223  0.57110095  0.90248253  1
  O2-  O192  1  0.04163387  0.08556285  0.26711778  1
  O2-  O193  1  0.04292972  0.08906185  0.60153547  1
  O2-  O194  1  0.04489481  0.08384867  0.93380263  1
  O2-  O195  1  0.03627387  0.58176050  0.26651222  1
  O2-  O196  1  0.04535567  0.57652867  0.59714318  1
  O2-  O197  1  0.03753886  0.58521793  0.93089984  1
  O2-  O198  1  0.53749936  0.08765770  0.26248046  1
  O2-  O199  1  0.53568521  0.08900396  0.60218059  1
  O2-  O200  1  0.53922599  0.08930455  0.93338557  1
  O2-  O201  1  0.55716488  0.57925650  0.27671554  1
  O2-  O202  1  0.54110593  0.58748920  0.60767353  1
  O2-  O203  1  0.55318096  0.58027450  0.94258605  1
  O2-  O204  1  0.16857208  0.19505451  0.27239632  1
  O2-  O205  1  0.16521892  0.20507896  0.60254900  1
  O2-  O206  1  0.17066845  0.19648282  0.94126836  1
  O2-  O207  1  0.16302228  0.71532998  0.26536823  1
  O2-  O208  1  0.16813911  0.71264814  0.59644474  1
  O2-  O209  1  0.16174718  0.71504935  0.92870538  1
  O2-  O210  1  0.66922605  0.20859099  0.26450469  1
  O2-  O211  1  0.66470823  0.19774190  0.60390563  1
  O2-  O212  1  0.66332871  0.20296768  0.93343320  1
  O2-  O213  1  0.66776163  0.70729537  0.27346485  1
  O2-  O214  1  0.65842898  0.71012277  0.60851766  1
  O2-  O215  1  0.66607462  0.70762139  0.93707093  1
  O2-  O216  1  0.07890964  0.45682497  0.06306170  1
  O2-  O217  1  0.08119918  0.45562131  0.40115046  1
  O2-  O218  1  0.07658997  0.44327191  0.72631566  1
  O2-  O219  1  0.08438319  0.95538748  0.06017593  1
  O2-  O220  1  0.08370371  0.96297319  0.40225575  1
  O2-  O221  1  0.08675635  0.96366152  0.72919326  1
  O2-  O222  1  0.57802967  0.44324608  0.06544295  1
  O2-  O223  1  0.57637307  0.43865941  0.39379969  1
  O2-  O224  1  0.57957181  0.45431915  0.73327854  1
  O2-  O225  1  0.59002132  0.96571993  0.06284025  1
  O2-  O226  1  0.58412928  0.96777357  0.39987927  1
  O2-  O227  1  0.58468697  0.96839505  0.73865294  1
  O2-  O228  1  0.20470493  0.33077979  0.06556794  1
  O2-  O229  1  0.20195644  0.32592133  0.39668581  1
  O2-  O230  1  0.21397188  0.32977489  0.73585252  1
  O2-  O231  1  0.20434900  0.83608511  0.05846772  1
  O2-  O232  1  0.21189929  0.83579925  0.40268893  1
  O2-  O233  1  0.20207787  0.83931350  0.72920226  1
  O2-  O234  1  0.71239123  0.32665716  0.06434438  1
  O2-  O235  1  0.71773788  0.33108420  0.40006604  1
  O2-  O236  1  0.70199239  0.32494135  0.72910604  1
  O2-  O237  1  0.70012733  0.83797704  0.06394179  1
  O2-  O238  1  0.70420982  0.83507249  0.40316865  1
  O2-  O239  1  0.70294067  0.83425745  0.74021913  1
  O2-  O240  1  0.44414809  0.41944884  0.27146191  1
  O2-  O241  1  0.45147008  0.41467168  0.60806970  1
  O2-  O242  1  0.45083563  0.41432198  0.93862674  1
  O2-  O243  1  0.46453537  0.91406314  0.26662735  1
  O2-  O244  1  0.46239165  0.91517899  0.60402096  1
  O2-  O245  1  0.46654983  0.91594564  0.93082987  1
  O2-  O246  1  0.95832484  0.40976640  0.27117916  1
  O2-  O247  1  0.95020533  0.41082437  0.60070830  1
  O2-  O248  1  0.95896368  0.41422255  0.92813801  1
  O2-  O249  1  0.95314778  0.91885960  0.27123471  1
  O2-  O250  1  0.95312293  0.92185757  0.60040279  1
  O2-  O251  1  0.95010816  0.91893650  0.93570094  1
  O2-  O252  1  0.33460819  0.29040186  0.26644325  1
  O2-  O253  1  0.34178893  0.28482000  0.60278085  1
  O2-  O254  1  0.33783886  0.28560839  0.93689374  1
  O2-  O255  1  0.33336374  0.79253572  0.26654148  1
  O2-  O256  1  0.33440163  0.80454207  0.60784966  1
  O2-  O257  1  0.33392212  0.79703321  0.92918184  1
  O2-  O258  1  0.84419854  0.28404193  0.26824634  1
  O2-  O259  1  0.83804895  0.28357248  0.60053131  1
  O2-  O260  1  0.83746487  0.28047125  0.92873251  1
  O2-  O261  1  0.82993526  0.80444691  0.27469252  1
  O2-  O262  1  0.82275321  0.80007832  0.60577786  1
  O2-  O263  1  0.82854417  0.80290957  0.94264213  1
  O2-  O264  1  0.41929724  0.03895222  0.06759767  1
  O2-  O265  1  0.41596923  0.04294055  0.39659963  1
  O2-  O266  1  0.41175948  0.04279133  0.72884157  1
  O2-  O267  1  0.41984973  0.54952609  0.06707187  1
  O2-  O268  1  0.42127362  0.54930354  0.39929985  1
  O2-  O269  1  0.41522356  0.54361420  0.73784326  1
  O2-  O270  1  0.91494875  0.04873160  0.06038385  1
  O2-  O271  1  0.91697303  0.05151670  0.39572868  1
  O2-  O272  1  0.91859361  0.05177253  0.73062076  1
  O2-  O273  1  0.91738747  0.53662095  0.06657088  1
  O2-  O274  1  0.91464702  0.53255894  0.40364104  1
  O2-  O275  1  0.91994705  0.54110850  0.73222299  1
  O2-  O276  1  0.29377951  0.16436314  0.07262399  1
  O2-  O277  1  0.29994564  0.16476488  0.39659581  1
  O2-  O278  1  0.29199192  0.16046143  0.72793519  1
  O2-  O279  1  0.29150357  0.67588281  0.06339439  1
  O2-  O280  1  0.29025937  0.67048571  0.40087308  1
  O2-  O281  1  0.29508390  0.67651281  0.73316890  1
  O2-  O282  1  0.78945887  0.15967646  0.06290736  1
  O2-  O283  1  0.79356093  0.16367596  0.39667416  1
  O2-  O284  1  0.79195885  0.16236616  0.73311769  1
  O2-  O285  1  0.79692149  0.67128269  0.06989054  1
  O2-  O286  1  0.80174028  0.67225632  0.40147287  1
  O2-  O287  1  0.79102136  0.66798501  0.73648926  1
