# generated using pymatgen
data_Ca2Al2SiO7
_symmetry_space_group_name_H-M   'P 1'
_cell_length_a   15.45870203
_cell_length_b   15.45703581
_cell_length_c   15.28420019
_cell_angle_alpha   89.99165866
_cell_angle_beta   89.99837549
_cell_angle_gamma   90.00675917
_symmetry_Int_Tables_number   1
_chemical_formula_structural   Ca2Al2SiO7
_chemical_formula_sum   'Ca48 Al48 Si24 O168'
_cell_volume   3652.09401411
_cell_formula_units_Z   24
loop_
 _symmetry_equiv_pos_site_id
 _symmetry_equiv_pos_as_xyz
  1  'x, y, z'
loop_
 _atom_type_symbol
 _atom_type_oxidation_number
  Ca2+  2.0
  Al0+  0.0
  Si0+  0.0
  O2-  -2.0
loop_
 _atom_site_type_symbol
 _atom_site_label
 _atom_site_symmetry_multiplicity
 _atom_site_fract_x
 _atom_site_fract_y
 _atom_site_fract_z
 _atom_site_occupancy
  Ca2+  Ca0  1  0.18211942  0.08151219  0.17130782  1
  Ca2+  Ca1  1  0.17777188  0.08710796  0.50622138  1
  Ca2+  Ca2  1  0.17782292  0.08887954  0.83380200  1
  Ca2+  Ca3  1  0.17153298  0.58178158  0.16909425  1
  Ca2+  Ca4  1  0.17368703  0.57892693  0.50851486  1
  Ca2+  Ca5  1  0.17699270  0.57305047  0.83969134  1
  Ca2+  Ca6  1  0.67124563  0.08734557  0.17799458  1
  Ca2+  Ca7  1  0.65941805  0.07047508  0.49942520  1
  Ca2+  Ca8  1  0.66644952  0.07711722  0.83982493  1
  Ca2+  Ca9  1  0.66140859  0.57680516  0.17569338  1
  Ca2+  Ca10  1  0.66089137  0.58312049  0.50689919  1
  Ca2+  Ca11  1  0.66827005  0.58770478  0.82904827  1
  Ca2+  Ca12  1  0.08226376  0.33368149  0.16248248  1
  Ca2+  Ca13  1  0.08679907  0.33070673  0.50194852  1
  Ca2+  Ca14  1  0.09277285  0.33069736  0.82653014  1
  Ca2+  Ca15  1  0.08667062  0.82673075  0.16601609  1
  Ca2+  Ca16  1  0.07474278  0.82963933  0.49390123  1
  Ca2+  Ca17  1  0.07349694  0.83458204  0.82570567  1
  Ca2+  Ca18  1  0.58050099  0.32507325  0.16754226  1
  Ca2+  Ca19  1  0.57006276  0.33240036  0.49011757  1
  Ca2+  Ca20  1  0.57627888  0.32355295  0.82766485  1
  Ca2+  Ca21  1  0.57380476  0.84139333  0.16962253  1
  Ca2+  Ca22  1  0.58569669  0.82543751  0.49448561  1
  Ca2+  Ca23  1  0.57834044  0.83042445  0.82726989  1
  Ca2+  Ca24  1  0.33413567  0.41901732  0.16853664  1
  Ca2+  Ca25  1  0.33535377  0.41969245  0.51128436  1
  Ca2+  Ca26  1  0.33090986  0.42355316  0.83288998  1
  Ca2+  Ca27  1  0.34552947  0.92291564  0.17076031  1
  Ca2+  Ca28  1  0.34576040  0.92930544  0.50013734  1
  Ca2+  Ca29  1  0.33859596  0.92662580  0.83849583  1
  Ca2+  Ca30  1  0.82242081  0.41647340  0.17477085  1
  Ca2+  Ca31  1  0.82251964  0.42344384  0.50186892  1
  Ca2+  Ca32  1  0.83611587  0.42506297  0.83434786  1
  Ca2+  Ca33  1  0.82432397  0.93040667  0.17580298  1
  Ca2+  Ca34  1  0.82163848  0.91333209  0.50423037  1
  Ca2+  Ca35  1  0.82744031  0.91777900  0.83418627  1
  Ca2+  Ca36  1  0.42784867  0.15961861  0.16497208  1
  Ca2+  Ca37  1  0.41407522  0.17628477  0.49266833  1
  Ca2+  Ca38  1  0.41421536  0.16803159  0.82830701  1
  Ca2+  Ca39  1  0.41982010  0.67700727  0.16247180  1
  Ca2+  Ca40  1  0.42555578  0.66897216  0.49197914  1
  Ca2+  Ca41  1  0.41591910  0.66750739  0.82829700  1
  Ca2+  Ca42  1  0.91172215  0.16391947  0.16110847  1
  Ca2+  Ca43  1  0.92418704  0.16083185  0.49631573  1
  Ca2+  Ca44  1  0.92471969  0.16485414  0.82736433  1
  Ca2+  Ca45  1  0.92402060  0.66465688  0.16657414  1
  Ca2+  Ca46  1  0.91835753  0.66780835  0.49884943  1
  Ca2+  Ca47  1  0.91562542  0.67185834  0.82101127  1
  Al0+  Al48  1  -0.00051665  -0.00012514  0.00292000  1
  Al0+  Al49  1  0.00185279  -0.00004949  0.33359455  1
  Al0+  Al50  1  -0.00057675  -0.00006956  0.65631627  1
  Al0+  Al51  1  -0.00005161  0.49942546  0.00272965  1
  Al0+  Al52  1  0.00021876  0.49919455  0.32902781  1
  Al0+  Al53  1  -0.00153492  0.49862663  0.67284629  1
  Al0+  Al54  1  0.50071869  -0.00218738  -0.00594662  1
  Al0+  Al55  1  0.50185308  0.00146442  0.33627826  1
  Al0+  Al56  1  0.50142371  -0.00087011  0.67681744  1
  Al0+  Al57  1  0.50053459  0.49964541  0.00231207  1
  Al0+  Al58  1  0.49813132  0.49993017  0.32919702  1
  Al0+  Al59  1  0.50007957  0.49862401  0.66618338  1
  Al0+  Al60  1  0.25012836  0.24951379  0.00895957  1
  Al0+  Al61  1  0.24723321  0.25118854  0.33168273  1
  Al0+  Al62  1  0.25005836  0.24933625  0.66575177  1
  Al0+  Al63  1  0.24967068  0.74904688  -0.00345799  1
  Al0+  Al64  1  0.24860442  0.74947315  0.32634360  1
  Al0+  Al65  1  0.24936087  0.75254603  0.66939630  1
  Al0+  Al66  1  0.75091180  0.25053777  -0.00443814  1
  Al0+  Al67  1  0.75143057  0.25358822  0.34180453  1
  Al0+  Al68  1  0.75118037  0.24882555  0.66521445  1
  Al0+  Al69  1  0.75007061  0.74998150  0.00260501  1
  Al0+  Al70  1  0.75320270  0.75062700  0.32958274  1
  Al0+  Al71  1  0.74867627  0.75043229  0.66767883  1
  Al0+  Al72  1  0.06974378  0.67809668  0.31975398  1
  Al0+  Al73  1  0.31955318  0.06937327  0.68018703  1
  Al0+  Al74  1  0.17986625  0.42922870  0.68004354  1
  Al0+  Al75  1  0.42915127  0.81940815  0.98346170  1
  Al0+  Al76  1  0.81824777  0.56975587  0.67869957  1
  Al0+  Al77  1  0.56769805  0.68076182  0.65505030  1
  Al0+  Al78  1  0.57214070  0.17951011  0.98547839  1
  Al0+  Al79  1  0.32038131  0.07052745  0.34736707  1
  Al0+  Al80  1  0.43024916  0.82161353  0.32013470  1
  Al0+  Al81  1  0.43070480  0.31770777  0.65528682  1
  Al0+  Al82  1  0.32409733  0.57419268  0.67972903  1
  Al0+  Al83  1  0.42457470  0.32218197  0.31632927  1
  Al0+  Al84  1  0.82337039  0.07402132  0.35099324  1
  Al0+  Al85  1  0.67966239  0.92878649  0.34885687  1
  Al0+  Al86  1  0.57102113  0.18110743  0.32182397  1
  Al0+  Al87  1  0.68048191  0.92928435  0.68300553  1
  Al0+  Al88  1  0.92821713  0.81989590  0.65233973  1
  Al0+  Al89  1  0.17904955  0.42906518  0.01814649  1
  Al0+  Al90  1  0.07013497  0.18108739  0.65294402  1
  Al0+  Al91  1  0.57398797  0.67806955  0.31804995  1
  Al0+  Al92  1  0.32223829  0.06884772  0.01465981  1
  Al0+  Al93  1  0.67624004  0.43185204  0.34724508  1
  Al0+  Al94  1  0.32271384  0.57263307  0.01772762  1
  Al0+  Al95  1  0.82048674  0.07088335  0.01125939  1
  Si0+  Si96  1  0.92932946  0.82037696  0.98578041  1
  Si0+  Si97  1  0.31892187  0.57157127  0.34722941  1
  Si0+  Si98  1  0.06932165  0.67733172  0.98228583  1
  Si0+  Si99  1  0.92576228  0.32488261  0.64857706  1
  Si0+  Si100  1  0.68074602  0.42863414  0.01302120  1
  Si0+  Si101  1  0.92892424  0.32167560  0.98427118  1
  Si0+  Si102  1  0.82372070  0.57108757  0.34753456  1
  Si0+  Si103  1  0.42589609  0.82488161  0.65143202  1
  Si0+  Si104  1  0.42714104  0.32171621  0.98310181  1
  Si0+  Si105  1  0.82458380  0.07197992  0.68269482  1
  Si0+  Si106  1  0.17598935  0.92776070  0.01551064  1
  Si0+  Si107  1  0.57427654  0.17499046  0.65050653  1
  Si0+  Si108  1  0.07090427  0.17762599  0.31567822  1
  Si0+  Si109  1  0.07122523  0.17939215  0.98706715  1
  Si0+  Si110  1  0.17654821  0.43009573  0.34909245  1
  Si0+  Si111  1  0.93052877  0.32032423  0.31864077  1
  Si0+  Si112  1  0.57371466  0.67536274  0.98241413  1
  Si0+  Si113  1  0.67662298  0.42536876  0.68446234  1
  Si0+  Si114  1  0.67873097  0.92739425  0.01750308  1
  Si0+  Si115  1  0.82122703  0.57246409  0.01591540  1
  Si0+  Si116  1  0.92871812  0.82400530  0.31318987  1
  Si0+  Si117  1  0.17846689  0.92554279  0.35001397  1
  Si0+  Si118  1  0.17382757  0.92828915  0.68153467  1
  Si0+  Si119  1  0.07227360  0.67649210  0.65279391  1
  O2-  O120  1  0.24876256  -0.00829666  0.05987650  1
  O2-  O121  1  0.24740526  -0.00651335  0.39428119  1
  O2-  O122  1  0.24580518  -0.00716132  0.72654830  1
  O2-  O123  1  0.25121900  0.50013170  0.06883085  1
  O2-  O124  1  0.25105081  0.49741061  0.38995358  1
  O2-  O125  1  0.24889291  0.50442535  0.72877913  1
  O2-  O126  1  0.74425597  -0.00024713  0.05995308  1
  O2-  O127  1  0.75205401  0.00082962  0.39955246  1
  O2-  O128  1  0.75287150  0.00778040  0.72824519  1
  O2-  O129  1  0.74800055  0.50352033  0.05619845  1
  O2-  O130  1  0.74642267  0.51275221  0.39158633  1
  O2-  O131  1  0.74708652  0.49287200  0.72856468  1
  O2-  O132  1  -0.00415007  0.24490317  0.27430194  1
  O2-  O133  1  -0.00635026  0.25461249  0.60585348  1
  O2-  O134  1  0.00203240  0.25207385  0.94370012  1
  O2-  O135  1  -0.00313915  0.75378178  0.27014129  1
  O2-  O136  1  0.00524878  0.74618045  0.60749840  1
  O2-  O137  1  -0.00174000  0.74863487  0.94076112  1
  O2-  O138  1  0.49681251  0.24911146  0.26826995  1
  O2-  O139  1  0.50724291  0.24538485  0.60787256  1
  O2-  O140  1  0.49431092  0.25132959  0.93891617  1
  O2-  O141  1  0.50349351  0.75142346  0.26818429  1
  O2-  O142  1  0.48892560  0.75091984  0.60836146  1
  O2-  O143  1  0.50292229  0.74209278  0.93924772  1
  O2-  O144  1  0.06807383  0.17915154  0.09215673  1
  O2-  O145  1  0.07287308  0.18004102  0.42063114  1
  O2-  O146  1  0.06916471  0.18109161  0.76677808  1
  O2-  O147  1  0.06705953  0.67728393  0.08759601  1
  O2-  O148  1  0.06733856  0.67736881  0.43284169  1
  O2-  O149  1  0.06890897  0.67807662  0.75862277  1
  O2-  O150  1  0.57570177  0.18237545  0.09823073  1
  O2-  O151  1  0.56801079  0.18214310  0.43528780  1
  O2-  O152  1  0.57457509  0.17685949  0.75665447  1
  O2-  O153  1  0.57684943  0.67494884  0.08748963  1
  O2-  O154  1  0.57103983  0.67758596  0.43170726  1
  O2-  O155  1  0.56938166  0.68318814  0.76844888  1
  O2-  O156  1  0.17300460  0.43239724  0.24422366  1
  O2-  O157  1  0.18008355  0.43075723  0.56601656  1
  O2-  O158  1  0.17716587  0.43002055  0.90497935  1
  O2-  O159  1  0.17590912  0.92813359  0.24413685  1
  O2-  O160  1  0.17174384  0.92874221  0.57622164  1
  O2-  O161  1  0.17029927  0.93154815  0.91008741  1
  O2-  O162  1  0.68173320  0.42950782  0.23335650  1
  O2-  O163  1  0.67672131  0.42713256  0.57911783  1
  O2-  O164  1  0.68406584  0.42834726  0.90795929  1
  O2-  O165  1  0.68129294  0.93093045  0.23493265  1
  O2-  O166  1  0.68018996  0.92755982  0.57044951  1
  O2-  O167  1  0.68288066  0.92473281  0.91180738  1
  O2-  O168  1  0.42982601  0.32252832  0.08837830  1
  O2-  O169  1  0.42373949  0.32236080  0.43017382  1
  O2-  O170  1  0.43141769  0.31627566  0.76881167  1
  O2-  O171  1  0.43215658  0.82142510  0.09631093  1
  O2-  O172  1  0.42820015  0.81871113  0.43366727  1
  O2-  O173  1  0.42870869  0.82606764  0.75710960  1
  O2-  O174  1  0.92674453  0.32168898  0.08950713  1
  O2-  O175  1  0.93518986  0.32498211  0.42326191  1
  O2-  O176  1  0.92417010  0.32479121  0.75446581  1
  O2-  O177  1  0.93143989  0.81857147  0.09052901  1
  O2-  O178  1  0.92946590  0.82344003  0.41869156  1
  O2-  O179  1  0.92992913  0.81937659  0.76643512  1
  O2-  O180  1  0.31922391  0.06884855  0.23412984  1
  O2-  O181  1  0.31903027  0.07016935  0.56717626  1
  O2-  O182  1  0.31801188  0.07066065  0.90145466  1
  O2-  O183  1  0.31601401  0.57223757  0.24233623  1
  O2-  O184  1  0.32304095  0.57312655  0.56569332  1
  O2-  O185  1  0.32068181  0.57140130  0.90419345  1
  O2-  O186  1  0.82265444  0.07308231  0.23664275  1
  O2-  O187  1  0.82568282  0.07015213  0.57768035  1
  O2-  O188  1  0.82394552  0.06751827  0.89837797  1
  O2-  O189  1  0.82761290  0.56453013  0.24150815  1
  O2-  O190  1  0.81854263  0.56860764  0.56580960  1
  O2-  O191  1  0.82309056  0.57317778  0.91090686  1
  O2-  O192  1  0.04829297  0.08423123  0.26880810  1
  O2-  O193  1  0.04123511  0.08593224  0.59520827  1
  O2-  O194  1  0.04135854  0.08791956  0.93972299  1
  O2-  O195  1  0.03549042  0.58363101  0.26196352  1
  O2-  O196  1  0.04425623  0.58293044  0.60816197  1
  O2-  O197  1  0.03893834  0.58552038  0.93645750  1
  O2-  O198  1  0.54600573  0.08221675  0.26845726  1
  O2-  O199  1  0.54619034  0.08060044  0.60890328  1
  O2-  O200  1  0.54476360  0.08221661  0.93169100  1
  O2-  O201  1  0.54256176  0.58135007  0.26399598  1
  O2-  O202  1  0.54351157  0.58205361  0.60249659  1
  O2-  O203  1  0.55188244  0.58021539  0.93711375  1
  O2-  O204  1  0.15971322  0.21048979  0.26583442  1
  O2-  O205  1  0.16461249  0.21423688  0.59680752  1
  O2-  O206  1  0.16406149  0.20673039  0.94142963  1
  O2-  O207  1  0.16392887  0.70888284  0.26097899  1
  O2-  O208  1  0.16674560  0.70024587  0.60764822  1
  O2-  O209  1  0.16096925  0.70364111  0.93507468  1
  O2-  O210  1  0.67085550  0.21317613  0.27230540  1
  O2-  O211  1  0.66957536  0.19590638  0.60622635  1
  O2-  O212  1  0.66719513  0.21346362  0.92858095  1
  O2-  O213  1  0.67531932  0.69873516  0.26654231  1
  O2-  O214  1  0.66339616  0.71358108  0.60146671  1
  O2-  O215  1  0.66812437  0.70381296  0.93743799  1
  O2-  O216  1  0.07938800  0.45839019  0.07047911  1
  O2-  O217  1  0.08592727  0.46182183  0.39663109  1
  O2-  O218  1  0.08019465  0.45134567  0.73400463  1
  O2-  O219  1  0.08511965  0.95684552  0.06596114  1
  O2-  O220  1  0.08492082  0.95168974  0.39585966  1
  O2-  O221  1  0.08086332  0.95774653  0.72767380  1
  O2-  O222  1  0.58823089  0.45154140  0.06050199  1
  O2-  O223  1  0.57811110  0.45847512  0.39991531  1
  O2-  O224  1  0.58503122  0.45294759  0.73254288  1
  O2-  O225  1  0.58377799  0.95084567  0.05913413  1
  O2-  O226  1  0.58242818  0.95672404  0.40392065  1
  O2-  O227  1  0.58559150  0.95837517  0.74135598  1
  O2-  O228  1  0.20321081  0.33045010  0.07245683  1
  O2-  O229  1  0.19858522  0.33605213  0.39397221  1
  O2-  O230  1  0.21132754  0.33233028  0.73361755  1
  O2-  O231  1  0.19658846  0.83166357  0.05762249  1
  O2-  O232  1  0.20035622  0.83031870  0.39393701  1
  O2-  O233  1  0.19313717  0.83362123  0.72871267  1
  O2-  O234  1  0.71500641  0.33940313  0.06102187  1
  O2-  O235  1  0.71357548  0.34037314  0.40577594  1
  O2-  O236  1  0.70204339  0.33068653  0.72931772  1
  O2-  O237  1  0.70741844  0.83508780  0.06491588  1
  O2-  O238  1  0.71057745  0.82895752  0.39924041  1
  O2-  O239  1  0.71579389  0.83508977  0.73848677  1
  O2-  O240  1  0.45444365  0.41930263  0.26262311  1
  O2-  O241  1  0.45996932  0.41452283  0.60102916  1
  O2-  O242  1  0.45525962  0.41533479  0.93763526  1
  O2-  O243  1  0.46044916  0.91990862  0.26742635  1
  O2-  O244  1  0.45886303  0.91722306  0.60730592  1
  O2-  O245  1  0.46211501  0.91405196  0.92680928  1
  O2-  O246  1  0.96241839  0.40908730  0.26668551  1
  O2-  O247  1  0.95298227  0.41805146  0.60250283  1
  O2-  O248  1  0.95524625  0.41488565  0.93795467  1
  O2-  O249  1  0.95761702  0.91691167  0.26678307  1
  O2-  O250  1  0.95719166  0.91459727  0.59481651  1
  O2-  O251  1  0.95894334  0.91196366  0.93835764  1
  O2-  O252  1  0.32485992  0.29698352  0.26449645  1
  O2-  O253  1  0.33529239  0.28671180  0.60008152  1
  O2-  O254  1  0.33180216  0.29566385  0.94107382  1
  O2-  O255  1  0.33194464  0.79466998  0.26544812  1
  O2-  O256  1  0.32889372  0.80918381  0.60852856  1
  O2-  O257  1  0.33040256  0.79344589  0.93013671  1
  O2-  O258  1  0.83702166  0.29727612  0.27254304  1
  O2-  O259  1  0.83158004  0.30128320  0.60229366  1
  O2-  O260  1  0.83946600  0.29365425  0.93295662  1
  O2-  O261  1  0.83635277  0.79947053  0.26470141  1
  O2-  O262  1  0.83400335  0.78436819  0.59843304  1
  O2-  O263  1  0.83652916  0.79325185  0.93946010  1
  O2-  O264  1  0.42006019  0.03683010  0.06495690  1
  O2-  O265  1  0.41668525  0.04250845  0.40200621  1
  O2-  O266  1  0.41516206  0.04113567  0.73734116  1
  O2-  O267  1  0.42253685  0.54623984  0.06901118  1
  O2-  O268  1  0.41181965  0.54622244  0.39248057  1
  O2-  O269  1  0.42017055  0.54114644  0.73489972  1
  O2-  O270  1  0.91592652  0.03903937  0.06780542  1
  O2-  O271  1  0.92392830  0.04545309  0.39981929  1
  O2-  O272  1  0.91782425  0.04227973  0.72761264  1
  O2-  O273  1  0.91169668  0.54192499  0.06419239  1
  O2-  O274  1  0.91333123  0.53494079  0.39533950  1
  O2-  O275  1  0.91406650  0.54098195  0.73681023  1
  O2-  O276  1  0.29027029  0.16345685  0.07070479  1
  O2-  O277  1  0.28367860  0.16699691  0.39869270  1
  O2-  O278  1  0.28422608  0.16400206  0.73469452  1
  O2-  O279  1  0.29053570  0.67133512  0.06824252  1
  O2-  O280  1  0.28724559  0.66263699  0.39352751  1
  O2-  O281  1  0.29888438  0.67390918  0.73242381  1
  O2-  O282  1  0.79382964  0.16994636  0.06272358  1
  O2-  O283  1  0.80199273  0.17345190  0.40371364  1
  O2-  O284  1  0.80531544  0.16845328  0.72660706  1
  O2-  O285  1  0.79744341  0.66483954  0.06429344  1
  O2-  O286  1  0.81176485  0.66907419  0.38727436  1
  O2-  O287  1  0.78581934  0.66433197  0.73565125  1
