# generated using pymatgen
data_Ca2Al2SiO7
_symmetry_space_group_name_H-M   'P 1'
_cell_length_a   15.45898755
_cell_length_b   15.45969692
_cell_length_c   15.28456828
_cell_angle_alpha   90.01230249
_cell_angle_beta   90.00191652
_cell_angle_gamma   90.00745360
_symmetry_Int_Tables_number   1
_chemical_formula_structural   Ca2Al2SiO7
_chemical_formula_sum   'Ca48 Al48 Si24 O168'
_cell_volume   3652.87814715
_cell_formula_units_Z   24
loop_
 _symmetry_equiv_pos_site_id
 _symmetry_equiv_pos_as_xyz
  1  'x, y, z'
loop_
 _atom_type_symbol
 _atom_type_oxidation_number
  Ca2+  2.0
  Al0+  0.0
  Si0+  0.0
  O2-  -2.0
loop_
 _atom_site_type_symbol
 _atom_site_label
 _atom_site_symmetry_multiplicity
 _atom_site_fract_x
 _atom_site_fract_y
 _atom_site_fract_z
 _atom_site_occupancy
  Ca2+  Ca0  1  0.17380472  0.08155456  0.17719326  1
  Ca2+  Ca1  1  0.17300611  0.08742621  0.50757743  1
  Ca2+  Ca2  1  0.16778533  0.08235711  0.82886405  1
  Ca2+  Ca3  1  0.15837978  0.57396354  0.17380757  1
  Ca2+  Ca4  1  0.15676872  0.58000165  0.50196019  1
  Ca2+  Ca5  1  0.16397266  0.58017039  0.83530742  1
  Ca2+  Ca6  1  0.67469556  0.07340773  0.17434618  1
  Ca2+  Ca7  1  0.67105926  0.07641039  0.50324299  1
  Ca2+  Ca8  1  0.66231332  0.07563310  0.83335111  1
  Ca2+  Ca9  1  0.67322960  0.57791074  0.17195972  1
  Ca2+  Ca10  1  0.68230972  0.58056569  0.50867706  1
  Ca2+  Ca11  1  0.66948933  0.57360201  0.83364753  1
  Ca2+  Ca12  1  0.08151862  0.33394285  0.17086408  1
  Ca2+  Ca13  1  0.08143659  0.32344975  0.49042180  1
  Ca2+  Ca14  1  0.08565254  0.32889914  0.82726959  1
  Ca2+  Ca15  1  0.07578910  0.82646433  0.16087319  1
  Ca2+  Ca16  1  0.08260147  0.82508829  0.49891797  1
  Ca2+  Ca17  1  0.07104654  0.83142540  0.82015376  1
  Ca2+  Ca18  1  0.58529318  0.33128363  0.16026111  1
  Ca2+  Ca19  1  0.58163034  0.33214595  0.50143055  1
  Ca2+  Ca20  1  0.58137520  0.33158897  0.81904666  1
  Ca2+  Ca21  1  0.57664617  0.84472308  0.16429523  1
  Ca2+  Ca22  1  0.57988607  0.84412905  0.49465609  1
  Ca2+  Ca23  1  0.58077762  0.84184965  0.83019181  1
  Ca2+  Ca24  1  0.31925088  0.41758649  0.17237400  1
  Ca2+  Ca25  1  0.32763521  0.41279690  0.50406002  1
  Ca2+  Ca26  1  0.32967074  0.41540235  0.83691975  1
  Ca2+  Ca27  1  0.33785154  0.91974470  0.17563292  1
  Ca2+  Ca28  1  0.32763999  0.92547585  0.50531986  1
  Ca2+  Ca29  1  0.32927415  0.92010348  0.83282049  1
  Ca2+  Ca30  1  0.83261098  0.41952145  0.17608007  1
  Ca2+  Ca31  1  0.83902446  0.42591829  0.50395964  1
  Ca2+  Ca32  1  0.82519991  0.41996683  0.83462671  1
  Ca2+  Ca33  1  0.82420883  0.91486815  0.17296171  1
  Ca2+  Ca34  1  0.82540694  0.91473337  0.50695083  1
  Ca2+  Ca35  1  0.82601394  0.90878544  0.83625753  1
  Ca2+  Ca36  1  0.41677278  0.16424878  0.16663250  1
  Ca2+  Ca37  1  0.41839403  0.16173955  0.50178220  1
  Ca2+  Ca38  1  0.42282325  0.17330426  0.81950635  1
  Ca2+  Ca39  1  0.41815717  0.68187703  0.16246104  1
  Ca2+  Ca40  1  0.42175037  0.67551291  0.49231021  1
  Ca2+  Ca41  1  0.41823516  0.67254898  0.83008859  1
  Ca2+  Ca42  1  0.91761853  0.16577554  0.17008034  1
  Ca2+  Ca43  1  0.92632776  0.16804841  0.49033902  1
  Ca2+  Ca44  1  0.92358926  0.16954859  0.82370681  1
  Ca2+  Ca45  1  0.91726035  0.66664168  0.16782981  1
  Ca2+  Ca46  1  0.92042773  0.66521562  0.49855203  1
  Ca2+  Ca47  1  0.91723457  0.67506770  0.82487088  1
  Al0+  Al48  1  0.00192207  0.00040857  -0.00423878  1
  Al0+  Al49  1  0.00039815  -0.00170808  0.33019801  1
  Al0+  Al50  1  -0.00025828  -0.00066333  0.66127678  1
  Al0+  Al51  1  0.00016785  0.49780682  0.00237911  1
  Al0+  Al52  1  -0.00064102  0.49847447  0.33366882  1
  Al0+  Al53  1  0.00041379  0.50163902  0.67153120  1
  Al0+  Al54  1  0.50055036  0.00130545  -0.00165722  1
  Al0+  Al55  1  0.49868786  0.00167882  0.33583242  1
  Al0+  Al56  1  0.49979091  0.00323748  0.67027594  1
  Al0+  Al57  1  0.49889228  0.50141359  0.00556188  1
  Al0+  Al58  1  0.49847577  0.50047503  0.32989716  1
  Al0+  Al59  1  0.49818555  0.50138852  0.66476316  1
  Al0+  Al60  1  0.25111539  0.25049325  0.00428501  1
  Al0+  Al61  1  0.25054515  0.24994851  0.33665490  1
  Al0+  Al62  1  0.25110277  0.25121569  0.66473464  1
  Al0+  Al63  1  0.25099203  0.75102208  -0.00523797  1
  Al0+  Al64  1  0.25138468  0.74904372  0.32285150  1
  Al0+  Al65  1  0.24910360  0.74983964  0.66716147  1
  Al0+  Al66  1  0.75165176  0.24935399  0.00192516  1
  Al0+  Al67  1  0.74910297  0.24827302  0.33224762  1
  Al0+  Al68  1  0.74897186  0.24932329  0.66456985  1
  Al0+  Al69  1  0.74861818  0.74867975  0.00158870  1
  Al0+  Al70  1  0.74831179  0.74628373  0.34065733  1
  Al0+  Al71  1  0.74954645  0.74999880  0.67265651  1
  Al0+  Al72  1  0.07194225  0.67827256  0.65214234  1
  Al0+  Al73  1  0.31945314  0.07233000  0.68380761  1
  Al0+  Al74  1  0.07353873  0.17640322  0.31668873  1
  Al0+  Al75  1  0.57228618  0.17783812  0.64961730  1
  Al0+  Al76  1  0.07054949  0.17993273  0.65368269  1
  Al0+  Al77  1  0.42905865  0.32349759  0.65091664  1
  Al0+  Al78  1  0.82028168  0.56821869  0.34750741  1
  Al0+  Al79  1  0.67967104  0.92998058  0.01420951  1
  Al0+  Al80  1  0.92834549  0.82069848  0.98721365  1
  Al0+  Al81  1  0.92588218  0.82074973  0.64995869  1
  Al0+  Al82  1  0.82373726  0.07165621  0.34839649  1
  Al0+  Al83  1  0.67825829  0.42736475  0.01408403  1
  Al0+  Al84  1  0.06975282  0.67913431  0.31839455  1
  Al0+  Al85  1  0.31913546  0.07034589  0.34746322  1
  Al0+  Al86  1  0.68005690  0.92951465  0.34857622  1
  Al0+  Al87  1  0.43209634  0.82168508  0.32095551  1
  Al0+  Al88  1  0.92870886  0.31957595  0.31852835  1
  Al0+  Al89  1  0.43008955  0.82313849  0.98297493  1
  Al0+  Al90  1  0.18007077  0.42914130  0.01469699  1
  Al0+  Al91  1  0.82337791  0.57096660  0.68513165  1
  Al0+  Al92  1  0.67795933  0.42867843  0.67915646  1
  Al0+  Al93  1  0.17767079  0.92726608  0.68090121  1
  Al0+  Al94  1  0.18048824  0.43148523  0.34911463  1
  Al0+  Al95  1  0.67955048  0.93063443  0.68207540  1
  Si0+  Si96  1  0.56943395  0.17970026  0.31652123  1
  Si0+  Si97  1  0.82377566  0.07268246  0.68255639  1
  Si0+  Si98  1  0.32181392  0.57528909  0.01811144  1
  Si0+  Si99  1  0.57332351  0.67598919  0.31626833  1
  Si0+  Si100  1  0.42857523  0.32296286  0.31569356  1
  Si0+  Si101  1  0.92462348  0.82078815  0.31730860  1
  Si0+  Si102  1  0.57005352  0.67896968  0.65291167  1
  Si0+  Si103  1  0.67435706  0.42597273  0.34944516  1
  Si0+  Si104  1  0.82104949  0.57026008  0.01809436  1
  Si0+  Si105  1  0.42897149  0.32112376  0.98785671  1
  Si0+  Si106  1  0.18046376  0.42983653  0.68124948  1
  Si0+  Si107  1  0.57092834  0.67607182  0.98254566  1
  Si0+  Si108  1  0.42965792  0.82172236  0.65248559  1
  Si0+  Si109  1  0.32228759  0.57313031  0.68104237  1
  Si0+  Si110  1  0.07092026  0.67619492  0.98330609  1
  Si0+  Si111  1  0.17759753  0.92398965  0.34598422  1
  Si0+  Si112  1  0.07375306  0.18030018  0.98476406  1
  Si0+  Si113  1  0.92754513  0.32260222  0.65238204  1
  Si0+  Si114  1  0.32262816  0.57355047  0.34911536  1
  Si0+  Si115  1  0.17787735  0.92839724  0.01438300  1
  Si0+  Si116  1  0.82582721  0.07243511  0.01550599  1
  Si0+  Si117  1  0.92900328  0.32091927  0.98414464  1
  Si0+  Si118  1  0.57167580  0.18104920  0.98622296  1
  Si0+  Si119  1  0.31974184  0.06946399  0.01494237  1
  O2-  O120  1  0.25119145  -0.00348833  0.05790877  1
  O2-  O121  1  0.23999306  -0.00145488  0.39001738  1
  O2-  O122  1  0.24779556  0.00011567  0.73403380  1
  O2-  O123  1  0.25085757  0.50814046  0.06099541  1
  O2-  O124  1  0.25463758  0.50649973  0.39632715  1
  O2-  O125  1  0.25093704  0.50186765  0.72288796  1
  O2-  O126  1  0.75897622  0.00093543  0.05832830  1
  O2-  O127  1  0.75621115  -0.00379477  0.39904595  1
  O2-  O128  1  0.75576878  0.00416097  0.72886948  1
  O2-  O129  1  0.75285994  0.50073320  0.06219177  1
  O2-  O130  1  0.74461038  0.49317569  0.39210148  1
  O2-  O131  1  0.75100188  0.49748806  0.73235838  1
  O2-  O132  1  -0.00133425  0.24576372  0.26635220  1
  O2-  O133  1  -0.00617028  0.25226296  0.60813120  1
  O2-  O134  1  0.00074174  0.24994687  0.94301388  1
  O2-  O135  1  -0.00369840  0.75530070  0.27196536  1
  O2-  O136  1  -0.00037629  0.74940396  0.60189490  1
  O2-  O137  1  0.00372423  0.74636478  0.94032126  1
  O2-  O138  1  0.50179470  0.25420647  0.27301533  1
  O2-  O139  1  0.50133774  0.25195912  0.60078917  1
  O2-  O140  1  0.50555127  0.25723790  0.94515901  1
  O2-  O141  1  0.50759312  0.74803612  0.27269417  1
  O2-  O142  1  0.50326288  0.75378482  0.61007682  1
  O2-  O143  1  0.50448582  0.74713988  0.93753474  1
  O2-  O144  1  0.07549424  0.17987862  0.08931813  1
  O2-  O145  1  0.07560763  0.18095952  0.42988148  1
  O2-  O146  1  0.07042359  0.18429355  0.76797516  1
  O2-  O147  1  0.06981142  0.67603414  0.08903857  1
  O2-  O148  1  0.07037941  0.68022648  0.43079412  1
  O2-  O149  1  0.07198261  0.67788674  0.76622544  1
  O2-  O150  1  0.56911461  0.18030309  0.09163684  1
  O2-  O151  1  0.56772645  0.17927233  0.42086711  1
  O2-  O152  1  0.56988052  0.17897669  0.76428277  1
  O2-  O153  1  0.56847216  0.67401305  0.08806109  1
  O2-  O154  1  0.57015242  0.67217598  0.42168304  1
  O2-  O155  1  0.56548180  0.67678519  0.75828616  1
  O2-  O156  1  0.18219191  0.43211534  0.23555231  1
  O2-  O157  1  0.18038738  0.43011425  0.57660550  1
  O2-  O158  1  0.18324781  0.42697610  0.90132371  1
  O2-  O159  1  0.18152039  0.92380516  0.23949819  1
  O2-  O160  1  0.18295126  0.92384486  0.56753169  1
  O2-  O161  1  0.17713809  0.93081681  0.90978352  1
  O2-  O162  1  0.67373021  0.42837549  0.24305804  1
  O2-  O163  1  0.67685823  0.43324233  0.56593163  1
  O2-  O164  1  0.67860405  0.42699349  0.90153746  1
  O2-  O165  1  0.67900244  0.93216090  0.23441401  1
  O2-  O166  1  0.67786333  0.93109340  0.56955231  1
  O2-  O167  1  0.67794144  0.93383814  0.90141861  1
  O2-  O168  1  0.42731335  0.31673973  0.09304717  1
  O2-  O169  1  0.42941510  0.32598007  0.42001818  1
  O2-  O170  1  0.42872534  0.32379564  0.76565906  1
  O2-  O171  1  0.43126246  0.82439883  0.09607194  1
  O2-  O172  1  0.43201919  0.82021337  0.43410328  1
  O2-  O173  1  0.42998177  0.81921040  0.75799768  1
  O2-  O174  1  0.92765802  0.32163621  0.08869225  1
  O2-  O175  1  0.93198687  0.32085490  0.43194875  1
  O2-  O176  1  0.92970228  0.32134022  0.75897112  1
  O2-  O177  1  0.93054194  0.81994718  0.10051582  1
  O2-  O178  1  0.92362602  0.81904095  0.42223950  1
  O2-  O179  1  0.92628560  0.81878166  0.76428911  1
  O2-  O180  1  0.32161331  0.06832832  0.23318755  1
  O2-  O181  1  0.31896698  0.06982346  0.57048780  1
  O2-  O182  1  0.31802268  0.07194720  0.91049484  1
  O2-  O183  1  0.32285641  0.57038252  0.24337365  1
  O2-  O184  1  0.32452755  0.57457589  0.57637721  1
  O2-  O185  1  0.32346456  0.57386393  0.91220558  1
  O2-  O186  1  0.81886633  0.07113906  0.23401185  1
  O2-  O187  1  0.82241577  0.07230908  0.57744932  1
  O2-  O188  1  0.82572019  0.07648197  0.91017263  1
  O2-  O189  1  0.81783162  0.56810484  0.23377450  1
  O2-  O190  1  0.82370259  0.56862366  0.57162919  1
  O2-  O191  1  0.82098638  0.56843361  0.91290309  1
  O2-  O192  1  0.05018493  0.07614668  0.26317410  1
  O2-  O193  1  0.04566436  0.08296445  0.59943187  1
  O2-  O194  1  0.04857412  0.08833118  0.93642140  1
  O2-  O195  1  0.03548669  0.58360701  0.26434832  1
  O2-  O196  1  0.04364493  0.57866805  0.60143604  1
  O2-  O197  1  0.04526105  0.58178189  0.93837350  1
  O2-  O198  1  0.53575844  0.09018200  0.26768000  1
  O2-  O199  1  0.53884838  0.08072574  0.59688729  1
  O2-  O200  1  0.53844691  0.09197645  0.93749455  1
  O2-  O201  1  0.54452505  0.58417410  0.26649682  1
  O2-  O202  1  0.53816653  0.59055276  0.60240799  1
  O2-  O203  1  0.54099442  0.58314142  0.93585410  1
  O2-  O204  1  0.17180176  0.20965879  0.26433509  1
  O2-  O205  1  0.16574094  0.21375113  0.60059969  1
  O2-  O206  1  0.16483589  0.21234351  0.93772816  1
  O2-  O207  1  0.16633754  0.70574803  0.26089722  1
  O2-  O208  1  0.17125832  0.70444154  0.59910890  1
  O2-  O209  1  0.16608729  0.69831263  0.93913264  1
  O2-  O210  1  0.66145665  0.20389618  0.26747519  1
  O2-  O211  1  0.67115531  0.20326026  0.59646524  1
  O2-  O212  1  0.66563138  0.20283140  0.94053917  1
  O2-  O213  1  0.66800423  0.69827195  0.27145401  1
  O2-  O214  1  0.66358968  0.70301294  0.60899741  1
  O2-  O215  1  0.66566945  0.69818215  0.93852280  1
  O2-  O216  1  0.08209226  0.45594752  0.06820826  1
  O2-  O217  1  0.08422629  0.46146767  0.40182928  1
  O2-  O218  1  0.08968122  0.45638712  0.73161021  1
  O2-  O219  1  0.08713852  0.95838213  0.06272112  1
  O2-  O220  1  0.08117451  0.94017286  0.38789517  1
  O2-  O221  1  0.07835510  0.95598022  0.73233927  1
  O2-  O222  1  0.58110756  0.45647918  0.06896830  1
  O2-  O223  1  0.58012679  0.45264051  0.39301038  1
  O2-  O224  1  0.57957282  0.46057231  0.73209985  1
  O2-  O225  1  0.58389936  0.96654932  0.06728691  1
  O2-  O226  1  0.58348487  0.96448622  0.40040173  1
  O2-  O227  1  0.58370668  0.96374125  0.73689622  1
  O2-  O228  1  0.21586174  0.33485529  0.07068264  1
  O2-  O229  1  0.21372783  0.33581663  0.40196208  1
  O2-  O230  1  0.21057687  0.33967965  0.73046139  1
  O2-  O231  1  0.20284566  0.83433633  0.05878267  1
  O2-  O232  1  0.21064989  0.83241675  0.39094693  1
  O2-  O233  1  0.20836964  0.82988624  0.73620426  1
  O2-  O234  1  0.70858266  0.33038722  0.06813918  1
  O2-  O235  1  0.69599754  0.33101806  0.39213363  1
  O2-  O236  1  0.70288393  0.32871119  0.73135270  1
  O2-  O237  1  0.70387484  0.83086774  0.06660729  1
  O2-  O238  1  0.69906343  0.82862858  0.39951438  1
  O2-  O239  1  0.70571591  0.83343682  0.73740150  1
  O2-  O240  1  0.45287756  0.41524902  0.26598548  1
  O2-  O241  1  0.45438775  0.42237417  0.59680442  1
  O2-  O242  1  0.44862285  0.41665788  0.94463834  1
  O2-  O243  1  0.46321481  0.91828807  0.26568661  1
  O2-  O244  1  0.45587565  0.91459761  0.60802024  1
  O2-  O245  1  0.46195756  0.91958029  0.92921253  1
  O2-  O246  1  0.96099332  0.41613198  0.26347874  1
  O2-  O247  1  0.95669357  0.41585037  0.60924366  1
  O2-  O248  1  0.95743453  0.41252769  0.93644928  1
  O2-  O249  1  0.94601257  0.91503015  0.27048697  1
  O2-  O250  1  0.95167386  0.91921069  0.59738152  1
  O2-  O251  1  0.95833321  0.91759267  0.93281028  1
  O2-  O252  1  0.33799400  0.29092449  0.26849950  1
  O2-  O253  1  0.33160565  0.29418139  0.59788413  1
  O2-  O254  1  0.33914011  0.28803232  0.93933599  1
  O2-  O255  1  0.33803538  0.79019151  0.26124066  1
  O2-  O256  1  0.33920277  0.79067575  0.60579782  1
  O2-  O257  1  0.33300014  0.79302600  0.92867591  1
  O2-  O258  1  0.82846309  0.29453987  0.26520629  1
  O2-  O259  1  0.83328667  0.30235844  0.60705204  1
  O2-  O260  1  0.83746123  0.29200801  0.93608747  1
  O2-  O261  1  0.83157640  0.78961181  0.27203000  1
  O2-  O262  1  0.82672084  0.79046254  0.59998553  1
  O2-  O263  1  0.83084653  0.78980093  0.93503598  1
  O2-  O264  1  0.41244001  0.04316553  0.06145583  1
  O2-  O265  1  0.41361587  0.03674138  0.40214564  1
  O2-  O266  1  0.41730082  0.04398162  0.73748506  1
  O2-  O267  1  0.41401807  0.54910219  0.06639158  1
  O2-  O268  1  0.41687604  0.54817409  0.39425225  1
  O2-  O269  1  0.41247639  0.54472813  0.73160162  1
  O2-  O270  1  0.92071178  0.04953183  0.06032481  1
  O2-  O271  1  0.92558758  0.05030692  0.39644524  1
  O2-  O272  1  0.91792769  0.04904438  0.72829244  1
  O2-  O273  1  0.91487990  0.54389210  0.06337673  1
  O2-  O274  1  0.91553876  0.53604071  0.40155166  1
  O2-  O275  1  0.92085212  0.54270070  0.74086532  1
  O2-  O276  1  0.29086026  0.16031228  0.06425102  1
  O2-  O277  1  0.29400391  0.16765712  0.40125470  1
  O2-  O278  1  0.29047262  0.17145692  0.73630427  1
  O2-  O279  1  0.29806309  0.67040106  0.06225725  1
  O2-  O280  1  0.29880333  0.66868739  0.39181730  1
  O2-  O281  1  0.29429591  0.66339376  0.73168116  1
  O2-  O282  1  0.79725335  0.16443504  0.06364508  1
  O2-  O283  1  0.79197462  0.16935549  0.40038800  1
  O2-  O284  1  0.79907305  0.16691401  0.72880900  1
  O2-  O285  1  0.79433183  0.66310788  0.06489558  1
  O2-  O286  1  0.78959529  0.66268528  0.40479499  1
  O2-  O287  1  0.79086447  0.66728288  0.73901707  1
