# generated using pymatgen
data_Ca2Al2SiO7
_symmetry_space_group_name_H-M   'P 1'
_cell_length_a   15.46646685
_cell_length_b   15.46427915
_cell_length_c   15.28809967
_cell_angle_alpha   89.99638725
_cell_angle_beta   89.99479990
_cell_angle_gamma   89.96549020
_symmetry_Int_Tables_number   1
_chemical_formula_structural   Ca2Al2SiO7
_chemical_formula_sum   'Ca48 Al48 Si24 O168'
_cell_volume   3656.57276106
_cell_formula_units_Z   24
loop_
 _symmetry_equiv_pos_site_id
 _symmetry_equiv_pos_as_xyz
  1  'x, y, z'
loop_
 _atom_type_symbol
 _atom_type_oxidation_number
  Ca2+  2.0
  Al0+  0.0
  Si0+  0.0
  O2-  -2.0
loop_
 _atom_site_type_symbol
 _atom_site_label
 _atom_site_symmetry_multiplicity
 _atom_site_fract_x
 _atom_site_fract_y
 _atom_site_fract_z
 _atom_site_occupancy
  Ca2+  Ca0  1  0.16635090  0.08343499  0.17181295  1
  Ca2+  Ca1  1  0.16018866  0.07636215  0.49990483  1
  Ca2+  Ca2  1  0.17569920  0.08366952  0.84568459  1
  Ca2+  Ca3  1  0.17804887  0.58557647  0.17385089  1
  Ca2+  Ca4  1  0.17471349  0.58694385  0.50435284  1
  Ca2+  Ca5  1  0.17603945  0.58410330  0.83559763  1
  Ca2+  Ca6  1  0.65636455  0.08004996  0.16790712  1
  Ca2+  Ca7  1  0.66259669  0.09059717  0.50278760  1
  Ca2+  Ca8  1  0.65876681  0.08098829  0.84358056  1
  Ca2+  Ca9  1  0.67006774  0.57593306  0.17450313  1
  Ca2+  Ca10  1  0.67022508  0.58654585  0.49763392  1
  Ca2+  Ca11  1  0.66656213  0.57302410  0.84365186  1
  Ca2+  Ca12  1  0.07331626  0.33011708  0.16110050  1
  Ca2+  Ca13  1  0.07779260  0.32830885  0.48849768  1
  Ca2+  Ca14  1  0.08354721  0.33003717  0.83750617  1
  Ca2+  Ca15  1  0.08307445  0.83030420  0.16494670  1
  Ca2+  Ca16  1  0.08855682  0.82213425  0.49283788  1
  Ca2+  Ca17  1  0.07929704  0.82786754  0.83154795  1
  Ca2+  Ca18  1  0.57647531  0.32637580  0.16082066  1
  Ca2+  Ca19  1  0.57444198  0.32752721  0.49432788  1
  Ca2+  Ca20  1  0.57613324  0.32886907  0.83358401  1
  Ca2+  Ca21  1  0.58214174  0.82532991  0.15916235  1
  Ca2+  Ca22  1  0.57350046  0.82656935  0.49564251  1
  Ca2+  Ca23  1  0.57096662  0.83832611  0.83384756  1
  Ca2+  Ca24  1  0.34199827  0.42442436  0.17146655  1
  Ca2+  Ca25  1  0.34344703  0.42548663  0.50252517  1
  Ca2+  Ca26  1  0.34485207  0.42640595  0.83962280  1
  Ca2+  Ca27  1  0.33282649  0.92463419  0.16800908  1
  Ca2+  Ca28  1  0.32806678  0.91397289  0.50200749  1
  Ca2+  Ca29  1  0.33941586  0.92176914  0.84326370  1
  Ca2+  Ca30  1  0.83001660  0.41091796  0.17125033  1
  Ca2+  Ca31  1  0.83782825  0.42035336  0.49891246  1
  Ca2+  Ca32  1  0.82611528  0.41449239  0.84357407  1
  Ca2+  Ca33  1  0.82935159  0.91345821  0.16738354  1
  Ca2+  Ca34  1  0.82878992  0.91990197  0.50245927  1
  Ca2+  Ca35  1  0.82488481  0.91746356  0.84519447  1
  Ca2+  Ca36  1  0.41863511  0.17757875  0.15751016  1
  Ca2+  Ca37  1  0.42456081  0.17870367  0.49298378  1
  Ca2+  Ca38  1  0.42296341  0.17433861  0.83036620  1
  Ca2+  Ca39  1  0.41610600  0.66770921  0.16282274  1
  Ca2+  Ca40  1  0.41305656  0.66798412  0.49451169  1
  Ca2+  Ca41  1  0.40608256  0.67602497  0.83100158  1
  Ca2+  Ca42  1  0.92768079  0.17318684  0.16319506  1
  Ca2+  Ca43  1  0.92123617  0.17526441  0.48842449  1
  Ca2+  Ca44  1  0.91867081  0.17028304  0.83800218  1
  Ca2+  Ca45  1  0.92099205  0.66682856  0.16391485  1
  Ca2+  Ca46  1  0.92945777  0.66185093  0.49093967  1
  Ca2+  Ca47  1  0.92144756  0.67211808  0.83056076  1
  Al0+  Al48  1  -0.00073405  -0.00254361  -0.00811759  1
  Al0+  Al49  1  -0.00232720  -0.00084903  0.33710526  1
  Al0+  Al50  1  -0.00270048  -0.00031906  0.66940449  1
  Al0+  Al51  1  0.00188612  0.50010470  -0.00524542  1
  Al0+  Al52  1  0.00067203  0.50149110  0.32853527  1
  Al0+  Al53  1  0.00154050  0.50048385  0.66600253  1
  Al0+  Al54  1  0.49881670  -0.00238367  0.00465498  1
  Al0+  Al55  1  0.49798877  -0.00112220  0.33561767  1
  Al0+  Al56  1  0.49906838  -0.00169765  0.65764110  1
  Al0+  Al57  1  0.50367532  0.49969728  0.00693614  1
  Al0+  Al58  1  0.50232397  0.50164007  0.33287965  1
  Al0+  Al59  1  0.50252762  0.50149792  0.66970080  1
  Al0+  Al60  1  0.25019633  0.25257929  -0.00344268  1
  Al0+  Al61  1  0.25102565  0.25030065  0.32862990  1
  Al0+  Al62  1  0.24881654  0.25011868  0.66265006  1
  Al0+  Al63  1  0.25083148  0.74983251  0.00066438  1
  Al0+  Al64  1  0.24837162  0.75130447  0.33653819  1
  Al0+  Al65  1  0.24806813  0.74972780  0.66410590  1
  Al0+  Al66  1  0.75171613  0.24838335  -0.00105969  1
  Al0+  Al67  1  0.74839563  0.24862687  0.32910396  1
  Al0+  Al68  1  0.75212152  0.25028863  0.66500279  1
  Al0+  Al69  1  0.75114975  0.74998765  -0.00094781  1
  Al0+  Al70  1  0.74878425  0.74934077  0.33696824  1
  Al0+  Al71  1  0.75010270  0.75251153  0.66879996  1
  Al0+  Al72  1  0.06826716  0.68052490  0.65256588  1
  Al0+  Al73  1  0.56930732  0.17718505  0.98657323  1
  Al0+  Al74  1  0.32039500  0.57104643  0.01458603  1
  Al0+  Al75  1  0.07120313  0.17565909  0.32033678  1
  Al0+  Al76  1  0.57186833  0.68102818  0.32021887  1
  Al0+  Al77  1  0.07210474  0.68005072  0.31837016  1
  Al0+  Al78  1  0.92872497  0.32191637  0.98342939  1
  Al0+  Al79  1  0.42958540  0.81835391  0.98920652  1
  Al0+  Al80  1  0.92936363  0.32271507  0.31884623  1
  Al0+  Al81  1  0.57022928  0.17676633  0.31675816  1
  Al0+  Al82  1  0.68147206  0.42685552  0.01517413  1
  Al0+  Al83  1  0.57146102  0.17934634  0.65202888  1
  Al0+  Al84  1  0.42908696  0.32307820  0.31740213  1
  Al0+  Al85  1  0.32035672  0.07244577  0.01229927  1
  Al0+  Al86  1  0.42861633  0.81947593  0.65220590  1
  Al0+  Al87  1  0.32098617  0.57033864  0.68080892  1
  Al0+  Al88  1  0.07246848  0.17807050  0.98427278  1
  Al0+  Al89  1  0.42930710  0.32471993  0.98472281  1
  Al0+  Al90  1  0.92779485  0.81944498  0.98681189  1
  Al0+  Al91  1  0.42806037  0.32446108  0.65140644  1
  Al0+  Al92  1  0.32141924  0.56979485  0.34785823  1
  Al0+  Al93  1  0.67865517  0.92910420  0.01434087  1
  Al0+  Al94  1  0.17802679  0.93175122  0.34688518  1
  Al0+  Al95  1  0.82211990  0.57107455  0.34665978  1
  Si0+  Si96  1  0.67781409  0.93015510  0.68187994  1
  Si0+  Si97  1  0.93021134  0.32026207  0.65174703  1
  Si0+  Si98  1  0.42604645  0.82061118  0.31634086  1
  Si0+  Si99  1  0.82397129  0.57197055  0.01498437  1
  Si0+  Si100  1  0.82053511  0.07207072  0.68293895  1
  Si0+  Si101  1  0.92606669  0.82310889  0.64832183  1
  Si0+  Si102  1  0.32259934  0.07396031  0.35212486  1
  Si0+  Si103  1  0.17632702  0.42880164  0.01715265  1
  Si0+  Si104  1  0.17785691  0.42745422  0.34828248  1
  Si0+  Si105  1  0.82410500  0.07024126  0.01782498  1
  Si0+  Si106  1  0.07078232  0.17681344  0.65161725  1
  Si0+  Si107  1  0.57335370  0.67762563  0.98416733  1
  Si0+  Si108  1  0.17770137  0.92887743  0.68300009  1
  Si0+  Si109  1  0.82361186  0.57176765  0.68191502  1
  Si0+  Si110  1  0.68216537  0.42924874  0.68127929  1
  Si0+  Si111  1  0.31983403  0.06987827  0.67944185  1
  Si0+  Si112  1  0.17656972  0.92811475  0.01472149  1
  Si0+  Si113  1  0.68014011  0.42699441  0.35229647  1
  Si0+  Si114  1  0.57521428  0.67788926  0.65184611  1
  Si0+  Si115  1  0.17601035  0.42634762  0.68337671  1
  Si0+  Si116  1  0.81862872  0.07008070  0.34853069  1
  Si0+  Si117  1  0.67683044  0.92733476  0.35075337  1
  Si0+  Si118  1  0.07373305  0.67865834  0.98263243  1
  Si0+  Si119  1  0.92649547  0.82161785  0.31886348  1
  O2-  O120  1  0.24095014  0.00120220  0.05766718  1
  O2-  O121  1  0.25063014  0.00773447  0.39608993  1
  O2-  O122  1  0.24762024  0.00074359  0.72438124  1
  O2-  O123  1  0.24732933  0.49481421  0.06106382  1
  O2-  O124  1  0.24863931  0.49279719  0.39465610  1
  O2-  O125  1  0.24989615  0.49073982  0.72615138  1
  O2-  O126  1  0.75247418  0.00445067  0.06205245  1
  O2-  O127  1  0.74453507  0.00229308  0.39232731  1
  O2-  O128  1  0.74716463  0.00300914  0.72404948  1
  O2-  O129  1  0.75903944  0.50048012  0.05934667  1
  O2-  O130  1  0.75045102  0.49467430  0.39660908  1
  O2-  O131  1  0.75095836  0.50311912  0.72399810  1
  O2-  O132  1  0.00404307  0.25222203  0.27163215  1
  O2-  O133  1  0.00210598  0.25011675  0.61005936  1
  O2-  O134  1  0.00093641  0.25024125  0.93284803  1
  O2-  O135  1  -0.00496702  0.75340908  0.27435456  1
  O2-  O136  1  -0.00698102  0.75418632  0.60382966  1
  O2-  O137  1  0.00220937  0.74524600  0.93937353  1
  O2-  O138  1  0.49701958  0.24708221  0.26828263  1
  O2-  O139  1  0.49947529  0.25116444  0.60284722  1
  O2-  O140  1  0.49871634  0.24958829  0.93560044  1
  O2-  O141  1  0.49643218  0.75381407  0.27277810  1
  O2-  O142  1  0.50196071  0.74210018  0.60825896  1
  O2-  O143  1  0.50254752  0.74354989  0.93925906  1
  O2-  O144  1  0.06925535  0.17687532  0.09730514  1
  O2-  O145  1  0.06524575  0.17548482  0.43493188  1
  O2-  O146  1  0.07015380  0.17493548  0.75626069  1
  O2-  O147  1  0.07446949  0.68016627  0.08793307  1
  O2-  O148  1  0.07136918  0.68165148  0.43176183  1
  O2-  O149  1  0.06593375  0.68328360  0.76571754  1
  O2-  O150  1  0.56628364  0.17741373  0.09953575  1
  O2-  O151  1  0.57068193  0.17983991  0.43074305  1
  O2-  O152  1  0.57146370  0.17778310  0.76503848  1
  O2-  O153  1  0.57520349  0.68069877  0.08956411  1
  O2-  O154  1  0.57272483  0.68439944  0.43383197  1
  O2-  O155  1  0.58014744  0.67993617  0.75713324  1
  O2-  O156  1  0.17624756  0.43084426  0.24296136  1
  O2-  O157  1  0.16956008  0.42781390  0.57822251  1
  O2-  O158  1  0.17312950  0.43246866  0.91118028  1
  O2-  O159  1  0.17789631  0.93141118  0.23402725  1
  O2-  O160  1  0.17601527  0.93025685  0.57788765  1
  O2-  O161  1  0.17852851  0.92674361  0.90855504  1
  O2-  O162  1  0.68139835  0.42782747  0.24693740  1
  O2-  O163  1  0.68480387  0.42854886  0.57647988  1
  O2-  O164  1  0.68188517  0.43039484  0.90097392  1
  O2-  O165  1  0.67884393  0.92445593  0.24611952  1
  O2-  O166  1  0.68135160  0.92779423  0.57671587  1
  O2-  O167  1  0.67969484  0.92949690  0.90056427  1
  O2-  O168  1  0.43133791  0.32491321  0.09767133  1
  O2-  O169  1  0.43218312  0.32328307  0.43146678  1
  O2-  O170  1  0.43066875  0.32410359  0.76457086  1
  O2-  O171  1  0.42969096  0.81740749  0.10188703  1
  O2-  O172  1  0.42737807  0.81942859  0.42255639  1
  O2-  O173  1  0.43037590  0.82230309  0.76527947  1
  O2-  O174  1  0.93063048  0.32184078  0.09633360  1
  O2-  O175  1  0.93026191  0.32037014  0.43368016  1
  O2-  O176  1  0.92841954  0.31913725  0.75642377  1
  O2-  O177  1  0.92786202  0.81810362  0.09981584  1
  O2-  O178  1  0.92646330  0.82173594  0.42483901  1
  O2-  O179  1  0.92528589  0.82273112  0.75378041  1
  O2-  O180  1  0.32472938  0.07028300  0.24682052  1
  O2-  O181  1  0.31627796  0.06813637  0.57453210  1
  O2-  O182  1  0.32103018  0.06823576  0.89819825  1
  O2-  O183  1  0.31945702  0.57205747  0.23499284  1
  O2-  O184  1  0.31851431  0.57174284  0.56784818  1
  O2-  O185  1  0.31700396  0.57359195  0.90103550  1
  O2-  O186  1  0.82210271  0.06672375  0.24419290  1
  O2-  O187  1  0.82323737  0.07073854  0.57775275  1
  O2-  O188  1  0.82439745  0.06744327  0.91151897  1
  O2-  O189  1  0.81902435  0.57399235  0.23409764  1
  O2-  O190  1  0.82480533  0.57046132  0.57697997  1
  O2-  O191  1  0.82122264  0.57263261  0.90854212  1
  O2-  O192  1  0.03637957  0.07927814  0.26814804  1
  O2-  O193  1  0.03890797  0.08515136  0.60537796  1
  O2-  O194  1  0.04419882  0.08018020  0.92919908  1
  O2-  O195  1  0.04299684  0.58482127  0.26317398  1
  O2-  O196  1  0.03867017  0.58335174  0.59897767  1
  O2-  O197  1  0.05067591  0.58545839  0.93498240  1
  O2-  O198  1  0.54580971  0.07503700  0.26975211  1
  O2-  O199  1  0.54503969  0.08126418  0.59749715  1
  O2-  O200  1  0.53995496  0.07828869  0.93536035  1
  O2-  O201  1  0.54607979  0.58388481  0.26737507  1
  O2-  O202  1  0.55543149  0.58303623  0.60734510  1
  O2-  O203  1  0.54993574  0.58324334  0.94040061  1
  O2-  O204  1  0.17186874  0.19495029  0.27105169  1
  O2-  O205  1  0.16251250  0.20044426  0.60297364  1
  O2-  O206  1  0.16928457  0.20804537  0.92877592  1
  O2-  O207  1  0.16681330  0.71557301  0.26489947  1
  O2-  O208  1  0.16322312  0.71336067  0.59775252  1
  O2-  O209  1  0.16475758  0.70949945  0.93468088  1
  O2-  O210  1  0.66900417  0.20207473  0.26498106  1
  O2-  O211  1  0.67122289  0.20788974  0.60018230  1
  O2-  O212  1  0.66984052  0.20121868  0.93624949  1
  O2-  O213  1  0.66762571  0.71384856  0.26637830  1
  O2-  O214  1  0.66724140  0.70883223  0.60389488  1
  O2-  O215  1  0.66598722  0.70390875  0.93657779  1
  O2-  O216  1  0.08302515  0.45694998  0.06332394  1
  O2-  O217  1  0.08463376  0.45519704  0.39481915  1
  O2-  O218  1  0.08474418  0.45765713  0.73275918  1
  O2-  O219  1  0.08062117  0.94843665  0.05769561  1
  O2-  O220  1  0.08093845  0.95926670  0.40454807  1
  O2-  O221  1  0.08426297  0.95477972  0.72949249  1
  O2-  O222  1  0.58816728  0.46046604  0.07262264  1
  O2-  O223  1  0.58842022  0.45758038  0.39916293  1
  O2-  O224  1  0.59091770  0.45556034  0.73018557  1
  O2-  O225  1  0.58317009  0.95628278  0.07121652  1
  O2-  O226  1  0.58385624  0.95124815  0.39860196  1
  O2-  O227  1  0.58418474  0.95626011  0.72609023  1
  O2-  O228  1  0.19684591  0.33350436  0.06027489  1
  O2-  O229  1  0.19833059  0.33149358  0.39301719  1
  O2-  O230  1  0.19575385  0.33001396  0.72697963  1
  O2-  O231  1  0.20600356  0.83647028  0.06181975  1
  O2-  O232  1  0.21187028  0.83691395  0.40377837  1
  O2-  O233  1  0.20531076  0.83719125  0.72934577  1
  O2-  O234  1  0.71176471  0.32993959  0.06819319  1
  O2-  O235  1  0.70539904  0.33263143  0.39774735  1
  O2-  O236  1  0.71458376  0.33864841  0.72890369  1
  O2-  O237  1  0.71269542  0.83248379  0.06731491  1
  O2-  O238  1  0.70932778  0.83876194  0.40209885  1
  O2-  O239  1  0.70703231  0.83913654  0.73105534  1
  O2-  O240  1  0.46126854  0.42042430  0.26646711  1
  O2-  O241  1  0.46018702  0.42299833  0.60055865  1
  O2-  O242  1  0.46472320  0.42215905  0.93325922  1
  O2-  O243  1  0.44996203  0.91556500  0.27407095  1
  O2-  O244  1  0.46090977  0.91280489  0.59317700  1
  O2-  O245  1  0.46261975  0.91357473  0.93433975  1
  O2-  O246  1  0.95396533  0.42060231  0.26504061  1
  O2-  O247  1  0.95689060  0.41277658  0.60564837  1
  O2-  O248  1  0.95598659  0.42060917  0.92872885  1
  O2-  O249  1  0.95198755  0.91480435  0.27359460  1
  O2-  O250  1  0.95171818  0.91767362  0.60380882  1
  O2-  O251  1  0.95656278  0.91381668  0.92745975  1
  O2-  O252  1  0.32907553  0.30105904  0.26591694  1
  O2-  O253  1  0.32827911  0.29829456  0.59951943  1
  O2-  O254  1  0.32944109  0.30288286  0.93272314  1
  O2-  O255  1  0.33331442  0.79442287  0.27138913  1
  O2-  O256  1  0.33163116  0.79092735  0.59866186  1
  O2-  O257  1  0.33305788  0.78958054  0.93297710  1
  O2-  O258  1  0.83214571  0.29140697  0.26772992  1
  O2-  O259  1  0.84003231  0.29125987  0.60220752  1
  O2-  O260  1  0.83196253  0.29052774  0.92879574  1
  O2-  O261  1  0.83310071  0.79587012  0.27400823  1
  O2-  O262  1  0.83138067  0.79979841  0.60329834  1
  O2-  O263  1  0.83263560  0.78813554  0.92898725  1
  O2-  O264  1  0.41237406  0.03514944  0.06962983  1
  O2-  O265  1  0.41419746  0.04343567  0.40121191  1
  O2-  O266  1  0.41215325  0.03870689  0.72347951  1
  O2-  O267  1  0.41846568  0.54487470  0.06722138  1
  O2-  O268  1  0.41991428  0.54293268  0.40144337  1
  O2-  O269  1  0.42040818  0.54747767  0.73410299  1
  O2-  O270  1  0.91674456  0.03864495  0.06220559  1
  O2-  O271  1  0.90766178  0.03924510  0.40096403  1
  O2-  O272  1  0.91101455  0.04177357  0.73256705  1
  O2-  O273  1  0.92022092  0.55129378  0.05702175  1
  O2-  O274  1  0.91968632  0.54099639  0.40069353  1
  O2-  O275  1  0.91431188  0.54250263  0.73045514  1
  O2-  O276  1  0.29284992  0.17071305  0.06397366  1
  O2-  O277  1  0.30096617  0.16934467  0.39634994  1
  O2-  O278  1  0.29368076  0.16304349  0.72541324  1
  O2-  O279  1  0.28721933  0.66712238  0.06893856  1
  O2-  O280  1  0.28763414  0.66608651  0.40151125  1
  O2-  O281  1  0.28393987  0.66644617  0.73352945  1
  O2-  O282  1  0.80393483  0.16519527  0.06145082  1
  O2-  O283  1  0.79249594  0.16265977  0.39654645  1
  O2-  O284  1  0.79682231  0.16517426  0.72953528  1
  O2-  O285  1  0.79667461  0.66458925  0.06115624  1
  O2-  O286  1  0.78927530  0.66640313  0.40418863  1
  O2-  O287  1  0.79820788  0.66575685  0.72736514  1
