# generated using pymatgen
data_Ca2Al2SiO7
_symmetry_space_group_name_H-M   'P 1'
_cell_length_a   15.45940303
_cell_length_b   15.45950090
_cell_length_c   15.28398067
_cell_angle_alpha   90.01258769
_cell_angle_beta   90.01006160
_cell_angle_gamma   89.99341967
_symmetry_Int_Tables_number   1
_chemical_formula_structural   Ca2Al2SiO7
_chemical_formula_sum   'Ca48 Al48 Si24 O168'
_cell_volume   3652.78951875
_cell_formula_units_Z   24
loop_
 _symmetry_equiv_pos_site_id
 _symmetry_equiv_pos_as_xyz
  1  'x, y, z'
loop_
 _atom_type_symbol
 _atom_type_oxidation_number
  Ca2+  2.0
  Al0+  0.0
  Si0+  0.0
  O2-  -2.0
loop_
 _atom_site_type_symbol
 _atom_site_label
 _atom_site_symmetry_multiplicity
 _atom_site_fract_x
 _atom_site_fract_y
 _atom_site_fract_z
 _atom_site_occupancy
  Ca2+  Ca0  1  0.16779658  0.07376926  0.17691677  1
  Ca2+  Ca1  1  0.16249465  0.06672364  0.50311746  1
  Ca2+  Ca2  1  0.16629776  0.07424836  0.83399511  1
  Ca2+  Ca3  1  0.15847645  0.57791871  0.17154612  1
  Ca2+  Ca4  1  0.15745507  0.57758083  0.50174105  1
  Ca2+  Ca5  1  0.15744599  0.57739400  0.83517508  1
  Ca2+  Ca6  1  0.66966585  0.07839735  0.17328289  1
  Ca2+  Ca7  1  0.66802434  0.09026009  0.49985936  1
  Ca2+  Ca8  1  0.66538508  0.07739997  0.83643021  1
  Ca2+  Ca9  1  0.67767161  0.58824230  0.16966769  1
  Ca2+  Ca10  1  0.67480348  0.57681952  0.50498160  1
  Ca2+  Ca11  1  0.67244914  0.57478628  0.84646006  1
  Ca2+  Ca12  1  0.07824295  0.34497740  0.16645442  1
  Ca2+  Ca13  1  0.07543410  0.34102116  0.49442130  1
  Ca2+  Ca14  1  0.07811411  0.33970234  0.82632875  1
  Ca2+  Ca15  1  0.08009676  0.82295270  0.16619081  1
  Ca2+  Ca16  1  0.08224017  0.82498020  0.49211934  1
  Ca2+  Ca17  1  0.07837859  0.82052671  0.82113503  1
  Ca2+  Ca18  1  0.58299527  0.33319638  0.16556875  1
  Ca2+  Ca19  1  0.58466087  0.32540000  0.49285793  1
  Ca2+  Ca20  1  0.59118791  0.33021802  0.82397835  1
  Ca2+  Ca21  1  0.58166339  0.83095723  0.16157982  1
  Ca2+  Ca22  1  0.56856703  0.83711028  0.49513661  1
  Ca2+  Ca23  1  0.58394921  0.82760694  0.83055304  1
  Ca2+  Ca24  1  0.32301712  0.41643798  0.17565262  1
  Ca2+  Ca25  1  0.32307728  0.41201857  0.50317775  1
  Ca2+  Ca26  1  0.32049696  0.41814058  0.83817759  1
  Ca2+  Ca27  1  0.32868885  0.91434791  0.17646116  1
  Ca2+  Ca28  1  0.32443538  0.90629791  0.50397469  1
  Ca2+  Ca29  1  0.33067194  0.91012680  0.82936348  1
  Ca2+  Ca30  1  0.83319814  0.42927702  0.17195714  1
  Ca2+  Ca31  1  0.83788235  0.42061795  0.50404265  1
  Ca2+  Ca32  1  0.82615131  0.41996424  0.83693990  1
  Ca2+  Ca33  1  0.82928600  0.91844611  0.17700868  1
  Ca2+  Ca34  1  0.84479369  0.92247523  0.50125129  1
  Ca2+  Ca35  1  0.82976830  0.91498435  0.83770631  1
  Ca2+  Ca36  1  0.41926161  0.17217301  0.16969638  1
  Ca2+  Ca37  1  0.42916161  0.17110716  0.49197461  1
  Ca2+  Ca38  1  0.42528918  0.16996553  0.82583023  1
  Ca2+  Ca39  1  0.42213154  0.67119745  0.16406037  1
  Ca2+  Ca40  1  0.41377389  0.67562861  0.49665652  1
  Ca2+  Ca41  1  0.42489068  0.66880710  0.83031994  1
  Ca2+  Ca42  1  0.91137447  0.17149072  0.17119482  1
  Ca2+  Ca43  1  0.91256101  0.17935977  0.49265863  1
  Ca2+  Ca44  1  0.91741923  0.17578592  0.82608573  1
  Ca2+  Ca45  1  0.92353765  0.65854946  0.16546740  1
  Ca2+  Ca46  1  0.92558984  0.67425242  0.49338017  1
  Ca2+  Ca47  1  0.92319588  0.66534679  0.82946867  1
  Al0+  Al48  1  0.00084383  0.00198965  -0.00035036  1
  Al0+  Al49  1  -0.00118893  0.00008832  0.33801862  1
  Al0+  Al50  1  0.00058852  0.00106683  0.67317867  1
  Al0+  Al51  1  -0.00140081  0.49985940  0.00089270  1
  Al0+  Al52  1  -0.00137714  0.50031338  0.33458937  1
  Al0+  Al53  1  -0.00053053  0.50060287  0.66464790  1
  Al0+  Al54  1  0.49926621  0.00265732  0.00305371  1
  Al0+  Al55  1  0.49983862  0.00070128  0.32472663  1
  Al0+  Al56  1  0.50111251  0.00074630  0.65989167  1
  Al0+  Al57  1  0.49705506  0.50009175  -0.00169135  1
  Al0+  Al58  1  0.49922087  0.49998987  0.33073652  1
  Al0+  Al59  1  0.49919375  0.49831671  0.67038191  1
  Al0+  Al60  1  0.24947430  0.24864158  0.00252577  1
  Al0+  Al61  1  0.25091690  0.24833661  0.33561444  1
  Al0+  Al62  1  0.25074823  0.24829629  0.67242857  1
  Al0+  Al63  1  0.24865144  0.74974030  -0.00534155  1
  Al0+  Al64  1  0.25046060  0.74788119  0.32762995  1
  Al0+  Al65  1  0.25160697  0.74804244  0.66625311  1
  Al0+  Al66  1  0.74934326  0.24970349  0.00181928  1
  Al0+  Al67  1  0.75055842  0.24822457  0.32658214  1
  Al0+  Al68  1  0.75159645  0.24976319  0.66325775  1
  Al0+  Al69  1  0.74879668  0.75146308  0.00400432  1
  Al0+  Al70  1  0.74915350  0.75129224  0.33948962  1
  Al0+  Al71  1  0.75127148  0.75097829  0.66322779  1
  Al0+  Al72  1  0.17932714  0.92722210  0.68187103  1
  Al0+  Al73  1  0.42898760  0.81941080  0.31861449  1
  Al0+  Al74  1  0.67553505  0.42656169  0.01587153  1
  Al0+  Al75  1  0.07079315  0.67893974  0.65069409  1
  Al0+  Al76  1  0.67995745  0.42842140  0.67773036  1
  Al0+  Al77  1  0.18002115  0.42906573  0.34787013  1
  Al0+  Al78  1  0.82071845  0.57230977  0.35046799  1
  Al0+  Al79  1  0.81934108  0.07064169  0.34819613  1
  Al0+  Al80  1  0.93058988  0.32131172  0.31798729  1
  Al0+  Al81  1  0.57177910  0.67960002  0.98730502  1
  Al0+  Al82  1  0.81975304  0.57061760  0.01473818  1
  Al0+  Al83  1  0.93158544  0.31903402  0.65401819  1
  Al0+  Al84  1  0.43211695  0.81883474  0.65416469  1
  Al0+  Al85  1  0.92729683  0.82396858  0.65247677  1
  Al0+  Al86  1  0.06913613  0.67898782  0.31647103  1
  Al0+  Al87  1  0.67903390  0.93027427  0.01272892  1
  Al0+  Al88  1  0.57108042  0.18064117  0.65343960  1
  Al0+  Al89  1  0.92799826  0.82376873  0.31814925  1
  Al0+  Al90  1  0.06921967  0.67893695  0.98401030  1
  Al0+  Al91  1  0.17857362  0.42963006  0.68060417  1
  Al0+  Al92  1  0.18000316  0.42997786  0.01421048  1
  Al0+  Al93  1  0.57191841  0.18011814  0.31407743  1
  Al0+  Al94  1  0.42687098  0.32251063  0.31835424  1
  Al0+  Al95  1  0.18068419  0.92747210  0.34584260  1
  Si0+  Si96  1  0.32059750  0.07099301  0.01595892  1
  Si0+  Si97  1  0.32379577  0.57251268  0.68523173  1
  Si0+  Si98  1  0.93002897  0.31902572  0.98513212  1
  Si0+  Si99  1  0.82361483  0.07251782  0.01634299  1
  Si0+  Si100  1  0.07323467  0.17687203  0.98440859  1
  Si0+  Si101  1  0.42565789  0.32044544  0.98361628  1
  Si0+  Si102  1  0.67690893  0.92973459  0.67963895  1
  Si0+  Si103  1  0.92808340  0.82574132  0.98453869  1
  Si0+  Si104  1  0.67539702  0.92870342  0.35228310  1
  Si0+  Si105  1  0.42839394  0.82450722  0.98241055  1
  Si0+  Si106  1  0.42561297  0.32262238  0.65207939  1
  Si0+  Si107  1  0.67756131  0.42836562  0.34865616  1
  Si0+  Si108  1  0.56973580  0.18054326  0.98341523  1
  Si0+  Si109  1  0.82076907  0.57310707  0.68333963  1
  Si0+  Si110  1  0.32179285  0.57423853  0.01662837  1
  Si0+  Si111  1  0.32422415  0.07009121  0.68334610  1
  Si0+  Si112  1  0.07495446  0.17694480  0.65147203  1
  Si0+  Si113  1  0.57362300  0.67440593  0.65059883  1
  Si0+  Si114  1  0.07202983  0.17704191  0.31863136  1
  Si0+  Si115  1  0.32445468  0.57163413  0.34965591  1
  Si0+  Si116  1  0.82043429  0.07172246  0.68218899  1
  Si0+  Si117  1  0.32372202  0.07113366  0.35097880  1
  Si0+  Si118  1  0.17952226  0.92841087  0.01422860  1
  Si0+  Si119  1  0.57327739  0.67728945  0.31842221  1
  O2-  O120  1  0.25134999  -0.00199362  0.05733766  1
  O2-  O121  1  0.25604108  0.00136594  0.39437631  1
  O2-  O122  1  0.25462937  0.00246307  0.72878713  1
  O2-  O123  1  0.25311277  0.50583128  0.06097110  1
  O2-  O124  1  0.25735178  0.50138859  0.39387874  1
  O2-  O125  1  0.25364631  0.50382002  0.72784983  1
  O2-  O126  1  0.75735967  0.00110488  0.05891347  1
  O2-  O127  1  0.74626394  -0.00495127  0.39668898  1
  O2-  O128  1  0.75235723  -0.00343527  0.72254418  1
  O2-  O129  1  0.74448968  0.50140653  0.06493523  1
  O2-  O130  1  0.74565912  0.49627046  0.39474225  1
  O2-  O131  1  0.74851114  0.50746693  0.72678576  1
  O2-  O132  1  0.00826091  0.24884993  0.27153214  1
  O2-  O133  1  0.00958475  0.24781250  0.60701481  1
  O2-  O134  1  0.00198273  0.24819416  0.94318621  1
  O2-  O135  1  -0.00426623  0.74966319  0.26581807  1
  O2-  O136  1  0.00156235  0.75461622  0.60299361  1
  O2-  O137  1  -0.00445286  0.75616486  0.93993889  1
  O2-  O138  1  0.50063295  0.25387086  0.26549451  1
  O2-  O139  1  0.49773480  0.25738486  0.60897182  1
  O2-  O140  1  0.50276035  0.25545102  0.94071414  1
  O2-  O141  1  0.50563556  0.74685960  0.27337064  1
  O2-  O142  1  0.50590108  0.74392541  0.60630113  1
  O2-  O143  1  0.49763407  0.75543987  0.93987927  1
  O2-  O144  1  0.07451086  0.17245127  0.08892452  1
  O2-  O145  1  0.06984056  0.17659646  0.42417485  1
  O2-  O146  1  0.07211627  0.17643309  0.75786967  1
  O2-  O147  1  0.07066328  0.67975388  0.09644141  1
  O2-  O148  1  0.07037804  0.67976702  0.42967310  1
  O2-  O149  1  0.06698256  0.67808113  0.76489906  1
  O2-  O150  1  0.56739742  0.17839963  0.08765668  1
  O2-  O151  1  0.57088538  0.18120376  0.42795864  1
  O2-  O152  1  0.56976189  0.17926124  0.76733525  1
  O2-  O153  1  0.56939669  0.68264776  0.10020832  1
  O2-  O154  1  0.57076315  0.67658817  0.42416415  1
  O2-  O155  1  0.57299811  0.67613629  0.75644908  1
  O2-  O156  1  0.18073436  0.43105884  0.23445584  1
  O2-  O157  1  0.18044804  0.42846739  0.56799591  1
  O2-  O158  1  0.18060658  0.42876082  0.90087413  1
  O2-  O159  1  0.18245603  0.93024462  0.23192789  1
  O2-  O160  1  0.18056224  0.92833417  0.56913738  1
  O2-  O161  1  0.18047619  0.93077457  0.90909078  1
  O2-  O162  1  0.67777928  0.43128305  0.24311991  1
  O2-  O163  1  0.68149324  0.42832694  0.56487212  1
  O2-  O164  1  0.68114938  0.42404134  0.90180029  1
  O2-  O165  1  0.67517817  0.93019888  0.24631350  1
  O2-  O166  1  0.67247966  0.93239000  0.57537218  1
  O2-  O167  1  0.67772838  0.93343883  0.89879974  1
  O2-  O168  1  0.42217707  0.31562479  0.08803375  1
  O2-  O169  1  0.42749678  0.31993189  0.43217055  1
  O2-  O170  1  0.42422316  0.31954358  0.75816554  1
  O2-  O171  1  0.42743531  0.82503879  0.08780261  1
  O2-  O172  1  0.42912927  0.81822789  0.43183740  1
  O2-  O173  1  0.43569652  0.81939252  0.76761159  1
  O2-  O174  1  0.93072859  0.31789708  0.08995639  1
  O2-  O175  1  0.93071270  0.32005516  0.43115136  1
  O2-  O176  1  0.93055674  0.31672386  0.76789147  1
  O2-  O177  1  0.93180539  0.83137888  0.08939836  1
  O2-  O178  1  0.93319179  0.82409783  0.43140037  1
  O2-  O179  1  0.92596924  0.82240306  0.76679378  1
  O2-  O180  1  0.32121793  0.07061068  0.24465251  1
  O2-  O181  1  0.32453665  0.07045480  0.57841846  1
  O2-  O182  1  0.32124118  0.07226319  0.91075599  1
  O2-  O183  1  0.32551042  0.57165833  0.24394228  1
  O2-  O184  1  0.32780444  0.57220457  0.58002270  1
  O2-  O185  1  0.32273791  0.57273090  0.91090534  1
  O2-  O186  1  0.81798951  0.06932614  0.23469436  1
  O2-  O187  1  0.81953241  0.07445877  0.57769945  1
  O2-  O188  1  0.82285523  0.07451304  0.91028559  1
  O2-  O189  1  0.81974266  0.57081876  0.23733227  1
  O2-  O190  1  0.82021259  0.57153726  0.57792456  1
  O2-  O191  1  0.82051239  0.56755327  0.90070897  1
  O2-  O192  1  0.04170130  0.08561267  0.27072680  1
  O2-  O193  1  0.04663236  0.08378978  0.60734549  1
  O2-  O194  1  0.04446233  0.08622976  0.93354924  1
  O2-  O195  1  0.03847273  0.58094817  0.26457147  1
  O2-  O196  1  0.03998226  0.58190926  0.59786946  1
  O2-  O197  1  0.03587013  0.58214766  0.93100955  1
  O2-  O198  1  0.54088680  0.08319685  0.25933907  1
  O2-  O199  1  0.53955730  0.08628785  0.59678712  1
  O2-  O200  1  0.53674666  0.08987377  0.93540170  1
  O2-  O201  1  0.54797916  0.58472208  0.27053548  1
  O2-  O202  1  0.54686444  0.58072171  0.60562286  1
  O2-  O203  1  0.54022528  0.58290488  0.93208778  1
  O2-  O204  1  0.16783393  0.19608115  0.27457039  1
  O2-  O205  1  0.17065496  0.19688630  0.60864725  1
  O2-  O206  1  0.16524213  0.20374435  0.93661288  1
  O2-  O207  1  0.16743927  0.70633770  0.26273664  1
  O2-  O208  1  0.17138681  0.70220848  0.60155997  1
  O2-  O209  1  0.16652338  0.70795747  0.92937454  1
  O2-  O210  1  0.66946359  0.20579801  0.25917973  1
  O2-  O211  1  0.66677414  0.21057218  0.59878357  1
  O2-  O212  1  0.66391103  0.20327737  0.93729808  1
  O2-  O213  1  0.66659778  0.70437374  0.27359814  1
  O2-  O214  1  0.66716302  0.69888200  0.60512875  1
  O2-  O215  1  0.66813224  0.71086770  0.93235933  1
  O2-  O216  1  0.08289315  0.45967267  0.06616103  1
  O2-  O217  1  0.08399439  0.46166404  0.40082192  1
  O2-  O218  1  0.08173359  0.46150482  0.73462483  1
  O2-  O219  1  0.08817093  0.95903295  0.06055334  1
  O2-  O220  1  0.08593644  0.96106204  0.40093496  1
  O2-  O221  1  0.08453512  0.96050401  0.73950662  1
  O2-  O222  1  0.57362271  0.44874657  0.06313025  1
  O2-  O223  1  0.58304924  0.45255034  0.39429698  1
  O2-  O224  1  0.58087266  0.45065579  0.73206657  1
  O2-  O225  1  0.58353489  0.96450679  0.06733533  1
  O2-  O226  1  0.58173056  0.95956625  0.39569298  1
  O2-  O227  1  0.58755124  0.96273196  0.72944898  1
  O2-  O228  1  0.20984966  0.33224860  0.06672504  1
  O2-  O229  1  0.20736692  0.33056897  0.40067736  1
  O2-  O230  1  0.20697415  0.33173628  0.73572153  1
  O2-  O231  1  0.20629977  0.83582458  0.05965590  1
  O2-  O232  1  0.21368565  0.83073383  0.39755838  1
  O2-  O233  1  0.21315747  0.83143902  0.73614316  1
  O2-  O234  1  0.70543222  0.32835791  0.06809355  1
  O2-  O235  1  0.70361513  0.33323337  0.38996991  1
  O2-  O236  1  0.71559692  0.33298242  0.73246957  1
  O2-  O237  1  0.70411308  0.83413825  0.06893366  1
  O2-  O238  1  0.69393043  0.83429550  0.39880731  1
  O2-  O239  1  0.70138855  0.83598534  0.72598422  1
  O2-  O240  1  0.45123045  0.42178269  0.26492700  1
  O2-  O241  1  0.44604560  0.41780242  0.60830317  1
  O2-  O242  1  0.44430034  0.41480035  0.93783825  1
  O2-  O243  1  0.45657740  0.91586501  0.26312871  1
  O2-  O244  1  0.46204142  0.91434793  0.59833066  1
  O2-  O245  1  0.45412967  0.91894040  0.93771511  1
  O2-  O246  1  0.96135048  0.41709091  0.26381115  1
  O2-  O247  1  0.95929008  0.41577349  0.60056771  1
  O2-  O248  1  0.95837182  0.40997549  0.93712575  1
  O2-  O249  1  0.95753259  0.92235868  0.26591969  1
  O2-  O250  1  0.95319837  0.92543044  0.60561993  1
  O2-  O251  1  0.95372876  0.91953469  0.93658156  1
  O2-  O252  1  0.32953319  0.28930117  0.26441596  1
  O2-  O253  1  0.33326170  0.29251161  0.60614945  1
  O2-  O254  1  0.33648552  0.28483776  0.93443354  1
  O2-  O255  1  0.33514669  0.78708155  0.26092122  1
  O2-  O256  1  0.33584076  0.78827315  0.60064969  1
  O2-  O257  1  0.33526979  0.79793550  0.93548457  1
  O2-  O258  1  0.83638708  0.28743932  0.26220411  1
  O2-  O259  1  0.83780014  0.28442509  0.59827941  1
  O2-  O260  1  0.83814606  0.28919919  0.93785742  1
  O2-  O261  1  0.82518196  0.80117120  0.27232974  1
  O2-  O262  1  0.82857046  0.79918307  0.59811855  1
  O2-  O263  1  0.83278239  0.80220658  0.94169198  1
  O2-  O264  1  0.41204902  0.04545656  0.06481784  1
  O2-  O265  1  0.41861877  0.04586306  0.39349999  1
  O2-  O266  1  0.41742470  0.04156867  0.73018068  1
  O2-  O267  1  0.41506317  0.54924534  0.06306128  1
  O2-  O268  1  0.41863421  0.54945187  0.39698200  1
  O2-  O269  1  0.41626354  0.54572034  0.73464544  1
  O2-  O270  1  0.91882802  0.05178641  0.06138514  1
  O2-  O271  1  0.91586399  0.04340208  0.40420424  1
  O2-  O272  1  0.91237107  0.04930593  0.73298562  1
  O2-  O273  1  0.91569038  0.53611352  0.06853369  1
  O2-  O274  1  0.91584860  0.53838284  0.40414467  1
  O2-  O275  1  0.91276829  0.54251622  0.72931080  1
  O2-  O276  1  0.29022790  0.16088106  0.06525954  1
  O2-  O277  1  0.29945490  0.16407813  0.39817648  1
  O2-  O278  1  0.30000436  0.16294727  0.73302417  1
  O2-  O279  1  0.29730762  0.66925282  0.06045625  1
  O2-  O280  1  0.29639741  0.66485471  0.39466927  1
  O2-  O281  1  0.29985803  0.66572772  0.73263941  1
  O2-  O282  1  0.79448989  0.16433026  0.06317265  1
  O2-  O283  1  0.78676983  0.16802353  0.40055517  1
  O2-  O284  1  0.78764521  0.16103709  0.73198681  1
  O2-  O285  1  0.79568998  0.67008381  0.06708469  1
  O2-  O286  1  0.79022470  0.66844846  0.40589699  1
  O2-  O287  1  0.79912318  0.66849013  0.72814949  1
