# generated using pymatgen
data_Ca2Al2SiO7
_symmetry_space_group_name_H-M   'P 1'
_cell_length_a   15.46889113
_cell_length_b   15.46967854
_cell_length_c   15.29294861
_cell_angle_alpha   89.98292592
_cell_angle_beta   90.00490409
_cell_angle_gamma   89.96715349
_symmetry_Int_Tables_number   1
_chemical_formula_structural   Ca2Al2SiO7
_chemical_formula_sum   'Ca48 Al48 Si24 O168'
_cell_volume   3659.58306355
_cell_formula_units_Z   24
loop_
 _symmetry_equiv_pos_site_id
 _symmetry_equiv_pos_as_xyz
  1  'x, y, z'
loop_
 _atom_type_symbol
 _atom_type_oxidation_number
  Ca2+  2.0
  Al0+  0.0
  Si0+  0.0
  O2-  -2.0
loop_
 _atom_site_type_symbol
 _atom_site_label
 _atom_site_symmetry_multiplicity
 _atom_site_fract_x
 _atom_site_fract_y
 _atom_site_fract_z
 _atom_site_occupancy
  Ca2+  Ca0  1  0.17139174  0.08608967  0.16114426  1
  Ca2+  Ca1  1  0.16709086  0.07856830  0.50961573  1
  Ca2+  Ca2  1  0.17004662  0.08105952  0.84086319  1
  Ca2+  Ca3  1  0.17032420  0.58079884  0.16979023  1
  Ca2+  Ca4  1  0.17121664  0.57842920  0.50554848  1
  Ca2+  Ca5  1  0.17081832  0.57830075  0.84103529  1
  Ca2+  Ca6  1  0.66419833  0.07437025  0.17429239  1
  Ca2+  Ca7  1  0.67521212  0.09138098  0.50279373  1
  Ca2+  Ca8  1  0.66540609  0.08227574  0.84204239  1
  Ca2+  Ca9  1  0.67327540  0.59014376  0.17077702  1
  Ca2+  Ca10  1  0.66618635  0.58836625  0.50068382  1
  Ca2+  Ca11  1  0.66587061  0.58416495  0.84204046  1
  Ca2+  Ca12  1  0.07500373  0.32611722  0.15637071  1
  Ca2+  Ca13  1  0.08208704  0.32446784  0.49932984  1
  Ca2+  Ca14  1  0.07786753  0.32009986  0.83541097  1
  Ca2+  Ca15  1  0.06944255  0.83849562  0.15936253  1
  Ca2+  Ca16  1  0.07603454  0.83843218  0.49490817  1
  Ca2+  Ca17  1  0.07809272  0.84760006  0.83306959  1
  Ca2+  Ca18  1  0.57841811  0.32053027  0.16178055  1
  Ca2+  Ca19  1  0.57708623  0.32293252  0.49636633  1
  Ca2+  Ca20  1  0.57684648  0.32021841  0.83066697  1
  Ca2+  Ca21  1  0.59120706  0.82861154  0.15794531  1
  Ca2+  Ca22  1  0.59630902  0.82354280  0.49519966  1
  Ca2+  Ca23  1  0.58703179  0.82742223  0.83752177  1
  Ca2+  Ca24  1  0.33854237  0.41015551  0.16949421  1
  Ca2+  Ca25  1  0.34237822  0.41174258  0.50295191  1
  Ca2+  Ca26  1  0.34029899  0.41108524  0.83899190  1
  Ca2+  Ca27  1  0.33400618  0.91946862  0.16207365  1
  Ca2+  Ca28  1  0.32445259  0.91726427  0.50696182  1
  Ca2+  Ca29  1  0.32334856  0.92000346  0.84749581  1
  Ca2+  Ca30  1  0.83819136  0.42829585  0.16937886  1
  Ca2+  Ca31  1  0.83121546  0.42515511  0.50294035  1
  Ca2+  Ca32  1  0.83413238  0.42440350  0.84371427  1
  Ca2+  Ca33  1  0.82435177  0.91575829  0.17175759  1
  Ca2+  Ca34  1  0.82799442  0.92460971  0.49601449  1
  Ca2+  Ca35  1  0.82788910  0.92189628  0.83975261  1
  Ca2+  Ca36  1  0.42524696  0.16914590  0.15761855  1
  Ca2+  Ca37  1  0.42821994  0.17170777  0.49380852  1
  Ca2+  Ca38  1  0.42454299  0.16634616  0.83289962  1
  Ca2+  Ca39  1  0.43113431  0.67553549  0.15904839  1
  Ca2+  Ca40  1  0.42931088  0.66895153  0.49555332  1
  Ca2+  Ca41  1  0.42755475  0.67220507  0.83219498  1
  Ca2+  Ca42  1  0.92001078  0.16689557  0.15731072  1
  Ca2+  Ca43  1  0.91927605  0.15340094  0.49808408  1
  Ca2+  Ca44  1  0.92644032  0.15748431  0.82938721  1
  Ca2+  Ca45  1  0.90642806  0.67675766  0.16165543  1
  Ca2+  Ca46  1  0.91474536  0.67608824  0.48971092  1
  Ca2+  Ca47  1  0.91211852  0.67355584  0.83707991  1
  Al0+  Al48  1  -0.00023366  -0.00115817  -0.00422108  1
  Al0+  Al49  1  -0.00054933  -0.00122076  0.33043605  1
  Al0+  Al50  1  -0.00169446  -0.00014690  0.66826703  1
  Al0+  Al51  1  0.00076623  0.50088438  0.00180483  1
  Al0+  Al52  1  0.00285734  0.49927743  0.34066732  1
  Al0+  Al53  1  0.00183375  0.50088455  0.66821413  1
  Al0+  Al54  1  0.49827817  -0.00188374  0.00079394  1
  Al0+  Al55  1  0.49691363  -0.00283095  0.33842100  1
  Al0+  Al56  1  0.49989786  -0.00142943  0.66203123  1
  Al0+  Al57  1  0.50135727  0.49952081  -0.00337719  1
  Al0+  Al58  1  0.49995466  0.50191244  0.32705719  1
  Al0+  Al59  1  0.50141639  0.50212647  0.66052687  1
  Al0+  Al60  1  0.24780000  0.24984059  -0.00141273  1
  Al0+  Al61  1  0.24793715  0.24941715  0.33283624  1
  Al0+  Al62  1  0.24627870  0.25011810  0.65988824  1
  Al0+  Al63  1  0.24916407  0.74818945  0.00397362  1
  Al0+  Al64  1  0.25035933  0.74709438  0.33568686  1
  Al0+  Al65  1  0.24899205  0.74731630  0.67146512  1
  Al0+  Al66  1  0.74898462  0.25395295  -0.00566975  1
  Al0+  Al67  1  0.75100808  0.25234807  0.33423552  1
  Al0+  Al68  1  0.75151241  0.25436649  0.66938183  1
  Al0+  Al69  1  0.75299708  0.75051841  -0.00251731  1
  Al0+  Al70  1  0.75241549  0.75105238  0.33453527  1
  Al0+  Al71  1  0.75180703  0.75181439  0.66347529  1
  Al0+  Al72  1  0.67653086  0.92887587  0.34829283  1
  Al0+  Al73  1  0.57201135  0.17534590  0.98650842  1
  Al0+  Al74  1  0.81837343  0.07153637  0.68113876  1
  Al0+  Al75  1  0.17990566  0.92862226  0.67982237  1
  Al0+  Al76  1  0.32028154  0.07223923  0.01488563  1
  Al0+  Al77  1  0.42838880  0.31907216  0.31739117  1
  Al0+  Al78  1  0.82094808  0.57078171  0.34851498  1
  Al0+  Al79  1  0.93020785  0.82019908  0.98473000  1
  Al0+  Al80  1  0.06633226  0.17898555  0.65113469  1
  Al0+  Al81  1  0.42925908  0.31967086  0.65177179  1
  Al0+  Al82  1  0.82016722  0.56955321  0.01351216  1
  Al0+  Al83  1  0.68025105  0.93090867  0.01130713  1
  Al0+  Al84  1  0.82122039  0.07349769  0.34553593  1
  Al0+  Al85  1  0.93216229  0.81959320  0.31891619  1
  Al0+  Al86  1  0.57300678  0.68075565  0.98552871  1
  Al0+  Al87  1  0.57103485  0.68332488  0.31873987  1
  Al0+  Al88  1  0.17626906  0.92723557  0.01752889  1
  Al0+  Al89  1  0.57341116  0.17603563  0.31823363  1
  Al0+  Al90  1  0.57101174  0.68260883  0.65165924  1
  Al0+  Al91  1  0.42628284  0.82129102  0.98582346  1
  Al0+  Al92  1  0.92756817  0.32426365  0.98630585  1
  Al0+  Al93  1  0.57457174  0.17598149  0.65113529  1
  Al0+  Al94  1  0.42845806  0.32025301  0.98600205  1
  Al0+  Al95  1  0.06801496  0.17817343  0.98492241  1
  Si0+  Si96  1  0.92872930  0.32675827  0.64879647  1
  Si0+  Si97  1  0.18006951  0.42737920  0.35106983  1
  Si0+  Si98  1  0.07303986  0.67695165  0.98427446  1
  Si0+  Si99  1  0.06885801  0.17855491  0.31835105  1
  Si0+  Si100  1  0.17910550  0.92876179  0.34713017  1
  Si0+  Si101  1  0.82230899  0.57297972  0.68202734  1
  Si0+  Si102  1  0.32202090  0.56825499  0.68251110  1
  Si0+  Si103  1  0.07389235  0.67541908  0.31808829  1
  Si0+  Si104  1  0.32201100  0.07285922  0.68068961  1
  Si0+  Si105  1  0.93015195  0.32486157  0.32107781  1
  Si0+  Si106  1  0.67878580  0.43274253  0.68197975  1
  Si0+  Si107  1  0.07272609  0.67589163  0.65177129  1
  Si0+  Si108  1  0.67569541  0.42757368  0.01783884  1
  Si0+  Si109  1  0.93173973  0.81957551  0.65003904  1
  Si0+  Si110  1  0.67797739  0.92600608  0.68376966  1
  Si0+  Si111  1  0.82143648  0.07481408  0.01346415  1
  Si0+  Si112  1  0.42372526  0.82054974  0.65038721  1
  Si0+  Si113  1  0.17807195  0.42785421  0.68363255  1
  Si0+  Si114  1  0.42180250  0.82167908  0.31787085  1
  Si0+  Si115  1  0.31890422  0.07252962  0.35012482  1
  Si0+  Si116  1  0.67635228  0.42956122  0.35073277  1
  Si0+  Si117  1  0.18005068  0.43001549  0.01563042  1
  Si0+  Si118  1  0.32371480  0.57046807  0.01635929  1
  Si0+  Si119  1  0.32154244  0.56995301  0.34956570  1
  O2-  O120  1  0.24935810  -0.00135493  0.06627923  1
  O2-  O121  1  0.25059827  -0.00220092  0.39136479  1
  O2-  O122  1  0.25854423  -0.00072123  0.72463357  1
  O2-  O123  1  0.25420532  0.49742319  0.05856176  1
  O2-  O124  1  0.25351730  0.49620116  0.39296600  1
  O2-  O125  1  0.25313794  0.49502670  0.72509798  1
  O2-  O126  1  0.74968348  0.01057320  0.05829917  1
  O2-  O127  1  0.74297286  0.00788911  0.39614276  1
  O2-  O128  1  0.73745765  0.00310996  0.72688691  1
  O2-  O129  1  0.74658127  0.49470388  0.06147317  1
  O2-  O130  1  0.74566386  0.49770651  0.39675089  1
  O2-  O131  1  0.75179173  0.50243002  0.72399998  1
  O2-  O132  1  -0.00562199  0.24746041  0.27939539  1
  O2-  O133  1  -0.00932391  0.25258171  0.60310088  1
  O2-  O134  1  -0.00899750  0.24551340  0.93533118  1
  O2-  O135  1  0.00517978  0.74226987  0.27332445  1
  O2-  O136  1  0.00351831  0.74786757  0.60897023  1
  O2-  O137  1  0.00930093  0.74910053  0.93853050  1
  O2-  O138  1  0.49918789  0.24621592  0.26884182  1
  O2-  O139  1  0.49855729  0.24515281  0.60255882  1
  O2-  O140  1  0.49890617  0.24712067  0.93725994  1
  O2-  O141  1  0.49889172  0.76180384  0.27567752  1
  O2-  O142  1  0.49826069  0.75922446  0.60449901  1
  O2-  O143  1  0.49984300  0.75141613  0.93537776  1
  O2-  O144  1  0.06836049  0.18177393  0.09924240  1
  O2-  O145  1  0.07059694  0.17853949  0.42369222  1
  O2-  O146  1  0.06748689  0.18054667  0.76319979  1
  O2-  O147  1  0.07177328  0.67360672  0.08982272  1
  O2-  O148  1  0.07541166  0.67658801  0.42418784  1
  O2-  O149  1  0.07210006  0.67057846  0.75612804  1
  O2-  O150  1  0.57271540  0.17622818  0.09994421  1
  O2-  O151  1  0.57258065  0.18047051  0.43193664  1
  O2-  O152  1  0.57409270  0.17768365  0.76414458  1
  O2-  O153  1  0.57287583  0.68184363  0.09896277  1
  O2-  O154  1  0.56845068  0.68227914  0.43233632  1
  O2-  O155  1  0.57073269  0.68096289  0.76397175  1
  O2-  O156  1  0.17684272  0.42877357  0.24632361  1
  O2-  O157  1  0.17419850  0.43183797  0.57837962  1
  O2-  O158  1  0.17871805  0.43310885  0.91043774  1
  O2-  O159  1  0.17892509  0.92895878  0.24303005  1
  O2-  O160  1  0.17967236  0.92938438  0.56558048  1
  O2-  O161  1  0.17780764  0.92942480  0.90376968  1
  O2-  O162  1  0.67788391  0.42998490  0.24563222  1
  O2-  O163  1  0.68017893  0.43459514  0.57668277  1
  O2-  O164  1  0.67474071  0.43077979  0.91193235  1
  O2-  O165  1  0.68114389  0.92630233  0.23498489  1
  O2-  O166  1  0.68483877  0.91894173  0.57883217  1
  O2-  O167  1  0.68375231  0.92899140  0.89783991  1
  O2-  O168  1  0.43037867  0.31993311  0.09934049  1
  O2-  O169  1  0.42841037  0.31714203  0.43097811  1
  O2-  O170  1  0.43107674  0.32059668  0.76464789  1
  O2-  O171  1  0.42566336  0.81710970  0.09951153  1
  O2-  O172  1  0.41165721  0.81465793  0.42317981  1
  O2-  O173  1  0.41925907  0.81548527  0.75503669  1
  O2-  O174  1  0.93338981  0.32652829  0.10043297  1
  O2-  O175  1  0.93540479  0.32984703  0.42602820  1
  O2-  O176  1  0.93423688  0.33332686  0.75339199  1
  O2-  O177  1  0.92889090  0.81806036  0.09758619  1
  O2-  O178  1  0.93594188  0.81961215  0.43271996  1
  O2-  O179  1  0.93076620  0.81788044  0.75486673  1
  O2-  O180  1  0.31667673  0.07573152  0.24575409  1
  O2-  O181  1  0.31782251  0.07170593  0.57443391  1
  O2-  O182  1  0.31778694  0.07333511  0.90101821  1
  O2-  O183  1  0.31756715  0.57205489  0.24494584  1
  O2-  O184  1  0.31904911  0.56947712  0.57710353  1
  O2-  O185  1  0.32143833  0.57053573  0.91096694  1
  O2-  O186  1  0.82738513  0.07134374  0.23260738  1
  O2-  O187  1  0.82141702  0.06615373  0.56813915  1
  O2-  O188  1  0.82166824  0.07033766  0.90765979  1
  O2-  O189  1  0.82279752  0.56900986  0.23600877  1
  O2-  O190  1  0.82358059  0.57231745  0.57683336  1
  O2-  O191  1  0.82031228  0.56914843  0.89974147  1
  O2-  O192  1  0.04470205  0.08680943  0.27078348  1
  O2-  O193  1  0.03534812  0.08201263  0.59688342  1
  O2-  O194  1  0.04453195  0.07994270  0.93065226  1
  O2-  O195  1  0.05108823  0.58007285  0.27505693  1
  O2-  O196  1  0.04438027  0.58506096  0.60173666  1
  O2-  O197  1  0.04354436  0.58555829  0.93580518  1
  O2-  O198  1  0.54486925  0.07482867  0.27212697  1
  O2-  O199  1  0.55207801  0.07560503  0.59822528  1
  O2-  O200  1  0.54380121  0.07787540  0.93307163  1
  O2-  O201  1  0.53835108  0.58800175  0.26450742  1
  O2-  O202  1  0.53784868  0.58798102  0.59541094  1
  O2-  O203  1  0.54379679  0.58265101  0.93303332  1
  O2-  O204  1  0.15864337  0.21130607  0.27094865  1
  O2-  O205  1  0.16112775  0.21159728  0.59392542  1
  O2-  O206  1  0.16359662  0.21318440  0.93167199  1
  O2-  O207  1  0.16762880  0.70005765  0.27233781  1
  O2-  O208  1  0.16558666  0.70107859  0.60464128  1
  O2-  O209  1  0.16844615  0.69566238  0.93983064  1
  O2-  O210  1  0.67261587  0.20561457  0.26762074  1
  O2-  O211  1  0.67236150  0.21197035  0.60040956  1
  O2-  O212  1  0.66905258  0.20554528  0.93179144  1
  O2-  O213  1  0.66918929  0.71047195  0.26804311  1
  O2-  O214  1  0.66905248  0.71126651  0.59790595  1
  O2-  O215  1  0.66957496  0.71061246  0.93065890  1
  O2-  O216  1  0.09089922  0.46267179  0.06574791  1
  O2-  O217  1  0.09128732  0.45793684  0.40355236  1
  O2-  O218  1  0.08888224  0.46171195  0.73267416  1
  O2-  O219  1  0.07750391  0.95822161  0.06852397  1
  O2-  O220  1  0.08828364  0.95890485  0.39530431  1
  O2-  O221  1  0.08428519  0.96238260  0.73214011  1
  O2-  O222  1  0.58304017  0.45492316  0.06467090  1
  O2-  O223  1  0.58288877  0.45853362  0.39576219  1
  O2-  O224  1  0.58790524  0.46488626  0.72796002  1
  O2-  O225  1  0.58149168  0.95161028  0.06451325  1
  O2-  O226  1  0.57411552  0.94177132  0.40034632  1
  O2-  O227  1  0.57922001  0.94029726  0.72272904  1
  O2-  O228  1  0.20328573  0.33781806  0.06360082  1
  O2-  O229  1  0.20547018  0.33501686  0.39935584  1
  O2-  O230  1  0.20118968  0.33406943  0.72796369  1
  O2-  O231  1  0.20079705  0.82698394  0.06950051  1
  O2-  O232  1  0.20436375  0.83526106  0.39462847  1
  O2-  O233  1  0.20300447  0.82947513  0.73271021  1
  O2-  O234  1  0.69973983  0.33321535  0.06315317  1
  O2-  O235  1  0.70302552  0.33688872  0.39846374  1
  O2-  O236  1  0.70458012  0.34152482  0.73089089  1
  O2-  O237  1  0.71816197  0.83614741  0.06433469  1
  O2-  O238  1  0.71682848  0.83473598  0.40344484  1
  O2-  O239  1  0.71372635  0.83570206  0.73179551  1
  O2-  O240  1  0.45303202  0.41922352  0.26718758  1
  O2-  O241  1  0.46009375  0.41778104  0.59816081  1
  O2-  O242  1  0.45583749  0.41874756  0.93289156  1
  O2-  O243  1  0.43661610  0.91925191  0.27855447  1
  O2-  O244  1  0.44045845  0.91666633  0.60632384  1
  O2-  O245  1  0.45026359  0.91952144  0.93278433  1
  O2-  O246  1  0.96656876  0.41367507  0.27279515  1
  O2-  O247  1  0.96170771  0.41801518  0.60010008  1
  O2-  O248  1  0.96535434  0.41941969  0.93197920  1
  O2-  O249  1  0.96552948  0.91421645  0.26370596  1
  O2-  O250  1  0.96209482  0.90999732  0.60261486  1
  O2-  O251  1  0.95833288  0.91608682  0.92866034  1
  O2-  O252  1  0.32726535  0.29382612  0.26800977  1
  O2-  O253  1  0.32831434  0.29864159  0.59988111  1
  O2-  O254  1  0.32836600  0.29714374  0.93505967  1
  O2-  O255  1  0.33245215  0.78708868  0.26823304  1
  O2-  O256  1  0.33222242  0.78741052  0.60249044  1
  O2-  O257  1  0.32791342  0.78917062  0.93426301  1
  O2-  O258  1  0.83592651  0.30714868  0.27622770  1
  O2-  O259  1  0.83239157  0.30965083  0.60659206  1
  O2-  O260  1  0.82675694  0.30982575  0.93491859  1
  O2-  O261  1  0.83642754  0.78746331  0.26641974  1
  O2-  O262  1  0.84141353  0.78975879  0.60136825  1
  O2-  O263  1  0.83789568  0.78392674  0.92705401  1
  O2-  O264  1  0.41769692  0.04323144  0.06926342  1
  O2-  O265  1  0.41034104  0.04747615  0.39954662  1
  O2-  O266  1  0.41855369  0.05345396  0.72279724  1
  O2-  O267  1  0.41576816  0.54370526  0.06329173  1
  O2-  O268  1  0.41433447  0.54441700  0.39614595  1
  O2-  O269  1  0.41487857  0.54255079  0.72800213  1
  O2-  O270  1  0.91475225  0.04645518  0.05771554  1
  O2-  O271  1  0.91827070  0.03631681  0.39972531  1
  O2-  O272  1  0.91234315  0.03257820  0.73507585  1
  O2-  O273  1  0.91744210  0.54006720  0.06799631  1
  O2-  O274  1  0.91820692  0.53997370  0.40386150  1
  O2-  O275  1  0.91491159  0.54562950  0.72834024  1
  O2-  O276  1  0.28668553  0.16938388  0.06927771  1
  O2-  O277  1  0.28517012  0.16221448  0.39886626  1
  O2-  O278  1  0.28959290  0.16527431  0.72422085  1
  O2-  O279  1  0.29299012  0.65961578  0.06684425  1
  O2-  O280  1  0.28985871  0.65939191  0.40085684  1
  O2-  O281  1  0.29078382  0.65788417  0.73179624  1
  O2-  O282  1  0.80352886  0.17199254  0.05495091  1
  O2-  O283  1  0.80282081  0.17477129  0.39932724  1
  O2-  O284  1  0.80180282  0.17328488  0.73094797  1
  O2-  O285  1  0.78859421  0.66584310  0.06637766  1
  O2-  O286  1  0.79110722  0.66676023  0.40344173  1
  O2-  O287  1  0.79473671  0.66548715  0.72749555  1
