# generated using pymatgen
data_Ca2Al2SiO7
_symmetry_space_group_name_H-M   'P 1'
_cell_length_a   15.45182107
_cell_length_b   15.45114903
_cell_length_c   15.27835775
_cell_angle_alpha   89.99991969
_cell_angle_beta   89.99442155
_cell_angle_gamma   89.99931051
_symmetry_Int_Tables_number   1
_chemical_formula_structural   Ca2Al2SiO7
_chemical_formula_sum   'Ca48 Al48 Si24 O168'
_cell_volume   3647.68329817
_cell_formula_units_Z   24
loop_
 _symmetry_equiv_pos_site_id
 _symmetry_equiv_pos_as_xyz
  1  'x, y, z'
loop_
 _atom_type_symbol
 _atom_type_oxidation_number
  Ca2+  2.0
  Al0+  0.0
  Si0+  0.0
  O2-  -2.0
loop_
 _atom_site_type_symbol
 _atom_site_label
 _atom_site_symmetry_multiplicity
 _atom_site_fract_x
 _atom_site_fract_y
 _atom_site_fract_z
 _atom_site_occupancy
  Ca2+  Ca0  1  0.17461425  0.08481652  0.17593824  1
  Ca2+  Ca1  1  0.17291452  0.08112255  0.49959466  1
  Ca2+  Ca2  1  0.17630008  0.08624952  0.83817893  1
  Ca2+  Ca3  1  0.16009983  0.57832569  0.17165990  1
  Ca2+  Ca4  1  0.17031455  0.57769775  0.50443449  1
  Ca2+  Ca5  1  0.17014094  0.58695969  0.83559731  1
  Ca2+  Ca6  1  0.66652564  0.07819255  0.17030375  1
  Ca2+  Ca7  1  0.67122585  0.08433793  0.50408691  1
  Ca2+  Ca8  1  0.67476658  0.07644347  0.83744682  1
  Ca2+  Ca9  1  0.66605110  0.57723632  0.16564211  1
  Ca2+  Ca10  1  0.67102551  0.57758222  0.50435419  1
  Ca2+  Ca11  1  0.67671935  0.58214081  0.84453086  1
  Ca2+  Ca12  1  0.09341142  0.32274781  0.16447470  1
  Ca2+  Ca13  1  0.07969559  0.33019228  0.49484341  1
  Ca2+  Ca14  1  0.07773694  0.32653095  0.82919106  1
  Ca2+  Ca15  1  0.07313055  0.83552926  0.16072891  1
  Ca2+  Ca16  1  0.07367006  0.83891711  0.49273339  1
  Ca2+  Ca17  1  0.07262091  0.82837733  0.83152084  1
  Ca2+  Ca18  1  0.58905246  0.33162974  0.16592509  1
  Ca2+  Ca19  1  0.57923987  0.32853470  0.49372695  1
  Ca2+  Ca20  1  0.58001112  0.33460690  0.82852967  1
  Ca2+  Ca21  1  0.57862680  0.83118655  0.15982009  1
  Ca2+  Ca22  1  0.56837536  0.83608518  0.49570420  1
  Ca2+  Ca23  1  0.58412199  0.82963595  0.83231701  1
  Ca2+  Ca24  1  0.32647380  0.42157857  0.17366115  1
  Ca2+  Ca25  1  0.32826577  0.41692599  0.50604440  1
  Ca2+  Ca26  1  0.33769945  0.42044868  0.83286497  1
  Ca2+  Ca27  1  0.32672953  0.92533332  0.17715503  1
  Ca2+  Ca28  1  0.33338704  0.92256717  0.50444176  1
  Ca2+  Ca29  1  0.33929624  0.92801926  0.83724899  1
  Ca2+  Ca30  1  0.82574727  0.42308337  0.17053581  1
  Ca2+  Ca31  1  0.82903366  0.41842470  0.50890269  1
  Ca2+  Ca32  1  0.83384281  0.42673296  0.83979530  1
  Ca2+  Ca33  1  0.82975565  0.90601139  0.16686387  1
  Ca2+  Ca34  1  0.83762357  0.92148775  0.50684150  1
  Ca2+  Ca35  1  0.83308224  0.91440157  0.83678236  1
  Ca2+  Ca36  1  0.41751018  0.16149206  0.16587970  1
  Ca2+  Ca37  1  0.41816701  0.16458031  0.49544950  1
  Ca2+  Ca38  1  0.41463922  0.16958384  0.82659426  1
  Ca2+  Ca39  1  0.41999367  0.67428227  0.16179750  1
  Ca2+  Ca40  1  0.40800266  0.67799798  0.49871939  1
  Ca2+  Ca41  1  0.42485449  0.66897087  0.82378003  1
  Ca2+  Ca42  1  0.93409523  0.16523973  0.16145648  1
  Ca2+  Ca43  1  0.91982223  0.16953869  0.49488863  1
  Ca2+  Ca44  1  0.92031005  0.16909167  0.82582182  1
  Ca2+  Ca45  1  0.91970993  0.67504152  0.15661290  1
  Ca2+  Ca46  1  0.91033962  0.67750188  0.49815766  1
  Ca2+  Ca47  1  0.91116433  0.67224201  0.82964985  1
  Al0+  Al48  1  0.00235379  0.00089292  -0.01123823  1
  Al0+  Al49  1  0.00010081  0.00129547  0.32683102  1
  Al0+  Al50  1  0.00072542  -0.00130165  0.66809479  1
  Al0+  Al51  1  0.00144983  0.49968006  0.00197129  1
  Al0+  Al52  1  -0.00155834  0.50172137  0.33971325  1
  Al0+  Al53  1  -0.00069148  0.49779678  0.66686449  1
  Al0+  Al54  1  0.50190485  0.00299632  0.00741445  1
  Al0+  Al55  1  0.50097193  0.00040021  0.32818537  1
  Al0+  Al56  1  0.49978171  -0.00169077  0.66769768  1
  Al0+  Al57  1  0.49929453  0.50093661  0.00083195  1
  Al0+  Al58  1  0.50128591  0.50001162  0.33843949  1
  Al0+  Al59  1  0.49866520  0.49785980  0.66435790  1
  Al0+  Al60  1  0.25162022  0.25070185  -0.00146127  1
  Al0+  Al61  1  0.25080128  0.25241851  0.33885455  1
  Al0+  Al62  1  0.25069728  0.24876812  0.66651914  1
  Al0+  Al63  1  0.24867820  0.75296700  -0.00354123  1
  Al0+  Al64  1  0.24794244  0.75133704  0.33134247  1
  Al0+  Al65  1  0.24974676  0.74824848  0.66805693  1
  Al0+  Al66  1  0.74972772  0.24893747  0.00304571  1
  Al0+  Al67  1  0.74845814  0.25109899  0.33245963  1
  Al0+  Al68  1  0.75104449  0.24778522  0.66802506  1
  Al0+  Al69  1  0.74790617  0.75039121  0.00133349  1
  Al0+  Al70  1  0.74852170  0.75006966  0.33092554  1
  Al0+  Al71  1  0.75012366  0.74801052  0.66409630  1
  Al0+  Al72  1  0.92755790  0.81965062  0.98285711  1
  Al0+  Al73  1  0.67955212  0.42803466  0.34995282  1
  Al0+  Al74  1  0.31976376  0.07227459  0.01494438  1
  Al0+  Al75  1  0.17625671  0.92874069  0.34741892  1
  Al0+  Al76  1  0.32289175  0.07003637  0.34999274  1
  Al0+  Al77  1  0.92933989  0.81964044  0.65128738  1
  Al0+  Al78  1  0.07258438  0.67579561  0.98429379  1
  Al0+  Al79  1  0.56783581  0.67877527  0.98679923  1
  Al0+  Al80  1  0.42706465  0.82102277  0.31836504  1
  Al0+  Al81  1  0.17831002  0.42966216  0.34756351  1
  Al0+  Al82  1  0.82239922  0.07092260  0.67908746  1
  Al0+  Al83  1  0.57149004  0.18008398  0.31884259  1
  Al0+  Al84  1  0.82015798  0.57031940  0.68023779  1
  Al0+  Al85  1  0.42902565  0.32075428  0.65243130  1
  Al0+  Al86  1  0.92880229  0.82152490  0.31890106  1
  Al0+  Al87  1  0.68127913  0.93012098  0.01390429  1
  Al0+  Al88  1  0.42901299  0.82081639  0.65462364  1
  Al0+  Al89  1  0.07100337  0.18264122  0.32120700  1
  Al0+  Al90  1  0.32055676  0.57080721  0.68050524  1
  Al0+  Al91  1  0.92867535  0.32050816  0.65380123  1
  Al0+  Al92  1  0.67681542  0.42791599  0.01516592  1
  Al0+  Al93  1  0.32080497  0.06949068  0.68108729  1
  Al0+  Al94  1  0.82284250  0.57155529  0.01662528  1
  Al0+  Al95  1  0.07372006  0.18021887  0.98439718  1
  Si0+  Si96  1  0.57223616  0.17824980  0.98446259  1
  Si0+  Si97  1  0.42857722  0.32350818  0.31649479  1
  Si0+  Si98  1  0.42978592  0.32064816  0.98638109  1
  Si0+  Si99  1  0.07248066  0.67670899  0.64868111  1
  Si0+  Si100  1  0.67803835  0.92781727  0.68135613  1
  Si0+  Si101  1  0.57209621  0.67693852  0.64894360  1
  Si0+  Si102  1  0.07235853  0.17765046  0.64891143  1
  Si0+  Si103  1  0.92676234  0.32026935  0.98528003  1
  Si0+  Si104  1  0.07126370  0.67652374  0.31862805  1
  Si0+  Si105  1  0.32109920  0.57359913  0.01368924  1
  Si0+  Si106  1  0.17745369  0.92844227  0.01548914  1
  Si0+  Si107  1  0.32267199  0.57316546  0.34911590  1
  Si0+  Si108  1  0.18085689  0.42961832  0.01292024  1
  Si0+  Si109  1  0.42859514  0.82480551  0.98401899  1
  Si0+  Si110  1  0.82517592  0.07228920  0.01690961  1
  Si0+  Si111  1  0.17701330  0.92640241  0.68525749  1
  Si0+  Si112  1  0.17802624  0.42724033  0.68537907  1
  Si0+  Si113  1  0.92692272  0.32454339  0.31680458  1
  Si0+  Si114  1  0.82077531  0.07017950  0.34516890  1
  Si0+  Si115  1  0.67773001  0.42655169  0.68290290  1
  Si0+  Si116  1  0.82066292  0.57316514  0.35185236  1
  Si0+  Si117  1  0.67922459  0.92762835  0.34835728  1
  Si0+  Si118  1  0.57103310  0.67732657  0.31674104  1
  Si0+  Si119  1  0.57185267  0.17713870  0.65186571  1
  O2-  O120  1  0.24581694  -0.00300010  0.06043416  1
  O2-  O121  1  0.25115913  -0.00292146  0.39901171  1
  O2-  O122  1  0.24746319  -0.00578502  0.72895675  1
  O2-  O123  1  0.24583551  0.50665651  0.05544909  1
  O2-  O124  1  0.25312121  0.50486120  0.39262613  1
  O2-  O125  1  0.24673893  0.49617438  0.72955237  1
  O2-  O126  1  0.75977557  0.00088939  0.06173700  1
  O2-  O127  1  0.75097898  -0.00164351  0.38955482  1
  O2-  O128  1  0.74901342  -0.00543429  0.72495493  1
  O2-  O129  1  0.75044720  0.49857490  0.06499111  1
  O2-  O130  1  0.75468745  0.50190919  0.39633849  1
  O2-  O131  1  0.74600884  0.49518389  0.72713267  1
  O2-  O132  1  -0.00123527  0.25936410  0.27212984  1
  O2-  O133  1  0.00182299  0.24498040  0.60574426  1
  O2-  O134  1  -0.00558141  0.25103946  0.93979071  1
  O2-  O135  1  0.00449604  0.74697963  0.27459850  1
  O2-  O136  1  0.00402635  0.74526003  0.60369143  1
  O2-  O137  1  -0.00275507  0.74421117  0.93410198  1
  O2-  O138  1  0.49576896  0.25408482  0.27123666  1
  O2-  O139  1  0.50341767  0.24553736  0.60701736  1
  O2-  O140  1  0.50321867  0.25182700  0.94397424  1
  O2-  O141  1  0.50066916  0.74465247  0.27297344  1
  O2-  O142  1  0.50179015  0.74477715  0.60580101  1
  O2-  O143  1  0.49348076  0.75327119  0.93872230  1
  O2-  O144  1  0.07567749  0.18327474  0.09770567  1
  O2-  O145  1  0.06715900  0.18227649  0.43417705  1
  O2-  O146  1  0.07295129  0.18059009  0.75485526  1
  O2-  O147  1  0.07336259  0.67666285  0.09807404  1
  O2-  O148  1  0.07001232  0.67462457  0.42419050  1
  O2-  O149  1  0.07219323  0.67813569  0.75420310  1
  O2-  O150  1  0.57164059  0.17745789  0.08938823  1
  O2-  O151  1  0.57350656  0.18086357  0.43213629  1
  O2-  O152  1  0.57149655  0.17738086  0.75781645  1
  O2-  O153  1  0.56348440  0.67780299  0.10002550  1
  O2-  O154  1  0.57267936  0.67899903  0.42248531  1
  O2-  O155  1  0.57197701  0.67809423  0.75468130  1
  O2-  O156  1  0.18108560  0.43045059  0.23371439  1
  O2-  O157  1  0.17844155  0.42801676  0.57970484  1
  O2-  O158  1  0.18445745  0.42667198  0.90816225  1
  O2-  O159  1  0.17626533  0.93116209  0.23372653  1
  O2-  O160  1  0.17575492  0.92824963  0.57968604  1
  O2-  O161  1  0.18022762  0.92854478  0.90978745  1
  O2-  O162  1  0.68031118  0.42973374  0.23710963  1
  O2-  O163  1  0.67918218  0.42715265  0.57709510  1
  O2-  O164  1  0.67596984  0.42845269  0.90145553  1
  O2-  O165  1  0.68015390  0.92704513  0.24340163  1
  O2-  O166  1  0.67617847  0.93024658  0.57540196  1
  O2-  O167  1  0.67822014  0.93398354  0.90061518  1
  O2-  O168  1  0.42690840  0.32062386  0.09130148  1
  O2-  O169  1  0.43029243  0.32382382  0.42204960  1
  O2-  O170  1  0.43119376  0.32065924  0.76625972  1
  O2-  O171  1  0.42970967  0.82248542  0.08975529  1
  O2-  O172  1  0.42912454  0.82019065  0.43186869  1
  O2-  O173  1  0.43319765  0.82174983  0.76773895  1
  O2-  O174  1  0.92769701  0.31848565  0.09103994  1
  O2-  O175  1  0.92658798  0.32141359  0.42265356  1
  O2-  O176  1  0.93101749  0.32004628  0.76710087  1
  O2-  O177  1  0.93039452  0.82005909  0.09669583  1
  O2-  O178  1  0.92743090  0.82116615  0.43232542  1
  O2-  O179  1  0.92830392  0.81857585  0.76373415  1
  O2-  O180  1  0.32071188  0.07007999  0.23614961  1
  O2-  O181  1  0.32158901  0.06890595  0.56857943  1
  O2-  O182  1  0.32038529  0.07308993  0.90144922  1
  O2-  O183  1  0.32381139  0.57113173  0.24294171  1
  O2-  O184  1  0.31707850  0.57057917  0.56739020  1
  O2-  O185  1  0.32368895  0.57023162  0.90886417  1
  O2-  O186  1  0.81964769  0.06977248  0.24016764  1
  O2-  O187  1  0.82046289  0.07089593  0.56536702  1
  O2-  O188  1  0.82085742  0.07483540  0.91114594  1
  O2-  O189  1  0.82084858  0.57293584  0.24659298  1
  O2-  O190  1  0.81665950  0.57070809  0.56696471  1
  O2-  O191  1  0.82114070  0.56931314  0.90269338  1
  O2-  O192  1  0.03832238  0.08851694  0.26359445  1
  O2-  O193  1  0.04779502  0.08326512  0.60515079  1
  O2-  O194  1  0.04822996  0.08451216  0.92711552  1
  O2-  O195  1  0.04328908  0.58307742  0.27226684  1
  O2-  O196  1  0.04813540  0.58197777  0.60463806  1
  O2-  O197  1  0.05178284  0.57438391  0.93342595  1
  O2-  O198  1  0.54321706  0.08381653  0.26282244  1
  O2-  O199  1  0.54631790  0.08364137  0.60569012  1
  O2-  O200  1  0.54149201  0.08750293  0.93669910  1
  O2-  O201  1  0.54590085  0.58284029  0.27227185  1
  O2-  O202  1  0.54741439  0.58289171  0.60379413  1
  O2-  O203  1  0.53678645  0.58269558  0.93130638  1
  O2-  O204  1  0.16855231  0.21454903  0.26876151  1
  O2-  O205  1  0.16504590  0.20542392  0.60294212  1
  O2-  O206  1  0.16789101  0.21743558  0.92916745  1
  O2-  O207  1  0.16578112  0.69659095  0.27227698  1
  O2-  O208  1  0.16646129  0.70109044  0.60304452  1
  O2-  O209  1  0.17044218  0.70708731  0.92956082  1
  O2-  O210  1  0.66723767  0.21198294  0.26297446  1
  O2-  O211  1  0.66540941  0.20207108  0.60551797  1
  O2-  O212  1  0.66510253  0.20330957  0.93724035  1
  O2-  O213  1  0.66318714  0.70508010  0.26918058  1
  O2-  O214  1  0.66417907  0.70364604  0.60078905  1
  O2-  O215  1  0.66398367  0.71004954  0.93346981  1
  O2-  O216  1  0.08812828  0.44944107  0.06192661  1
  O2-  O217  1  0.08165774  0.45842521  0.40331274  1
  O2-  O218  1  0.08460908  0.45243995  0.73155877  1
  O2-  O219  1  0.08252958  0.95484870  0.05777203  1
  O2-  O220  1  0.07841207  0.96194860  0.39972380  1
  O2-  O221  1  0.08481037  0.95422884  0.73297680  1
  O2-  O222  1  0.57876516  0.45841379  0.06913594  1
  O2-  O223  1  0.58295957  0.45841781  0.40496785  1
  O2-  O224  1  0.58321824  0.45102437  0.72690163  1
  O2-  O225  1  0.58737446  0.96500094  0.07157552  1
  O2-  O226  1  0.58795250  0.95800344  0.39486292  1
  O2-  O227  1  0.58645980  0.95509803  0.73044038  1
  O2-  O228  1  0.21667812  0.34123807  0.06244132  1
  O2-  O229  1  0.20968332  0.33568324  0.40539916  1
  O2-  O230  1  0.20513555  0.33378233  0.73083428  1
  O2-  O231  1  0.20128108  0.83440979  0.06220355  1
  O2-  O232  1  0.19934967  0.82811189  0.39874583  1
  O2-  O233  1  0.20060151  0.83204990  0.72977676  1
  O2-  O234  1  0.70370252  0.32845233  0.06777082  1
  O2-  O235  1  0.70966090  0.33102609  0.40381753  1
  O2-  O236  1  0.70156636  0.33238836  0.72818696  1
  O2-  O237  1  0.70614202  0.83315761  0.06970013  1
  O2-  O238  1  0.70470071  0.83550244  0.39611972  1
  O2-  O239  1  0.70279612  0.83341815  0.72550172  1
  O2-  O240  1  0.45502117  0.41776096  0.27134033  1
  O2-  O241  1  0.45774659  0.41675420  0.59603590  1
  O2-  O242  1  0.45550677  0.41299689  0.93875388  1
  O2-  O243  1  0.46108611  0.91557367  0.26336110  1
  O2-  O244  1  0.46227022  0.91604197  0.59865279  1
  O2-  O245  1  0.46019593  0.91821723  0.94077098  1
  O2-  O246  1  0.94949875  0.42034797  0.27471597  1
  O2-  O247  1  0.95958654  0.41621592  0.59770644  1
  O2-  O248  1  0.95459169  0.41365663  0.94058757  1
  O2-  O249  1  0.95743221  0.91726925  0.26258867  1
  O2-  O250  1  0.96015514  0.91755067  0.59907812  1
  O2-  O251  1  0.95687816  0.91738752  0.92809165  1
  O2-  O252  1  0.33388886  0.30011726  0.27191065  1
  O2-  O253  1  0.33185794  0.29088388  0.59940257  1
  O2-  O254  1  0.34049533  0.29035954  0.93567025  1
  O2-  O255  1  0.33023523  0.79187847  0.26347813  1
  O2-  O256  1  0.33191098  0.79022403  0.60133011  1
  O2-  O257  1  0.33368695  0.80506480  0.93934048  1
  O2-  O258  1  0.83465272  0.29635067  0.27038370  1
  O2-  O259  1  0.83166232  0.28991328  0.59985081  1
  O2-  O260  1  0.83286995  0.29557631  0.93894414  1
  O2-  O261  1  0.83176533  0.78953455  0.26598302  1
  O2-  O262  1  0.83212979  0.78965131  0.59686107  1
  O2-  O263  1  0.82735159  0.79510688  0.93261658  1
  O2-  O264  1  0.41666884  0.04426451  0.06900915  1
  O2-  O265  1  0.42287044  0.04153947  0.39968347  1
  O2-  O266  1  0.41807927  0.03931292  0.73543658  1
  O2-  O267  1  0.40955869  0.54067211  0.06436625  1
  O2-  O268  1  0.41535660  0.54834822  0.39690397  1
  O2-  O269  1  0.41774733  0.53864780  0.73362763  1
  O2-  O270  1  0.92193696  0.04985107  0.05709971  1
  O2-  O271  1  0.91235139  0.04302037  0.39247297  1
  O2-  O272  1  0.91905792  0.04251504  0.73375583  1
  O2-  O273  1  0.92174454  0.54335883  0.06981794  1
  O2-  O274  1  0.91443880  0.55195725  0.39931700  1
  O2-  O275  1  0.91736478  0.54001380  0.73301926  1
  O2-  O276  1  0.28834531  0.16920722  0.06814857  1
  O2-  O277  1  0.29560760  0.16929979  0.40119220  1
  O2-  O278  1  0.28991614  0.16663415  0.73496497  1
  O2-  O279  1  0.29811409  0.66774325  0.05882706  1
  O2-  O280  1  0.29605720  0.66674653  0.39411751  1
  O2-  O281  1  0.29174113  0.66701789  0.73664511  1
  O2-  O282  1  0.79703516  0.16414667  0.06490052  1
  O2-  O283  1  0.79193747  0.16174570  0.39268820  1
  O2-  O284  1  0.79032026  0.16574947  0.73642265  1
  O2-  O285  1  0.79225523  0.66921811  0.06841424  1
  O2-  O286  1  0.78946113  0.66590926  0.39771862  1
  O2-  O287  1  0.78820734  0.66690309  0.73373973  1
