# generated using pymatgen
data_Ca2Al2SiO7
_symmetry_space_group_name_H-M   'P 1'
_cell_length_a   15.45996681
_cell_length_b   15.45928580
_cell_length_c   15.28545487
_cell_angle_alpha   89.99785500
_cell_angle_beta   90.00565698
_cell_angle_gamma   90.01665674
_symmetry_Int_Tables_number   1
_chemical_formula_structural   Ca2Al2SiO7
_chemical_formula_sum   'Ca48 Al48 Si24 O168'
_cell_volume   3653.22423218
_cell_formula_units_Z   24
loop_
 _symmetry_equiv_pos_site_id
 _symmetry_equiv_pos_as_xyz
  1  'x, y, z'
loop_
 _atom_type_symbol
 _atom_type_oxidation_number
  Ca2+  2.0
  Al0+  0.0
  Si0+  0.0
  O2-  -2.0
loop_
 _atom_site_type_symbol
 _atom_site_label
 _atom_site_symmetry_multiplicity
 _atom_site_fract_x
 _atom_site_fract_y
 _atom_site_fract_z
 _atom_site_occupancy
  Ca2+  Ca0  1  0.17650469  0.08119897  0.17781091  1
  Ca2+  Ca1  1  0.15978764  0.07740716  0.50394551  1
  Ca2+  Ca2  1  0.16913302  0.07954263  0.83433659  1
  Ca2+  Ca3  1  0.16630250  0.58084205  0.16884242  1
  Ca2+  Ca4  1  0.16447115  0.57894806  0.51056358  1
  Ca2+  Ca5  1  0.17237781  0.57768910  0.83386536  1
  Ca2+  Ca6  1  0.66796290  0.07503741  0.17913597  1
  Ca2+  Ca7  1  0.67064366  0.08046983  0.49961653  1
  Ca2+  Ca8  1  0.66576799  0.07135884  0.83481213  1
  Ca2+  Ca9  1  0.67519965  0.58278938  0.16858474  1
  Ca2+  Ca10  1  0.67535659  0.57590744  0.51214192  1
  Ca2+  Ca11  1  0.67724845  0.58200846  0.83106838  1
  Ca2+  Ca12  1  0.08298956  0.32959665  0.16782166  1
  Ca2+  Ca13  1  0.08408970  0.32216631  0.49570191  1
  Ca2+  Ca14  1  0.09427154  0.32923717  0.82572815  1
  Ca2+  Ca15  1  0.08914937  0.82965911  0.16758608  1
  Ca2+  Ca16  1  0.09043754  0.82392126  0.49757813  1
  Ca2+  Ca17  1  0.07654512  0.82668133  0.81567995  1
  Ca2+  Ca18  1  0.58294620  0.32261015  0.16503454  1
  Ca2+  Ca19  1  0.57792543  0.33351372  0.49499651  1
  Ca2+  Ca20  1  0.57548958  0.33502255  0.82196706  1
  Ca2+  Ca21  1  0.58620839  0.83917166  0.16289956  1
  Ca2+  Ca22  1  0.57986741  0.84196282  0.50083835  1
  Ca2+  Ca23  1  0.57863328  0.83540363  0.82455248  1
  Ca2+  Ca24  1  0.32792613  0.42095609  0.16503461  1
  Ca2+  Ca25  1  0.32922397  0.42305985  0.51303462  1
  Ca2+  Ca26  1  0.32622605  0.42281085  0.83307894  1
  Ca2+  Ca27  1  0.32989604  0.92831429  0.17465361  1
  Ca2+  Ca28  1  0.32320932  0.92167879  0.50290114  1
  Ca2+  Ca29  1  0.32775446  0.91697015  0.83234362  1
  Ca2+  Ca30  1  0.84093299  0.42016386  0.17134950  1
  Ca2+  Ca31  1  0.83192485  0.41815974  0.50760543  1
  Ca2+  Ca32  1  0.83642543  0.43037142  0.83321744  1
  Ca2+  Ca33  1  0.82126168  0.92209539  0.17587942  1
  Ca2+  Ca34  1  0.82554072  0.91546946  0.50638061  1
  Ca2+  Ca35  1  0.82291283  0.90618817  0.83300923  1
  Ca2+  Ca36  1  0.41890676  0.15572828  0.16503051  1
  Ca2+  Ca37  1  0.41994756  0.16996573  0.49566794  1
  Ca2+  Ca38  1  0.41395764  0.17185380  0.82652463  1
  Ca2+  Ca39  1  0.41875104  0.66896750  0.16039941  1
  Ca2+  Ca40  1  0.40806281  0.67541131  0.50122409  1
  Ca2+  Ca41  1  0.41284444  0.66892578  0.82281087  1
  Ca2+  Ca42  1  0.91655717  0.16704342  0.17024826  1
  Ca2+  Ca43  1  0.92507279  0.16955033  0.49108524  1
  Ca2+  Ca44  1  0.92609141  0.17080795  0.82385278  1
  Ca2+  Ca45  1  0.92190313  0.66594676  0.16391191  1
  Ca2+  Ca46  1  0.92471046  0.66854466  0.50049466  1
  Ca2+  Ca47  1  0.91872813  0.66779185  0.82326443  1
  Al0+  Al48  1  -0.00196876  -0.00013974  -0.00167595  1
  Al0+  Al49  1  -0.00069149  -0.00115424  0.33395368  1
  Al0+  Al50  1  -0.00125100  0.00015947  0.66443565  1
  Al0+  Al51  1  -0.00056080  0.49953502  0.00629085  1
  Al0+  Al52  1  0.00142315  0.50193205  0.32641284  1
  Al0+  Al53  1  0.00024062  0.49859144  0.67129553  1
  Al0+  Al54  1  0.49978273  -0.00173657  0.00387423  1
  Al0+  Al55  1  0.49794845  0.00101731  0.33704618  1
  Al0+  Al56  1  0.50077282  0.00005483  0.66588835  1
  Al0+  Al57  1  0.50114193  0.49906789  0.00236220  1
  Al0+  Al58  1  0.50049255  0.50228246  0.33026125  1
  Al0+  Al59  1  0.50062298  0.50039380  0.66853948  1
  Al0+  Al60  1  0.25111355  0.24961245  0.00769568  1
  Al0+  Al61  1  0.25008438  0.25374860  0.33193176  1
  Al0+  Al62  1  0.25285400  0.25016191  0.65967391  1
  Al0+  Al63  1  0.25079080  0.74879517  0.00090099  1
  Al0+  Al64  1  0.25164535  0.75082313  0.32848259  1
  Al0+  Al65  1  0.25018829  0.75240449  0.66556782  1
  Al0+  Al66  1  0.75080354  0.24904747  -0.00484929  1
  Al0+  Al67  1  0.74724745  0.25056422  0.32760782  1
  Al0+  Al68  1  0.74976452  0.24769102  0.67215054  1
  Al0+  Al69  1  0.74962206  0.74846598  0.00791248  1
  Al0+  Al70  1  0.74976765  0.74841274  0.33668901  1
  Al0+  Al71  1  0.74894334  0.75009077  0.66956553  1
  Al0+  Al72  1  0.82190905  0.57030712  0.68010978  1
  Al0+  Al73  1  0.42858351  0.82230475  0.65265196  1
  Al0+  Al74  1  0.07148344  0.68131774  0.31748175  1
  Al0+  Al75  1  0.17944615  0.42635707  0.67864478  1
  Al0+  Al76  1  0.82074664  0.07386146  0.34811452  1
  Al0+  Al77  1  0.32023090  0.07467009  0.35092966  1
  Al0+  Al78  1  0.07225163  0.17942425  0.65420902  1
  Al0+  Al79  1  0.56712066  0.18006336  0.31987673  1
  Al0+  Al80  1  0.07109460  0.67786300  0.65352671  1
  Al0+  Al81  1  0.32064803  0.57359703  0.67890862  1
  Al0+  Al82  1  0.68060699  0.93056161  0.01371665  1
  Al0+  Al83  1  0.31893539  0.06899681  0.01176162  1
  Al0+  Al84  1  0.67887159  0.92758519  0.35129491  1
  Al0+  Al85  1  0.17865450  0.92779850  0.34780453  1
  Al0+  Al86  1  0.92565369  0.82094345  0.65148759  1
  Al0+  Al87  1  0.43098223  0.32237624  0.65351603  1
  Al0+  Al88  1  0.32289354  0.57283889  0.01620698  1
  Al0+  Al89  1  0.92884595  0.32052680  0.31903044  1
  Al0+  Al90  1  0.17724209  0.93000819  0.67976241  1
  Al0+  Al91  1  0.67918922  0.93076642  0.68135594  1
  Al0+  Al92  1  0.81950411  0.56914631  0.01626263  1
  Al0+  Al93  1  0.67769850  0.42573042  0.68041950  1
  Al0+  Al94  1  0.07223757  0.17597217  0.31663517  1
  Al0+  Al95  1  0.17943115  0.42880249  0.01747949  1
  Si0+  Si96  1  0.67778233  0.42525428  0.01767891  1
  Si0+  Si97  1  0.17842104  0.43260383  0.34870496  1
  Si0+  Si98  1  0.57157035  0.67864945  0.65048206  1
  Si0+  Si99  1  0.57306788  0.17729894  0.65095992  1
  Si0+  Si100  1  0.43012344  0.82058432  0.98502822  1
  Si0+  Si101  1  0.32182295  0.07137141  0.68189667  1
  Si0+  Si102  1  0.92814284  0.82005998  0.98657894  1
  Si0+  Si103  1  0.42971786  0.32007504  0.98503311  1
  Si0+  Si104  1  0.82271737  0.56935601  0.34879808  1
  Si0+  Si105  1  0.43100502  0.82017543  0.31683529  1
  Si0+  Si106  1  0.07112645  0.67879134  0.98428655  1
  Si0+  Si107  1  0.32303994  0.57098332  0.34764385  1
  Si0+  Si108  1  0.07201833  0.17964556  0.98541052  1
  Si0+  Si109  1  0.92894441  0.32205665  0.98268322  1
  Si0+  Si110  1  0.57078867  0.17647459  0.98365387  1
  Si0+  Si111  1  0.82354173  0.07241837  0.68526044  1
  Si0+  Si112  1  0.57241439  0.67786251  0.31750322  1
  Si0+  Si113  1  0.42785606  0.32676920  0.31381889  1
  Si0+  Si114  1  0.92449922  0.82104121  0.31572607  1
  Si0+  Si115  1  0.57231037  0.67826552  0.98524162  1
  Si0+  Si116  1  0.92659134  0.32128365  0.65327928  1
  Si0+  Si117  1  0.82318841  0.07420516  0.01620910  1
  Si0+  Si118  1  0.17486500  0.92722253  0.01436749  1
  Si0+  Si119  1  0.67796169  0.43018745  0.34581307  1
  O2-  O120  1  0.24281290  -0.00390377  0.05833152  1
  O2-  O121  1  0.24258867  0.00724553  0.39803682  1
  O2-  O122  1  0.25198288  0.00443067  0.72707094  1
  O2-  O123  1  0.24910331  0.50382451  0.06756817  1
  O2-  O124  1  0.25284330  0.50024155  0.38987208  1
  O2-  O125  1  0.24855779  0.50147942  0.72819884  1
  O2-  O126  1  0.75351158  0.00654129  0.05961378  1
  O2-  O127  1  0.75321200  -0.00188455  0.39920604  1
  O2-  O128  1  0.75599877  0.00222667  0.72953633  1
  O2-  O129  1  0.74764601  0.49161480  0.06364408  1
  O2-  O130  1  0.75173546  0.49754248  0.38880804  1
  O2-  O131  1  0.75102548  0.49645696  0.73004448  1
  O2-  O132  1  -0.00184993  0.24663360  0.26657061  1
  O2-  O133  1  -0.00335819  0.25450536  0.60963616  1
  O2-  O134  1  0.00088571  0.25082462  0.94232623  1
  O2-  O135  1  -0.00226335  0.75731473  0.27020062  1
  O2-  O136  1  0.00037567  0.75106461  0.60267485  1
  O2-  O137  1  0.00339308  0.75371930  0.94375911  1
  O2-  O138  1  0.49070774  0.25226034  0.26991242  1
  O2-  O139  1  0.50944275  0.25109646  0.60794856  1
  O2-  O140  1  0.50219693  0.25011765  0.94213975  1
  O2-  O141  1  0.50497252  0.75183883  0.27438667  1
  O2-  O142  1  0.50126638  0.74527345  0.60560054  1
  O2-  O143  1  0.49750552  0.74548081  0.94340201  1
  O2-  O144  1  0.07048170  0.17877562  0.08992986  1
  O2-  O145  1  0.07265412  0.18094996  0.42997880  1
  O2-  O146  1  0.07228814  0.18054382  0.76844899  1
  O2-  O147  1  0.07046328  0.68049082  0.08971855  1
  O2-  O148  1  0.07090380  0.67744939  0.42979374  1
  O2-  O149  1  0.07025518  0.67904140  0.76782398  1
  O2-  O150  1  0.56990878  0.17656911  0.08868496  1
  O2-  O151  1  0.56799318  0.18453131  0.43267133  1
  O2-  O152  1  0.56938600  0.17509200  0.75718979  1
  O2-  O153  1  0.57255676  0.67995326  0.09080712  1
  O2-  O154  1  0.57076530  0.67212269  0.42173294  1
  O2-  O155  1  0.57224364  0.68086849  0.75657450  1
  O2-  O156  1  0.17882941  0.43457485  0.24338919  1
  O2-  O157  1  0.18091491  0.42632646  0.56486663  1
  O2-  O158  1  0.18217621  0.42683958  0.90429241  1
  O2-  O159  1  0.18571501  0.92467734  0.23340705  1
  O2-  O160  1  0.17940869  0.92956412  0.56737640  1
  O2-  O161  1  0.17462101  0.92810701  0.90885318  1
  O2-  O162  1  0.67607908  0.43397797  0.24049174  1
  O2-  O163  1  0.67914675  0.42735781  0.56620458  1
  O2-  O164  1  0.67706330  0.42656395  0.91259325  1
  O2-  O165  1  0.67956969  0.92789798  0.23703451  1
  O2-  O166  1  0.67823032  0.93360824  0.56906449  1
  O2-  O167  1  0.67960582  0.92997109  0.90078233  1
  O2-  O168  1  0.43194947  0.32027483  0.09015271  1
  O2-  O169  1  0.43296071  0.33299003  0.41885518  1
  O2-  O170  1  0.42971500  0.31886034  0.76735258  1
  O2-  O171  1  0.43240443  0.82156092  0.09032818  1
  O2-  O172  1  0.42928026  0.81728209  0.42157964  1
  O2-  O173  1  0.43106421  0.82334680  0.76643980  1
  O2-  O174  1  0.92651979  0.32076057  0.08746014  1
  O2-  O175  1  0.93048935  0.32379607  0.43248917  1
  O2-  O176  1  0.92583484  0.31882845  0.75931943  1
  O2-  O177  1  0.92811252  0.81925457  0.09160953  1
  O2-  O178  1  0.91919398  0.81501561  0.42038721  1
  O2-  O179  1  0.92632627  0.81795117  0.76633471  1
  O2-  O180  1  0.32236872  0.06807991  0.23677077  1
  O2-  O181  1  0.32276285  0.07048318  0.57686815  1
  O2-  O182  1  0.31865433  0.06963630  0.89866154  1
  O2-  O183  1  0.32461186  0.56958139  0.24240923  1
  O2-  O184  1  0.32023925  0.57145790  0.56477829  1
  O2-  O185  1  0.32319669  0.57363674  0.90346747  1
  O2-  O186  1  0.81545299  0.07230204  0.23370683  1
  O2-  O187  1  0.82113050  0.07620158  0.58030398  1
  O2-  O188  1  0.82410272  0.07475878  0.91081527  1
  O2-  O189  1  0.82042263  0.56970801  0.24327562  1
  O2-  O190  1  0.82046630  0.56865109  0.56616920  1
  O2-  O191  1  0.81835013  0.57055011  0.90384028  1
  O2-  O192  1  0.04855407  0.07569125  0.26418609  1
  O2-  O193  1  0.04059281  0.08395285  0.60029579  1
  O2-  O194  1  0.04427831  0.08699149  0.93777593  1
  O2-  O195  1  0.03759440  0.58723266  0.25998292  1
  O2-  O196  1  0.04240397  0.57841231  0.60218332  1
  O2-  O197  1  0.03955272  0.58669888  0.94067017  1
  O2-  O198  1  0.53694625  0.08237473  0.26583062  1
  O2-  O199  1  0.54232423  0.08683076  0.60276220  1
  O2-  O200  1  0.53942195  0.08529022  0.93689824  1
  O2-  O201  1  0.54153276  0.58857093  0.26518694  1
  O2-  O202  1  0.54979321  0.58413915  0.60509324  1
  O2-  O203  1  0.54984538  0.58407631  0.94015232  1
  O2-  O204  1  0.17043731  0.20968303  0.26387229  1
  O2-  O205  1  0.16730091  0.20889351  0.59770832  1
  O2-  O206  1  0.16473328  0.20844256  0.94023674  1
  O2-  O207  1  0.16839680  0.71099334  0.26133605  1
  O2-  O208  1  0.16884033  0.70677987  0.60016677  1
  O2-  O209  1  0.16518232  0.70194258  0.93913048  1
  O2-  O210  1  0.66118362  0.21262705  0.26110671  1
  O2-  O211  1  0.66906466  0.19732271  0.60806928  1
  O2-  O212  1  0.66400584  0.20039610  0.93641269  1
  O2-  O213  1  0.66541417  0.70304336  0.27011270  1
  O2-  O214  1  0.66383826  0.70642960  0.60370437  1
  O2-  O215  1  0.66327293  0.71049326  0.93907356  1
  O2-  O216  1  0.08096219  0.45554866  0.07049044  1
  O2-  O217  1  0.08763625  0.46490715  0.39414672  1
  O2-  O218  1  0.08082223  0.44862206  0.73330959  1
  O2-  O219  1  0.08054287  0.95081056  0.06004162  1
  O2-  O220  1  0.07638272  0.94341374  0.39590811  1
  O2-  O221  1  0.08042483  0.95956489  0.73437036  1
  O2-  O222  1  0.58529936  0.45164231  0.06541317  1
  O2-  O223  1  0.58737249  0.46237195  0.39331395  1
  O2-  O224  1  0.58142403  0.45689926  0.73558773  1
  O2-  O225  1  0.58441291  0.96027805  0.06843382  1
  O2-  O226  1  0.58041335  0.95733612  0.40107530  1
  O2-  O227  1  0.58336854  0.96432889  0.73642177  1
  O2-  O228  1  0.21154550  0.33281499  0.07322753  1
  O2-  O229  1  0.20232655  0.33932424  0.39357597  1
  O2-  O230  1  0.21456991  0.32962908  0.73189819  1
  O2-  O231  1  0.20110485  0.83354164  0.05936188  1
  O2-  O232  1  0.21664164  0.83118160  0.39923385  1
  O2-  O233  1  0.21005834  0.83498607  0.73517608  1
  O2-  O234  1  0.70236635  0.32970788  0.06068663  1
  O2-  O235  1  0.70074361  0.33724653  0.39090044  1
  O2-  O236  1  0.70067563  0.32679555  0.73531393  1
  O2-  O237  1  0.71097428  0.83510816  0.06968899  1
  O2-  O238  1  0.70376921  0.82718650  0.40197988  1
  O2-  O239  1  0.70694316  0.83355474  0.73590806  1
  O2-  O240  1  0.46061858  0.41748977  0.26401882  1
  O2-  O241  1  0.45964408  0.41947907  0.59895160  1
  O2-  O242  1  0.45723379  0.41270888  0.93866185  1
  O2-  O243  1  0.45728676  0.91276818  0.27043585  1
  O2-  O244  1  0.46298835  0.91727698  0.59794195  1
  O2-  O245  1  0.46189374  0.91097100  0.93712749  1
  O2-  O246  1  0.96158245  0.41711632  0.26299076  1
  O2-  O247  1  0.94816327  0.41594347  0.60900352  1
  O2-  O248  1  0.95641487  0.41521477  0.93804732  1
  O2-  O249  1  0.94357507  0.91665185  0.27157238  1
  O2-  O250  1  0.94821134  0.92105676  0.60168465  1
  O2-  O251  1  0.94889969  0.91403495  0.93917713  1
  O2-  O252  1  0.33206797  0.30822378  0.27039184  1
  O2-  O253  1  0.33811674  0.28937097  0.59474172  1
  O2-  O254  1  0.33778810  0.28941611  0.94001640  1
  O2-  O255  1  0.34222623  0.78896540  0.26539398  1
  O2-  O256  1  0.33322473  0.79271417  0.59645188  1
  O2-  O257  1  0.33621139  0.79684309  0.93911304  1
  O2-  O258  1  0.82949781  0.29732659  0.26375392  1
  O2-  O259  1  0.83258634  0.29458003  0.60801690  1
  O2-  O260  1  0.83711221  0.29485374  0.93382250  1
  O2-  O261  1  0.83276874  0.78866768  0.26706651  1
  O2-  O262  1  0.82784919  0.79036486  0.59905554  1
  O2-  O263  1  0.83678851  0.78654974  0.94122886  1
  O2-  O264  1  0.41410068  0.03542946  0.06716831  1
  O2-  O265  1  0.41616740  0.04122156  0.40423066  1
  O2-  O266  1  0.41462638  0.04442553  0.72903778  1
  O2-  O267  1  0.42166233  0.54310356  0.06928303  1
  O2-  O268  1  0.41547578  0.54430553  0.39423505  1
  O2-  O269  1  0.41916087  0.54649901  0.73187038  1
  O2-  O270  1  0.91651572  0.04750779  0.06250541  1
  O2-  O271  1  0.92178933  0.05269678  0.39681619  1
  O2-  O272  1  0.91699792  0.04849065  0.73192693  1
  O2-  O273  1  0.91556257  0.54010103  0.07164820  1
  O2-  O274  1  0.91506332  0.54154074  0.39345557  1
  O2-  O275  1  0.91831488  0.54227955  0.73730103  1
  O2-  O276  1  0.29282002  0.16446589  0.06919446  1
  O2-  O277  1  0.30196569  0.17786312  0.39724609  1
  O2-  O278  1  0.29640553  0.16532922  0.72667467  1
  O2-  O279  1  0.29686348  0.67231299  0.06963359  1
  O2-  O280  1  0.29590758  0.66397835  0.39104919  1
  O2-  O281  1  0.29439835  0.67172004  0.73260654  1
  O2-  O282  1  0.79840455  0.16869353  0.06062165  1
  O2-  O283  1  0.78742720  0.17188912  0.39904825  1
  O2-  O284  1  0.79667054  0.16417001  0.73564117  1
  O2-  O285  1  0.78532101  0.66290741  0.07386703  1
  O2-  O286  1  0.79326103  0.65995595  0.39586188  1
  O2-  O287  1  0.78928040  0.66644983  0.73521970  1
