# generated using pymatgen
data_Ca2Al2SiO7
_symmetry_space_group_name_H-M   'P 1'
_cell_length_a   15.46533852
_cell_length_b   15.46355527
_cell_length_c   15.28822130
_cell_angle_alpha   89.98231707
_cell_angle_beta   90.00673588
_cell_angle_gamma   90.00261214
_symmetry_Int_Tables_number   1
_chemical_formula_structural   Ca2Al2SiO7
_chemical_formula_sum   'Ca48 Al48 Si24 O168'
_cell_volume   3656.16442069
_cell_formula_units_Z   24
loop_
 _symmetry_equiv_pos_site_id
 _symmetry_equiv_pos_as_xyz
  1  'x, y, z'
loop_
 _atom_type_symbol
 _atom_type_oxidation_number
  Ca2+  2.0
  Al0+  0.0
  Si0+  0.0
  O2-  -2.0
loop_
 _atom_site_type_symbol
 _atom_site_label
 _atom_site_symmetry_multiplicity
 _atom_site_fract_x
 _atom_site_fract_y
 _atom_site_fract_z
 _atom_site_occupancy
  Ca2+  Ca0  1  0.17980450  0.08466430  0.16980951  1
  Ca2+  Ca1  1  0.17714286  0.09316872  0.50700655  1
  Ca2+  Ca2  1  0.17922507  0.09433888  0.83473093  1
  Ca2+  Ca3  1  0.16308822  0.58773400  0.16982124  1
  Ca2+  Ca4  1  0.16540590  0.57697197  0.50649948  1
  Ca2+  Ca5  1  0.16708463  0.57784012  0.83794417  1
  Ca2+  Ca6  1  0.67225172  0.08146325  0.16734991  1
  Ca2+  Ca7  1  0.67696951  0.08079512  0.51291442  1
  Ca2+  Ca8  1  0.66887690  0.07978725  0.84297183  1
  Ca2+  Ca9  1  0.66472054  0.58297520  0.16479959  1
  Ca2+  Ca10  1  0.66189763  0.57888003  0.50887628  1
  Ca2+  Ca11  1  0.66103250  0.57439604  0.84129771  1
  Ca2+  Ca12  1  0.07219545  0.33408668  0.16475639  1
  Ca2+  Ca13  1  0.07806922  0.33032730  0.50022170  1
  Ca2+  Ca14  1  0.07945923  0.32906957  0.82483354  1
  Ca2+  Ca15  1  0.07767481  0.82432855  0.15609366  1
  Ca2+  Ca16  1  0.08296508  0.82714107  0.49352401  1
  Ca2+  Ca17  1  0.07617562  0.83239131  0.83386575  1
  Ca2+  Ca18  1  0.57676603  0.32568115  0.15348675  1
  Ca2+  Ca19  1  0.58435238  0.32795341  0.50448875  1
  Ca2+  Ca20  1  0.58092165  0.32539128  0.82760814  1
  Ca2+  Ca21  1  0.59244340  0.82452683  0.15973494  1
  Ca2+  Ca22  1  0.59316292  0.82406136  0.50120512  1
  Ca2+  Ca23  1  0.60257063  0.82368172  0.83137295  1
  Ca2+  Ca24  1  0.33491365  0.41620728  0.16665350  1
  Ca2+  Ca25  1  0.32814542  0.41562055  0.51152086  1
  Ca2+  Ca26  1  0.32970561  0.40293310  0.83463539  1
  Ca2+  Ca27  1  0.33992716  0.93005533  0.16893841  1
  Ca2+  Ca28  1  0.33188570  0.92767909  0.50432670  1
  Ca2+  Ca29  1  0.33729305  0.93076549  0.83673500  1
  Ca2+  Ca30  1  0.82695321  0.41749015  0.16647805  1
  Ca2+  Ca31  1  0.82885175  0.41798460  0.50495904  1
  Ca2+  Ca32  1  0.81580430  0.41979324  0.84017336  1
  Ca2+  Ca33  1  0.83418214  0.92289230  0.16257736  1
  Ca2+  Ca34  1  0.82992308  0.92650131  0.50684985  1
  Ca2+  Ca35  1  0.82569831  0.92538584  0.83829696  1
  Ca2+  Ca36  1  0.41979764  0.16824502  0.15485657  1
  Ca2+  Ca37  1  0.41770000  0.16544716  0.50335152  1
  Ca2+  Ca38  1  0.42581276  0.16971134  0.82867505  1
  Ca2+  Ca39  1  0.42798767  0.67032368  0.16005196  1
  Ca2+  Ca40  1  0.42939327  0.66742545  0.49723485  1
  Ca2+  Ca41  1  0.42931103  0.66971011  0.82948111  1
  Ca2+  Ca42  1  0.90888383  0.16734093  0.16388363  1
  Ca2+  Ca43  1  0.91637618  0.16685227  0.49568204  1
  Ca2+  Ca44  1  0.92126452  0.15669217  0.82564979  1
  Ca2+  Ca45  1  0.92462375  0.66944120  0.15271285  1
  Ca2+  Ca46  1  0.92202746  0.66923495  0.49243664  1
  Ca2+  Ca47  1  0.90733663  0.67157345  0.83769021  1
  Al0+  Al48  1  0.00112950  -0.00167007  0.00004726  1
  Al0+  Al49  1  0.00176941  0.00008944  0.33603669  1
  Al0+  Al50  1  0.00182666  -0.00167144  0.66216302  1
  Al0+  Al51  1  0.00063700  0.49795139  -0.00145717  1
  Al0+  Al52  1  -0.00142695  0.49862613  0.32659542  1
  Al0+  Al53  1  0.00177827  0.50047114  0.67113548  1
  Al0+  Al54  1  0.50045399  -0.00019906  0.00688907  1
  Al0+  Al55  1  0.50049755  -0.00081534  0.34044935  1
  Al0+  Al56  1  0.49985202  -0.00274427  0.66990519  1
  Al0+  Al57  1  0.49461369  0.50045957  -0.00237888  1
  Al0+  Al58  1  0.49926355  0.49951161  0.33032653  1
  Al0+  Al59  1  0.49919368  0.50173467  0.66252345  1
  Al0+  Al60  1  0.24739231  0.25063675  0.00487643  1
  Al0+  Al61  1  0.24851940  0.25157529  0.33724026  1
  Al0+  Al62  1  0.24769925  0.25098412  0.66669664  1
  Al0+  Al63  1  0.24970008  0.74825248  -0.00460004  1
  Al0+  Al64  1  0.25283114  0.75003481  0.33020672  1
  Al0+  Al65  1  0.25069735  0.74977578  0.66570786  1
  Al0+  Al66  1  0.74872420  0.25151278  0.00373404  1
  Al0+  Al67  1  0.74880974  0.25078735  0.33357861  1
  Al0+  Al68  1  0.75098656  0.25319267  0.67048156  1
  Al0+  Al69  1  0.75303325  0.74988098  -0.00055763  1
  Al0+  Al70  1  0.75199423  0.74894123  0.32902980  1
  Al0+  Al71  1  0.75358006  0.75210209  0.66146764  1
  Al0+  Al72  1  0.42895183  0.31939818  0.65087968  1
  Al0+  Al73  1  0.82018531  0.07212063  0.34851733  1
  Al0+  Al74  1  0.67955211  0.92805454  0.68081461  1
  Al0+  Al75  1  0.92748055  0.31887918  0.31922743  1
  Al0+  Al76  1  0.82231996  0.07230326  0.68028101  1
  Al0+  Al77  1  0.32104096  0.07257515  0.34962890  1
  Al0+  Al78  1  0.57204002  0.17807360  0.98688661  1
  Al0+  Al79  1  0.57056610  0.68089457  0.98618091  1
  Al0+  Al80  1  0.57159904  0.68146924  0.65326117  1
  Al0+  Al81  1  0.07123535  0.67946772  0.32036650  1
  Al0+  Al82  1  0.82060929  0.56901533  0.01511375  1
  Al0+  Al83  1  0.67737913  0.43110711  0.67918074  1
  Al0+  Al84  1  0.57340505  0.17632112  0.65218455  1
  Al0+  Al85  1  0.31977532  0.07054006  0.68144342  1
  Al0+  Al86  1  0.07224882  0.67619544  0.98086172  1
  Al0+  Al87  1  0.17983051  0.43016247  0.68085967  1
  Al0+  Al88  1  0.42553088  0.32033823  0.98599583  1
  Al0+  Al89  1  0.57154082  0.67849861  0.31787477  1
  Al0+  Al90  1  0.82366773  0.07234757  0.01513864  1
  Al0+  Al91  1  0.06907807  0.17900063  0.65311820  1
  Al0+  Al92  1  0.67927089  0.92827080  0.01634002  1
  Al0+  Al93  1  0.31955747  0.07099613  0.01374479  1
  Al0+  Al94  1  0.67375527  0.42979565  0.01654324  1
  Al0+  Al95  1  0.92961602  0.82210631  0.98225338  1
  Si0+  Si96  1  0.82164580  0.57010204  0.34691299  1
  Si0+  Si97  1  0.42414072  0.82231412  0.64859508  1
  Si0+  Si98  1  0.17901574  0.92584205  0.01597076  1
  Si0+  Si99  1  0.67954246  0.92544062  0.35129895  1
  Si0+  Si100  1  0.17786583  0.92442951  0.68310379  1
  Si0+  Si101  1  0.32235844  0.57075699  0.34798081  1
  Si0+  Si102  1  0.32194601  0.57319040  0.68345909  1
  Si0+  Si103  1  0.92804695  0.32499116  0.65178980  1
  Si0+  Si104  1  0.42737009  0.82334553  0.98379226  1
  Si0+  Si105  1  0.07347417  0.17829850  0.31604174  1
  Si0+  Si106  1  0.06948923  0.17952403  0.98777362  1
  Si0+  Si107  1  0.17966312  0.92674513  0.34897187  1
  Si0+  Si108  1  0.56988141  0.17840913  0.32078342  1
  Si0+  Si109  1  0.67694373  0.43058690  0.34900901  1
  Si0+  Si110  1  0.17712758  0.43158842  0.34842857  1
  Si0+  Si111  1  0.42703867  0.32004997  0.31958085  1
  Si0+  Si112  1  0.07276270  0.67785579  0.65101776  1
  Si0+  Si113  1  0.31909093  0.57319777  0.01608520  1
  Si0+  Si114  1  0.92931254  0.82385137  0.31553724  1
  Si0+  Si115  1  0.17869901  0.42891003  0.01777066  1
  Si0+  Si116  1  0.82358893  0.57315778  0.68071257  1
  Si0+  Si117  1  0.93138707  0.82009545  0.64778925  1
  Si0+  Si118  1  0.92808449  0.32059000  0.98463146  1
  Si0+  Si119  1  0.42955569  0.82304530  0.31658284  1
  O2-  O120  1  0.24824677  -0.00690476  0.06145043  1
  O2-  O121  1  0.24439348  -0.00164084  0.39445555  1
  O2-  O122  1  0.24533597  -0.00585357  0.72671057  1
  O2-  O123  1  0.24785833  0.50213962  0.05908346  1
  O2-  O124  1  0.24868039  0.50246990  0.39030829  1
  O2-  O125  1  0.25614377  0.50234781  0.72839829  1
  O2-  O126  1  0.74928307  0.00284121  0.06563233  1
  O2-  O127  1  0.74695029  -0.00417698  0.39440604  1
  O2-  O128  1  0.74307997  0.00824979  0.72944776  1
  O2-  O129  1  0.74610751  0.50122367  0.06804246  1
  O2-  O130  1  0.74736158  0.50341017  0.39054815  1
  O2-  O131  1  0.75238532  0.50682092  0.72304946  1
  O2-  O132  1  -0.00028839  0.24125273  0.27173889  1
  O2-  O133  1  -0.00903655  0.25084305  0.60718310  1
  O2-  O134  1  -0.00729069  0.24316588  0.94449975  1
  O2-  O135  1  -0.00113172  0.75514032  0.27306125  1
  O2-  O136  1  0.00278985  0.74823412  0.60689218  1
  O2-  O137  1  -0.00041703  0.74737846  0.93164264  1
  O2-  O138  1  0.49438688  0.24542311  0.27900684  1
  O2-  O139  1  0.50084203  0.24765548  0.59967602  1
  O2-  O140  1  0.50103580  0.25180559  0.93796876  1
  O2-  O141  1  0.50016786  0.75672617  0.27224417  1
  O2-  O142  1  0.49744167  0.75703035  0.60600216  1
  O2-  O143  1  0.50018089  0.75961285  0.93909380  1
  O2-  O144  1  0.07246382  0.18353452  0.09310728  1
  O2-  O145  1  0.07597828  0.18247526  0.42137924  1
  O2-  O146  1  0.06980840  0.18133806  0.76660935  1
  O2-  O147  1  0.07244236  0.67870104  0.09501618  1
  O2-  O148  1  0.06893966  0.67882107  0.43409164  1
  O2-  O149  1  0.07405934  0.67796768  0.75517853  1
  O2-  O150  1  0.56861576  0.17855697  0.10174539  1
  O2-  O151  1  0.57133951  0.18068742  0.42566775  1
  O2-  O152  1  0.57288523  0.17718727  0.76503455  1
  O2-  O153  1  0.56665727  0.68071156  0.09965625  1
  O2-  O154  1  0.56976399  0.67707484  0.43104409  1
  O2-  O155  1  0.57097853  0.68131960  0.76583044  1
  O2-  O156  1  0.17803989  0.43074124  0.24330894  1
  O2-  O157  1  0.17736771  0.43426585  0.56709844  1
  O2-  O158  1  0.17930053  0.42651551  0.91299278  1
  O2-  O159  1  0.18143236  0.92628395  0.24366363  1
  O2-  O160  1  0.17993657  0.92060478  0.57718040  1
  O2-  O161  1  0.17969571  0.92689059  0.91052152  1
  O2-  O162  1  0.67552939  0.43056268  0.24441751  1
  O2-  O163  1  0.67971446  0.43280780  0.56502436  1
  O2-  O164  1  0.67498714  0.43064353  0.90309841  1
  O2-  O165  1  0.67888014  0.92472447  0.24619999  1
  O2-  O166  1  0.68669046  0.92411883  0.56669918  1
  O2-  O167  1  0.68126368  0.92894626  0.90318223  1
  O2-  O168  1  0.42376898  0.31738309  0.10078749  1
  O2-  O169  1  0.42674427  0.32313410  0.42416927  1
  O2-  O170  1  0.42859568  0.31708911  0.76373108  1
  O2-  O171  1  0.42431425  0.81914105  0.08972305  1
  O2-  O172  1  0.42662835  0.82036382  0.42198256  1
  O2-  O173  1  0.41505244  0.81799285  0.75333878  1
  O2-  O174  1  0.93184068  0.32284911  0.09013031  1
  O2-  O175  1  0.93026436  0.32209322  0.43225413  1
  O2-  O176  1  0.93233707  0.32956726  0.75696653  1
  O2-  O177  1  0.93447158  0.82271964  0.09629467  1
  O2-  O178  1  0.93009832  0.82127741  0.42159534  1
  O2-  O179  1  0.93096442  0.81971324  0.75213819  1
  O2-  O180  1  0.32010049  0.07285321  0.23653053  1
  O2-  O181  1  0.31653668  0.06962481  0.56789679  1
  O2-  O182  1  0.31640533  0.07289022  0.90115644  1
  O2-  O183  1  0.32320268  0.56852572  0.24297615  1
  O2-  O184  1  0.31830680  0.57417712  0.57714131  1
  O2-  O185  1  0.31825993  0.57566292  0.91146035  1
  O2-  O186  1  0.81770593  0.07234654  0.23604226  1
  O2-  O187  1  0.82408286  0.06820360  0.56610207  1
  O2-  O188  1  0.82691912  0.07012977  0.90215445  1
  O2-  O189  1  0.82295888  0.56820130  0.24257769  1
  O2-  O190  1  0.82642323  0.57164125  0.57418305  1
  O2-  O191  1  0.81985222  0.56491726  0.90134363  1
  O2-  O192  1  0.05561906  0.08147395  0.27414035  1
  O2-  O193  1  0.04593549  0.08098985  0.59725889  1
  O2-  O194  1  0.05088806  0.08569267  0.94163789  1
  O2-  O195  1  0.04030846  0.58397780  0.26539569  1
  O2-  O196  1  0.04376117  0.58585562  0.60386561  1
  O2-  O197  1  0.04592665  0.57619754  0.93090207  1
  O2-  O198  1  0.54611025  0.08395801  0.27711620  1
  O2-  O199  1  0.54622645  0.07616530  0.60088913  1
  O2-  O200  1  0.54240282  0.07880364  0.93760777  1
  O2-  O201  1  0.53577839  0.58324980  0.26412212  1
  O2-  O202  1  0.53805275  0.58697488  0.59615238  1
  O2-  O203  1  0.53337059  0.58622240  0.93317827  1
  O2-  O204  1  0.16490036  0.21115664  0.26878463  1
  O2-  O205  1  0.16242132  0.21641134  0.59722809  1
  O2-  O206  1  0.15814522  0.21564106  0.93990220  1
  O2-  O207  1  0.16968605  0.70635231  0.26765292  1
  O2-  O208  1  0.16459033  0.70475334  0.60223260  1
  O2-  O209  1  0.17066480  0.70451312  0.92810585  1
  O2-  O210  1  0.65932840  0.21062289  0.27235272  1
  O2-  O211  1  0.67206769  0.20940190  0.59985074  1
  O2-  O212  1  0.67129507  0.20521970  0.93585776  1
  O2-  O213  1  0.66988567  0.70489747  0.26536967  1
  O2-  O214  1  0.66867041  0.71081661  0.59731786  1
  O2-  O215  1  0.66892173  0.70589884  0.93448784  1
  O2-  O216  1  0.08692760  0.45586699  0.06556866  1
  O2-  O217  1  0.08542346  0.46090707  0.39511764  1
  O2-  O218  1  0.08500554  0.46248181  0.73743132  1
  O2-  O219  1  0.08679941  0.95263875  0.06360976  1
  O2-  O220  1  0.08492410  0.94691155  0.39528378  1
  O2-  O221  1  0.08375618  0.94920460  0.72660680  1
  O2-  O222  1  0.57401030  0.45772421  0.06769616  1
  O2-  O223  1  0.58486262  0.45874262  0.39609064  1
  O2-  O224  1  0.58073495  0.46287401  0.73102970  1
  O2-  O225  1  0.58013831  0.95098737  0.07157598  1
  O2-  O226  1  0.58516547  0.94717303  0.39753477  1
  O2-  O227  1  0.57671347  0.93899881  0.72898279  1
  O2-  O228  1  0.20778296  0.33949013  0.06952510  1
  O2-  O229  1  0.20417097  0.34005265  0.39656412  1
  O2-  O230  1  0.20806722  0.33397233  0.73559376  1
  O2-  O231  1  0.20348150  0.83108795  0.06071598  1
  O2-  O232  1  0.20886223  0.83374532  0.39622152  1
  O2-  O233  1  0.20296387  0.83103842  0.72995235  1
  O2-  O234  1  0.70429198  0.33250305  0.07072078  1
  O2-  O235  1  0.70705838  0.33964893  0.39633902  1
  O2-  O236  1  0.70831589  0.33631575  0.73551702  1
  O2-  O237  1  0.71194050  0.83085168  0.06904671  1
  O2-  O238  1  0.70832869  0.83142587  0.39624084  1
  O2-  O239  1  0.71933600  0.83238025  0.73233385  1
  O2-  O240  1  0.45693590  0.41062457  0.27060059  1
  O2-  O241  1  0.45396480  0.41948443  0.59817309  1
  O2-  O242  1  0.44341924  0.42134336  0.93563411  1
  O2-  O243  1  0.45350830  0.91832013  0.27299131  1
  O2-  O244  1  0.44602904  0.91683184  0.60380796  1
  O2-  O245  1  0.44745041  0.91928583  0.94224337  1
  O2-  O246  1  0.96259312  0.41264321  0.26211270  1
  O2-  O247  1  0.96103131  0.41652076  0.60353052  1
  O2-  O248  1  0.96391432  0.40819944  0.93546774  1
  O2-  O249  1  0.95516350  0.91782335  0.27077294  1
  O2-  O250  1  0.96146046  0.90985898  0.59744894  1
  O2-  O251  1  0.96287321  0.91900183  0.92838403  1
  O2-  O252  1  0.33310361  0.29686577  0.27361056  1
  O2-  O253  1  0.32972874  0.29170068  0.59821559  1
  O2-  O254  1  0.32691046  0.28856347  0.93545309  1
  O2-  O255  1  0.33749112  0.79588303  0.26793700  1
  O2-  O256  1  0.33314246  0.79165299  0.59763278  1
  O2-  O257  1  0.33605424  0.79375628  0.93568354  1
  O2-  O258  1  0.83012930  0.29131611  0.26492981  1
  O2-  O259  1  0.83295145  0.30674385  0.60670630  1
  O2-  O260  1  0.83368458  0.30101901  0.94058567  1
  O2-  O261  1  0.83639286  0.79782353  0.26980674  1
  O2-  O262  1  0.84220090  0.79071975  0.59596643  1
  O2-  O263  1  0.83237358  0.79270828  0.92858441  1
  O2-  O264  1  0.41479983  0.04177669  0.07113246  1
  O2-  O265  1  0.41685780  0.04086869  0.40474185  1
  O2-  O266  1  0.41600675  0.04018826  0.73517983  1
  O2-  O267  1  0.40914761  0.54437100  0.06623214  1
  O2-  O268  1  0.41257822  0.53913329  0.39667190  1
  O2-  O269  1  0.41658430  0.55134166  0.72696775  1
  O2-  O270  1  0.92226071  0.04192035  0.06901292  1
  O2-  O271  1  0.92000719  0.04522962  0.39953764  1
  O2-  O272  1  0.92013209  0.03628157  0.72988418  1
  O2-  O273  1  0.91950892  0.53714434  0.06677812  1
  O2-  O274  1  0.91251770  0.53839410  0.39501196  1
  O2-  O275  1  0.91594447  0.54794825  0.72845468  1
  O2-  O276  1  0.28255968  0.16484510  0.07063020  1
  O2-  O277  1  0.28860575  0.16924331  0.40319996  1
  O2-  O278  1  0.28387184  0.16563481  0.73348745  1
  O2-  O279  1  0.29100777  0.66454053  0.06531644  1
  O2-  O280  1  0.29846054  0.66424120  0.39397088  1
  O2-  O281  1  0.29290817  0.66540914  0.72990501  1
  O2-  O282  1  0.79794568  0.17168696  0.06746708  1
  O2-  O283  1  0.78886179  0.16924855  0.40167149  1
  O2-  O284  1  0.80766883  0.17468977  0.72847998  1
  O2-  O285  1  0.79901458  0.66915405  0.06631789  1
  O2-  O286  1  0.79917804  0.66417066  0.39310178  1
  O2-  O287  1  0.80005594  0.66777361  0.72341450  1
