# generated using pymatgen
data_Ca2Al2SiO7
_symmetry_space_group_name_H-M   'P 1'
_cell_length_a   15.46651642
_cell_length_b   15.46567281
_cell_length_c   15.28903220
_cell_angle_alpha   90.00977871
_cell_angle_beta   89.98873646
_cell_angle_gamma   89.97718980
_symmetry_Int_Tables_number   1
_chemical_formula_structural   Ca2Al2SiO7
_chemical_formula_sum   'Ca48 Al48 Si24 O168'
_cell_volume   3657.13734918
_cell_formula_units_Z   24
loop_
 _symmetry_equiv_pos_site_id
 _symmetry_equiv_pos_as_xyz
  1  'x, y, z'
loop_
 _atom_type_symbol
 _atom_type_oxidation_number
  Ca2+  2.0
  Al0+  0.0
  Si0+  0.0
  O2-  -2.0
loop_
 _atom_site_type_symbol
 _atom_site_label
 _atom_site_symmetry_multiplicity
 _atom_site_fract_x
 _atom_site_fract_y
 _atom_site_fract_z
 _atom_site_occupancy
  Ca2+  Ca0  1  0.17478013  0.07484791  0.17275393  1
  Ca2+  Ca1  1  0.16110991  0.07834411  0.50149065  1
  Ca2+  Ca2  1  0.16965213  0.07494114  0.83656046  1
  Ca2+  Ca3  1  0.17116671  0.58495501  0.17211489  1
  Ca2+  Ca4  1  0.16373538  0.58360083  0.50127885  1
  Ca2+  Ca5  1  0.17627847  0.57900224  0.84047031  1
  Ca2+  Ca6  1  0.67339336  0.08173509  0.17410624  1
  Ca2+  Ca7  1  0.67517981  0.07845314  0.50428352  1
  Ca2+  Ca8  1  0.66607559  0.07675912  0.83152598  1
  Ca2+  Ca9  1  0.67053911  0.58473134  0.17257277  1
  Ca2+  Ca10  1  0.67214897  0.57959393  0.50796082  1
  Ca2+  Ca11  1  0.65743520  0.58288365  0.83216747  1
  Ca2+  Ca12  1  0.07900242  0.32729527  0.16973979  1
  Ca2+  Ca13  1  0.07533302  0.32038126  0.49432058  1
  Ca2+  Ca14  1  0.07928925  0.32385675  0.82196278  1
  Ca2+  Ca15  1  0.08321500  0.84092423  0.17036149  1
  Ca2+  Ca16  1  0.07749680  0.83565359  0.49293694  1
  Ca2+  Ca17  1  0.08236807  0.83946946  0.82621987  1
  Ca2+  Ca18  1  0.57333535  0.33049026  0.16416074  1
  Ca2+  Ca19  1  0.57465162  0.34053830  0.49955260  1
  Ca2+  Ca20  1  0.57430930  0.33389624  0.82708008  1
  Ca2+  Ca21  1  0.57565958  0.82703102  0.15615105  1
  Ca2+  Ca22  1  0.58294047  0.83494196  0.50183037  1
  Ca2+  Ca23  1  0.57259621  0.82666355  0.82403831  1
  Ca2+  Ca24  1  0.34207166  0.42128876  0.16881390  1
  Ca2+  Ca25  1  0.33719305  0.41526701  0.50454411  1
  Ca2+  Ca26  1  0.34251724  0.42132400  0.83959269  1
  Ca2+  Ca27  1  0.32783077  0.92268020  0.17560623  1
  Ca2+  Ca28  1  0.32101118  0.91896968  0.50699166  1
  Ca2+  Ca29  1  0.32533398  0.91455912  0.84273189  1
  Ca2+  Ca30  1  0.83218954  0.42260691  0.17993561  1
  Ca2+  Ca31  1  0.83816298  0.42021297  0.50634418  1
  Ca2+  Ca32  1  0.82670351  0.41220296  0.83386427  1
  Ca2+  Ca33  1  0.83091176  0.91881063  0.17707626  1
  Ca2+  Ca34  1  0.83756906  0.91802681  0.50548425  1
  Ca2+  Ca35  1  0.82805890  0.90943874  0.82958062  1
  Ca2+  Ca36  1  0.40098882  0.17484936  0.16446008  1
  Ca2+  Ca37  1  0.41285061  0.17616839  0.49271132  1
  Ca2+  Ca38  1  0.40669682  0.17579668  0.83075837  1
  Ca2+  Ca39  1  0.42083633  0.67258778  0.15452052  1
  Ca2+  Ca40  1  0.42217005  0.67352850  0.50330975  1
  Ca2+  Ca41  1  0.42117828  0.67443108  0.83111573  1
  Ca2+  Ca42  1  0.92466051  0.15646447  0.17026050  1
  Ca2+  Ca43  1  0.92485572  0.16913666  0.49140875  1
  Ca2+  Ca44  1  0.92649014  0.17074562  0.82115158  1
  Ca2+  Ca45  1  0.92222558  0.66665456  0.17182196  1
  Ca2+  Ca46  1  0.91888692  0.67721174  0.49085532  1
  Ca2+  Ca47  1  0.92250070  0.67385411  0.82599353  1
  Al0+  Al48  1  -0.00012320  0.00022764  0.00106818  1
  Al0+  Al49  1  -0.00148640  -0.00002246  0.33180917  1
  Al0+  Al50  1  0.00211712  -0.00047346  0.66512674  1
  Al0+  Al51  1  -0.00206695  0.50066037  -0.00118942  1
  Al0+  Al52  1  0.00055248  0.50161708  0.33146229  1
  Al0+  Al53  1  0.00179686  0.50028470  0.66820187  1
  Al0+  Al54  1  0.50084384  0.00245184  0.00109321  1
  Al0+  Al55  1  0.49947643  0.00159790  0.33698008  1
  Al0+  Al56  1  0.50020828  0.00210135  0.66760182  1
  Al0+  Al57  1  0.50116297  0.49789949  -0.00090373  1
  Al0+  Al58  1  0.50003546  0.50039862  0.33038222  1
  Al0+  Al59  1  0.50254323  0.50084152  0.66352933  1
  Al0+  Al60  1  0.24557477  0.24901426  -0.00212769  1
  Al0+  Al61  1  0.24862071  0.25280598  0.32714509  1
  Al0+  Al62  1  0.24906775  0.25034953  0.65886755  1
  Al0+  Al63  1  0.24745256  0.74665248  0.00523321  1
  Al0+  Al64  1  0.25140543  0.74944561  0.33529156  1
  Al0+  Al65  1  0.25213561  0.74990751  0.66839763  1
  Al0+  Al66  1  0.74837497  0.25052297  0.00139109  1
  Al0+  Al67  1  0.74569418  0.24979014  0.33538493  1
  Al0+  Al68  1  0.74912434  0.25250807  0.67011838  1
  Al0+  Al69  1  0.75178974  0.74830284  -0.00279145  1
  Al0+  Al70  1  0.75004462  0.74714982  0.33365535  1
  Al0+  Al71  1  0.75156285  0.74955876  0.66503807  1
  Al0+  Al72  1  0.92689379  0.32290812  0.65315821  1
  Al0+  Al73  1  0.67935194  0.42993121  0.68186548  1
  Al0+  Al74  1  0.42638734  0.82308513  0.98765780  1
  Al0+  Al75  1  0.18017626  0.92896895  0.68102816  1
  Al0+  Al76  1  0.17778181  0.92730022  0.01616315  1
  Al0+  Al77  1  0.32153129  0.56729580  0.01375723  1
  Al0+  Al78  1  0.57070869  0.68026332  0.65015127  1
  Al0+  Al79  1  0.92786810  0.82084223  0.31733959  1
  Al0+  Al80  1  0.07351937  0.67953528  0.31810184  1
  Al0+  Al81  1  0.42904565  0.31713115  0.98652619  1
  Al0+  Al82  1  0.92581537  0.32120610  0.31870944  1
  Al0+  Al83  1  0.42714764  0.82449407  0.65128627  1
  Al0+  Al84  1  0.18036502  0.92893354  0.35062007  1
  Al0+  Al85  1  0.81958250  0.07095498  0.34668326  1
  Al0+  Al86  1  0.82174051  0.56958053  0.34830721  1
  Al0+  Al87  1  0.42954208  0.32110836  0.31811015  1
  Al0+  Al88  1  0.07034250  0.17853008  0.65086901  1
  Al0+  Al89  1  0.43092295  0.31998670  0.65323197  1
  Al0+  Al90  1  0.06999381  0.17793976  0.31461574  1
  Al0+  Al91  1  0.32116132  0.07457321  0.35033936  1
  Al0+  Al92  1  0.32180399  0.07247026  0.01371762  1
  Al0+  Al93  1  0.67863305  0.92790063  0.68053710  1
  Al0+  Al94  1  0.57274076  0.67910604  0.98489515  1
  Al0+  Al95  1  0.93085702  0.81918869  0.65425678  1
  Si0+  Si96  1  0.07008744  0.67583057  0.98424552  1
  Si0+  Si97  1  0.68022599  0.92715563  0.01344998  1
  Si0+  Si98  1  0.93079670  0.82172517  0.98447124  1
  Si0+  Si99  1  0.82391229  0.57181256  0.68551553  1
  Si0+  Si100  1  0.56997384  0.67949316  0.31857040  1
  Si0+  Si101  1  0.67637125  0.42917979  0.35014632  1
  Si0+  Si102  1  0.82236844  0.07138760  0.68342088  1
  Si0+  Si103  1  0.07479999  0.67708987  0.65286204  1
  Si0+  Si104  1  0.57405911  0.17706557  0.64986890  1
  Si0+  Si105  1  0.43014009  0.82202086  0.31990376  1
  Si0+  Si106  1  0.32378031  0.57068041  0.35003118  1
  Si0+  Si107  1  0.32193309  0.07473352  0.68213932  1
  Si0+  Si108  1  0.57713211  0.17809516  0.98192982  1
  Si0+  Si109  1  0.17457052  0.42802645  0.01668180  1
  Si0+  Si110  1  0.32216155  0.56926765  0.68130182  1
  Si0+  Si111  1  0.82230219  0.57136077  0.01593045  1
  Si0+  Si112  1  0.17903968  0.43099480  0.34811031  1
  Si0+  Si113  1  0.68009854  0.42892909  0.01683736  1
  Si0+  Si114  1  0.67734613  0.92594183  0.34878977  1
  Si0+  Si115  1  0.17960393  0.42822250  0.68050765  1
  Si0+  Si116  1  0.81953781  0.07107994  0.01302269  1
  Si0+  Si117  1  0.57057073  0.17558826  0.31652269  1
  Si0+  Si118  1  0.06712312  0.17885800  0.98329622  1
  Si0+  Si119  1  0.92706444  0.32288073  0.98521707  1
  O2-  O120  1  0.25754859  -0.00715773  0.06305087  1
  O2-  O121  1  0.24966620  0.00321484  0.40137330  1
  O2-  O122  1  0.25836884  0.00111717  0.72611829  1
  O2-  O123  1  0.24676893  0.49269646  0.06148508  1
  O2-  O124  1  0.25141244  0.50079139  0.39137623  1
  O2-  O125  1  0.25093891  0.49814098  0.72362636  1
  O2-  O126  1  0.74875192  0.00019865  0.05587332  1
  O2-  O127  1  0.74807039  -0.00716375  0.39216131  1
  O2-  O128  1  0.75339680  0.00296037  0.72851237  1
  O2-  O129  1  0.75057527  0.50082374  0.05783971  1
  O2-  O130  1  0.75095730  0.49107124  0.39415629  1
  O2-  O131  1  0.75629946  0.50213665  0.73042101  1
  O2-  O132  1  -0.00606800  0.24750443  0.26512819  1
  O2-  O133  1  -0.00531888  0.24808347  0.60343254  1
  O2-  O134  1  -0.00288371  0.25180856  0.94221347  1
  O2-  O135  1  0.00292965  0.75227000  0.26640209  1
  O2-  O136  1  0.00639381  0.74536932  0.60931386  1
  O2-  O137  1  0.00471234  0.75280084  0.94330531  1
  O2-  O138  1  0.49946065  0.24170028  0.27191947  1
  O2-  O139  1  0.50411134  0.24452345  0.60599195  1
  O2-  O140  1  0.50091972  0.23965190  0.93981370  1
  O2-  O141  1  0.50210995  0.75275045  0.27650160  1
  O2-  O142  1  0.50280971  0.75618500  0.60040109  1
  O2-  O143  1  0.50038416  0.75238525  0.93785886  1
  O2-  O144  1  0.06503992  0.17804618  0.08784107  1
  O2-  O145  1  0.06976832  0.18028345  0.42772764  1
  O2-  O146  1  0.07019485  0.18088961  0.76547908  1
  O2-  O147  1  0.06577329  0.66879274  0.08831734  1
  O2-  O148  1  0.07216821  0.67884962  0.43182978  1
  O2-  O149  1  0.07346110  0.67531027  0.75899508  1
  O2-  O150  1  0.58869065  0.18345580  0.08657579  1
  O2-  O151  1  0.57202721  0.17580484  0.42179700  1
  O2-  O152  1  0.57443504  0.17812093  0.75577082  1
  O2-  O153  1  0.57478610  0.68113358  0.09919464  1
  O2-  O154  1  0.56855293  0.67768344  0.42321413  1
  O2-  O155  1  0.56597333  0.67933826  0.76363065  1
  O2-  O156  1  0.17949015  0.43278521  0.24277693  1
  O2-  O157  1  0.17908856  0.43042226  0.57561995  1
  O2-  O158  1  0.17187451  0.43119956  0.91078060  1
  O2-  O159  1  0.18476553  0.92769713  0.23700812  1
  O2-  O160  1  0.17836047  0.92802046  0.56872989  1
  O2-  O161  1  0.17315831  0.93217897  0.90240764  1
  O2-  O162  1  0.67401692  0.43331586  0.24408056  1
  O2-  O163  1  0.67656400  0.43395728  0.56919387  1
  O2-  O164  1  0.68155607  0.42680232  0.91192878  1
  O2-  O165  1  0.67669007  0.92695212  0.24251091  1
  O2-  O166  1  0.68120328  0.93035967  0.56762691  1
  O2-  O167  1  0.68313633  0.92642519  0.90858731  1
  O2-  O168  1  0.43284182  0.31869577  0.09937608  1
  O2-  O169  1  0.43356762  0.32541179  0.43102286  1
  O2-  O170  1  0.43079212  0.32009939  0.76654510  1
  O2-  O171  1  0.43115377  0.82038163  0.10191815  1
  O2-  O172  1  0.43136583  0.82027988  0.42474527  1
  O2-  O173  1  0.42486838  0.82029345  0.76488623  1
  O2-  O174  1  0.92716479  0.32465450  0.08970469  1
  O2-  O175  1  0.92986728  0.32105301  0.43182125  1
  O2-  O176  1  0.93046578  0.32141946  0.76787858  1
  O2-  O177  1  0.92720242  0.82181399  0.08894768  1
  O2-  O178  1  0.92618200  0.81822278  0.43063187  1
  O2-  O179  1  0.93169551  0.81735173  0.76834214  1
  O2-  O180  1  0.32112929  0.07040844  0.23669713  1
  O2-  O181  1  0.31978692  0.07713039  0.57697422  1
  O2-  O182  1  0.31561835  0.07704880  0.90020966  1
  O2-  O183  1  0.32650941  0.56937854  0.24489540  1
  O2-  O184  1  0.32104494  0.56863939  0.57593653  1
  O2-  O185  1  0.31984336  0.56563525  0.90030524  1
  O2-  O186  1  0.81577486  0.06923694  0.23258349  1
  O2-  O187  1  0.82118918  0.07102355  0.57817301  1
  O2-  O188  1  0.81958928  0.07191294  0.90803266  1
  O2-  O189  1  0.81722909  0.57019948  0.23441451  1
  O2-  O190  1  0.82459013  0.57073823  0.58022325  1
  O2-  O191  1  0.82629590  0.57026631  0.91115614  1
  O2-  O192  1  0.04088150  0.08017870  0.26113533  1
  O2-  O193  1  0.04276657  0.08085726  0.59876202  1
  O2-  O194  1  0.03553733  0.08832806  0.93511435  1
  O2-  O195  1  0.04304733  0.58249241  0.26329311  1
  O2-  O196  1  0.05013477  0.58338416  0.60703850  1
  O2-  O197  1  0.03652125  0.58705575  0.93267429  1
  O2-  O198  1  0.54967425  0.08087199  0.26972318  1
  O2-  O199  1  0.55224731  0.08322435  0.60380923  1
  O2-  O200  1  0.55959984  0.08140070  0.93990934  1
  O2-  O201  1  0.53940338  0.58950367  0.26914479  1
  O2-  O202  1  0.53765678  0.58449885  0.59541385  1
  O2-  O203  1  0.54400928  0.58017188  0.93451869  1
  O2-  O204  1  0.16575868  0.21245318  0.26011763  1
  O2-  O205  1  0.16554881  0.21068637  0.59546078  1
  O2-  O206  1  0.15783591  0.20664084  0.93454694  1
  O2-  O207  1  0.17379887  0.70423715  0.26622242  1
  O2-  O208  1  0.16856039  0.69974134  0.60752415  1
  O2-  O209  1  0.16419627  0.69626545  0.93914586  1
  O2-  O210  1  0.66247486  0.20446731  0.26817036  1
  O2-  O211  1  0.66747175  0.20410895  0.60504674  1
  O2-  O212  1  0.66686241  0.21121360  0.93098196  1
  O2-  O213  1  0.66226865  0.70400134  0.27088290  1
  O2-  O214  1  0.67081662  0.70382465  0.59999099  1
  O2-  O215  1  0.67177185  0.70528561  0.93161899  1
  O2-  O216  1  0.08219167  0.45815751  0.06319568  1
  O2-  O217  1  0.08877994  0.46073882  0.39670361  1
  O2-  O218  1  0.08893561  0.45613077  0.73139354  1
  O2-  O219  1  0.08096356  0.96355258  0.06910232  1
  O2-  O220  1  0.07918882  0.95443603  0.39776879  1
  O2-  O221  1  0.08382806  0.96175681  0.73574389  1
  O2-  O222  1  0.58872478  0.45611562  0.06466619  1
  O2-  O223  1  0.58565669  0.46393792  0.39695224  1
  O2-  O224  1  0.58343468  0.46468049  0.73656904  1
  O2-  O225  1  0.58814953  0.95200462  0.06159231  1
  O2-  O226  1  0.58533469  0.95375694  0.39639369  1
  O2-  O227  1  0.58226067  0.95948069  0.73591295  1
  O2-  O228  1  0.19535926  0.33278427  0.05974765  1
  O2-  O229  1  0.20667713  0.33918157  0.39425255  1
  O2-  O230  1  0.20674050  0.33581992  0.72698108  1
  O2-  O231  1  0.19290277  0.82504047  0.06535145  1
  O2-  O232  1  0.21049114  0.83008698  0.40263608  1
  O2-  O233  1  0.20793661  0.83066832  0.73509418  1
  O2-  O234  1  0.70882164  0.33779953  0.06562370  1
  O2-  O235  1  0.69084515  0.33296122  0.39355387  1
  O2-  O236  1  0.70571141  0.33285684  0.73917406  1
  O2-  O237  1  0.71128964  0.83613527  0.06128877  1
  O2-  O238  1  0.70009148  0.83155456  0.39336995  1
  O2-  O239  1  0.71210161  0.83196799  0.73508961  1
  O2-  O240  1  0.46585881  0.41629028  0.26304753  1
  O2-  O241  1  0.46325649  0.41555547  0.59892499  1
  O2-  O242  1  0.46411514  0.41251106  0.93301936  1
  O2-  O243  1  0.45667823  0.91465975  0.27364161  1
  O2-  O244  1  0.45224757  0.92434816  0.60082331  1
  O2-  O245  1  0.45218079  0.92318908  0.93701375  1
  O2-  O246  1  0.95841370  0.41853356  0.26562437  1
  O2-  O247  1  0.95866463  0.42093484  0.60255271  1
  O2-  O248  1  0.95378598  0.41462199  0.93679935  1
  O2-  O249  1  0.95192133  0.91976771  0.26410881  1
  O2-  O250  1  0.95920136  0.91597969  0.60173411  1
  O2-  O251  1  0.95597015  0.91424262  0.93694337  1
  O2-  O252  1  0.33198316  0.29822739  0.26300909  1
  O2-  O253  1  0.33431409  0.29345581  0.59800678  1
  O2-  O254  1  0.32946237  0.29298366  0.93406325  1
  O2-  O255  1  0.33970104  0.79127150  0.27303558  1
  O2-  O256  1  0.33151058  0.78826422  0.59732073  1
  O2-  O257  1  0.32711896  0.79189410  0.93819170  1
  O2-  O258  1  0.82370538  0.29963210  0.26996873  1
  O2-  O259  1  0.82569266  0.30244750  0.60467128  1
  O2-  O260  1  0.83467124  0.29438706  0.93925185  1
  O2-  O261  1  0.82963927  0.78853240  0.26412999  1
  O2-  O262  1  0.83524850  0.78967554  0.59967825  1
  O2-  O263  1  0.84057221  0.78989630  0.93591392  1
  O2-  O264  1  0.42542388  0.05925943  0.06314549  1
  O2-  O265  1  0.42115731  0.04911229  0.40172337  1
  O2-  O266  1  0.41798962  0.05798098  0.72653562  1
  O2-  O267  1  0.41822408  0.53584446  0.06825947  1
  O2-  O268  1  0.41446595  0.53942354  0.39779632  1
  O2-  O269  1  0.41288017  0.53889884  0.72815706  1
  O2-  O270  1  0.91034963  0.04175855  0.06078218  1
  O2-  O271  1  0.91655845  0.04341859  0.39958668  1
  O2-  O272  1  0.91519934  0.04399330  0.73015679  1
  O2-  O273  1  0.91312514  0.54173258  0.06446522  1
  O2-  O274  1  0.91976206  0.54321548  0.40095204  1
  O2-  O275  1  0.91835022  0.54767794  0.73250675  1
  O2-  O276  1  0.28362914  0.16855637  0.06709984  1
  O2-  O277  1  0.29506277  0.17632454  0.39692930  1
  O2-  O278  1  0.28965825  0.16729402  0.72813050  1
  O2-  O279  1  0.29103569  0.66273225  0.06985826  1
  O2-  O280  1  0.29776667  0.66220599  0.39806896  1
  O2-  O281  1  0.29443190  0.66026078  0.73004440  1
  O2-  O282  1  0.79222407  0.16278869  0.06112739  1
  O2-  O283  1  0.78606060  0.16643612  0.40156143  1
  O2-  O284  1  0.79687682  0.16503634  0.73044523  1
  O2-  O285  1  0.79485796  0.66352919  0.06300643  1
  O2-  O286  1  0.78737818  0.66484396  0.40253095  1
  O2-  O287  1  0.79709216  0.66483851  0.73189062  1
