# generated using pymatgen
data_Ca2Al2SiO7
_symmetry_space_group_name_H-M   'P 1'
_cell_length_a   15.45836006
_cell_length_b   15.45835781
_cell_length_c   15.28410472
_cell_angle_alpha   90.00823000
_cell_angle_beta   90.00871426
_cell_angle_gamma   89.98439632
_symmetry_Int_Tables_number   1
_chemical_formula_structural   Ca2Al2SiO7
_chemical_formula_sum   'Ca48 Al48 Si24 O168'
_cell_volume   3652.30260772
_cell_formula_units_Z   24
loop_
 _symmetry_equiv_pos_site_id
 _symmetry_equiv_pos_as_xyz
  1  'x, y, z'
loop_
 _atom_type_symbol
 _atom_type_oxidation_number
  Ca2+  2.0
  Al0+  0.0
  Si0+  0.0
  O2-  -2.0
loop_
 _atom_site_type_symbol
 _atom_site_label
 _atom_site_symmetry_multiplicity
 _atom_site_fract_x
 _atom_site_fract_y
 _atom_site_fract_z
 _atom_site_occupancy
  Ca2+  Ca0  1  0.16605664  0.08079363  0.17107565  1
  Ca2+  Ca1  1  0.16185705  0.06880077  0.50628338  1
  Ca2+  Ca2  1  0.15762266  0.08118810  0.83518662  1
  Ca2+  Ca3  1  0.16112275  0.57818087  0.16758982  1
  Ca2+  Ca4  1  0.15982143  0.57963522  0.50058772  1
  Ca2+  Ca5  1  0.17367727  0.57951033  0.84780614  1
  Ca2+  Ca6  1  0.66266304  0.07068610  0.16885153  1
  Ca2+  Ca7  1  0.67409307  0.07555577  0.50535216  1
  Ca2+  Ca8  1  0.67103378  0.07951890  0.84102199  1
  Ca2+  Ca9  1  0.66454806  0.58900269  0.16942009  1
  Ca2+  Ca10  1  0.67256306  0.58254569  0.50707003  1
  Ca2+  Ca11  1  0.67073774  0.58155546  0.83691874  1
  Ca2+  Ca12  1  0.08449261  0.33160024  0.15496695  1
  Ca2+  Ca13  1  0.07886769  0.33080109  0.49731698  1
  Ca2+  Ca14  1  0.07785137  0.32674257  0.83025699  1
  Ca2+  Ca15  1  0.07547583  0.83084711  0.16158481  1
  Ca2+  Ca16  1  0.07981560  0.83012890  0.48917688  1
  Ca2+  Ca17  1  0.08301763  0.83015135  0.83046324  1
  Ca2+  Ca18  1  0.57511445  0.32482466  0.15410108  1
  Ca2+  Ca19  1  0.58818795  0.33446481  0.49929918  1
  Ca2+  Ca20  1  0.58094701  0.33515572  0.83190093  1
  Ca2+  Ca21  1  0.58624364  0.82641051  0.16173600  1
  Ca2+  Ca22  1  0.57448097  0.83227387  0.48901077  1
  Ca2+  Ca23  1  0.58014682  0.83048486  0.83293197  1
  Ca2+  Ca24  1  0.32431432  0.41874694  0.16597009  1
  Ca2+  Ca25  1  0.32594138  0.41980739  0.50129196  1
  Ca2+  Ca26  1  0.32848491  0.42124772  0.84808603  1
  Ca2+  Ca27  1  0.32854809  0.91646790  0.17418623  1
  Ca2+  Ca28  1  0.32438896  0.90397819  0.50267791  1
  Ca2+  Ca29  1  0.32916297  0.91342760  0.83332128  1
  Ca2+  Ca30  1  0.83710144  0.41762287  0.16780566  1
  Ca2+  Ca31  1  0.82891849  0.42527292  0.51402318  1
  Ca2+  Ca32  1  0.83681885  0.41670669  0.83345192  1
  Ca2+  Ca33  1  0.82575025  0.90461319  0.16829110  1
  Ca2+  Ca34  1  0.82950113  0.91600974  0.50437013  1
  Ca2+  Ca35  1  0.83301290  0.92290245  0.84188292  1
  Ca2+  Ca36  1  0.42050440  0.17193790  0.15706795  1
  Ca2+  Ca37  1  0.41766715  0.16854301  0.49824786  1
  Ca2+  Ca38  1  0.42125185  0.17022406  0.83684196  1
  Ca2+  Ca39  1  0.42420921  0.66811648  0.16316152  1
  Ca2+  Ca40  1  0.42387390  0.67670162  0.49367978  1
  Ca2+  Ca41  1  0.42027405  0.66590818  0.83152076  1
  Ca2+  Ca42  1  0.92480429  0.17501314  0.15555390  1
  Ca2+  Ca43  1  0.91543995  0.16654955  0.50541151  1
  Ca2+  Ca44  1  0.92294469  0.17398103  0.82702776  1
  Ca2+  Ca45  1  0.92801798  0.67577822  0.16330610  1
  Ca2+  Ca46  1  0.91903663  0.67086040  0.49175843  1
  Ca2+  Ca47  1  0.91891102  0.66914958  0.83485518  1
  Al0+  Al48  1  -0.00185722  0.00127044  -0.00403259  1
  Al0+  Al49  1  0.00002863  0.00304937  0.33301507  1
  Al0+  Al50  1  -0.00021828  -0.00144501  0.67133570  1
  Al0+  Al51  1  -0.00035708  0.50157254  -0.00232319  1
  Al0+  Al52  1  -0.00100945  0.49949371  0.33560126  1
  Al0+  Al53  1  -0.00035766  0.49923611  0.66788987  1
  Al0+  Al54  1  0.49981747  -0.00057435  0.00070633  1
  Al0+  Al55  1  0.50086350  0.00167699  0.33582664  1
  Al0+  Al56  1  0.49653866  0.00077740  0.66181417  1
  Al0+  Al57  1  0.50028130  0.50182159  -0.00237986  1
  Al0+  Al58  1  0.49837993  0.49870047  0.33154416  1
  Al0+  Al59  1  0.49991861  0.50001303  0.66754555  1
  Al0+  Al60  1  0.25074269  0.24905365  -0.00401187  1
  Al0+  Al61  1  0.24955880  0.25165827  0.33990768  1
  Al0+  Al62  1  0.25127597  0.24697532  0.66107976  1
  Al0+  Al63  1  0.25103752  0.75048137  0.00324611  1
  Al0+  Al64  1  0.25212149  0.74796639  0.32984192  1
  Al0+  Al65  1  0.25013537  0.74962590  0.66704920  1
  Al0+  Al66  1  0.75106371  0.24938616  -0.00466889  1
  Al0+  Al67  1  0.75049194  0.24975664  0.33316620  1
  Al0+  Al68  1  0.74929494  0.24948325  0.66986138  1
  Al0+  Al69  1  0.74886553  0.75007649  -0.00486911  1
  Al0+  Al70  1  0.74972628  0.75024978  0.33376152  1
  Al0+  Al71  1  0.75013346  0.74810245  0.67123382  1
  Al0+  Al72  1  0.42992352  0.32114443  0.98567001  1
  Al0+  Al73  1  0.42865087  0.82349107  0.31646238  1
  Al0+  Al74  1  0.57067394  0.67950199  0.98428941  1
  Al0+  Al75  1  0.07162464  0.67631075  0.31932722  1
  Al0+  Al76  1  0.17950654  0.92864622  0.34462709  1
  Al0+  Al77  1  0.68034797  0.92849289  0.34794032  1
  Al0+  Al78  1  0.92816885  0.32374086  0.98477987  1
  Al0+  Al79  1  0.92871474  0.32108879  0.64912216  1
  Al0+  Al80  1  0.07328571  0.68060718  0.98462250  1
  Al0+  Al81  1  0.82006286  0.06834060  0.68161642  1
  Al0+  Al82  1  0.67777860  0.42960051  0.68294656  1
  Al0+  Al83  1  0.57116218  0.67843744  0.31929297  1
  Al0+  Al84  1  0.82345262  0.57275345  0.68427652  1
  Al0+  Al85  1  0.67974120  0.92948435  0.01330577  1
  Al0+  Al86  1  0.18061312  0.92857307  0.68093570  1
  Al0+  Al87  1  0.92850377  0.82034344  0.98323063  1
  Al0+  Al88  1  0.57111572  0.17631625  0.98533410  1
  Al0+  Al89  1  0.92954307  0.82436315  0.32013465  1
  Al0+  Al90  1  0.32371539  0.57346941  0.01744268  1
  Al0+  Al91  1  0.07150813  0.17683628  0.64799235  1
  Al0+  Al92  1  0.07260379  0.17856580  0.98548287  1
  Al0+  Al93  1  0.17817867  0.42982528  0.34926646  1
  Al0+  Al94  1  0.42921070  0.82013785  0.65291823  1
  Al0+  Al95  1  0.17846671  0.42904705  0.01330053  1
  Si0+  Si96  1  0.67782389  0.42682916  0.34540401  1
  Si0+  Si97  1  0.32223358  0.07340626  0.35110139  1
  Si0+  Si98  1  0.92848938  0.32073271  0.31984336  1
  Si0+  Si99  1  0.57235033  0.18073769  0.31970081  1
  Si0+  Si100  1  0.42718243  0.82334354  0.98364388  1
  Si0+  Si101  1  0.57073823  0.17905526  0.65017219  1
  Si0+  Si102  1  0.67928428  0.42802083  0.01572981  1
  Si0+  Si103  1  0.82169014  0.07580235  0.35003766  1
  Si0+  Si104  1  0.17999953  0.42644967  0.68086777  1
  Si0+  Si105  1  0.32085180  0.06996601  0.01401754  1
  Si0+  Si106  1  0.07158663  0.67946737  0.65258556  1
  Si0+  Si107  1  0.82254094  0.07308441  0.01816566  1
  Si0+  Si108  1  0.42738718  0.31993621  0.31921374  1
  Si0+  Si109  1  0.32459683  0.57071293  0.35193613  1
  Si0+  Si110  1  0.42914709  0.32292047  0.64954911  1
  Si0+  Si111  1  0.67448816  0.92812976  0.68265883  1
  Si0+  Si112  1  0.81937620  0.56951514  0.34642913  1
  Si0+  Si113  1  0.17703234  0.92954856  0.01502494  1
  Si0+  Si114  1  0.81998894  0.57148543  0.01691861  1
  Si0+  Si115  1  0.32340802  0.07369271  0.68474077  1
  Si0+  Si116  1  0.57248202  0.67761214  0.65009832  1
  Si0+  Si117  1  0.31906394  0.56974323  0.68023995  1
  Si0+  Si118  1  0.07197231  0.18085428  0.31962934  1
  Si0+  Si119  1  0.92826943  0.82036062  0.65295776  1
  O2-  O120  1  0.24795431  0.00127951  0.05641610  1
  O2-  O121  1  0.25703571  0.00050243  0.39348219  1
  O2-  O122  1  0.25288131  0.00630432  0.72740302  1
  O2-  O123  1  0.24899196  0.50221132  0.06493440  1
  O2-  O124  1  0.25050383  0.50713898  0.39642511  1
  O2-  O125  1  0.25133335  0.49645544  0.72298386  1
  O2-  O126  1  0.75395682  0.00427398  0.06234116  1
  O2-  O127  1  0.75752250  0.00182070  0.39301545  1
  O2-  O128  1  0.74520839  -0.00651380  0.72774172  1
  O2-  O129  1  0.75119887  0.49744744  0.05962236  1
  O2-  O130  1  0.74560268  0.50034969  0.38739467  1
  O2-  O131  1  0.75105061  0.49996924  0.73293602  1
  O2-  O132  1  0.00091948  0.25165798  0.27778737  1
  O2-  O133  1  0.00097886  0.25019733  0.59691149  1
  O2-  O134  1  0.00125141  0.25179731  0.93727701  1
  O2-  O135  1  0.00550967  0.75520525  0.27182883  1
  O2-  O136  1  -0.00273941  0.74735109  0.61068662  1
  O2-  O137  1  0.00352716  0.75267835  0.93169834  1
  O2-  O138  1  0.49926053  0.24958110  0.27788452  1
  O2-  O139  1  0.50149512  0.25260007  0.60751118  1
  O2-  O140  1  0.50402974  0.25211007  0.93410822  1
  O2-  O141  1  0.50223321  0.75258405  0.26786313  1
  O2-  O142  1  0.50855075  0.75042802  0.60615403  1
  O2-  O143  1  0.49326821  0.75220210  0.93955839  1
  O2-  O144  1  0.07194310  0.17827292  0.10018303  1
  O2-  O145  1  0.07166065  0.18051145  0.42429383  1
  O2-  O146  1  0.07146117  0.17972770  0.76089517  1
  O2-  O147  1  0.07063586  0.68174057  0.09809929  1
  O2-  O148  1  0.06542556  0.67479532  0.43375997  1
  O2-  O149  1  0.07499350  0.68185976  0.75711605  1
  O2-  O150  1  0.56713766  0.17702048  0.09974791  1
  O2-  O151  1  0.57381068  0.18362942  0.42508790  1
  O2-  O152  1  0.56774128  0.17676096  0.75458045  1
  O2-  O153  1  0.57232801  0.68085479  0.09726771  1
  O2-  O154  1  0.57032270  0.67684911  0.43324714  1
  O2-  O155  1  0.56975063  0.67596386  0.75540394  1
  O2-  O156  1  0.17995545  0.42450366  0.23707990  1
  O2-  O157  1  0.18127078  0.42918024  0.57519365  1
  O2-  O158  1  0.18175571  0.42921138  0.89931847  1
  O2-  O159  1  0.17866576  0.93518837  0.23157640  1
  O2-  O160  1  0.18178894  0.92609854  0.56763692  1
  O2-  O161  1  0.17933116  0.92896860  0.90985615  1
  O2-  O162  1  0.67979658  0.42260202  0.24057226  1
  O2-  O163  1  0.67644724  0.43299248  0.56810130  1
  O2-  O164  1  0.67867305  0.42985794  0.91110010  1
  O2-  O165  1  0.67956835  0.93011550  0.23509018  1
  O2-  O166  1  0.67540958  0.93000493  0.57667386  1
  O2-  O167  1  0.67917572  0.93176651  0.90004199  1
  O2-  O168  1  0.43014486  0.31720238  0.09997031  1
  O2-  O169  1  0.42865053  0.31966446  0.42479992  1
  O2-  O170  1  0.42808987  0.32359477  0.75388681  1
  O2-  O171  1  0.42888268  0.82637793  0.08888613  1
  O2-  O172  1  0.43020963  0.82066231  0.43049273  1
  O2-  O173  1  0.42907825  0.81752623  0.76594961  1
  O2-  O174  1  0.92765507  0.32123329  0.09970087  1
  O2-  O175  1  0.92625192  0.32012830  0.42443660  1
  O2-  O176  1  0.93175176  0.32082963  0.76185643  1
  O2-  O177  1  0.92884827  0.81843377  0.09691473  1
  O2-  O178  1  0.92883605  0.82182314  0.43457061  1
  O2-  O179  1  0.92958194  0.82027786  0.75755595  1
  O2-  O180  1  0.32028446  0.07845626  0.24544094  1
  O2-  O181  1  0.32584399  0.07485247  0.57912683  1
  O2-  O182  1  0.32368310  0.06793468  0.90916535  1
  O2-  O183  1  0.33055273  0.56490085  0.24740964  1
  O2-  O184  1  0.31840148  0.56874555  0.57493599  1
  O2-  O185  1  0.32280922  0.57167959  0.90270774  1
  O2-  O186  1  0.81747797  0.08497137  0.24539434  1
  O2-  O187  1  0.81761263  0.06550717  0.56772374  1
  O2-  O188  1  0.82148028  0.07123316  0.91266077  1
  O2-  O189  1  0.82104009  0.56685432  0.24139721  1
  O2-  O190  1  0.82158061  0.57406102  0.56966553  1
  O2-  O191  1  0.81830717  0.57183682  0.91215422  1
  O2-  O192  1  0.04539505  0.08993036  0.27054126  1
  O2-  O193  1  0.03910520  0.07748885  0.59816365  1
  O2-  O194  1  0.04273397  0.08160776  0.93145706  1
  O2-  O195  1  0.03582576  0.58003231  0.26608933  1
  O2-  O196  1  0.04663154  0.58617863  0.60666434  1
  O2-  O197  1  0.04439112  0.58280440  0.93221745  1
  O2-  O198  1  0.54589979  0.08864197  0.27355474  1
  O2-  O199  1  0.53958468  0.08929786  0.59960659  1
  O2-  O200  1  0.53717002  0.08064068  0.93082654  1
  O2-  O201  1  0.54272926  0.57906587  0.26705701  1
  O2-  O202  1  0.54252850  0.58526357  0.60303859  1
  O2-  O203  1  0.54249660  0.58306810  0.92953430  1
  O2-  O204  1  0.16466641  0.20950978  0.27446748  1
  O2-  O205  1  0.17174534  0.20142885  0.59546324  1
  O2-  O206  1  0.17103814  0.20184632  0.93146960  1
  O2-  O207  1  0.17327621  0.69295998  0.27102100  1
  O2-  O208  1  0.16182076  0.70937648  0.60325481  1
  O2-  O209  1  0.17298485  0.70754404  0.93337754  1
  O2-  O210  1  0.66253783  0.21069511  0.27074277  1
  O2-  O211  1  0.66225706  0.20585502  0.60210654  1
  O2-  O212  1  0.67025871  0.20015563  0.93411909  1
  O2-  O213  1  0.67024899  0.70408828  0.26750698  1
  O2-  O214  1  0.66849392  0.69850786  0.60689703  1
  O2-  O215  1  0.66450802  0.71284968  0.92773722  1
  O2-  O216  1  0.07902328  0.45615336  0.06601436  1
  O2-  O217  1  0.08091610  0.45911620  0.40406292  1
  O2-  O218  1  0.08793722  0.45289147  0.72626743  1
  O2-  O219  1  0.08479764  0.95820642  0.06101481  1
  O2-  O220  1  0.08339061  0.96249860  0.39963784  1
  O2-  O221  1  0.08424913  0.95655827  0.73565460  1
  O2-  O222  1  0.58762802  0.45654013  0.06296652  1
  O2-  O223  1  0.58440162  0.44986605  0.39232993  1
  O2-  O224  1  0.57891738  0.45856241  0.73556280  1
  O2-  O225  1  0.58300645  0.96074356  0.06786804  1
  O2-  O226  1  0.58468514  0.96334532  0.40289714  1
  O2-  O227  1  0.58104665  0.95739307  0.72642263  1
  O2-  O228  1  0.20931437  0.32973523  0.06497596  1
  O2-  O229  1  0.21305376  0.33548304  0.40692551  1
  O2-  O230  1  0.20873316  0.33339851  0.72385151  1
  O2-  O231  1  0.20516546  0.83880348  0.06344613  1
  O2-  O232  1  0.20682223  0.82969636  0.39701958  1
  O2-  O233  1  0.21575958  0.83344440  0.73592469  1
  O2-  O234  1  0.70533379  0.33464434  0.06221681  1
  O2-  O235  1  0.70842477  0.33679047  0.39581210  1
  O2-  O236  1  0.70084514  0.32972506  0.73355377  1
  O2-  O237  1  0.71195895  0.83235442  0.06593831  1
  O2-  O238  1  0.70858340  0.83166386  0.40350588  1
  O2-  O239  1  0.69554903  0.83265258  0.72585395  1
  O2-  O240  1  0.45415432  0.41093776  0.27142462  1
  O2-  O241  1  0.45662082  0.41469472  0.60080776  1
  O2-  O242  1  0.45700390  0.41915126  0.93285164  1
  O2-  O243  1  0.45320531  0.92511576  0.26829619  1
  O2-  O244  1  0.45282769  0.91849749  0.59826041  1
  O2-  O245  1  0.45541507  0.91519359  0.93568545  1
  O2-  O246  1  0.95445499  0.41276945  0.27321813  1
  O2-  O247  1  0.95716604  0.42088134  0.59706987  1
  O2-  O248  1  0.95316262  0.42215392  0.93227732  1
  O2-  O249  1  0.95232493  0.92449371  0.26764089  1
  O2-  O250  1  0.95699051  0.91137127  0.60570620  1
  O2-  O251  1  0.95340569  0.91997572  0.93258370  1
  O2-  O252  1  0.33581321  0.28996960  0.27331857  1
  O2-  O253  1  0.33915641  0.29275496  0.59915998  1
  O2-  O254  1  0.33435357  0.28935611  0.93032520  1
  O2-  O255  1  0.33082193  0.79574312  0.26345024  1
  O2-  O256  1  0.33457344  0.78278288  0.59841586  1
  O2-  O257  1  0.33277265  0.80041571  0.93875918  1
  O2-  O258  1  0.83704400  0.29233638  0.27123312  1
  O2-  O259  1  0.82830338  0.29247555  0.59883221  1
  O2-  O260  1  0.83032634  0.29614479  0.93134291  1
  O2-  O261  1  0.83255962  0.79117775  0.26835538  1
  O2-  O262  1  0.83446871  0.79465014  0.60702308  1
  O2-  O263  1  0.83224130  0.78921112  0.92894886  1
  O2-  O264  1  0.41106772  0.04089755  0.06451783  1
  O2-  O265  1  0.41756440  0.05378267  0.39651403  1
  O2-  O266  1  0.41618466  0.04537406  0.73133183  1
  O2-  O267  1  0.42212745  0.54277970  0.06932180  1
  O2-  O268  1  0.41517784  0.53737502  0.40209476  1
  O2-  O269  1  0.41201900  0.54454256  0.72633524  1
  O2-  O270  1  0.91671569  0.04807041  0.06402340  1
  O2-  O271  1  0.91708783  0.05557134  0.39409926  1
  O2-  O272  1  0.91555390  0.03813680  0.73672815  1
  O2-  O273  1  0.91228784  0.54549688  0.06418257  1
  O2-  O274  1  0.90877082  0.53887922  0.39689612  1
  O2-  O275  1  0.92211557  0.54434296  0.73660760  1
  O2-  O276  1  0.29514732  0.16213058  0.06198374  1
  O2-  O277  1  0.29390324  0.16497785  0.40073901  1
  O2-  O278  1  0.30076762  0.16869821  0.72943227  1
  O2-  O279  1  0.29866835  0.67283499  0.06994318  1
  O2-  O280  1  0.30482150  0.66648708  0.39528750  1
  O2-  O281  1  0.28921789  0.65986021  0.72863985  1
  O2-  O282  1  0.79785441  0.16770321  0.06329913  1
  O2-  O283  1  0.78913520  0.16619824  0.40098698  1
  O2-  O284  1  0.78915828  0.16481899  0.73418743  1
  O2-  O285  1  0.78738100  0.66194514  0.06337835  1
  O2-  O286  1  0.79358122  0.66102606  0.39524656  1
  O2-  O287  1  0.79469562  0.67045758  0.73908212  1
