# generated using pymatgen
data_Ca2Al2SiO7
_symmetry_space_group_name_H-M   'P 1'
_cell_length_a   15.46364933
_cell_length_b   15.46367757
_cell_length_c   15.28869275
_cell_angle_alpha   90.00017540
_cell_angle_beta   89.99364143
_cell_angle_gamma   90.00980718
_symmetry_Int_Tables_number   1
_chemical_formula_structural   Ca2Al2SiO7
_chemical_formula_sum   'Ca48 Al48 Si24 O168'
_cell_volume   3655.90685308
_cell_formula_units_Z   24
loop_
 _symmetry_equiv_pos_site_id
 _symmetry_equiv_pos_as_xyz
  1  'x, y, z'
loop_
 _atom_type_symbol
 _atom_type_oxidation_number
  Ca2+  2.0
  Al0+  0.0
  Si0+  0.0
  O2-  -2.0
loop_
 _atom_site_type_symbol
 _atom_site_label
 _atom_site_symmetry_multiplicity
 _atom_site_fract_x
 _atom_site_fract_y
 _atom_site_fract_z
 _atom_site_occupancy
  Ca2+  Ca0  1  0.17296588  0.07716247  0.16737942  1
  Ca2+  Ca1  1  0.17691569  0.07251786  0.51306819  1
  Ca2+  Ca2  1  0.17752677  0.06953005  0.84096655  1
  Ca2+  Ca3  1  0.16894649  0.58299284  0.17489311  1
  Ca2+  Ca4  1  0.17308698  0.58915502  0.49916584  1
  Ca2+  Ca5  1  0.17014022  0.59345124  0.83387341  1
  Ca2+  Ca6  1  0.65266596  0.08022877  0.16531796  1
  Ca2+  Ca7  1  0.66331636  0.08433705  0.50035967  1
  Ca2+  Ca8  1  0.66189993  0.07757684  0.84168408  1
  Ca2+  Ca9  1  0.67771466  0.58103715  0.17938510  1
  Ca2+  Ca10  1  0.66896958  0.57970880  0.50697342  1
  Ca2+  Ca11  1  0.67994956  0.58410532  0.83980686  1
  Ca2+  Ca12  1  0.07811501  0.34073426  0.15864562  1
  Ca2+  Ca13  1  0.08486386  0.33611467  0.49413682  1
  Ca2+  Ca14  1  0.07726939  0.33411649  0.83219392  1
  Ca2+  Ca15  1  0.08517297  0.82052046  0.16037014  1
  Ca2+  Ca16  1  0.08771162  0.82195615  0.49827754  1
  Ca2+  Ca17  1  0.09231295  0.82586532  0.83002502  1
  Ca2+  Ca18  1  0.58421426  0.32580305  0.16064737  1
  Ca2+  Ca19  1  0.58960354  0.33127793  0.49359894  1
  Ca2+  Ca20  1  0.58248088  0.32983850  0.83304673  1
  Ca2+  Ca21  1  0.57452858  0.82857986  0.16290449  1
  Ca2+  Ca22  1  0.56996089  0.82388448  0.49149649  1
  Ca2+  Ca23  1  0.57235251  0.83934467  0.83227950  1
  Ca2+  Ca24  1  0.32861772  0.42093232  0.17563558  1
  Ca2+  Ca25  1  0.33366879  0.43276796  0.50199391  1
  Ca2+  Ca26  1  0.33672138  0.42399716  0.83749794  1
  Ca2+  Ca27  1  0.33897256  0.91497643  0.16343497  1
  Ca2+  Ca28  1  0.33390969  0.91591096  0.50895312  1
  Ca2+  Ca29  1  0.33073998  0.91904933  0.83976468  1
  Ca2+  Ca30  1  0.83099903  0.42324131  0.17150395  1
  Ca2+  Ca31  1  0.82136930  0.42864601  0.50119009  1
  Ca2+  Ca32  1  0.83191787  0.42488080  0.83628653  1
  Ca2+  Ca33  1  0.82381125  0.91547412  0.16680581  1
  Ca2+  Ca34  1  0.83039591  0.91722741  0.50273196  1
  Ca2+  Ca35  1  0.82383720  0.91599395  0.84261098  1
  Ca2+  Ca36  1  0.42300351  0.17431188  0.15636830  1
  Ca2+  Ca37  1  0.42064588  0.16783956  0.49413330  1
  Ca2+  Ca38  1  0.41292481  0.16613845  0.83521670  1
  Ca2+  Ca39  1  0.41507793  0.67369669  0.16496142  1
  Ca2+  Ca40  1  0.41076053  0.67441777  0.49291444  1
  Ca2+  Ca41  1  0.41083529  0.67967964  0.82612537  1
  Ca2+  Ca42  1  0.92031920  0.17699120  0.15788061  1
  Ca2+  Ca43  1  0.91980579  0.16980346  0.49363218  1
  Ca2+  Ca44  1  0.91223240  0.17562293  0.83092516  1
  Ca2+  Ca45  1  0.92685261  0.65216072  0.16290006  1
  Ca2+  Ca46  1  0.92479356  0.65422228  0.49799332  1
  Ca2+  Ca47  1  0.92681683  0.65824050  0.83005421  1
  Al0+  Al48  1  0.00052200  -0.00190347  0.00475899  1
  Al0+  Al49  1  -0.00021484  -0.00014935  0.33283064  1
  Al0+  Al50  1  -0.00017566  0.00020647  0.66995538  1
  Al0+  Al51  1  0.00087337  0.49956671  -0.00713498  1
  Al0+  Al52  1  -0.00158462  0.49812136  0.33701228  1
  Al0+  Al53  1  -0.00156248  0.49851069  0.66318471  1
  Al0+  Al54  1  0.50000526  -0.00019817  0.00095717  1
  Al0+  Al55  1  0.49972636  0.00076819  0.32761335  1
  Al0+  Al56  1  0.50051209  0.00189060  0.66454493  1
  Al0+  Al57  1  0.50245822  0.49959043  -0.00246900  1
  Al0+  Al58  1  0.49913811  0.49992149  0.33726873  1
  Al0+  Al59  1  0.49928041  0.49805429  0.67568883  1
  Al0+  Al60  1  0.24981572  0.24968754  -0.00093215  1
  Al0+  Al61  1  0.24993838  0.24657014  0.33695986  1
  Al0+  Al62  1  0.25090930  0.25010819  0.66791909  1
  Al0+  Al63  1  0.25042776  0.74938907  -0.00280618  1
  Al0+  Al64  1  0.24633593  0.75169825  0.32748742  1
  Al0+  Al65  1  0.24839207  0.74927970  0.66415637  1
  Al0+  Al66  1  0.75084984  0.25069044  -0.00976816  1
  Al0+  Al67  1  0.75195757  0.24954313  0.33167888  1
  Al0+  Al68  1  0.74944625  0.25069524  0.66775590  1
  Al0+  Al69  1  0.75286815  0.75037336  0.01096653  1
  Al0+  Al70  1  0.75045026  0.75315317  0.33677850  1
  Al0+  Al71  1  0.75117231  0.75045282  0.67080367  1
  Al0+  Al72  1  0.42644110  0.32389937  0.98447695  1
  Al0+  Al73  1  0.31881646  0.57095412  0.68117344  1
  Al0+  Al74  1  0.17918286  0.92551060  0.01854960  1
  Al0+  Al75  1  0.57159951  0.18190827  0.31978125  1
  Al0+  Al76  1  0.93068139  0.32030633  0.98458623  1
  Al0+  Al77  1  0.32077639  0.07149076  0.01799991  1
  Al0+  Al78  1  0.06576311  0.67937073  0.31929947  1
  Al0+  Al79  1  0.82067899  0.57357264  0.34941388  1
  Al0+  Al80  1  0.43057670  0.82058125  0.65344065  1
  Al0+  Al81  1  0.67786805  0.42704962  0.68510332  1
  Al0+  Al82  1  0.67802175  0.42739234  0.34562309  1
  Al0+  Al83  1  0.56919049  0.17961775  0.98265986  1
  Al0+  Al84  1  0.82280651  0.56888006  0.01541737  1
  Al0+  Al85  1  0.42777243  0.82006752  0.31668782  1
  Al0+  Al86  1  0.06935659  0.68034511  0.98547772  1
  Al0+  Al87  1  0.17900416  0.92770576  0.68134113  1
  Al0+  Al88  1  0.67871575  0.93014139  0.01509438  1
  Al0+  Al89  1  0.17836644  0.42657414  0.34682633  1
  Al0+  Al90  1  0.32390175  0.07203602  0.68209334  1
  Al0+  Al91  1  0.82128272  0.57145365  0.68379231  1
  Al0+  Al92  1  0.43179557  0.81751245  0.98477079  1
  Al0+  Al93  1  0.57340174  0.67585929  0.32048536  1
  Al0+  Al94  1  0.31993228  0.57369833  0.34601456  1
  Al0+  Al95  1  0.06862881  0.67975910  0.65072054  1
  Si0+  Si96  1  0.17684665  0.93064393  0.34897617  1
  Si0+  Si97  1  0.67696976  0.93137883  0.34983537  1
  Si0+  Si98  1  0.93217114  0.31788573  0.31883656  1
  Si0+  Si99  1  0.07279127  0.17593357  0.31885523  1
  Si0+  Si100  1  0.57341838  0.67701469  0.65431553  1
  Si0+  Si101  1  0.67972298  0.93046453  0.67926152  1
  Si0+  Si102  1  0.42532562  0.32199544  0.31985819  1
  Si0+  Si103  1  0.82205680  0.07070015  0.34732878  1
  Si0+  Si104  1  0.67889806  0.42722679  0.01669361  1
  Si0+  Si105  1  0.42737117  0.32313870  0.65007872  1
  Si0+  Si106  1  0.07087320  0.17863383  0.65186133  1
  Si0+  Si107  1  0.07245859  0.17490628  0.98270677  1
  Si0+  Si108  1  0.57104381  0.18099871  0.65036411  1
  Si0+  Si109  1  0.32205891  0.06898095  0.34870104  1
  Si0+  Si110  1  0.17987677  0.43014310  0.01060343  1
  Si0+  Si111  1  0.57677113  0.67756136  0.98472704  1
  Si0+  Si112  1  0.32290114  0.57120258  0.01326430  1
  Si0+  Si113  1  0.82159249  0.07178292  0.68040326  1
  Si0+  Si114  1  0.92647450  0.82354125  0.98485109  1
  Si0+  Si115  1  0.17725984  0.42677841  0.68361051  1
  Si0+  Si116  1  0.82235413  0.07463685  0.01603152  1
  Si0+  Si117  1  0.92832556  0.31889296  0.64741715  1
  Si0+  Si118  1  0.92703528  0.82710712  0.31586097  1
  Si0+  Si119  1  0.92471782  0.82514265  0.65065145  1
  O2-  O120  1  0.24987535  -0.00132949  0.06918946  1
  O2-  O121  1  0.25131192  -0.00194906  0.39089820  1
  O2-  O122  1  0.25282079  -0.00157751  0.72993302  1
  O2-  O123  1  0.25612854  0.49485046  0.05286204  1
  O2-  O124  1  0.25002609  0.49882248  0.39633186  1
  O2-  O125  1  0.24422301  0.49598910  0.72870241  1
  O2-  O126  1  0.75334804  0.00694262  0.06089558  1
  O2-  O127  1  0.75064886  0.00096435  0.39125747  1
  O2-  O128  1  0.75407792  -0.00198735  0.72160089  1
  O2-  O129  1  0.74433609  0.49809203  0.06152349  1
  O2-  O130  1  0.74047560  0.50810600  0.39612724  1
  O2-  O131  1  0.74670000  0.50246701  0.73394022  1
  O2-  O132  1  0.00760341  0.25159862  0.27602566  1
  O2-  O133  1  0.00138858  0.24930399  0.60558081  1
  O2-  O134  1  0.00191183  0.24153748  0.93780267  1
  O2-  O135  1  -0.01149176  0.75181750  0.27274377  1
  O2-  O136  1  -0.00760781  0.75554079  0.60674381  1
  O2-  O137  1  -0.00375486  0.75739705  0.93962095  1
  O2-  O138  1  0.49941203  0.25947412  0.27538090  1
  O2-  O139  1  0.50000874  0.25231520  0.60885819  1
  O2-  O140  1  0.49713405  0.25118513  0.93247127  1
  O2-  O141  1  0.49853709  0.74475446  0.26960456  1
  O2-  O142  1  0.50305466  0.74295062  0.60838981  1
  O2-  O143  1  0.50658604  0.74294115  0.93773451  1
  O2-  O144  1  0.07118823  0.17754884  0.08883783  1
  O2-  O145  1  0.06883828  0.17307665  0.42414014  1
  O2-  O146  1  0.06697944  0.18017551  0.75648594  1
  O2-  O147  1  0.06825150  0.67688820  0.09854574  1
  O2-  O148  1  0.06696066  0.68204563  0.43227846  1
  O2-  O149  1  0.06783753  0.68028499  0.76369445  1
  O2-  O150  1  0.56995392  0.18323340  0.09638565  1
  O2-  O151  1  0.57035833  0.17980877  0.43354653  1
  O2-  O152  1  0.57374562  0.17953688  0.75461327  1
  O2-  O153  1  0.57506218  0.67842365  0.09014686  1
  O2-  O154  1  0.57471301  0.68153014  0.43449340  1
  O2-  O155  1  0.57511596  0.68206175  0.75981413  1
  O2-  O156  1  0.17842059  0.42596826  0.23271679  1
  O2-  O157  1  0.17974712  0.42468081  0.57816658  1
  O2-  O158  1  0.17797126  0.43187864  0.90552582  1
  O2-  O159  1  0.17250140  0.93413348  0.24457022  1
  O2-  O160  1  0.17829389  0.93085291  0.56698163  1
  O2-  O161  1  0.18039595  0.92637476  0.90518673  1
  O2-  O162  1  0.68585505  0.42099086  0.23254825  1
  O2-  O163  1  0.68108413  0.42393725  0.57148295  1
  O2-  O164  1  0.68080422  0.42792699  0.91124263  1
  O2-  O165  1  0.67715457  0.93322808  0.24514232  1
  O2-  O166  1  0.68014645  0.93349233  0.57396176  1
  O2-  O167  1  0.68094222  0.93119602  0.90121460  1
  O2-  O168  1  0.42662511  0.32498854  0.09839764  1
  O2-  O169  1  0.42207447  0.31641412  0.42553660  1
  O2-  O170  1  0.42549565  0.32208288  0.75464840  1
  O2-  O171  1  0.43199356  0.81494661  0.09754942  1
  O2-  O172  1  0.42925091  0.82316398  0.43072632  1
  O2-  O173  1  0.43330025  0.82267319  0.76639078  1
  O2-  O174  1  0.93337915  0.32009196  0.09813080  1
  O2-  O175  1  0.93145480  0.31273598  0.42405326  1
  O2-  O176  1  0.92881324  0.31678161  0.75245400  1
  O2-  O177  1  0.92602584  0.82419613  0.09031655  1
  O2-  O178  1  0.93200850  0.83683003  0.42103943  1
  O2-  O179  1  0.92163298  0.82887030  0.75564952  1
  O2-  O180  1  0.32027915  0.07184340  0.24429841  1
  O2-  O181  1  0.32294528  0.07211433  0.56763817  1
  O2-  O182  1  0.31844779  0.07035034  0.90459345  1
  O2-  O183  1  0.31690816  0.57234859  0.23199346  1
  O2-  O184  1  0.31880639  0.57137430  0.56831150  1
  O2-  O185  1  0.32027102  0.57282500  0.90806315  1
  O2-  O186  1  0.82539341  0.07034621  0.24294186  1
  O2-  O187  1  0.82136215  0.07314995  0.57482874  1
  O2-  O188  1  0.82251186  0.07243866  0.90999628  1
  O2-  O189  1  0.82447633  0.56624004  0.23598812  1
  O2-  O190  1  0.82024321  0.56947504  0.57046659  1
  O2-  O191  1  0.82304063  0.56730837  0.90248142  1
  O2-  O192  1  0.03872653  0.08747559  0.26905909  1
  O2-  O193  1  0.04172741  0.08688336  0.60395357  1
  O2-  O194  1  0.04793652  0.08017067  0.93895143  1
  O2-  O195  1  0.03751374  0.58031950  0.26788666  1
  O2-  O196  1  0.03890212  0.58181388  0.59759249  1
  O2-  O197  1  0.03759279  0.58573481  0.92862802  1
  O2-  O198  1  0.53843130  0.08688322  0.26549424  1
  O2-  O199  1  0.54399212  0.08963440  0.60095409  1
  O2-  O200  1  0.54214426  0.08045972  0.93142685  1
  O2-  O201  1  0.55210593  0.57469771  0.26981574  1
  O2-  O202  1  0.55046267  0.58072547  0.61333716  1
  O2-  O203  1  0.55654319  0.58255337  0.93974963  1
  O2-  O204  1  0.16662714  0.19745833  0.27335069  1
  O2-  O205  1  0.16332526  0.20544827  0.60452316  1
  O2-  O206  1  0.16428092  0.20320984  0.93591796  1
  O2-  O207  1  0.16049454  0.71230188  0.26351852  1
  O2-  O208  1  0.16413076  0.71191220  0.59543771  1
  O2-  O209  1  0.16584311  0.71057956  0.93133713  1
  O2-  O210  1  0.67005026  0.20676164  0.26634123  1
  O2-  O211  1  0.66370895  0.20811842  0.60242277  1
  O2-  O212  1  0.66822147  0.20499579  0.92840488  1
  O2-  O213  1  0.67190340  0.70873628  0.26889650  1
  O2-  O214  1  0.66671384  0.70475810  0.60790216  1
  O2-  O215  1  0.67086975  0.70692923  0.94177578  1
  O2-  O216  1  0.09008857  0.46296988  0.05867099  1
  O2-  O217  1  0.08021873  0.45256665  0.40067557  1
  O2-  O218  1  0.08180444  0.44971657  0.72615863  1
  O2-  O219  1  0.07919870  0.95183292  0.07067662  1
  O2-  O220  1  0.08664556  0.96252634  0.39794919  1
  O2-  O221  1  0.08042417  0.95717567  0.73429724  1
  O2-  O222  1  0.58346817  0.44779667  0.06102196  1
  O2-  O223  1  0.57632693  0.44184272  0.39688783  1
  O2-  O224  1  0.57824872  0.44715218  0.73768816  1
  O2-  O225  1  0.58388702  0.96172698  0.07044461  1
  O2-  O226  1  0.58665739  0.96407566  0.39735712  1
  O2-  O227  1  0.59036899  0.96371135  0.72723282  1
  O2-  O228  1  0.19850303  0.33609968  0.05747240  1
  O2-  O229  1  0.20285422  0.32646512  0.40027548  1
  O2-  O230  1  0.20194996  0.33323135  0.73016024  1
  O2-  O231  1  0.21073131  0.82737767  0.07012417  1
  O2-  O232  1  0.20238361  0.83764649  0.39358795  1
  O2-  O233  1  0.20616617  0.82949874  0.73237321  1
  O2-  O234  1  0.70885172  0.33313604  0.05897725  1
  O2-  O235  1  0.71690977  0.33169764  0.40077536  1
  O2-  O236  1  0.71243556  0.32977427  0.73749036  1
  O2-  O237  1  0.71145852  0.83636770  0.07339810  1
  O2-  O238  1  0.70353157  0.84081817  0.39979456  1
  O2-  O239  1  0.70341677  0.83893474  0.72825214  1
  O2-  O240  1  0.44160268  0.41838443  0.27752808  1
  O2-  O241  1  0.45504670  0.41577222  0.60412322  1
  O2-  O242  1  0.45592522  0.42203326  0.93011962  1
  O2-  O243  1  0.46122147  0.91690209  0.26361054  1
  O2-  O244  1  0.46376830  0.91688941  0.59891238  1
  O2-  O245  1  0.46332926  0.91461884  0.93340248  1
  O2-  O246  1  0.95669784  0.41015931  0.27207086  1
  O2-  O247  1  0.95498137  0.41025781  0.59966524  1
  O2-  O248  1  0.96740506  0.41240973  0.92662542  1
  O2-  O249  1  0.95762619  0.91794256  0.26574671  1
  O2-  O250  1  0.94977125  0.91976759  0.60407419  1
  O2-  O251  1  0.94737257  0.91920323  0.93998633  1
  O2-  O252  1  0.33384134  0.28961454  0.27207577  1
  O2-  O253  1  0.33580744  0.29450202  0.60200910  1
  O2-  O254  1  0.32723073  0.29708014  0.93144414  1
  O2-  O255  1  0.32870007  0.79622314  0.26384563  1
  O2-  O256  1  0.33374755  0.79098021  0.60003818  1
  O2-  O257  1  0.33570031  0.78589425  0.93095153  1
  O2-  O258  1  0.84350969  0.28429711  0.26954982  1
  O2-  O259  1  0.83785786  0.28551390  0.60070906  1
  O2-  O260  1  0.83601056  0.29102506  0.92631054  1
  O2-  O261  1  0.82977895  0.81022202  0.27534325  1
  O2-  O262  1  0.83052594  0.80108961  0.60349931  1
  O2-  O263  1  0.83243859  0.79684945  0.94013739  1
  O2-  O264  1  0.41949521  0.04355733  0.06919345  1
  O2-  O265  1  0.41431879  0.04116035  0.39525487  1
  O2-  O266  1  0.42339344  0.04633977  0.73307483  1
  O2-  O267  1  0.41703195  0.54880865  0.05848249  1
  O2-  O268  1  0.41871662  0.54990165  0.40081105  1
  O2-  O269  1  0.41460956  0.54209988  0.73713372  1
  O2-  O270  1  0.91597762  0.05113117  0.06314437  1
  O2-  O271  1  0.91324871  0.04247054  0.39754604  1
  O2-  O272  1  0.91371234  0.04965651  0.72905257  1
  O2-  O273  1  0.91885116  0.53059449  0.06587015  1
  O2-  O274  1  0.91440634  0.53395107  0.40416708  1
  O2-  O275  1  0.91893599  0.53605490  0.73418801  1
  O2-  O276  1  0.29059676  0.17076808  0.06983841  1
  O2-  O277  1  0.29435240  0.15981049  0.39860037  1
  O2-  O278  1  0.29352893  0.17019986  0.73370095  1
  O2-  O279  1  0.28958117  0.66010856  0.06136080  1
  O2-  O280  1  0.28584070  0.67150756  0.39790571  1
  O2-  O281  1  0.28564850  0.66652014  0.73466701  1
  O2-  O282  1  0.79792439  0.16971127  0.05923423  1
  O2-  O283  1  0.79453360  0.16159528  0.39671394  1
  O2-  O284  1  0.79040929  0.16164245  0.72867792  1
  O2-  O285  1  0.79939477  0.66625861  0.07055516  1
  O2-  O286  1  0.80532640  0.67634985  0.39887852  1
  O2-  O287  1  0.79854334  0.67193565  0.73617021  1
