# generated using pymatgen
data_Ca2Al2SiO7
_symmetry_space_group_name_H-M   'P 1'
_cell_length_a   15.45248408
_cell_length_b   15.45296676
_cell_length_c   15.28009158
_cell_angle_alpha   89.99473776
_cell_angle_beta   90.00099687
_cell_angle_gamma   89.99314133
_symmetry_Int_Tables_number   1
_chemical_formula_structural   Ca2Al2SiO7
_chemical_formula_sum   'Ca48 Al48 Si24 O168'
_cell_volume   3648.68295078
_cell_formula_units_Z   24
loop_
 _symmetry_equiv_pos_site_id
 _symmetry_equiv_pos_as_xyz
  1  'x, y, z'
loop_
 _atom_type_symbol
 _atom_type_oxidation_number
  Ca2+  2.0
  Al0+  0.0
  Si0+  0.0
  O2-  -2.0
loop_
 _atom_site_type_symbol
 _atom_site_label
 _atom_site_symmetry_multiplicity
 _atom_site_fract_x
 _atom_site_fract_y
 _atom_site_fract_z
 _atom_site_occupancy
  Ca2+  Ca0  1  0.16890324  0.08027875  0.16506693  1
  Ca2+  Ca1  1  0.17477850  0.09084000  0.50407841  1
  Ca2+  Ca2  1  0.16478423  0.08055167  0.84274227  1
  Ca2+  Ca3  1  0.17433046  0.58910065  0.16846578  1
  Ca2+  Ca4  1  0.16471661  0.57629659  0.50719877  1
  Ca2+  Ca5  1  0.17405499  0.57490168  0.83981007  1
  Ca2+  Ca6  1  0.66615073  0.07970611  0.16884860  1
  Ca2+  Ca7  1  0.66943095  0.07978917  0.50693411  1
  Ca2+  Ca8  1  0.67555179  0.09225447  0.83874556  1
  Ca2+  Ca9  1  0.66330697  0.57370436  0.16592738  1
  Ca2+  Ca10  1  0.66898131  0.57611519  0.50685061  1
  Ca2+  Ca11  1  0.66813445  0.58487625  0.84246705  1
  Ca2+  Ca12  1  0.07412457  0.32603527  0.16138298  1
  Ca2+  Ca13  1  0.07715470  0.33319105  0.49601618  1
  Ca2+  Ca14  1  0.08697325  0.32203832  0.82818754  1
  Ca2+  Ca15  1  0.08033470  0.83203666  0.15854083  1
  Ca2+  Ca16  1  0.07911947  0.82362821  0.49442868  1
  Ca2+  Ca17  1  0.07843680  0.83681595  0.83623766  1
  Ca2+  Ca18  1  0.57776999  0.33506617  0.15766283  1
  Ca2+  Ca19  1  0.58427882  0.32715859  0.49329853  1
  Ca2+  Ca20  1  0.58525680  0.32942535  0.83650285  1
  Ca2+  Ca21  1  0.58046705  0.82946092  0.15678520  1
  Ca2+  Ca22  1  0.58507040  0.83023753  0.50008641  1
  Ca2+  Ca23  1  0.57354768  0.82343525  0.82772747  1
  Ca2+  Ca24  1  0.34285793  0.42018299  0.16789617  1
  Ca2+  Ca25  1  0.32722668  0.41279214  0.50378692  1
  Ca2+  Ca26  1  0.33183923  0.41721505  0.84080647  1
  Ca2+  Ca27  1  0.33293416  0.92163270  0.16892291  1
  Ca2+  Ca28  1  0.33521288  0.92115030  0.50329696  1
  Ca2+  Ca29  1  0.32877295  0.90935929  0.84121508  1
  Ca2+  Ca30  1  0.81965669  0.41304369  0.16927593  1
  Ca2+  Ca31  1  0.83166527  0.41873006  0.50428239  1
  Ca2+  Ca32  1  0.82571115  0.43042989  0.84247774  1
  Ca2+  Ca33  1  0.83082652  0.92037165  0.16525652  1
  Ca2+  Ca34  1  0.82589278  0.92085434  0.50480419  1
  Ca2+  Ca35  1  0.83561110  0.92711617  0.84232138  1
  Ca2+  Ca36  1  0.42023803  0.17623938  0.15958067  1
  Ca2+  Ca37  1  0.42074044  0.17074894  0.49356439  1
  Ca2+  Ca38  1  0.43163452  0.16905178  0.83127405  1
  Ca2+  Ca39  1  0.42350237  0.67102139  0.15127510  1
  Ca2+  Ca40  1  0.42059469  0.67150440  0.50048367  1
  Ca2+  Ca41  1  0.42387097  0.66945225  0.83383020  1
  Ca2+  Ca42  1  0.91624779  0.16922966  0.15853903  1
  Ca2+  Ca43  1  0.92052807  0.16867795  0.49952746  1
  Ca2+  Ca44  1  0.92522733  0.15902566  0.82915870  1
  Ca2+  Ca45  1  0.92033061  0.67107609  0.15933678  1
  Ca2+  Ca46  1  0.92192894  0.65952731  0.49484170  1
  Ca2+  Ca47  1  0.90390647  0.67229804  0.83250526  1
  Al0+  Al48  1  0.00037706  -0.00097280  0.00310027  1
  Al0+  Al49  1  0.00103605  -0.00205176  0.33526176  1
  Al0+  Al50  1  0.00100780  -0.00012608  0.66134159  1
  Al0+  Al51  1  0.00074097  0.50008306  0.00385149  1
  Al0+  Al52  1  0.00145194  0.49908734  0.32171941  1
  Al0+  Al53  1  -0.00046864  0.49926825  0.67801498  1
  Al0+  Al54  1  0.49955865  0.00142423  -0.00804570  1
  Al0+  Al55  1  0.50012101  -0.00084275  0.34242546  1
  Al0+  Al56  1  0.49925464  0.00115919  0.65976749  1
  Al0+  Al57  1  0.49843327  0.50042652  -0.00101889  1
  Al0+  Al58  1  0.50097521  0.50021200  0.33775847  1
  Al0+  Al59  1  0.49863480  0.50075864  0.66242708  1
  Al0+  Al60  1  0.24901650  0.24909670  -0.00622436  1
  Al0+  Al61  1  0.25099686  0.25068792  0.33297601  1
  Al0+  Al62  1  0.24943765  0.24803888  0.66807782  1
  Al0+  Al63  1  0.24744869  0.74910622  0.00530674  1
  Al0+  Al64  1  0.25078394  0.75023084  0.33212649  1
  Al0+  Al65  1  0.24913855  0.75034447  0.66214164  1
  Al0+  Al66  1  0.75138370  0.25198660  0.00498481  1
  Al0+  Al67  1  0.75067043  0.24952796  0.33498396  1
  Al0+  Al68  1  0.75085151  0.25019743  0.66629717  1
  Al0+  Al69  1  0.75179760  0.75206519  -0.00351642  1
  Al0+  Al70  1  0.75091647  0.75032866  0.33764690  1
  Al0+  Al71  1  0.74806787  0.75076437  0.66403955  1
  Al0+  Al72  1  0.17959163  0.92971373  0.01332101  1
  Al0+  Al73  1  0.31868595  0.56866568  0.01300697  1
  Al0+  Al74  1  0.42651279  0.82067857  0.64905135  1
  Al0+  Al75  1  0.67829355  0.42856159  0.34920534  1
  Al0+  Al76  1  0.82228924  0.57584345  0.01746682  1
  Al0+  Al77  1  0.06780712  0.17935134  0.98741133  1
  Al0+  Al78  1  0.57369947  0.18150540  0.65098856  1
  Al0+  Al79  1  0.42961781  0.32117757  0.32060599  1
  Al0+  Al80  1  0.82130337  0.07083098  0.01361307  1
  Al0+  Al81  1  0.07140052  0.17779211  0.65157351  1
  Al0+  Al82  1  0.42569511  0.82238711  0.98723858  1
  Al0+  Al83  1  0.31889955  0.07147766  0.34665445  1
  Al0+  Al84  1  0.82117648  0.06984123  0.67983482  1
  Al0+  Al85  1  0.93051552  0.81987808  0.98696281  1
  Al0+  Al86  1  0.57161878  0.67949165  0.98700111  1
  Al0+  Al87  1  0.92792906  0.31965827  0.31936824  1
  Al0+  Al88  1  0.57232225  0.67808744  0.64867785  1
  Al0+  Al89  1  0.07178065  0.67897517  0.31962889  1
  Al0+  Al90  1  0.57403211  0.17875697  0.98658167  1
  Al0+  Al91  1  0.67959443  0.92819036  0.34720781  1
  Al0+  Al92  1  0.82002784  0.57136431  0.67974864  1
  Al0+  Al93  1  0.67912834  0.43082772  0.01495776  1
  Al0+  Al94  1  0.42860373  0.32212237  0.98426643  1
  Al0+  Al95  1  0.17935508  0.42760087  0.68035613  1
  Si0+  Si96  1  0.92722025  0.82191477  0.31697754  1
  Si0+  Si97  1  0.32103994  0.57306735  0.68219199  1
  Si0+  Si98  1  0.42737118  0.32097155  0.64947360  1
  Si0+  Si99  1  0.17808464  0.42377932  0.01901492  1
  Si0+  Si100  1  0.17791698  0.92635583  0.35265966  1
  Si0+  Si101  1  0.32365511  0.07282627  0.01440148  1
  Si0+  Si102  1  0.07263447  0.17721590  0.31698963  1
  Si0+  Si103  1  0.06915796  0.67785923  0.65464445  1
  Si0+  Si104  1  0.32168901  0.57265472  0.34981986  1
  Si0+  Si105  1  0.57151259  0.17623964  0.31797465  1
  Si0+  Si106  1  0.17883316  0.43072182  0.34609050  1
  Si0+  Si107  1  0.82303087  0.56996918  0.34836998  1
  Si0+  Si108  1  0.67637082  0.92910766  0.68501477  1
  Si0+  Si109  1  0.93054105  0.32344132  0.65261946  1
  Si0+  Si110  1  0.67643073  0.92959374  0.01300790  1
  Si0+  Si111  1  0.67602515  0.42766700  0.68263056  1
  Si0+  Si112  1  0.07247214  0.67658995  0.98196490  1
  Si0+  Si113  1  0.17976945  0.92816838  0.68012813  1
  Si0+  Si114  1  0.92889770  0.82188800  0.65087242  1
  Si0+  Si115  1  0.32163495  0.07062990  0.68298198  1
  Si0+  Si116  1  0.82394207  0.07216804  0.35134616  1
  Si0+  Si117  1  0.57141409  0.67980183  0.31900784  1
  Si0+  Si118  1  0.92725969  0.32395150  0.98208538  1
  Si0+  Si119  1  0.43015990  0.82192831  0.31807168  1
  O2-  O120  1  0.25779283  0.00124698  0.05894420  1
  O2-  O121  1  0.24291311  -0.00160723  0.39653178  1
  O2-  O122  1  0.25203652  -0.00277370  0.72332930  1
  O2-  O123  1  0.24614085  0.49307713  0.06332762  1
  O2-  O124  1  0.24984239  0.50132147  0.39039332  1
  O2-  O125  1  0.25620260  0.50064549  0.72566233  1
  O2-  O126  1  0.74193381  0.00059298  0.05925349  1
  O2-  O127  1  0.75430838  0.00352658  0.39397561  1
  O2-  O128  1  0.74481894  -0.00199784  0.72859853  1
  O2-  O129  1  0.75105335  0.50291694  0.06649861  1
  O2-  O130  1  0.75501329  0.50206618  0.39483295  1
  O2-  O131  1  0.74117829  0.50052657  0.72501911  1
  O2-  O132  1  -0.00138575  0.24003581  0.27366364  1
  O2-  O133  1  -0.00250089  0.25366561  0.60625669  1
  O2-  O134  1  -0.00399786  0.25535994  0.93797628  1
  O2-  O135  1  -0.00182552  0.75507867  0.27420737  1
  O2-  O136  1  -0.00397723  0.74595663  0.61023981  1
  O2-  O137  1  -0.00055711  0.74046687  0.93768331  1
  O2-  O138  1  0.50559988  0.24760973  0.27452662  1
  O2-  O139  1  0.50002004  0.25734599  0.60402918  1
  O2-  O140  1  0.50138781  0.25026075  0.93608069  1
  O2-  O141  1  0.50075308  0.75090710  0.27621011  1
  O2-  O142  1  0.50016326  0.75040897  0.59825703  1
  O2-  O143  1  0.49964287  0.75240460  0.93822739  1
  O2-  O144  1  0.06688302  0.18003540  0.10095107  1
  O2-  O145  1  0.07344674  0.18021551  0.42284180  1
  O2-  O146  1  0.07098077  0.17575929  0.76429082  1
  O2-  O147  1  0.07406390  0.68059773  0.08774053  1
  O2-  O148  1  0.06959931  0.67809435  0.43388590  1
  O2-  O149  1  0.07234554  0.68072230  0.75898553  1
  O2-  O150  1  0.57079608  0.17612057  0.10048212  1
  O2-  O151  1  0.56985894  0.17772025  0.42393387  1
  O2-  O152  1  0.57353566  0.18257214  0.76354873  1
  O2-  O153  1  0.56960682  0.68130966  0.10151308  1
  O2-  O154  1  0.56961131  0.68056884  0.42403307  1
  O2-  O155  1  0.57145133  0.67912508  0.76169269  1
  O2-  O156  1  0.18010873  0.43086954  0.24152437  1
  O2-  O157  1  0.17778405  0.43097210  0.56626768  1
  O2-  O158  1  0.17880317  0.42504005  0.91318689  1
  O2-  O159  1  0.17808897  0.92496941  0.24747327  1
  O2-  O160  1  0.17967504  0.92779952  0.57480906  1
  O2-  O161  1  0.17847241  0.93095120  0.89965939  1
  O2-  O162  1  0.67554599  0.43073987  0.23691724  1
  O2-  O163  1  0.67926650  0.42729037  0.57657658  1
  O2-  O164  1  0.68102073  0.43064917  0.90110353  1
  O2-  O165  1  0.67872341  0.92815340  0.23403675  1
  O2-  O166  1  0.67990250  0.92963542  0.57876664  1
  O2-  O167  1  0.67903933  0.92926383  0.90770332  1
  O2-  O168  1  0.42895876  0.32007549  0.09823156  1
  O2-  O169  1  0.42764618  0.31926623  0.43395366  1
  O2-  O170  1  0.42612932  0.31893857  0.75456663  1
  O2-  O171  1  0.42814799  0.82225595  0.10163519  1
  O2-  O172  1  0.42860962  0.81967272  0.42307446  1
  O2-  O173  1  0.42318320  0.81792442  0.76204086  1
  O2-  O174  1  0.92890077  0.32125805  0.08810316  1
  O2-  O175  1  0.93210989  0.32232906  0.43301854  1
  O2-  O176  1  0.93287334  0.32332308  0.75764950  1
  O2-  O177  1  0.93386305  0.82141792  0.10024359  1
  O2-  O178  1  0.92817933  0.82127117  0.42310484  1
  O2-  O179  1  0.93140504  0.82468952  0.75556178  1
  O2-  O180  1  0.31866197  0.06931479  0.23367888  1
  O2-  O181  1  0.31858182  0.07197188  0.57746180  1
  O2-  O182  1  0.32111635  0.07335011  0.90880038  1
  O2-  O183  1  0.32222574  0.57405274  0.24506050  1
  O2-  O184  1  0.31731909  0.57390107  0.57594079  1
  O2-  O185  1  0.31557899  0.56862904  0.89970936  1
  O2-  O186  1  0.82545081  0.07121552  0.24594394  1
  O2-  O187  1  0.82178845  0.06622535  0.56633892  1
  O2-  O188  1  0.82384522  0.06782489  0.90048552  1
  O2-  O189  1  0.82069090  0.57186297  0.24358360  1
  O2-  O190  1  0.82532356  0.56690812  0.56613397  1
  O2-  O191  1  0.81986309  0.57351176  0.90355879  1
  O2-  O192  1  0.05324308  0.08000246  0.27543155  1
  O2-  O193  1  0.04036714  0.08279241  0.59378211  1
  O2-  O194  1  0.03564185  0.08342040  0.93384494  1
  O2-  O195  1  0.04388936  0.58476948  0.26102431  1
  O2-  O196  1  0.04142201  0.58485513  0.60902381  1
  O2-  O197  1  0.05388431  0.57988218  0.93965726  1
  O2-  O198  1  0.54289160  0.08238453  0.27475207  1
  O2-  O199  1  0.54195513  0.08541397  0.59650673  1
  O2-  O200  1  0.54707020  0.08216789  0.92902916  1
  O2-  O201  1  0.54186249  0.58791937  0.27387905  1
  O2-  O202  1  0.54348751  0.57938996  0.59459689  1
  O2-  O203  1  0.54040190  0.58319059  0.93314462  1
  O2-  O204  1  0.16382138  0.20808165  0.27013816  1
  O2-  O205  1  0.16807729  0.20959517  0.59802380  1
  O2-  O206  1  0.16423293  0.20678448  0.93137827  1
  O2-  O207  1  0.16880780  0.71010393  0.26612380  1
  O2-  O208  1  0.15882018  0.70719622  0.60311596  1
  O2-  O209  1  0.16370867  0.70769806  0.93524985  1
  O2-  O210  1  0.66728415  0.19706310  0.27561221  1
  O2-  O211  1  0.67057098  0.21036679  0.59520789  1
  O2-  O212  1  0.67256810  0.20954063  0.93507381  1
  O2-  O213  1  0.66445789  0.70720144  0.27449660  1
  O2-  O214  1  0.67028139  0.70769090  0.59346688  1
  O2-  O215  1  0.66940914  0.70687689  0.93372728  1
  O2-  O216  1  0.08385137  0.44827270  0.06421670  1
  O2-  O217  1  0.08684216  0.46065234  0.39273066  1
  O2-  O218  1  0.08619570  0.45948745  0.73914375  1
  O2-  O219  1  0.08676152  0.96552577  0.07131102  1
  O2-  O220  1  0.08228050  0.94655333  0.39807034  1
  O2-  O221  1  0.08776809  0.95739102  0.72566996  1
  O2-  O222  1  0.58038150  0.45915462  0.06717039  1
  O2-  O223  1  0.58338695  0.46147623  0.40621430  1
  O2-  O224  1  0.57977346  0.44892082  0.72471297  1
  O2-  O225  1  0.58146677  0.95282949  0.05831634  1
  O2-  O226  1  0.58453940  0.95689566  0.40549751  1
  O2-  O227  1  0.58088216  0.95351721  0.72620466  1
  O2-  O228  1  0.20295859  0.32958214  0.06390156  1
  O2-  O229  1  0.20621246  0.33915668  0.39469217  1
  O2-  O230  1  0.20949136  0.33083557  0.73418722  1
  O2-  O231  1  0.20522799  0.83326000  0.06980907  1
  O2-  O232  1  0.20777680  0.83363990  0.39959579  1
  O2-  O233  1  0.20533846  0.83535840  0.72707187  1
  O2-  O234  1  0.70864632  0.33385031  0.07110796  1
  O2-  O235  1  0.70862634  0.33105255  0.40246315  1
  O2-  O236  1  0.70506314  0.33556914  0.72874448  1
  O2-  O237  1  0.70576626  0.83773213  0.06034243  1
  O2-  O238  1  0.71265375  0.83315720  0.40511991  1
  O2-  O239  1  0.70217795  0.83481667  0.72807530  1
  O2-  O240  1  0.45906827  0.41974354  0.26981210  1
  O2-  O241  1  0.44469845  0.41705491  0.60486239  1
  O2-  O242  1  0.45518780  0.41989703  0.93052107  1
  O2-  O243  1  0.45854939  0.91463477  0.27375742  1
  O2-  O244  1  0.45312609  0.91965559  0.59613991  1
  O2-  O245  1  0.44896020  0.92042795  0.93215191  1
  O2-  O246  1  0.96212185  0.41232969  0.26096806  1
  O2-  O247  1  0.95993882  0.41657486  0.60649710  1
  O2-  O248  1  0.95298839  0.41862763  0.93827822  1
  O2-  O249  1  0.95148567  0.91667459  0.27218711  1
  O2-  O250  1  0.96260940  0.90937656  0.59856909  1
  O2-  O251  1  0.96812316  0.91384806  0.93233046  1
  O2-  O252  1  0.33301774  0.29111074  0.26632394  1
  O2-  O253  1  0.33529507  0.28945777  0.60291546  1
  O2-  O254  1  0.33046855  0.29438783  0.93069126  1
  O2-  O255  1  0.33750295  0.79547911  0.27210575  1
  O2-  O256  1  0.32870601  0.79062139  0.59284118  1
  O2-  O257  1  0.32745401  0.79024531  0.93652923  1
  O2-  O258  1  0.83059335  0.29073945  0.26576092  1
  O2-  O259  1  0.83686479  0.29903015  0.60610580  1
  O2-  O260  1  0.83357133  0.29954781  0.93786099  1
  O2-  O261  1  0.83406096  0.79485625  0.27136932  1
  O2-  O262  1  0.83596392  0.79854760  0.60393471  1
  O2-  O263  1  0.83399004  0.79608054  0.92973917  1
  O2-  O264  1  0.41820862  0.04986287  0.05976119  1
  O2-  O265  1  0.41361481  0.03988245  0.40416969  1
  O2-  O266  1  0.41525680  0.04533676  0.72720278  1
  O2-  O267  1  0.41511365  0.54051984  0.06850170  1
  O2-  O268  1  0.41214339  0.54453092  0.39941011  1
  O2-  O269  1  0.41645032  0.55109727  0.72528807  1
  O2-  O270  1  0.91415056  0.03378089  0.07059824  1
  O2-  O271  1  0.91805896  0.04578001  0.39774359  1
  O2-  O272  1  0.91857201  0.03557700  0.73065416  1
  O2-  O273  1  0.92306613  0.55013645  0.06753831  1
  O2-  O274  1  0.91827963  0.54214874  0.39093048  1
  O2-  O275  1  0.91402213  0.54114788  0.73854808  1
  O2-  O276  1  0.29291579  0.16514240  0.06053682  1
  O2-  O277  1  0.28737896  0.16779121  0.40272965  1
  O2-  O278  1  0.29168354  0.16086547  0.73102964  1
  O2-  O279  1  0.28588429  0.66341107  0.07067460  1
  O2-  O280  1  0.29239805  0.66424801  0.39776976  1
  O2-  O281  1  0.29015940  0.66535563  0.72735948  1
  O2-  O282  1  0.79595228  0.16797694  0.06826591  1
  O2-  O283  1  0.79931390  0.16547354  0.39809433  1
  O2-  O284  1  0.79453583  0.16827429  0.73192723  1
  O2-  O285  1  0.79708567  0.67595346  0.06828050  1
  O2-  O286  1  0.79961285  0.66382624  0.39584582  1
  O2-  O287  1  0.79275843  0.67068181  0.72993694  1
