# generated using pymatgen
data_Ca2Al2SiO7
_symmetry_space_group_name_H-M   'P 1'
_cell_length_a   15.46528278
_cell_length_b   15.46254096
_cell_length_c   15.28656760
_cell_angle_alpha   90.00844376
_cell_angle_beta   90.02909036
_cell_angle_gamma   90.00529897
_symmetry_Int_Tables_number   1
_chemical_formula_structural   Ca2Al2SiO7
_chemical_formula_sum   'Ca48 Al48 Si24 O168'
_cell_volume   3655.51564439
_cell_formula_units_Z   24
loop_
 _symmetry_equiv_pos_site_id
 _symmetry_equiv_pos_as_xyz
  1  'x, y, z'
loop_
 _atom_type_symbol
 _atom_type_oxidation_number
  Ca2+  2.0
  Al0+  0.0
  Si0+  0.0
  O2-  -2.0
loop_
 _atom_site_type_symbol
 _atom_site_label
 _atom_site_symmetry_multiplicity
 _atom_site_fract_x
 _atom_site_fract_y
 _atom_site_fract_z
 _atom_site_occupancy
  Ca2+  Ca0  1  0.16034455  0.07297769  0.16750244  1
  Ca2+  Ca1  1  0.16164335  0.07562804  0.50770791  1
  Ca2+  Ca2  1  0.15690680  0.07563307  0.83788083  1
  Ca2+  Ca3  1  0.15882741  0.57237684  0.16636134  1
  Ca2+  Ca4  1  0.16529088  0.57652024  0.50022644  1
  Ca2+  Ca5  1  0.16484524  0.57880694  0.84368711  1
  Ca2+  Ca6  1  0.66995842  0.08014109  0.17547575  1
  Ca2+  Ca7  1  0.67729042  0.07711599  0.50977803  1
  Ca2+  Ca8  1  0.67191530  0.08941136  0.83474398  1
  Ca2+  Ca9  1  0.66700005  0.57755851  0.16636782  1
  Ca2+  Ca10  1  0.66444960  0.57199314  0.50860719  1
  Ca2+  Ca11  1  0.66829185  0.57716068  0.84129419  1
  Ca2+  Ca12  1  0.07842957  0.33289500  0.15824280  1
  Ca2+  Ca13  1  0.06975545  0.32955497  0.49242140  1
  Ca2+  Ca14  1  0.08015625  0.32385750  0.82504206  1
  Ca2+  Ca15  1  0.08661097  0.82936810  0.15719549  1
  Ca2+  Ca16  1  0.07821872  0.84347468  0.50037590  1
  Ca2+  Ca17  1  0.08124690  0.83226147  0.82810339  1
  Ca2+  Ca18  1  0.58962702  0.33051020  0.16069733  1
  Ca2+  Ca19  1  0.59599789  0.32757922  0.49980332  1
  Ca2+  Ca20  1  0.59392591  0.32666908  0.82878901  1
  Ca2+  Ca21  1  0.57711159  0.83198742  0.15428490  1
  Ca2+  Ca22  1  0.59610830  0.82978144  0.49850881  1
  Ca2+  Ca23  1  0.58720780  0.82218295  0.82601237  1
  Ca2+  Ca24  1  0.31869066  0.41280365  0.16878422  1
  Ca2+  Ca25  1  0.32668016  0.41452692  0.50195146  1
  Ca2+  Ca26  1  0.32641301  0.41728779  0.83958179  1
  Ca2+  Ca27  1  0.32541027  0.91185375  0.16654037  1
  Ca2+  Ca28  1  0.32089551  0.91547697  0.50370099  1
  Ca2+  Ca29  1  0.32359496  0.91278276  0.83896982  1
  Ca2+  Ca30  1  0.82633630  0.42009544  0.16891596  1
  Ca2+  Ca31  1  0.82829894  0.41000549  0.50458724  1
  Ca2+  Ca32  1  0.82605676  0.41759686  0.83798989  1
  Ca2+  Ca33  1  0.82609146  0.92629641  0.17537826  1
  Ca2+  Ca34  1  0.83096890  0.92793982  0.50896661  1
  Ca2+  Ca35  1  0.83385165  0.91894766  0.82886250  1
  Ca2+  Ca36  1  0.42497751  0.16819152  0.15905452  1
  Ca2+  Ca37  1  0.42496072  0.16309876  0.50183777  1
  Ca2+  Ca38  1  0.42959988  0.16655268  0.83096882  1
  Ca2+  Ca39  1  0.42342792  0.67436429  0.15589163  1
  Ca2+  Ca40  1  0.42380979  0.66661922  0.49995434  1
  Ca2+  Ca41  1  0.42662382  0.67065757  0.83232826  1
  Ca2+  Ca42  1  0.91710568  0.17153598  0.16547426  1
  Ca2+  Ca43  1  0.91040858  0.17125245  0.50106681  1
  Ca2+  Ca44  1  0.92473976  0.17042640  0.82389990  1
  Ca2+  Ca45  1  0.91960535  0.66832742  0.15782490  1
  Ca2+  Ca46  1  0.91266131  0.67724624  0.49996572  1
  Ca2+  Ca47  1  0.91718193  0.66972417  0.83139106  1
  Al0+  Al48  1  -0.00090019  0.00113482  0.00281514  1
  Al0+  Al49  1  -0.00060583  0.00081601  0.33857399  1
  Al0+  Al50  1  -0.00002404  -0.00137361  0.66799645  1
  Al0+  Al51  1  -0.00235637  0.50204978  0.00254057  1
  Al0+  Al52  1  -0.00032820  0.49994759  0.33386599  1
  Al0+  Al53  1  0.00037050  0.49960938  0.66285221  1
  Al0+  Al54  1  0.49757132  0.00224054  -0.00823502  1
  Al0+  Al55  1  0.49818905  -0.00230966  0.33546593  1
  Al0+  Al56  1  0.49780320  -0.00158555  0.66476612  1
  Al0+  Al57  1  0.49835022  0.50023306  0.00132206  1
  Al0+  Al58  1  0.49939406  0.49959275  0.33492959  1
  Al0+  Al59  1  0.49888677  0.50066590  0.66691953  1
  Al0+  Al60  1  0.25081094  0.24781824  0.00030035  1
  Al0+  Al61  1  0.25089075  0.24870222  0.33712259  1
  Al0+  Al62  1  0.25131624  0.24824762  0.66320837  1
  Al0+  Al63  1  0.24871348  0.74966931  -0.00381980  1
  Al0+  Al64  1  0.25183913  0.74949359  0.33692931  1
  Al0+  Al65  1  0.25183214  0.74843018  0.66918104  1
  Al0+  Al66  1  0.75131382  0.25059903  0.00125050  1
  Al0+  Al67  1  0.75203287  0.25114257  0.33368591  1
  Al0+  Al68  1  0.75057884  0.24940949  0.66767272  1
  Al0+  Al69  1  0.75004818  0.75147516  0.00097645  1
  Al0+  Al70  1  0.75147046  0.74807608  0.33131776  1
  Al0+  Al71  1  0.75178887  0.74937678  0.66010941  1
  Al0+  Al72  1  0.17911682  0.92952898  0.01346987  1
  Al0+  Al73  1  0.06886162  0.67850554  0.98762045  1
  Al0+  Al74  1  0.93125953  0.81917805  0.65294742  1
  Al0+  Al75  1  0.67980989  0.43010040  0.68081461  1
  Al0+  Al76  1  0.17751085  0.42778598  0.34773450  1
  Al0+  Al77  1  0.67822265  0.42827615  0.01551210  1
  Al0+  Al78  1  0.67666018  0.92689527  0.34605170  1
  Al0+  Al79  1  0.82035906  0.57433693  0.01487832  1
  Al0+  Al80  1  0.18059917  0.92876758  0.34660743  1
  Al0+  Al81  1  0.07099046  0.17906610  0.98817651  1
  Al0+  Al82  1  0.17878924  0.42717669  0.01085792  1
  Al0+  Al83  1  0.81985671  0.07159753  0.34886121  1
  Al0+  Al84  1  0.57264557  0.67885804  0.98521910  1
  Al0+  Al85  1  0.81984383  0.07081200  0.68520916  1
  Al0+  Al86  1  0.67784101  0.92646280  0.68285514  1
  Al0+  Al87  1  0.18024078  0.92997976  0.68219974  1
  Al0+  Al88  1  0.57080439  0.17869540  0.65214836  1
  Al0+  Al89  1  0.67918181  0.43165514  0.34764413  1
  Al0+  Al90  1  0.07203139  0.17770707  0.65046289  1
  Al0+  Al91  1  0.92911360  0.32150341  0.31594908  1
  Al0+  Al92  1  0.57077702  0.67931050  0.65135744  1
  Al0+  Al93  1  0.57271058  0.18130659  0.98795605  1
  Al0+  Al94  1  0.92930349  0.32178283  0.65192600  1
  Al0+  Al95  1  0.42757175  0.82211734  0.98355679  1
  Si0+  Si96  1  0.32379625  0.07165359  0.01704625  1
  Si0+  Si97  1  0.07555959  0.67681925  0.64870497  1
  Si0+  Si98  1  0.07378578  0.17741569  0.31578557  1
  Si0+  Si99  1  0.32089703  0.57001948  0.68307613  1
  Si0+  Si100  1  0.42620123  0.82069599  0.64728478  1
  Si0+  Si101  1  0.32076044  0.57227217  0.01665823  1
  Si0+  Si102  1  0.82399963  0.57291276  0.68175154  1
  Si0+  Si103  1  0.17896143  0.42863927  0.68039445  1
  Si0+  Si104  1  0.92754193  0.82434084  0.98490568  1
  Si0+  Si105  1  0.42820667  0.81955460  0.31827224  1
  Si0+  Si106  1  0.07230333  0.68066996  0.31897668  1
  Si0+  Si107  1  0.56939280  0.17979400  0.32015269  1
  Si0+  Si108  1  0.67678265  0.93084753  0.01206336  1
  Si0+  Si109  1  0.42774557  0.32298714  0.64917849  1
  Si0+  Si110  1  0.32281225  0.07404316  0.68536358  1
  Si0+  Si111  1  0.42656971  0.32232333  0.98501022  1
  Si0+  Si112  1  0.32157715  0.57085170  0.35033059  1
  Si0+  Si113  1  0.92967742  0.82236386  0.31706060  1
  Si0+  Si114  1  0.82085483  0.07116954  0.01594516  1
  Si0+  Si115  1  0.82362490  0.57266931  0.35155399  1
  Si0+  Si116  1  0.57135450  0.67736511  0.31767934  1
  Si0+  Si117  1  0.42703041  0.32199176  0.31797500  1
  Si0+  Si118  1  0.92887935  0.32254713  0.98392804  1
  Si0+  Si119  1  0.32387111  0.07261877  0.35089132  1
  O2-  O120  1  0.25421198  0.00362870  0.06114224  1
  O2-  O121  1  0.25155941  0.00687253  0.39314178  1
  O2-  O122  1  0.25298689  0.00647601  0.72904331  1
  O2-  O123  1  0.25251665  0.50244367  0.06000018  1
  O2-  O124  1  0.25338504  0.50154845  0.39471741  1
  O2-  O125  1  0.24834788  0.50016045  0.72415517  1
  O2-  O126  1  0.74678565  0.00191669  0.05603208  1
  O2-  O127  1  0.74794410  -0.00162327  0.39658963  1
  O2-  O128  1  0.74513154  0.00118645  0.73558219  1
  O2-  O129  1  0.74764510  0.50297706  0.06514044  1
  O2-  O130  1  0.75342610  0.50589945  0.39553783  1
  O2-  O131  1  0.75541716  0.50441257  0.72573572  1
  O2-  O132  1  0.00726757  0.24832165  0.27142601  1
  O2-  O133  1  0.00157817  0.25060005  0.60027453  1
  O2-  O134  1  0.00082775  0.25710139  0.94076478  1
  O2-  O135  1  0.00208410  0.75219285  0.27573344  1
  O2-  O136  1  0.00749584  0.74579502  0.60450918  1
  O2-  O137  1  -0.00499939  0.75373251  0.94184856  1
  O2-  O138  1  0.49876470  0.25115375  0.27680263  1
  O2-  O139  1  0.49757148  0.25537792  0.60492418  1
  O2-  O140  1  0.50085208  0.25952119  0.94202840  1
  O2-  O141  1  0.50473671  0.75367167  0.27708252  1
  O2-  O142  1  0.50046823  0.75800030  0.60252877  1
  O2-  O143  1  0.50298456  0.75305227  0.93483262  1
  O2-  O144  1  0.06770515  0.17787171  0.10151468  1
  O2-  O145  1  0.07480825  0.17802937  0.42100341  1
  O2-  O146  1  0.07228001  0.18102975  0.76441049  1
  O2-  O147  1  0.06929716  0.68016703  0.10140655  1
  O2-  O148  1  0.07241901  0.68089690  0.42412963  1
  O2-  O149  1  0.07587265  0.67530257  0.75410797  1
  O2-  O150  1  0.57058834  0.17945849  0.10188403  1
  O2-  O151  1  0.56709775  0.18041571  0.42502671  1
  O2-  O152  1  0.56940742  0.18192952  0.76523688  1
  O2-  O153  1  0.56998074  0.68163669  0.09965011  1
  O2-  O154  1  0.56854943  0.67548503  0.42274683  1
  O2-  O155  1  0.56775315  0.67733977  0.76390191  1
  O2-  O156  1  0.17880507  0.42919245  0.23452733  1
  O2-  O157  1  0.18122690  0.43112363  0.57513977  1
  O2-  O158  1  0.18156289  0.42822692  0.89755409  1
  O2-  O159  1  0.18274643  0.92654313  0.23345599  1
  O2-  O160  1  0.18327305  0.92948386  0.56861258  1
  O2-  O161  1  0.17827266  0.93071298  0.90092397  1
  O2-  O162  1  0.67730861  0.43336753  0.23489272  1
  O2-  O163  1  0.67983140  0.43179430  0.56736236  1
  O2-  O164  1  0.68160710  0.42665283  0.90218853  1
  O2-  O165  1  0.67558369  0.92988494  0.23149407  1
  O2-  O166  1  0.68268650  0.92770393  0.56921626  1
  O2-  O167  1  0.67875136  0.92988843  0.90758170  1
  O2-  O168  1  0.42330154  0.31892631  0.09089436  1
  O2-  O169  1  0.42522966  0.32242512  0.42284561  1
  O2-  O170  1  0.42435644  0.32320017  0.75457541  1
  O2-  O171  1  0.42910634  0.82062432  0.09832869  1
  O2-  O172  1  0.42362426  0.81644683  0.42294174  1
  O2-  O173  1  0.42197186  0.81559166  0.75221469  1
  O2-  O174  1  0.92847026  0.32007340  0.08985604  1
  O2-  O175  1  0.92934643  0.32176724  0.42849381  1
  O2-  O176  1  0.93348605  0.32455297  0.76562788  1
  O2-  O177  1  0.92910307  0.82559904  0.09101084  1
  O2-  O178  1  0.92974646  0.82096727  0.42201214  1
  O2-  O179  1  0.93240583  0.81683140  0.76612901  1
  O2-  O180  1  0.32839255  0.07238248  0.24554017  1
  O2-  O181  1  0.32282585  0.07332395  0.57935256  1
  O2-  O182  1  0.32481646  0.07307532  0.91195160  1
  O2-  O183  1  0.32160007  0.57164283  0.24509737  1
  O2-  O184  1  0.32077699  0.56963869  0.57759379  1
  O2-  O185  1  0.32013028  0.57040066  0.91086020  1
  O2-  O186  1  0.81813465  0.06997805  0.23415248  1
  O2-  O187  1  0.81881418  0.07015757  0.57178673  1
  O2-  O188  1  0.82253912  0.07161486  0.91137550  1
  O2-  O189  1  0.82321854  0.57423988  0.24618063  1
  O2-  O190  1  0.82319369  0.57287790  0.57587092  1
  O2-  O191  1  0.82136833  0.57323520  0.90137669  1
  O2-  O192  1  0.04449830  0.08360428  0.27105922  1
  O2-  O193  1  0.04346451  0.07907773  0.59992891  1
  O2-  O194  1  0.03607806  0.08365513  0.93477926  1
  O2-  O195  1  0.04414184  0.58862730  0.27237284  1
  O2-  O196  1  0.04974170  0.58373046  0.60139552  1
  O2-  O197  1  0.03919944  0.58213860  0.93224155  1
  O2-  O198  1  0.54046627  0.08712327  0.27380995  1
  O2-  O199  1  0.53813529  0.08226812  0.59769925  1
  O2-  O200  1  0.53970653  0.08768417  0.93072032  1
  O2-  O201  1  0.53729457  0.58762604  0.26976732  1
  O2-  O202  1  0.53298343  0.58441813  0.59673293  1
  O2-  O203  1  0.54204886  0.58003397  0.93422292  1
  O2-  O204  1  0.16979239  0.19911526  0.27212564  1
  O2-  O205  1  0.17194554  0.20286621  0.59831320  1
  O2-  O206  1  0.16944089  0.20393724  0.93544568  1
  O2-  O207  1  0.16508835  0.70779263  0.27298566  1
  O2-  O208  1  0.16975332  0.70121994  0.60314361  1
  O2-  O209  1  0.16497322  0.70644621  0.93248145  1
  O2-  O210  1  0.66096288  0.20758927  0.27314194  1
  O2-  O211  1  0.66671095  0.21014858  0.59847755  1
  O2-  O212  1  0.66961258  0.21014782  0.93401845  1
  O2-  O213  1  0.66544576  0.69857201  0.27186102  1
  O2-  O214  1  0.66770783  0.70494745  0.59569777  1
  O2-  O215  1  0.67151298  0.70628398  0.93342029  1
  O2-  O216  1  0.08307669  0.45894451  0.06552284  1
  O2-  O217  1  0.08298879  0.46261794  0.40248816  1
  O2-  O218  1  0.08679437  0.45564385  0.72653011  1
  O2-  O219  1  0.08294276  0.96111610  0.06916472  1
  O2-  O220  1  0.08361688  0.95662436  0.40010213  1
  O2-  O221  1  0.08334376  0.95734416  0.73558332  1
  O2-  O222  1  0.57716104  0.45155663  0.06637759  1
  O2-  O223  1  0.58159396  0.46034529  0.40137143  1
  O2-  O224  1  0.58157417  0.45949859  0.73212988  1
  O2-  O225  1  0.58383522  0.95883284  0.05735457  1
  O2-  O226  1  0.57708367  0.94991278  0.39852457  1
  O2-  O227  1  0.57478175  0.94625340  0.72882536  1
  O2-  O228  1  0.21119428  0.33171480  0.06692974  1
  O2-  O229  1  0.20901629  0.33171941  0.40179115  1
  O2-  O230  1  0.20876925  0.33650418  0.72560081  1
  O2-  O231  1  0.21027688  0.83203253  0.06625046  1
  O2-  O232  1  0.21471440  0.83383112  0.40205224  1
  O2-  O233  1  0.21183623  0.83189456  0.73352470  1
  O2-  O234  1  0.71081119  0.33098190  0.06992510  1
  O2-  O235  1  0.71036400  0.33461145  0.39900880  1
  O2-  O236  1  0.71033819  0.33384732  0.73381693  1
  O2-  O237  1  0.70371319  0.83969377  0.06126885  1
  O2-  O238  1  0.70485471  0.82696713  0.39494250  1
  O2-  O239  1  0.71165393  0.82782827  0.73241111  1
  O2-  O240  1  0.45336520  0.41437906  0.27105150  1
  O2-  O241  1  0.45047339  0.41703799  0.60302052  1
  O2-  O242  1  0.44394400  0.41822818  0.94114164  1
  O2-  O243  1  0.45008257  0.91336499  0.27156559  1
  O2-  O244  1  0.44206331  0.91684041  0.60337298  1
  O2-  O245  1  0.44863434  0.92146360  0.93104046  1
  O2-  O246  1  0.95956271  0.41962404  0.26386824  1
  O2-  O247  1  0.95676606  0.42020902  0.59678690  1
  O2-  O248  1  0.94984835  0.41758185  0.94060448  1
  O2-  O249  1  0.95597242  0.91526777  0.27121164  1
  O2-  O250  1  0.96316862  0.91466333  0.59816836  1
  O2-  O251  1  0.95575369  0.91642839  0.93837456  1
  O2-  O252  1  0.33551186  0.29267555  0.26973902  1
  O2-  O253  1  0.33567157  0.29505900  0.60011358  1
  O2-  O254  1  0.33611265  0.29147499  0.93534052  1
  O2-  O255  1  0.33857890  0.78584833  0.26897117  1
  O2-  O256  1  0.33557266  0.78583063  0.59884465  1
  O2-  O257  1  0.33119417  0.78960275  0.92986607  1
  O2-  O258  1  0.83293834  0.28848294  0.26134482  1
  O2-  O259  1  0.83148698  0.29161300  0.59948906  1
  O2-  O260  1  0.83706665  0.29249301  0.93782158  1
  O2-  O261  1  0.83828158  0.79318656  0.26830506  1
  O2-  O262  1  0.83716744  0.78791161  0.59403801  1
  O2-  O263  1  0.83387383  0.80050975  0.93914799  1
  O2-  O264  1  0.41704147  0.04486602  0.06463173  1
  O2-  O265  1  0.41460104  0.04219196  0.40034337  1
  O2-  O266  1  0.41614115  0.04733477  0.73074515  1
  O2-  O267  1  0.41400507  0.54863341  0.06438521  1
  O2-  O268  1  0.41403239  0.54406129  0.39828530  1
  O2-  O269  1  0.41097637  0.54038032  0.73200964  1
  O2-  O270  1  0.91001897  0.04009575  0.06655792  1
  O2-  O271  1  0.91786252  0.04426234  0.40186620  1
  O2-  O272  1  0.91766308  0.03860385  0.73663232  1
  O2-  O273  1  0.91786898  0.54575340  0.07033027  1
  O2-  O274  1  0.91698681  0.54821214  0.39767513  1
  O2-  O275  1  0.91902423  0.54900921  0.72649108  1
  O2-  O276  1  0.29962458  0.16500696  0.06470300  1
  O2-  O277  1  0.30327973  0.16682201  0.39778410  1
  O2-  O278  1  0.30053741  0.16906505  0.73035805  1
  O2-  O279  1  0.29379378  0.66524650  0.06267302  1
  O2-  O280  1  0.29460607  0.66282508  0.39923142  1
  O2-  O281  1  0.29440995  0.66118951  0.73143092  1
  O2-  O282  1  0.79423641  0.16291978  0.06377588  1
  O2-  O283  1  0.79083971  0.16923130  0.40079377  1
  O2-  O284  1  0.79261076  0.16942945  0.73777336  1
  O2-  O285  1  0.79460659  0.67346047  0.07000568  1
  O2-  O286  1  0.79919433  0.66712859  0.39640962  1
  O2-  O287  1  0.79871849  0.66650441  0.72618025  1
