# generated using pymatgen
data_Ca2Al2SiO7
_symmetry_space_group_name_H-M   'P 1'
_cell_length_a   15.45872827
_cell_length_b   15.45929013
_cell_length_c   15.28357032
_cell_angle_alpha   89.98605975
_cell_angle_beta   90.00607625
_cell_angle_gamma   90.00175843
_symmetry_Int_Tables_number   1
_chemical_formula_structural   Ca2Al2SiO7
_chemical_formula_sum   'Ca48 Al48 Si24 O168'
_cell_volume   3652.48225987
_cell_formula_units_Z   24
loop_
 _symmetry_equiv_pos_site_id
 _symmetry_equiv_pos_as_xyz
  1  'x, y, z'
loop_
 _atom_type_symbol
 _atom_type_oxidation_number
  Ca2+  2.0
  Al0+  0.0
  Si0+  0.0
  O2-  -2.0
loop_
 _atom_site_type_symbol
 _atom_site_label
 _atom_site_symmetry_multiplicity
 _atom_site_fract_x
 _atom_site_fract_y
 _atom_site_fract_z
 _atom_site_occupancy
  Ca2+  Ca0  1  0.16889668  0.08359211  0.17316564  1
  Ca2+  Ca1  1  0.15882110  0.07673613  0.49988099  1
  Ca2+  Ca2  1  0.16919914  0.08595613  0.84074551  1
  Ca2+  Ca3  1  0.17661026  0.58343566  0.17449302  1
  Ca2+  Ca4  1  0.17662870  0.59769246  0.50249644  1
  Ca2+  Ca5  1  0.17749307  0.58243844  0.84071151  1
  Ca2+  Ca6  1  0.66921556  0.07886459  0.17634242  1
  Ca2+  Ca7  1  0.67173457  0.08004728  0.50266025  1
  Ca2+  Ca8  1  0.66257247  0.06686691  0.83842191  1
  Ca2+  Ca9  1  0.67488840  0.58067468  0.17791155  1
  Ca2+  Ca10  1  0.66513276  0.58958849  0.49777733  1
  Ca2+  Ca11  1  0.67130843  0.58834141  0.83864363  1
  Ca2+  Ca12  1  0.09172814  0.32400242  0.16023932  1
  Ca2+  Ca13  1  0.08524534  0.32030102  0.49519836  1
  Ca2+  Ca14  1  0.09424972  0.32495612  0.83376499  1
  Ca2+  Ca15  1  0.08082397  0.83152628  0.17434993  1
  Ca2+  Ca16  1  0.08153745  0.82533881  0.48828055  1
  Ca2+  Ca17  1  0.08087710  0.82478900  0.82652927  1
  Ca2+  Ca18  1  0.58255612  0.33120188  0.16634023  1
  Ca2+  Ca19  1  0.58565583  0.33018818  0.48869241  1
  Ca2+  Ca20  1  0.57319787  0.33680713  0.83273587  1
  Ca2+  Ca21  1  0.58195652  0.83034624  0.16636442  1
  Ca2+  Ca22  1  0.57370766  0.82682390  0.49551072  1
  Ca2+  Ca23  1  0.57923443  0.83034476  0.82296788  1
  Ca2+  Ca24  1  0.33316515  0.42331252  0.16657021  1
  Ca2+  Ca25  1  0.33485586  0.43302191  0.50166618  1
  Ca2+  Ca26  1  0.33073798  0.42791490  0.84339824  1
  Ca2+  Ca27  1  0.32807640  0.91991364  0.17397003  1
  Ca2+  Ca28  1  0.33073193  0.90693180  0.49898747  1
  Ca2+  Ca29  1  0.33499641  0.92236062  0.83769260  1
  Ca2+  Ca30  1  0.82998194  0.42726824  0.17566585  1
  Ca2+  Ca31  1  0.82769607  0.41978121  0.49567353  1
  Ca2+  Ca32  1  0.83110206  0.42464365  0.83938424  1
  Ca2+  Ca33  1  0.82993156  0.91944438  0.17440445  1
  Ca2+  Ca34  1  0.83226683  0.91700095  0.49912961  1
  Ca2+  Ca35  1  0.81842449  0.91029828  0.83686505  1
  Ca2+  Ca36  1  0.41892572  0.17068612  0.15982500  1
  Ca2+  Ca37  1  0.42640949  0.17060118  0.49163923  1
  Ca2+  Ca38  1  0.40850868  0.17381434  0.83524297  1
  Ca2+  Ca39  1  0.41616293  0.66549318  0.16855937  1
  Ca2+  Ca40  1  0.41970358  0.67290091  0.49174392  1
  Ca2+  Ca41  1  0.41813513  0.67080410  0.82213442  1
  Ca2+  Ca42  1  0.92565907  0.16211928  0.16650119  1
  Ca2+  Ca43  1  0.92328788  0.16297350  0.48977862  1
  Ca2+  Ca44  1  0.92973498  0.16830512  0.82932007  1
  Ca2+  Ca45  1  0.91211620  0.66649707  0.16590553  1
  Ca2+  Ca46  1  0.92696491  0.67076158  0.48858655  1
  Ca2+  Ca47  1  0.92233407  0.66287988  0.82821458  1
  Al0+  Al48  1  -0.00230090  -0.00226858  -0.00825849  1
  Al0+  Al49  1  0.00055488  -0.00101042  0.33319726  1
  Al0+  Al50  1  0.00044747  0.00118881  0.66672632  1
  Al0+  Al51  1  0.00024855  0.49848104  0.00585217  1
  Al0+  Al52  1  0.00078894  0.49774654  0.33550579  1
  Al0+  Al53  1  -0.00021031  0.49643665  0.66274630  1
  Al0+  Al54  1  0.49911528  -0.00200623  0.00805863  1
  Al0+  Al55  1  0.49941118  0.00146094  0.32639685  1
  Al0+  Al56  1  0.49945180  0.00134873  0.66729377  1
  Al0+  Al57  1  0.50126140  0.49951755  -0.00165410  1
  Al0+  Al58  1  0.49883798  0.50024711  0.33735388  1
  Al0+  Al59  1  0.50038939  0.50037616  0.66825342  1
  Al0+  Al60  1  0.25269851  0.24980938  -0.00116605  1
  Al0+  Al61  1  0.25166762  0.25057565  0.33203805  1
  Al0+  Al62  1  0.25005520  0.25030734  0.65975559  1
  Al0+  Al63  1  0.25005417  0.75133348  0.00184658  1
  Al0+  Al64  1  0.24866682  0.75220504  0.33195501  1
  Al0+  Al65  1  0.24934504  0.75211830  0.66776494  1
  Al0+  Al66  1  0.75182992  0.24750399  -0.00467054  1
  Al0+  Al67  1  0.75109922  0.24918353  0.33603346  1
  Al0+  Al68  1  0.75111318  0.25130609  0.67172419  1
  Al0+  Al69  1  0.74908328  0.75039137  0.00693500  1
  Al0+  Al70  1  0.74944646  0.75078502  0.33172086  1
  Al0+  Al71  1  0.74958531  0.75047725  0.66779107  1
  Al0+  Al72  1  0.57249443  0.67765234  0.65237353  1
  Al0+  Al73  1  0.67877364  0.92958660  0.01618494  1
  Al0+  Al74  1  0.31832281  0.57096129  0.34797703  1
  Al0+  Al75  1  0.92853658  0.82054628  0.31854488  1
  Al0+  Al76  1  0.07124291  0.67631941  0.31688673  1
  Al0+  Al77  1  0.07079967  0.17973843  0.65102206  1
  Al0+  Al78  1  0.82257720  0.57390484  0.35120837  1
  Al0+  Al79  1  0.42768107  0.82138216  0.31530741  1
  Al0+  Al80  1  0.07038479  0.17927567  0.98620685  1
  Al0+  Al81  1  0.67916200  0.43006941  0.34753991  1
  Al0+  Al82  1  0.82056810  0.56965449  0.01264872  1
  Al0+  Al83  1  0.57310748  0.17991429  0.32047355  1
  Al0+  Al84  1  0.07110762  0.17939252  0.31874546  1
  Al0+  Al85  1  0.31864853  0.07013614  0.01309384  1
  Al0+  Al86  1  0.82059027  0.06907271  0.34589626  1
  Al0+  Al87  1  0.18038318  0.42856265  0.01419325  1
  Al0+  Al88  1  0.07023219  0.67785901  0.65544154  1
  Al0+  Al89  1  0.43185610  0.32048688  0.98600776  1
  Al0+  Al90  1  0.57005788  0.67787890  0.31675538  1
  Al0+  Al91  1  0.32304371  0.57374820  0.01579531  1
  Al0+  Al92  1  0.31973595  0.57229699  0.68078008  1
  Al0+  Al93  1  0.67973439  0.93069224  0.67854585  1
  Al0+  Al94  1  0.42869552  0.82364653  0.65285861  1
  Al0+  Al95  1  0.18084172  0.93239873  0.34689237  1
  Si0+  Si96  1  0.67485039  0.92812978  0.35124857  1
  Si0+  Si97  1  0.17773051  0.42465611  0.35185824  1
  Si0+  Si98  1  0.42818641  0.82154329  0.98471669  1
  Si0+  Si99  1  0.92700368  0.32407684  0.98257544  1
  Si0+  Si100  1  0.92674142  0.81864635  0.98313469  1
  Si0+  Si101  1  0.67820867  0.42688161  0.68417249  1
  Si0+  Si102  1  0.67802365  0.42505306  0.01429912  1
  Si0+  Si103  1  0.17426091  0.92728276  0.01540154  1
  Si0+  Si104  1  0.42859836  0.32257372  0.31675510  1
  Si0+  Si105  1  0.92476092  0.32140821  0.64802675  1
  Si0+  Si106  1  0.92791393  0.32081820  0.31619995  1
  Si0+  Si107  1  0.17886872  0.42591567  0.68176275  1
  Si0+  Si108  1  0.32371911  0.07435255  0.35114088  1
  Si0+  Si109  1  0.82148438  0.56957299  0.68043803  1
  Si0+  Si110  1  0.82382889  0.07366382  0.68611013  1
  Si0+  Si111  1  0.92751527  0.82147420  0.65183590  1
  Si0+  Si112  1  0.82316707  0.07126121  0.01474997  1
  Si0+  Si113  1  0.32066957  0.07321050  0.68033086  1
  Si0+  Si114  1  0.57153919  0.18020593  0.65455972  1
  Si0+  Si115  1  0.57136496  0.68057307  0.98578104  1
  Si0+  Si116  1  0.57342079  0.17469730  0.98238492  1
  Si0+  Si117  1  0.42985675  0.32159035  0.65075944  1
  Si0+  Si118  1  0.07116022  0.67778744  0.98589721  1
  Si0+  Si119  1  0.17778955  0.93033532  0.68273307  1
  O2-  O120  1  0.24126982  -0.00188254  0.05811773  1
  O2-  O121  1  0.25608298  0.00563796  0.39645385  1
  O2-  O122  1  0.24913338  0.00229343  0.72307655  1
  O2-  O123  1  0.24844143  0.50372828  0.06435463  1
  O2-  O124  1  0.24077067  0.49875348  0.39565745  1
  O2-  O125  1  0.24298634  0.49863801  0.72630226  1
  O2-  O126  1  0.75054258  0.00809145  0.05982505  1
  O2-  O127  1  0.74512748  -0.00395144  0.39441505  1
  O2-  O128  1  0.75497479  0.00431415  0.72882006  1
  O2-  O129  1  0.74907901  0.49119392  0.05691994  1
  O2-  O130  1  0.74731642  0.50437026  0.40057438  1
  O2-  O131  1  0.74790550  0.50086586  0.72372294  1
  O2-  O132  1  0.00041827  0.25679779  0.27113233  1
  O2-  O133  1  -0.00720918  0.25120638  0.60552593  1
  O2-  O134  1  -0.00322167  0.25560888  0.93883109  1
  O2-  O135  1  -0.00621574  0.74280153  0.26677283  1
  O2-  O136  1  -0.00407824  0.75267871  0.60897962  1
  O2-  O137  1  -0.00092296  0.74792998  0.94224429  1
  O2-  O138  1  0.49756277  0.25339740  0.27385719  1
  O2-  O139  1  0.50402737  0.25318293  0.61010752  1
  O2-  O140  1  0.50701594  0.24557140  0.93737938  1
  O2-  O141  1  0.49996065  0.75029226  0.26437825  1
  O2-  O142  1  0.49754370  0.74778394  0.60478793  1
  O2-  O143  1  0.49703401  0.74808658  0.94285805  1
  O2-  O144  1  0.06821524  0.17793227  0.09878574  1
  O2-  O145  1  0.06895510  0.18020397  0.43214333  1
  O2-  O146  1  0.07239744  0.18161605  0.76444064  1
  O2-  O147  1  0.07158808  0.67940762  0.09010014  1
  O2-  O148  1  0.07224426  0.68196459  0.43085875  1
  O2-  O149  1  0.06816562  0.67911579  0.76955672  1
  O2-  O150  1  0.57404027  0.17630523  0.08757951  1
  O2-  O151  1  0.57135941  0.18084293  0.43460071  1
  O2-  O152  1  0.56906105  0.18065111  0.75974619  1
  O2-  O153  1  0.57264870  0.68171783  0.09013183  1
  O2-  O154  1  0.56761945  0.67995525  0.43035329  1
  O2-  O155  1  0.57349074  0.67972383  0.76700636  1
  O2-  O156  1  0.18172830  0.42064532  0.24656200  1
  O2-  O157  1  0.18241069  0.42189367  0.57668948  1
  O2-  O158  1  0.18226278  0.43062181  0.89976863  1
  O2-  O159  1  0.18047307  0.93546446  0.23360120  1
  O2-  O160  1  0.17533831  0.93073120  0.57817295  1
  O2-  O161  1  0.17564736  0.92568029  0.90907471  1
  O2-  O162  1  0.68222924  0.42790101  0.23370983  1
  O2-  O163  1  0.67919707  0.41999062  0.58008502  1
  O2-  O164  1  0.67794911  0.42740359  0.90795597  1
  O2-  O165  1  0.67551859  0.93094877  0.24540244  1
  O2-  O166  1  0.68060761  0.93497576  0.56627312  1
  O2-  O167  1  0.67943521  0.92801069  0.90233107  1
  O2-  O168  1  0.43433106  0.31964345  0.09861171  1
  O2-  O169  1  0.42847199  0.32014082  0.42305620  1
  O2-  O170  1  0.42896678  0.32028347  0.75608386  1
  O2-  O171  1  0.42797782  0.82289235  0.08900341  1
  O2-  O172  1  0.42905518  0.82094814  0.42910632  1
  O2-  O173  1  0.43058710  0.82552747  0.76734355  1
  O2-  O174  1  0.92306562  0.32314951  0.08736514  1
  O2-  O175  1  0.92720578  0.31748812  0.42220915  1
  O2-  O176  1  0.92293475  0.32234755  0.75378828  1
  O2-  O177  1  0.92603708  0.82112481  0.08733404  1
  O2-  O178  1  0.93245898  0.82241418  0.43260319  1
  O2-  O179  1  0.92774281  0.81959632  0.75828270  1
  O2-  O180  1  0.32139200  0.07574203  0.24556386  1
  O2-  O181  1  0.32180849  0.07575606  0.57580546  1
  O2-  O182  1  0.31826940  0.06860314  0.89888974  1
  O2-  O183  1  0.31921105  0.56738306  0.23512563  1
  O2-  O184  1  0.31995578  0.57084356  0.56805010  1
  O2-  O185  1  0.32193063  0.57458398  0.90155152  1
  O2-  O186  1  0.81947034  0.06821444  0.23255030  1
  O2-  O187  1  0.82373301  0.07528989  0.58079572  1
  O2-  O188  1  0.82362623  0.06849115  0.90887227  1
  O2-  O189  1  0.82105459  0.56956979  0.23744849  1
  O2-  O190  1  0.82241784  0.56837962  0.57630243  1
  O2-  O191  1  0.81888434  0.57038816  0.89837322  1
  O2-  O192  1  0.03722086  0.08450115  0.26537587  1
  O2-  O193  1  0.04173615  0.08159989  0.59951948  1
  O2-  O194  1  0.03898735  0.08317508  0.92912205  1
  O2-  O195  1  0.05204166  0.57380536  0.26924409  1
  O2-  O196  1  0.04344156  0.58041641  0.60209367  1
  O2-  O197  1  0.04392499  0.58508521  0.93959356  1
  O2-  O198  1  0.54355768  0.08508301  0.26375262  1
  O2-  O199  1  0.54134220  0.09041038  0.60588193  1
  O2-  O200  1  0.54266156  0.08119071  0.93843602  1
  O2-  O201  1  0.54172189  0.57823656  0.26635866  1
  O2-  O202  1  0.54960731  0.57679656  0.60268437  1
  O2-  O203  1  0.54991517  0.58681914  0.93877782  1
  O2-  O204  1  0.16965875  0.20769460  0.26722914  1
  O2-  O205  1  0.16610424  0.21132208  0.59508578  1
  O2-  O206  1  0.16718954  0.21013930  0.93197081  1
  O2-  O207  1  0.16601439  0.71309815  0.26304530  1
  O2-  O208  1  0.16552386  0.71209148  0.60293368  1
  O2-  O209  1  0.16252046  0.70853361  0.93760768  1
  O2-  O210  1  0.66902125  0.21100926  0.26586715  1
  O2-  O211  1  0.66562536  0.20542682  0.61057761  1
  O2-  O212  1  0.66824928  0.19524417  0.93524898  1
  O2-  O213  1  0.66956921  0.70422642  0.26557026  1
  O2-  O214  1  0.67058438  0.70772285  0.60055528  1
  O2-  O215  1  0.66257064  0.71271220  0.93845394  1
  O2-  O216  1  0.08016787  0.44785191  0.06613716  1
  O2-  O217  1  0.08167084  0.44083408  0.39583471  1
  O2-  O218  1  0.08215264  0.44441278  0.72481596  1
  O2-  O219  1  0.07891580  0.95088261  0.05737234  1
  O2-  O220  1  0.08567928  0.96451866  0.40266302  1
  O2-  O221  1  0.08596017  0.95772059  0.73192849  1
  O2-  O222  1  0.58559651  0.45161077  0.06022526  1
  O2-  O223  1  0.57997479  0.45253602  0.40157238  1
  O2-  O224  1  0.58622164  0.45328905  0.73220573  1
  O2-  O225  1  0.58288218  0.95699454  0.07145608  1
  O2-  O226  1  0.58145015  0.95733388  0.39525233  1
  O2-  O227  1  0.58386068  0.96420923  0.73466168  1
  O2-  O228  1  0.21318004  0.33175583  0.06651932  1
  O2-  O229  1  0.21021310  0.33335283  0.40043869  1
  O2-  O230  1  0.21074469  0.33372860  0.72868677  1
  O2-  O231  1  0.20202194  0.83547543  0.06258489  1
  O2-  O232  1  0.21054251  0.83598345  0.40154008  1
  O2-  O233  1  0.20543789  0.83972064  0.73281130  1
  O2-  O234  1  0.70023559  0.32891760  0.05636040  1
  O2-  O235  1  0.71198367  0.33312900  0.40268078  1
  O2-  O236  1  0.70765107  0.33700653  0.73608786  1
  O2-  O237  1  0.71323601  0.83581944  0.07136184  1
  O2-  O238  1  0.69952713  0.83438565  0.39576998  1
  O2-  O239  1  0.71059473  0.83431133  0.73530351  1
  O2-  O240  1  0.45446066  0.41542226  0.27135824  1
  O2-  O241  1  0.45720655  0.41344065  0.60455409  1
  O2-  O242  1  0.46356877  0.41643959  0.92847269  1
  O2-  O243  1  0.45339861  0.92080533  0.26288170  1
  O2-  O244  1  0.45805972  0.92166820  0.59957879  1
  O2-  O245  1  0.45866132  0.91348647  0.93818310  1
  O2-  O246  1  0.94882394  0.41603558  0.27262898  1
  O2-  O247  1  0.95061358  0.41367211  0.60015405  1
  O2-  O248  1  0.95216193  0.41808728  0.93585916  1
  O2-  O249  1  0.96427187  0.91583574  0.26350989  1
  O2-  O250  1  0.95210125  0.91615464  0.60856406  1
  O2-  O251  1  0.95261592  0.90921107  0.93132947  1
  O2-  O252  1  0.33601346  0.29612014  0.26981567  1
  O2-  O253  1  0.34048952  0.29110004  0.60124104  1
  O2-  O254  1  0.33698083  0.28763961  0.92923802  1
  O2-  O255  1  0.32947529  0.79374499  0.26296941  1
  O2-  O256  1  0.32875049  0.79884555  0.60300352  1
  O2-  O257  1  0.33480958  0.79768281  0.93701882  1
  O2-  O258  1  0.83654639  0.29062218  0.26921766  1
  O2-  O259  1  0.83046132  0.29613057  0.60296581  1
  O2-  O260  1  0.83423019  0.29771482  0.93240356  1
  O2-  O261  1  0.82821998  0.80050864  0.26655442  1
  O2-  O262  1  0.83419375  0.79752505  0.60625833  1
  O2-  O263  1  0.83522078  0.78738816  0.93597629  1
  O2-  O264  1  0.41388670  0.04006907  0.06881615  1
  O2-  O265  1  0.41866703  0.04966477  0.39486417  1
  O2-  O266  1  0.41177176  0.04643992  0.72993813  1
  O2-  O267  1  0.42160615  0.54220136  0.06555580  1
  O2-  O268  1  0.41332622  0.53776450  0.40351475  1
  O2-  O269  1  0.41665587  0.53962260  0.73428882  1
  O2-  O270  1  0.91545635  0.03992081  0.05977125  1
  O2-  O271  1  0.91570859  0.03665490  0.40152715  1
  O2-  O272  1  0.91769892  0.04747352  0.73214364  1
  O2-  O273  1  0.91702074  0.54328727  0.06753489  1
  O2-  O274  1  0.92095902  0.54207805  0.40351937  1
  O2-  O275  1  0.91250374  0.53800202  0.72903918  1
  O2-  O276  1  0.29159880  0.16676140  0.06686645  1
  O2-  O277  1  0.29907158  0.16825712  0.39743854  1
  O2-  O278  1  0.29081497  0.16521823  0.72748111  1
  O2-  O279  1  0.29573078  0.67278494  0.06719839  1
  O2-  O280  1  0.28798245  0.66833116  0.39997451  1
  O2-  O281  1  0.29006512  0.66946814  0.73533036  1
  O2-  O282  1  0.80438510  0.16759605  0.05767181  1
  O2-  O283  1  0.79110586  0.16472722  0.40232991  1
  O2-  O284  1  0.79879453  0.16722032  0.73328318  1
  O2-  O285  1  0.78763342  0.66399452  0.06776372  1
  O2-  O286  1  0.79700593  0.67400515  0.40180993  1
  O2-  O287  1  0.79674526  0.66216908  0.72867033  1
