# generated using pymatgen
data_Ca2Al2SiO7
_symmetry_space_group_name_H-M   'P 1'
_cell_length_a   15.47295545
_cell_length_b   15.47155683
_cell_length_c   15.29487463
_cell_angle_alpha   89.99971371
_cell_angle_beta   90.00726817
_cell_angle_gamma   89.99969817
_symmetry_Int_Tables_number   1
_chemical_formula_structural   Ca2Al2SiO7
_chemical_formula_sum   'Ca48 Al48 Si24 O168'
_cell_volume   3661.45086159
_cell_formula_units_Z   24
loop_
 _symmetry_equiv_pos_site_id
 _symmetry_equiv_pos_as_xyz
  1  'x, y, z'
loop_
 _atom_type_symbol
 _atom_type_oxidation_number
  Ca2+  2.0
  Al0+  0.0
  Si0+  0.0
  O2-  -2.0
loop_
 _atom_site_type_symbol
 _atom_site_label
 _atom_site_symmetry_multiplicity
 _atom_site_fract_x
 _atom_site_fract_y
 _atom_site_fract_z
 _atom_site_occupancy
  Ca2+  Ca0  1  0.15720775  0.08316497  0.16773714  1
  Ca2+  Ca1  1  0.17048446  0.09246823  0.50549046  1
  Ca2+  Ca2  1  0.17384529  0.08868631  0.84278323  1
  Ca2+  Ca3  1  0.15371187  0.57337795  0.17074470  1
  Ca2+  Ca4  1  0.15156451  0.56797387  0.49824469  1
  Ca2+  Ca5  1  0.15700654  0.57204078  0.84092444  1
  Ca2+  Ca6  1  0.68058788  0.08587262  0.16666724  1
  Ca2+  Ca7  1  0.67853550  0.08012318  0.50284565  1
  Ca2+  Ca8  1  0.67067796  0.07437678  0.84709537  1
  Ca2+  Ca9  1  0.67443783  0.57778199  0.17909547  1
  Ca2+  Ca10  1  0.66862305  0.58154787  0.49335372  1
  Ca2+  Ca11  1  0.67028064  0.57836113  0.83787218  1
  Ca2+  Ca12  1  0.07693829  0.32768380  0.16230377  1
  Ca2+  Ca13  1  0.08493819  0.32560156  0.49174270  1
  Ca2+  Ca14  1  0.08583224  0.32680869  0.83449813  1
  Ca2+  Ca15  1  0.07359819  0.82581820  0.15868538  1
  Ca2+  Ca16  1  0.07688245  0.82445757  0.48508119  1
  Ca2+  Ca17  1  0.07747616  0.84292028  0.83682010  1
  Ca2+  Ca18  1  0.57698078  0.33461995  0.16192274  1
  Ca2+  Ca19  1  0.57322538  0.33787072  0.48798692  1
  Ca2+  Ca20  1  0.58143972  0.32137243  0.83400599  1
  Ca2+  Ca21  1  0.58944700  0.82971978  0.16228515  1
  Ca2+  Ca22  1  0.58546198  0.83069784  0.49443344  1
  Ca2+  Ca23  1  0.58736693  0.84008560  0.82961795  1
  Ca2+  Ca24  1  0.32034440  0.41056716  0.17262858  1
  Ca2+  Ca25  1  0.32141707  0.41165622  0.49978839  1
  Ca2+  Ca26  1  0.31860327  0.41693856  0.83861573  1
  Ca2+  Ca27  1  0.32668309  0.92309736  0.16300321  1
  Ca2+  Ca28  1  0.32993914  0.92504742  0.50586576  1
  Ca2+  Ca29  1  0.32460049  0.92752985  0.84332424  1
  Ca2+  Ca30  1  0.83391530  0.41717466  0.17883566  1
  Ca2+  Ca31  1  0.83868860  0.42061889  0.49318989  1
  Ca2+  Ca32  1  0.83866356  0.41686566  0.84159884  1
  Ca2+  Ca33  1  0.84471295  0.92667879  0.16784550  1
  Ca2+  Ca34  1  0.83544545  0.92150837  0.49763784  1
  Ca2+  Ca35  1  0.82563440  0.92102175  0.84463029  1
  Ca2+  Ca36  1  0.42282579  0.16751936  0.16258206  1
  Ca2+  Ca37  1  0.41659207  0.17130499  0.49467081  1
  Ca2+  Ca38  1  0.41953483  0.15287137  0.83396071  1
  Ca2+  Ca39  1  0.42613835  0.66236041  0.16515051  1
  Ca2+  Ca40  1  0.42426519  0.66796132  0.49012452  1
  Ca2+  Ca41  1  0.41771456  0.67033123  0.83201399  1
  Ca2+  Ca42  1  0.91797047  0.17413536  0.15964984  1
  Ca2+  Ca43  1  0.92905915  0.16928627  0.48880711  1
  Ca2+  Ca44  1  0.92726796  0.16403526  0.83585394  1
  Ca2+  Ca45  1  0.92036302  0.67273480  0.16353111  1
  Ca2+  Ca46  1  0.91779881  0.67346599  0.48725342  1
  Ca2+  Ca47  1  0.92302585  0.67192064  0.83937000  1
  Al0+  Al48  1  -0.00029757  0.00022699  -0.00199391  1
  Al0+  Al49  1  0.00122038  -0.00187203  0.33461808  1
  Al0+  Al50  1  -0.00047609  0.00072802  0.66048301  1
  Al0+  Al51  1  -0.00113445  0.50125546  -0.00248993  1
  Al0+  Al52  1  -0.00129496  0.49837393  0.33826501  1
  Al0+  Al53  1  -0.00191043  0.50147972  0.67182784  1
  Al0+  Al54  1  0.49907890  -0.00234644  0.00491984  1
  Al0+  Al55  1  0.49824117  0.00048102  0.33453679  1
  Al0+  Al56  1  0.50014688  -0.00141253  0.66951156  1
  Al0+  Al57  1  0.49962717  0.50037594  -0.00425179  1
  Al0+  Al58  1  0.49813893  0.50126294  0.32807823  1
  Al0+  Al59  1  0.50094460  0.50077133  0.66757406  1
  Al0+  Al60  1  0.25155745  0.25374107  0.00548624  1
  Al0+  Al61  1  0.25275215  0.24999783  0.32977670  1
  Al0+  Al62  1  0.25111659  0.25128308  0.67250369  1
  Al0+  Al63  1  0.25388519  0.74835834  -0.00044288  1
  Al0+  Al64  1  0.25127106  0.75055876  0.33006608  1
  Al0+  Al65  1  0.25131225  0.74906197  0.66439581  1
  Al0+  Al66  1  0.74599123  0.24945948  -0.00652863  1
  Al0+  Al67  1  0.74935593  0.24727537  0.34325071  1
  Al0+  Al68  1  0.75006641  0.25111022  0.66574072  1
  Al0+  Al69  1  0.75050268  0.74716433  -0.00292656  1
  Al0+  Al70  1  0.74828037  0.75053192  0.32932773  1
  Al0+  Al71  1  0.75061742  0.74819882  0.66977950  1
  Al0+  Al72  1  0.17817100  0.43187286  0.01617699  1
  Al0+  Al73  1  0.43047236  0.32125346  0.31992053  1
  Al0+  Al74  1  0.31925263  0.07022927  0.67955118  1
  Al0+  Al75  1  0.17954179  0.42902908  0.34690286  1
  Al0+  Al76  1  0.07140905  0.18164495  0.65336392  1
  Al0+  Al77  1  0.92895848  0.82161899  0.98318089  1
  Al0+  Al78  1  0.56934992  0.68122090  0.31918342  1
  Al0+  Al79  1  0.07361819  0.67900514  0.98456078  1
  Al0+  Al80  1  0.17952792  0.43162146  0.68151481  1
  Al0+  Al81  1  0.82068505  0.57196124  0.34789346  1
  Al0+  Al82  1  0.07256043  0.17967191  0.98553904  1
  Al0+  Al83  1  0.32069322  0.07252743  0.01783381  1
  Al0+  Al84  1  0.92686377  0.32152191  0.98576303  1
  Al0+  Al85  1  0.17777985  0.92801825  0.01515289  1
  Al0+  Al86  1  0.92765876  0.82159994  0.31832920  1
  Al0+  Al87  1  0.07185641  0.67681663  0.31948671  1
  Al0+  Al88  1  0.67929015  0.92605075  0.01652942  1
  Al0+  Al89  1  0.92710353  0.31899893  0.32142806  1
  Al0+  Al90  1  0.07323812  0.17902681  0.31872575  1
  Al0+  Al91  1  0.68277019  0.92993461  0.67865277  1
  Al0+  Al92  1  0.67623778  0.42763404  0.34708023  1
  Al0+  Al93  1  0.82075816  0.07233279  0.01373661  1
  Al0+  Al94  1  0.82363603  0.07096921  0.34842346  1
  Al0+  Al95  1  0.56759607  0.17786856  0.98749634  1
  Si0+  Si96  1  0.67612561  0.92946681  0.34921730  1
  Si0+  Si97  1  0.81948751  0.56844678  0.01447430  1
  Si0+  Si98  1  0.57109662  0.17640452  0.65118339  1
  Si0+  Si99  1  0.81878280  0.56965598  0.68399085  1
  Si0+  Si100  1  0.32556284  0.57163454  0.01736741  1
  Si0+  Si101  1  0.43065371  0.82032446  0.98342590  1
  Si0+  Si102  1  0.42931439  0.82124276  0.65103055  1
  Si0+  Si103  1  0.17704709  0.92520378  0.67992584  1
  Si0+  Si104  1  0.43176111  0.32135668  0.65292816  1
  Si0+  Si105  1  0.42720837  0.82510591  0.31487319  1
  Si0+  Si106  1  0.17985864  0.92762354  0.34851334  1
  Si0+  Si107  1  0.42857577  0.32410413  0.98091530  1
  Si0+  Si108  1  0.32216580  0.57376801  0.34937438  1
  Si0+  Si109  1  0.32556592  0.57346690  0.68307037  1
  Si0+  Si110  1  0.32119314  0.07002823  0.34960958  1
  Si0+  Si111  1  0.67534282  0.42852515  0.68286194  1
  Si0+  Si112  1  0.57156918  0.67778152  0.98194918  1
  Si0+  Si113  1  0.07117215  0.67849297  0.65195896  1
  Si0+  Si114  1  0.82406466  0.07380902  0.68372792  1
  Si0+  Si115  1  0.92839150  0.81946390  0.65154272  1
  Si0+  Si116  1  0.57164599  0.67891290  0.65118617  1
  Si0+  Si117  1  0.67700258  0.42888352  0.01226970  1
  Si0+  Si118  1  0.57212979  0.17602686  0.31983179  1
  Si0+  Si119  1  0.92658077  0.32520777  0.64888202  1
  O2-  O120  1  0.24258676  0.00638553  0.06700193  1
  O2-  O121  1  0.24863886  0.00069760  0.39182302  1
  O2-  O122  1  0.24209167  -0.00291686  0.72371633  1
  O2-  O123  1  0.25315781  0.50786253  0.06093410  1
  O2-  O124  1  0.25085431  0.50828937  0.39422070  1
  O2-  O125  1  0.25314398  0.50918170  0.72666290  1
  O2-  O126  1  0.75270413  -0.00347825  0.06502069  1
  O2-  O127  1  0.74681735  -0.00405642  0.39321976  1
  O2-  O128  1  0.75375085  0.00642116  0.72684095  1
  O2-  O129  1  0.75190369  0.49397735  0.05472981  1
  O2-  O130  1  0.74963664  0.49811174  0.39846136  1
  O2-  O131  1  0.75127567  0.49417541  0.72507180  1
  O2-  O132  1  -0.00214115  0.24760715  0.27024812  1
  O2-  O133  1  -0.00600763  0.25424647  0.60723688  1
  O2-  O134  1  -0.00067340  0.25053173  0.93479161  1
  O2-  O135  1  -0.00134736  0.74756567  0.27096154  1
  O2-  O136  1  0.00579290  0.75474246  0.61044412  1
  O2-  O137  1  0.00684745  0.75532096  0.93263916  1
  O2-  O138  1  0.51063012  0.25118650  0.27628487  1
  O2-  O139  1  0.50318728  0.25079555  0.60941958  1
  O2-  O140  1  0.49109365  0.24953186  0.93697937  1
  O2-  O141  1  0.49604003  0.75643774  0.27135858  1
  O2-  O142  1  0.49981946  0.74932459  0.60927377  1
  O2-  O143  1  0.50323092  0.75086444  0.93960426  1
  O2-  O144  1  0.07070221  0.18225581  0.09835229  1
  O2-  O145  1  0.07535145  0.18177213  0.43317043  1
  O2-  O146  1  0.07253885  0.18159294  0.76576188  1
  O2-  O147  1  0.06776024  0.67704277  0.09731004  1
  O2-  O148  1  0.07134561  0.68051108  0.43442372  1
  O2-  O149  1  0.06947371  0.67680378  0.75651793  1
  O2-  O150  1  0.56874631  0.18271548  0.10028748  1
  O2-  O151  1  0.56644876  0.17252599  0.42604095  1
  O2-  O152  1  0.56958036  0.17608685  0.75606531  1
  O2-  O153  1  0.56961650  0.67401707  0.08639855  1
  O2-  O154  1  0.56749144  0.68296246  0.43320667  1
  O2-  O155  1  0.57066906  0.67778599  0.75632793  1
  O2-  O156  1  0.18134253  0.42876600  0.23469156  1
  O2-  O157  1  0.18130987  0.43188665  0.56849454  1
  O2-  O158  1  0.18082467  0.43331616  0.90235514  1
  O2-  O159  1  0.18219702  0.92606671  0.24419832  1
  O2-  O160  1  0.18135299  0.92149725  0.57431041  1
  O2-  O161  1  0.18294030  0.92683582  0.90077156  1
  O2-  O162  1  0.67486725  0.43040858  0.23340056  1
  O2-  O163  1  0.66902177  0.43177863  0.57875227  1
  O2-  O164  1  0.67478878  0.43319839  0.90644532  1
  O2-  O165  1  0.67099742  0.93206633  0.24468244  1
  O2-  O166  1  0.68336174  0.92899087  0.56557932  1
  O2-  O167  1  0.67964058  0.92829421  0.90214557  1
  O2-  O168  1  0.43426529  0.32994161  0.08589271  1
  O2-  O169  1  0.42840923  0.31793164  0.43407883  1
  O2-  O170  1  0.43470951  0.32381231  0.75759350  1
  O2-  O171  1  0.43115990  0.81773827  0.08820905  1
  O2-  O172  1  0.42819040  0.82555881  0.42121805  1
  O2-  O173  1  0.42919465  0.82028993  0.75576964  1
  O2-  O174  1  0.92471301  0.32363688  0.09864049  1
  O2-  O175  1  0.93087004  0.31816012  0.43563839  1
  O2-  O176  1  0.92577217  0.32677845  0.75415378  1
  O2-  O177  1  0.92551264  0.81676260  0.09571674  1
  O2-  O178  1  0.93033496  0.82059965  0.43340504  1
  O2-  O179  1  0.92672537  0.81836185  0.75614616  1
  O2-  O180  1  0.32594638  0.06810496  0.24553826  1
  O2-  O181  1  0.32078308  0.06920434  0.56600866  1
  O2-  O182  1  0.32211643  0.06674346  0.90376379  1
  O2-  O183  1  0.32534880  0.57284461  0.24429338  1
  O2-  O184  1  0.33256166  0.57273439  0.57822723  1
  O2-  O185  1  0.33150995  0.56827284  0.91143056  1
  O2-  O186  1  0.82271137  0.07254473  0.23611940  1
  O2-  O187  1  0.82324908  0.07191382  0.57806675  1
  O2-  O188  1  0.81691643  0.07196910  0.89950388  1
  O2-  O189  1  0.81794767  0.57204140  0.23453321  1
  O2-  O190  1  0.81795737  0.57257798  0.57949232  1
  O2-  O191  1  0.81596640  0.56917125  0.90840312  1
  O2-  O192  1  0.04954561  0.07793075  0.27232167  1
  O2-  O193  1  0.04508786  0.08330987  0.59817547  1
  O2-  O194  1  0.04807442  0.08045690  0.93198213  1
  O2-  O195  1  0.04392945  0.57767900  0.27120548  1
  O2-  O196  1  0.03610122  0.58848508  0.60534682  1
  O2-  O197  1  0.03477005  0.58507088  0.92837115  1
  O2-  O198  1  0.53809008  0.08625374  0.27182688  1
  O2-  O199  1  0.54033216  0.08575420  0.60349955  1
  O2-  O200  1  0.53711796  0.08008060  0.93436710  1
  O2-  O201  1  0.53701495  0.58662697  0.26305691  1
  O2-  O202  1  0.54361670  0.58703445  0.60406218  1
  O2-  O203  1  0.54001453  0.58782250  0.93119730  1
  O2-  O204  1  0.17080413  0.20696327  0.26628391  1
  O2-  O205  1  0.16943747  0.21419424  0.60180107  1
  O2-  O206  1  0.17241569  0.21134199  0.93555314  1
  O2-  O207  1  0.17107282  0.70335570  0.26833862  1
  O2-  O208  1  0.16600739  0.69841333  0.60645875  1
  O2-  O209  1  0.17624164  0.69638673  0.93513756  1
  O2-  O210  1  0.66859576  0.19364781  0.27966712  1
  O2-  O211  1  0.66479489  0.20136150  0.60577862  1
  O2-  O212  1  0.66029892  0.21103963  0.92683858  1
  O2-  O213  1  0.66464705  0.70940063  0.26332176  1
  O2-  O214  1  0.66321416  0.70819135  0.60464898  1
  O2-  O215  1  0.66309009  0.70199222  0.93255509  1
  O2-  O216  1  0.08101142  0.46417516  0.06683530  1
  O2-  O217  1  0.08368032  0.45653667  0.40456058  1
  O2-  O218  1  0.08285575  0.46278967  0.73522123  1
  O2-  O219  1  0.07684942  0.94806689  0.06452640  1
  O2-  O220  1  0.08825710  0.95115814  0.39782713  1
  O2-  O221  1  0.08098080  0.94764540  0.72126796  1
  O2-  O222  1  0.58701504  0.46283687  0.05900340  1
  O2-  O223  1  0.57839839  0.46270222  0.39977621  1
  O2-  O224  1  0.58702947  0.46227981  0.73412707  1
  O2-  O225  1  0.58069302  0.95176597  0.06798843  1
  O2-  O226  1  0.58306456  0.95668346  0.39816597  1
  O2-  O227  1  0.58458759  0.95677647  0.73145186  1
  O2-  O228  1  0.21039903  0.33705109  0.07097109  1
  O2-  O229  1  0.21813569  0.33387497  0.40061199  1
  O2-  O230  1  0.21469234  0.33774148  0.73702471  1
  O2-  O231  1  0.21483507  0.83095680  0.06633066  1
  O2-  O232  1  0.21092826  0.83661657  0.39745121  1
  O2-  O233  1  0.20508899  0.83247843  0.72691373  1
  O2-  O234  1  0.69623681  0.33478690  0.05588821  1
  O2-  O235  1  0.69748160  0.32920704  0.40352935  1
  O2-  O236  1  0.69784518  0.33388776  0.72750343  1
  O2-  O237  1  0.70302243  0.82423096  0.06357011  1
  O2-  O238  1  0.69955007  0.83482861  0.39384421  1
  O2-  O239  1  0.71178646  0.83267901  0.73311568  1
  O2-  O240  1  0.45577618  0.41763650  0.26430462  1
  O2-  O241  1  0.46010731  0.41339879  0.60532578  1
  O2-  O242  1  0.46121027  0.41446564  0.93065122  1
  O2-  O243  1  0.45335207  0.91833970  0.26947423  1
  O2-  O244  1  0.45896037  0.91206234  0.60230103  1
  O2-  O245  1  0.45787073  0.91172788  0.93551179  1
  O2-  O246  1  0.95249375  0.41892123  0.27234243  1
  O2-  O247  1  0.95371798  0.41965893  0.60505482  1
  O2-  O248  1  0.95581042  0.41959327  0.93155791  1
  O2-  O249  1  0.96036731  0.91797870  0.26664226  1
  O2-  O250  1  0.94860657  0.91321037  0.60435346  1
  O2-  O251  1  0.95224174  0.92063446  0.92885799  1
  O2-  O252  1  0.33827137  0.28511356  0.26333485  1
  O2-  O253  1  0.33986667  0.29252077  0.60723291  1
  O2-  O254  1  0.33294925  0.30459138  0.93850471  1
  O2-  O255  1  0.33455514  0.79990580  0.26838329  1
  O2-  O256  1  0.33761166  0.79464543  0.60156623  1
  O2-  O257  1  0.34114260  0.79033877  0.93254639  1
  O2-  O258  1  0.82568424  0.29373169  0.27383502  1
  O2-  O259  1  0.83051565  0.30426689  0.60473270  1
  O2-  O260  1  0.82788083  0.29655059  0.93053428  1
  O2-  O261  1  0.82847628  0.79881860  0.26717023  1
  O2-  O262  1  0.83908078  0.78298177  0.60455399  1
  O2-  O263  1  0.83284145  0.78411536  0.92817049  1
  O2-  O264  1  0.41542958  0.03502484  0.07189953  1
  O2-  O265  1  0.41158754  0.03986444  0.40040945  1
  O2-  O266  1  0.41473359  0.03558297  0.73332432  1
  O2-  O267  1  0.41831555  0.54146861  0.06384473  1
  O2-  O268  1  0.41443448  0.54488594  0.39681144  1
  O2-  O269  1  0.41777918  0.54551117  0.73221704  1
  O2-  O270  1  0.92024702  0.04818795  0.06422044  1
  O2-  O271  1  0.91857251  0.03595098  0.40504561  1
  O2-  O272  1  0.91799471  0.04620060  0.72739489  1
  O2-  O273  1  0.91168826  0.54501832  0.06039816  1
  O2-  O274  1  0.91738102  0.54443836  0.40561348  1
  O2-  O275  1  0.91039036  0.54516366  0.73329871  1
  O2-  O276  1  0.30595272  0.17490428  0.06575177  1
  O2-  O277  1  0.29460176  0.16227572  0.39655854  1
  O2-  O278  1  0.29427721  0.16686620  0.73507184  1
  O2-  O279  1  0.30922986  0.66742893  0.06074812  1
  O2-  O280  1  0.30263426  0.66971094  0.39470170  1
  O2-  O281  1  0.30335486  0.66898183  0.72747442  1
  O2-  O282  1  0.78459221  0.16982001  0.06435690  1
  O2-  O283  1  0.79235293  0.16401700  0.40953757  1
  O2-  O284  1  0.80057959  0.16914283  0.72664382  1
  O2-  O285  1  0.78685919  0.65827289  0.06076539  1
  O2-  O286  1  0.78743299  0.66997297  0.40114327  1
  O2-  O287  1  0.78509793  0.65837646  0.73383221  1
