# generated using pymatgen
data_Ca2Al2SiO7
_symmetry_space_group_name_H-M   'P 1'
_cell_length_a   15.45920144
_cell_length_b   15.45902865
_cell_length_c   15.28444896
_cell_angle_alpha   90.00003355
_cell_angle_beta   89.99523340
_cell_angle_gamma   89.99089585
_symmetry_Int_Tables_number   1
_chemical_formula_structural   Ca2Al2SiO7
_chemical_formula_sum   'Ca48 Al48 Si24 O168'
_cell_volume   3652.74232986
_cell_formula_units_Z   24
loop_
 _symmetry_equiv_pos_site_id
 _symmetry_equiv_pos_as_xyz
  1  'x, y, z'
loop_
 _atom_type_symbol
 _atom_type_oxidation_number
  Ca2+  2.0
  Al0+  0.0
  Si0+  0.0
  O2-  -2.0
loop_
 _atom_site_type_symbol
 _atom_site_label
 _atom_site_symmetry_multiplicity
 _atom_site_fract_x
 _atom_site_fract_y
 _atom_site_fract_z
 _atom_site_occupancy
  Ca2+  Ca0  1  0.17035411  0.08484092  0.17109156  1
  Ca2+  Ca1  1  0.16554563  0.08015985  0.50604471  1
  Ca2+  Ca2  1  0.17740875  0.09316763  0.83517721  1
  Ca2+  Ca3  1  0.17193607  0.58450805  0.16720948  1
  Ca2+  Ca4  1  0.17340896  0.57466668  0.51036411  1
  Ca2+  Ca5  1  0.17669038  0.57694179  0.83452074  1
  Ca2+  Ca6  1  0.67181123  0.09266588  0.16869381  1
  Ca2+  Ca7  1  0.66394577  0.08470321  0.50122117  1
  Ca2+  Ca8  1  0.67261447  0.08841518  0.84391367  1
  Ca2+  Ca9  1  0.67096882  0.56846866  0.17519083  1
  Ca2+  Ca10  1  0.66791367  0.57558598  0.50654425  1
  Ca2+  Ca11  1  0.65700220  0.57088405  0.83467676  1
  Ca2+  Ca12  1  0.07631174  0.32216461  0.15685086  1
  Ca2+  Ca13  1  0.08960936  0.32336240  0.49845498  1
  Ca2+  Ca14  1  0.07633883  0.32717382  0.82249855  1
  Ca2+  Ca15  1  0.08123390  0.83793686  0.16911321  1
  Ca2+  Ca16  1  0.08030399  0.83391085  0.49023447  1
  Ca2+  Ca17  1  0.08311919  0.83226025  0.83172720  1
  Ca2+  Ca18  1  0.59229017  0.32705321  0.16351113  1
  Ca2+  Ca19  1  0.58096715  0.33546393  0.49944816  1
  Ca2+  Ca20  1  0.58202009  0.33258303  0.83016215  1
  Ca2+  Ca21  1  0.56933285  0.83321490  0.16062973  1
  Ca2+  Ca22  1  0.57115404  0.82708711  0.49768773  1
  Ca2+  Ca23  1  0.57002079  0.82611014  0.82509045  1
  Ca2+  Ca24  1  0.33589909  0.42448737  0.16725110  1
  Ca2+  Ca25  1  0.32972430  0.41863765  0.51519918  1
  Ca2+  Ca26  1  0.33755786  0.42419702  0.83387008  1
  Ca2+  Ca27  1  0.33208193  0.91978849  0.17029223  1
  Ca2+  Ca28  1  0.33435022  0.92019375  0.50356810  1
  Ca2+  Ca29  1  0.33980786  0.92555309  0.83738165  1
  Ca2+  Ca30  1  0.82542648  0.41299468  0.17088705  1
  Ca2+  Ca31  1  0.82308987  0.41270935  0.50483531  1
  Ca2+  Ca32  1  0.82421865  0.40323888  0.83740203  1
  Ca2+  Ca33  1  0.83616287  0.92355119  0.17195262  1
  Ca2+  Ca34  1  0.83407250  0.91680705  0.50305971  1
  Ca2+  Ca35  1  0.82866226  0.92571117  0.84064087  1
  Ca2+  Ca36  1  0.42965950  0.16312469  0.15974323  1
  Ca2+  Ca37  1  0.41589636  0.17353557  0.49825479  1
  Ca2+  Ca38  1  0.41886892  0.16627854  0.82695759  1
  Ca2+  Ca39  1  0.40931718  0.67799964  0.16015774  1
  Ca2+  Ca40  1  0.41596445  0.67087516  0.49964262  1
  Ca2+  Ca41  1  0.41250773  0.67312987  0.82515806  1
  Ca2+  Ca42  1  0.92724345  0.16702440  0.15621085  1
  Ca2+  Ca43  1  0.92823699  0.17286830  0.49883011  1
  Ca2+  Ca44  1  0.92407276  0.17448794  0.83232936  1
  Ca2+  Ca45  1  0.90972565  0.67061094  0.16838321  1
  Ca2+  Ca46  1  0.91536796  0.67009158  0.49209962  1
  Ca2+  Ca47  1  0.91770315  0.66792875  0.82880724  1
  Al0+  Al48  1  -0.00003352  -0.00059333  -0.00150041  1
  Al0+  Al49  1  0.00138650  -0.00057534  0.33028341  1
  Al0+  Al50  1  -0.00068822  0.00046963  0.66585949  1
  Al0+  Al51  1  -0.00167443  0.50143053  -0.00308858  1
  Al0+  Al52  1  0.00139475  0.50057011  0.33603557  1
  Al0+  Al53  1  -0.00272484  0.50069224  0.66597458  1
  Al0+  Al54  1  0.49921934  -0.00082366  -0.00432944  1
  Al0+  Al55  1  0.50106163  0.00113529  0.32606237  1
  Al0+  Al56  1  0.50032317  -0.00289767  0.66611120  1
  Al0+  Al57  1  0.50073727  0.50011492  0.01267839  1
  Al0+  Al58  1  0.50058601  0.50087450  0.33706399  1
  Al0+  Al59  1  0.50191643  0.49963309  0.66674190  1
  Al0+  Al60  1  0.25192971  0.25046994  0.00412572  1
  Al0+  Al61  1  0.25255551  0.25093333  0.32686493  1
  Al0+  Al62  1  0.25054961  0.24741146  0.66628255  1
  Al0+  Al63  1  0.24840099  0.75058464  -0.00086238  1
  Al0+  Al64  1  0.24852574  0.75213041  0.33358648  1
  Al0+  Al65  1  0.24727979  0.75164608  0.66561153  1
  Al0+  Al66  1  0.75091367  0.24824771  0.00232323  1
  Al0+  Al67  1  0.75036525  0.25007616  0.33718123  1
  Al0+  Al68  1  0.75266273  0.24932413  0.66630357  1
  Al0+  Al69  1  0.74821502  0.74885751  -0.00124148  1
  Al0+  Al70  1  0.74947229  0.75090920  0.33147640  1
  Al0+  Al71  1  0.74844247  0.74990820  0.66477513  1
  Al0+  Al72  1  0.57001859  0.18060853  0.98629156  1
  Al0+  Al73  1  0.68110951  0.42922423  0.01485517  1
  Al0+  Al74  1  0.68064425  0.42839572  0.68250327  1
  Al0+  Al75  1  0.67957638  0.42730771  0.35284093  1
  Al0+  Al76  1  0.07204543  0.17897224  0.31791264  1
  Al0+  Al77  1  0.82024245  0.06856639  0.01432175  1
  Al0+  Al78  1  0.17710308  0.42672328  0.68114443  1
  Al0+  Al79  1  0.42840320  0.81951879  0.31778498  1
  Al0+  Al80  1  0.32177263  0.06888517  0.67821379  1
  Al0+  Al81  1  0.42617625  0.82189853  0.64971840  1
  Al0+  Al82  1  0.32232078  0.07222630  0.01469884  1
  Al0+  Al83  1  0.32123475  0.57182812  0.68058642  1
  Al0+  Al84  1  0.57077670  0.67763000  0.65117173  1
  Al0+  Al85  1  0.31936056  0.57154121  0.01460628  1
  Al0+  Al86  1  0.82178947  0.57256076  0.34895463  1
  Al0+  Al87  1  0.92921670  0.32146152  0.98593982  1
  Al0+  Al88  1  0.43043245  0.31949757  0.65674631  1
  Al0+  Al89  1  0.42759128  0.81957051  0.98450183  1
  Al0+  Al90  1  0.57071462  0.18116978  0.32056911  1
  Al0+  Al91  1  0.07431946  0.17738059  0.98351738  1
  Al0+  Al92  1  0.17991232  0.93178540  0.34676091  1
  Al0+  Al93  1  0.92797562  0.82032113  0.31969085  1
  Al0+  Al94  1  0.92737025  0.32264712  0.64920118  1
  Al0+  Al95  1  0.07206901  0.17922439  0.65077149  1
  Si0+  Si96  1  0.32440812  0.07246115  0.34898012  1
  Si0+  Si97  1  0.17798587  0.92769186  0.01670116  1
  Si0+  Si98  1  0.07057661  0.67924613  0.98436479  1
  Si0+  Si99  1  0.67774446  0.92609661  0.01676803  1
  Si0+  Si100  1  0.57169864  0.67720695  0.31488080  1
  Si0+  Si101  1  0.42784673  0.32528313  0.31553439  1
  Si0+  Si102  1  0.92699665  0.82082706  0.98466033  1
  Si0+  Si103  1  0.17555734  0.42885489  0.01687216  1
  Si0+  Si104  1  0.82114411  0.06923889  0.68151344  1
  Si0+  Si105  1  0.82098497  0.57509931  0.68467704  1
  Si0+  Si106  1  0.17462986  0.92851641  0.68384410  1
  Si0+  Si107  1  0.82436487  0.57540111  0.01673159  1
  Si0+  Si108  1  0.67938190  0.92759550  0.68113994  1
  Si0+  Si109  1  0.07010720  0.67905384  0.65164811  1
  Si0+  Si110  1  0.31932279  0.57256409  0.34837347  1
  Si0+  Si111  1  0.57390245  0.17640658  0.65183998  1
  Si0+  Si112  1  0.18081573  0.42758963  0.34650501  1
  Si0+  Si113  1  0.42893780  0.32516210  0.98569704  1
  Si0+  Si114  1  0.07197295  0.67698246  0.31655897  1
  Si0+  Si115  1  0.82218064  0.06961590  0.34955373  1
  Si0+  Si116  1  0.57116989  0.67635179  0.98554974  1
  Si0+  Si117  1  0.92949421  0.32232141  0.31755594  1
  Si0+  Si118  1  0.92889363  0.82083693  0.65294524  1
  Si0+  Si119  1  0.67735864  0.92979568  0.34758146  1
  O2-  O120  1  0.24434969  -0.00073439  0.05952829  1
  O2-  O121  1  0.25325879  0.00695436  0.39399477  1
  O2-  O122  1  0.24615594  -0.00523651  0.72597239  1
  O2-  O123  1  0.24552020  0.49607488  0.06242631  1
  O2-  O124  1  0.25238850  0.49768520  0.38959832  1
  O2-  O125  1  0.25102826  0.49756858  0.73062739  1
  O2-  O126  1  0.74628002  -0.00628971  0.06298906  1
  O2-  O127  1  0.74976163  -0.00077751  0.39150032  1
  O2-  O128  1  0.74665456  0.00165749  0.72379344  1
  O2-  O129  1  0.75737549  0.50439542  0.05867953  1
  O2-  O130  1  0.75135954  0.50083594  0.40106668  1
  O2-  O131  1  0.75562578  0.50368365  0.72902931  1
  O2-  O132  1  -0.00197189  0.25449458  0.27219399  1
  O2-  O133  1  0.00442606  0.25534067  0.60019473  1
  O2-  O134  1  0.00578086  0.25401405  0.93607828  1
  O2-  O135  1  -0.00006165  0.74278983  0.27264724  1
  O2-  O136  1  -0.00130821  0.74991093  0.60992482  1
  O2-  O137  1  -0.00345243  0.74836243  0.94271100  1
  O2-  O138  1  0.49839498  0.25770388  0.27316166  1
  O2-  O139  1  0.50456232  0.24445342  0.60853467  1
  O2-  O140  1  0.49353369  0.25325335  0.94059393  1
  O2-  O141  1  0.50116075  0.74344272  0.26973796  1
  O2-  O142  1  0.49553253  0.74659660  0.60114006  1
  O2-  O143  1  0.50213091  0.74367515  0.94016212  1
  O2-  O144  1  0.07086655  0.17678636  0.09765188  1
  O2-  O145  1  0.07167443  0.17917781  0.43072725  1
  O2-  O146  1  0.06869653  0.17625040  0.76376135  1
  O2-  O147  1  0.07172739  0.67995252  0.08933225  1
  O2-  O148  1  0.07381643  0.67885961  0.42210754  1
  O2-  O149  1  0.06943352  0.68135295  0.75713490  1
  O2-  O150  1  0.57124738  0.18211392  0.09948233  1
  O2-  O151  1  0.56790431  0.17834820  0.43372750  1
  O2-  O152  1  0.57485851  0.17613746  0.75736280  1
  O2-  O153  1  0.57186445  0.67989195  0.09113748  1
  O2-  O154  1  0.57067525  0.67885364  0.42028060  1
  O2-  O155  1  0.57321370  0.68170609  0.76494028  1
  O2-  O156  1  0.18104894  0.42965152  0.24136451  1
  O2-  O157  1  0.17994315  0.42977521  0.56663607  1
  O2-  O158  1  0.17474096  0.43180695  0.91174778  1
  O2-  O159  1  0.18045401  0.93142987  0.23371062  1
  O2-  O160  1  0.17015392  0.92920710  0.57830989  1
  O2-  O161  1  0.17783680  0.92357000  0.91114655  1
  O2-  O162  1  0.68191672  0.42615463  0.23907410  1
  O2-  O163  1  0.68156315  0.42784259  0.56982251  1
  O2-  O164  1  0.67887638  0.43034249  0.90185226  1
  O2-  O165  1  0.67788295  0.93084303  0.24259618  1
  O2-  O166  1  0.68192972  0.92762938  0.57567663  1
  O2-  O167  1  0.68205546  0.92506229  0.91085517  1
  O2-  O168  1  0.43130352  0.32593035  0.09158412  1
  O2-  O169  1  0.42398369  0.32430781  0.42112904  1
  O2-  O170  1  0.43220676  0.31908459  0.76980295  1
  O2-  O171  1  0.42734386  0.81837101  0.09799729  1
  O2-  O172  1  0.42941279  0.81884960  0.43041163  1
  O2-  O173  1  0.42915924  0.82295297  0.76326768  1
  O2-  O174  1  0.93071140  0.31987823  0.10011400  1
  O2-  O175  1  0.93086355  0.32032797  0.42292194  1
  O2-  O176  1  0.92506362  0.31700523  0.76242742  1
  O2-  O177  1  0.92676015  0.82083469  0.08948087  1
  O2-  O178  1  0.93066841  0.82133561  0.43314855  1
  O2-  O179  1  0.92944516  0.82070900  0.75845081  1
  O2-  O180  1  0.32447905  0.07009447  0.24335134  1
  O2-  O181  1  0.32270383  0.06754803  0.56492533  1
  O2-  O182  1  0.32398920  0.06986759  0.90165226  1
  O2-  O183  1  0.31651375  0.57320159  0.24298031  1
  O2-  O184  1  0.31732754  0.57149959  0.56638056  1
  O2-  O185  1  0.31830829  0.57210274  0.90210512  1
  O2-  O186  1  0.82176669  0.06862960  0.24443512  1
  O2-  O187  1  0.82247461  0.06573671  0.57607665  1
  O2-  O188  1  0.81862320  0.06568297  0.90089286  1
  O2-  O189  1  0.81954775  0.57150791  0.23507104  1
  O2-  O190  1  0.81903347  0.57986920  0.57948329  1
  O2-  O191  1  0.82430846  0.58152140  0.91157871  1
  O2-  O192  1  0.03937607  0.08343704  0.26419010  1
  O2-  O193  1  0.03683296  0.08161546  0.59793705  1
  O2-  O194  1  0.04304260  0.07916225  0.93191376  1
  O2-  O195  1  0.05084241  0.58237952  0.27008381  1
  O2-  O196  1  0.04333877  0.58794738  0.60309918  1
  O2-  O197  1  0.04504077  0.58808827  0.93500650  1
  O2-  O198  1  0.54143083  0.08595165  0.26266121  1
  O2-  O199  1  0.55042531  0.08196035  0.60661015  1
  O2-  O200  1  0.54380846  0.08283486  0.93248331  1
  O2-  O201  1  0.54760440  0.58223025  0.27082641  1
  O2-  O202  1  0.54635716  0.57916700  0.59793055  1
  O2-  O203  1  0.54481360  0.58152492  0.94361052  1
  O2-  O204  1  0.16930849  0.20833837  0.26406778  1
  O2-  O205  1  0.17115183  0.20225796  0.59714860  1
  O2-  O206  1  0.17554198  0.20294117  0.93604561  1
  O2-  O207  1  0.16304575  0.70819875  0.26829858  1
  O2-  O208  1  0.16039718  0.70738763  0.60211677  1
  O2-  O209  1  0.15948560  0.71161737  0.93454726  1
  O2-  O210  1  0.66952672  0.20942109  0.26850200  1
  O2-  O211  1  0.66713279  0.20148649  0.60523542  1
  O2-  O212  1  0.66665372  0.21129523  0.93336528  1
  O2-  O213  1  0.66452343  0.70459648  0.26890966  1
  O2-  O214  1  0.66768591  0.71161264  0.59686486  1
  O2-  O215  1  0.66486285  0.70041008  0.93821237  1
  O2-  O216  1  0.08264535  0.45821027  0.06329795  1
  O2-  O217  1  0.08932483  0.45427490  0.39465893  1
  O2-  O218  1  0.07859874  0.45840429  0.73238058  1
  O2-  O219  1  0.08271391  0.94955696  0.06119403  1
  O2-  O220  1  0.08235486  0.96043885  0.40072839  1
  O2-  O221  1  0.08152877  0.95469327  0.73190869  1
  O2-  O222  1  0.58696249  0.45962373  0.07434654  1
  O2-  O223  1  0.57931254  0.45519477  0.40291123  1
  O2-  O224  1  0.58434104  0.45920209  0.73657595  1
  O2-  O225  1  0.58372492  0.95184876  0.06034979  1
  O2-  O226  1  0.58667251  0.96114352  0.39541341  1
  O2-  O227  1  0.58688821  0.95114692  0.72840351  1
  O2-  O228  1  0.19997932  0.33546062  0.06386027  1
  O2-  O229  1  0.20943198  0.33536518  0.39292898  1
  O2-  O230  1  0.20237672  0.32748751  0.73165575  1
  O2-  O231  1  0.20500187  0.83520673  0.06454066  1
  O2-  O232  1  0.20827951  0.83419009  0.40088975  1
  O2-  O233  1  0.19652018  0.83378512  0.72890868  1
  O2-  O234  1  0.71422665  0.33369852  0.06928194  1
  O2-  O235  1  0.70846044  0.32900136  0.40643409  1
  O2-  O236  1  0.71195468  0.33049438  0.73480122  1
  O2-  O237  1  0.70265723  0.83204377  0.06273190  1
  O2-  O238  1  0.70399101  0.83777868  0.39471285  1
  O2-  O239  1  0.71135828  0.83801276  0.73029931  1
  O2-  O240  1  0.45184814  0.42026291  0.27120201  1
  O2-  O241  1  0.45988664  0.41527904  0.60090556  1
  O2-  O242  1  0.45880061  0.41865436  0.94196299  1
  O2-  O243  1  0.46168414  0.91500384  0.26334261  1
  O2-  O244  1  0.46156216  0.91782655  0.59522581  1
  O2-  O245  1  0.46086854  0.91451731  0.92996143  1
  O2-  O246  1  0.95410745  0.41692977  0.27303639  1
  O2-  O247  1  0.94641186  0.42457942  0.60000513  1
  O2-  O248  1  0.94844946  0.42290806  0.93451613  1
  O2-  O249  1  0.96251420  0.91462380  0.26368267  1
  O2-  O250  1  0.95637742  0.91206838  0.60474899  1
  O2-  O251  1  0.95665022  0.91071474  0.93485962  1
  O2-  O252  1  0.33594179  0.30033939  0.26564248  1
  O2-  O253  1  0.33497127  0.28920045  0.59999355  1
  O2-  O254  1  0.33294323  0.30553746  0.94345114  1
  O2-  O255  1  0.33114513  0.78877906  0.26467709  1
  O2-  O256  1  0.32553785  0.79855941  0.59910796  1
  O2-  O257  1  0.33056693  0.78925521  0.93179660  1
  O2-  O258  1  0.83535997  0.29527927  0.27420251  1
  O2-  O259  1  0.83224423  0.28540699  0.59440558  1
  O2-  O260  1  0.83342752  0.28545536  0.93354039  1
  O2-  O261  1  0.83076527  0.79441911  0.26373077  1
  O2-  O262  1  0.83704410  0.79489057  0.60515374  1
  O2-  O263  1  0.83478276  0.79473962  0.93636291  1
  O2-  O264  1  0.41852276  0.03681733  0.06778085  1
  O2-  O265  1  0.41743872  0.04352780  0.39386192  1
  O2-  O266  1  0.41867930  0.03796571  0.73292508  1
  O2-  O267  1  0.41413430  0.54303126  0.07354968  1
  O2-  O268  1  0.41314404  0.55026961  0.39336812  1
  O2-  O269  1  0.42026301  0.54615596  0.73220205  1
  O2-  O270  1  0.91667208  0.03507470  0.06784178  1
  O2-  O271  1  0.91254555  0.03788953  0.39683854  1
  O2-  O272  1  0.91052630  0.03615465  0.73039191  1
  O2-  O273  1  0.91925934  0.55408696  0.06228534  1
  O2-  O274  1  0.92307705  0.55001999  0.39986698  1
  O2-  O275  1  0.91647726  0.55466141  0.72873256  1
  O2-  O276  1  0.29796084  0.16990838  0.07076677  1
  O2-  O277  1  0.30189873  0.16891732  0.39057547  1
  O2-  O278  1  0.29267995  0.16472954  0.73369162  1
  O2-  O279  1  0.28280663  0.66679319  0.06884122  1
  O2-  O280  1  0.28733792  0.66256890  0.39597268  1
  O2-  O281  1  0.28821711  0.67002427  0.73225972  1
  O2-  O282  1  0.78933197  0.16347317  0.07034718  1
  O2-  O283  1  0.79495625  0.16080649  0.39776128  1
  O2-  O284  1  0.79545774  0.16101973  0.72858166  1
  O2-  O285  1  0.79645953  0.66858892  0.06406403  1
  O2-  O286  1  0.79515466  0.67319882  0.39953190  1
  O2-  O287  1  0.79431850  0.66868361  0.73210194  1
