# generated using pymatgen
data_Ca2Al2SiO7
_symmetry_space_group_name_H-M   'P 1'
_cell_length_a   15.46121650
_cell_length_b   15.46115052
_cell_length_c   15.28565575
_cell_angle_alpha   90.00478570
_cell_angle_beta   90.01357583
_cell_angle_gamma   89.97948179
_symmetry_Int_Tables_number   1
_chemical_formula_structural   Ca2Al2SiO7
_chemical_formula_sum   'Ca48 Al48 Si24 O168'
_cell_volume   3654.00807587
_cell_formula_units_Z   24
loop_
 _symmetry_equiv_pos_site_id
 _symmetry_equiv_pos_as_xyz
  1  'x, y, z'
loop_
 _atom_type_symbol
 _atom_type_oxidation_number
  Ca2+  2.0
  Al0+  0.0
  Si0+  0.0
  O2-  -2.0
loop_
 _atom_site_type_symbol
 _atom_site_label
 _atom_site_symmetry_multiplicity
 _atom_site_fract_x
 _atom_site_fract_y
 _atom_site_fract_z
 _atom_site_occupancy
  Ca2+  Ca0  1  0.16071344  0.08103528  0.17291606  1
  Ca2+  Ca1  1  0.15644948  0.07224746  0.50148849  1
  Ca2+  Ca2  1  0.16513894  0.07802382  0.83690795  1
  Ca2+  Ca3  1  0.17004203  0.59631585  0.16718527  1
  Ca2+  Ca4  1  0.16261690  0.57877496  0.50707688  1
  Ca2+  Ca5  1  0.16876009  0.58145520  0.84257150  1
  Ca2+  Ca6  1  0.66356671  0.06921290  0.16921609  1
  Ca2+  Ca7  1  0.67540189  0.07505804  0.50592985  1
  Ca2+  Ca8  1  0.67277142  0.08011312  0.84176553  1
  Ca2+  Ca9  1  0.67442514  0.59434625  0.16707275  1
  Ca2+  Ca10  1  0.66567723  0.58085307  0.50592268  1
  Ca2+  Ca11  1  0.66574488  0.58147732  0.84126213  1
  Ca2+  Ca12  1  0.07562184  0.32310323  0.16019907  1
  Ca2+  Ca13  1  0.07223487  0.33124348  0.49215928  1
  Ca2+  Ca14  1  0.07200772  0.33523955  0.82936835  1
  Ca2+  Ca15  1  0.07325684  0.83214073  0.16174629  1
  Ca2+  Ca16  1  0.08087654  0.83366807  0.49050282  1
  Ca2+  Ca17  1  0.08302031  0.82894610  0.83236172  1
  Ca2+  Ca18  1  0.58362003  0.32327557  0.16044494  1
  Ca2+  Ca19  1  0.58629288  0.33454999  0.49939415  1
  Ca2+  Ca20  1  0.59123401  0.32903859  0.82972291  1
  Ca2+  Ca21  1  0.58365527  0.82847864  0.15610505  1
  Ca2+  Ca22  1  0.58518773  0.82289372  0.49449429  1
  Ca2+  Ca23  1  0.57688912  0.82526254  0.83053647  1
  Ca2+  Ca24  1  0.33364981  0.42634672  0.16795000  1
  Ca2+  Ca25  1  0.32216469  0.41957233  0.50932765  1
  Ca2+  Ca26  1  0.32545332  0.42392564  0.84058265  1
  Ca2+  Ca27  1  0.32761126  0.91352794  0.17014204  1
  Ca2+  Ca28  1  0.32104544  0.91148280  0.50506095  1
  Ca2+  Ca29  1  0.33137368  0.90583884  0.83619827  1
  Ca2+  Ca30  1  0.84354264  0.42048238  0.16493084  1
  Ca2+  Ca31  1  0.83222537  0.41529142  0.50799680  1
  Ca2+  Ca32  1  0.83369964  0.41992821  0.83833289  1
  Ca2+  Ca33  1  0.82455643  0.90356890  0.16970509  1
  Ca2+  Ca34  1  0.83385108  0.92010363  0.50181002  1
  Ca2+  Ca35  1  0.82984531  0.92064034  0.84206239  1
  Ca2+  Ca36  1  0.42163165  0.16693614  0.15920240  1
  Ca2+  Ca37  1  0.41636316  0.16929548  0.49867555  1
  Ca2+  Ca38  1  0.42507245  0.16451822  0.83451807  1
  Ca2+  Ca39  1  0.42679459  0.67223677  0.15698183  1
  Ca2+  Ca40  1  0.42735150  0.66932183  0.49983822  1
  Ca2+  Ca41  1  0.42181042  0.67232896  0.83111630  1
  Ca2+  Ca42  1  0.92413316  0.17471355  0.16139812  1
  Ca2+  Ca43  1  0.91569466  0.17525579  0.49594592  1
  Ca2+  Ca44  1  0.91595439  0.17421797  0.82953685  1
  Ca2+  Ca45  1  0.92476653  0.67440116  0.15985267  1
  Ca2+  Ca46  1  0.92468210  0.67393732  0.48968344  1
  Ca2+  Ca47  1  0.91300716  0.66970576  0.83853312  1
  Al0+  Al48  1  -0.00075303  0.00158665  -0.00564996  1
  Al0+  Al49  1  -0.00197493  0.00173365  0.33089508  1
  Al0+  Al50  1  0.00075802  0.00055260  0.67645352  1
  Al0+  Al51  1  -0.00058626  0.49853307  -0.00118746  1
  Al0+  Al52  1  0.00110783  0.50120540  0.32776644  1
  Al0+  Al53  1  -0.00131528  0.49950038  0.66693131  1
  Al0+  Al54  1  0.49929260  0.00071057  -0.00366705  1
  Al0+  Al55  1  0.49994612  0.00008929  0.34172863  1
  Al0+  Al56  1  0.49829235  -0.00029861  0.66042007  1
  Al0+  Al57  1  0.49785468  0.49898159  0.00362329  1
  Al0+  Al58  1  0.50064622  0.50064172  0.33086758  1
  Al0+  Al59  1  0.50043815  0.49858785  0.66726119  1
  Al0+  Al60  1  0.24999843  0.24862836  -0.00226585  1
  Al0+  Al61  1  0.25091952  0.25232814  0.33118339  1
  Al0+  Al62  1  0.24975746  0.24769246  0.67161231  1
  Al0+  Al63  1  0.24942560  0.74960359  -0.00016968  1
  Al0+  Al64  1  0.25415569  0.75086848  0.33803902  1
  Al0+  Al65  1  0.25090258  0.74996855  0.66631431  1
  Al0+  Al66  1  0.75032834  0.24915541  -0.00461241  1
  Al0+  Al67  1  0.74829773  0.25076850  0.32947720  1
  Al0+  Al68  1  0.75141312  0.25045200  0.66933197  1
  Al0+  Al69  1  0.75023808  0.74805694  -0.00038633  1
  Al0+  Al70  1  0.75019080  0.74782623  0.33485010  1
  Al0+  Al71  1  0.75107480  0.75029629  0.66169913  1
  Al0+  Al72  1  0.42743810  0.82163730  0.64804958  1
  Al0+  Al73  1  0.07513954  0.67939753  0.32018768  1
  Al0+  Al74  1  0.57232760  0.67767323  0.65072112  1
  Al0+  Al75  1  0.17653091  0.42787296  0.68008367  1
  Al0+  Al76  1  0.92975841  0.32056434  0.65140682  1
  Al0+  Al77  1  0.31997593  0.57173688  0.01504479  1
  Al0+  Al78  1  0.81954820  0.06994768  0.68080449  1
  Al0+  Al79  1  0.07141331  0.67994512  0.98435367  1
  Al0+  Al80  1  0.67957079  0.93040532  0.01134008  1
  Al0+  Al81  1  0.57010892  0.17931071  0.98725717  1
  Al0+  Al82  1  0.07324391  0.17773460  0.98178799  1
  Al0+  Al83  1  0.92606225  0.32239081  0.31752405  1
  Al0+  Al84  1  0.57013156  0.67854694  0.31810085  1
  Al0+  Al85  1  0.42846667  0.82185437  0.98663318  1
  Al0+  Al86  1  0.82046369  0.56931778  0.01471670  1
  Al0+  Al87  1  0.67895077  0.92651899  0.34875274  1
  Al0+  Al88  1  0.67926049  0.43064400  0.67960288  1
  Al0+  Al89  1  0.92946937  0.32072336  0.98218830  1
  Al0+  Al90  1  0.17864889  0.93089556  0.34486141  1
  Al0+  Al91  1  0.07185284  0.17943331  0.32023814  1
  Al0+  Al92  1  0.92718400  0.82099895  0.98361127  1
  Al0+  Al93  1  0.92884725  0.82203829  0.32015359  1
  Al0+  Al94  1  0.57176761  0.67717574  0.98550925  1
  Al0+  Al95  1  0.18076408  0.92855055  0.68214988  1
  Si0+  Si96  1  0.32474533  0.07265501  0.68521548  1
  Si0+  Si97  1  0.43003466  0.82359292  0.31766533  1
  Si0+  Si98  1  0.42872714  0.32159765  0.31928299  1
  Si0+  Si99  1  0.82226057  0.56899031  0.34854328  1
  Si0+  Si100  1  0.82283604  0.07318505  0.01850577  1
  Si0+  Si101  1  0.18018145  0.42949912  0.34753707  1
  Si0+  Si102  1  0.07282340  0.17705913  0.65000884  1
  Si0+  Si103  1  0.32087601  0.56985842  0.68311010  1
  Si0+  Si104  1  0.67814783  0.42796745  0.34722658  1
  Si0+  Si105  1  0.57223954  0.17966090  0.65036065  1
  Si0+  Si106  1  0.07025526  0.67958133  0.65311616  1
  Si0+  Si107  1  0.67688965  0.92665083  0.68253034  1
  Si0+  Si108  1  0.42773336  0.32231510  0.98329987  1
  Si0+  Si109  1  0.81946101  0.07443925  0.34852086  1
  Si0+  Si110  1  0.93022814  0.82383082  0.65221541  1
  Si0+  Si111  1  0.42760681  0.31979306  0.65281287  1
  Si0+  Si112  1  0.32267270  0.07546472  0.35076109  1
  Si0+  Si113  1  0.56943992  0.17811903  0.32074430  1
  Si0+  Si114  1  0.82242706  0.57417111  0.68201753  1
  Si0+  Si115  1  0.32110593  0.07142674  0.01460545  1
  Si0+  Si116  1  0.67689258  0.42568431  0.01837965  1
  Si0+  Si117  1  0.17806248  0.92981923  0.01531320  1
  Si0+  Si118  1  0.32374411  0.57041906  0.35042939  1
  Si0+  Si119  1  0.17840994  0.42681255  0.01867096  1
  O2-  O120  1  0.24812654  0.00284346  0.05681867  1
  O2-  O121  1  0.25150942  0.00831166  0.39275935  1
  O2-  O122  1  0.25840744  0.00127739  0.72791736  1
  O2-  O123  1  0.24452486  0.49787768  0.06382330  1
  O2-  O124  1  0.24774903  0.50363065  0.39170415  1
  O2-  O125  1  0.25082771  0.50255564  0.72699037  1
  O2-  O126  1  0.75629315  0.00202453  0.06193756  1
  O2-  O127  1  0.75457474  0.00186066  0.39326506  1
  O2-  O128  1  0.74485264  -0.00488504  0.72733769  1
  O2-  O129  1  0.74410652  0.49530903  0.06296525  1
  O2-  O130  1  0.75174185  0.49617887  0.38935867  1
  O2-  O131  1  0.74993507  0.50876150  0.72488387  1
  O2-  O132  1  -0.00065480  0.25051018  0.27046000  1
  O2-  O133  1  0.00680887  0.24792889  0.60526082  1
  O2-  O134  1  0.00130611  0.24901466  0.93173242  1
  O2-  O135  1  0.00503700  0.75358780  0.27179635  1
  O2-  O136  1  0.00060880  0.75171256  0.61063686  1
  O2-  O137  1  0.00013748  0.75087597  0.93195997  1
  O2-  O138  1  0.49685230  0.24746385  0.27835900  1
  O2-  O139  1  0.49919539  0.24975317  0.60857937  1
  O2-  O140  1  0.49966831  0.25747084  0.93888188  1
  O2-  O141  1  0.50060979  0.75818129  0.27274142  1
  O2-  O142  1  0.50339318  0.75261103  0.59977202  1
  O2-  O143  1  0.49953141  0.74903955  0.93684799  1
  O2-  O144  1  0.07419333  0.17935897  0.09559048  1
  O2-  O145  1  0.07236199  0.18179443  0.43407880  1
  O2-  O146  1  0.07215595  0.17791484  0.75510402  1
  O2-  O147  1  0.07269507  0.68536501  0.09775617  1
  O2-  O148  1  0.07136325  0.67681055  0.43463765  1
  O2-  O149  1  0.07052994  0.67937769  0.75766340  1
  O2-  O150  1  0.56599989  0.17891376  0.10105073  1
  O2-  O151  1  0.56969256  0.18113835  0.42609201  1
  O2-  O152  1  0.57103514  0.18006874  0.75520282  1
  O2-  O153  1  0.57033070  0.67993326  0.09940517  1
  O2-  O154  1  0.56746925  0.67446446  0.43113490  1
  O2-  O155  1  0.57080114  0.67608512  0.76359291  1
  O2-  O156  1  0.18502023  0.42560107  0.24315162  1
  O2-  O157  1  0.17827639  0.42988640  0.56608954  1
  O2-  O158  1  0.18210999  0.42671655  0.91280904  1
  O2-  O159  1  0.18185021  0.93104015  0.23191607  1
  O2-  O160  1  0.17826924  0.93043267  0.56869640  1
  O2-  O161  1  0.18050463  0.92935535  0.91017431  1
  O2-  O162  1  0.67400727  0.42580656  0.24286901  1
  O2-  O163  1  0.68028747  0.42925435  0.56569674  1
  O2-  O164  1  0.67698241  0.42557101  0.91270290  1
  O2-  O165  1  0.67534214  0.92921918  0.23583396  1
  O2-  O166  1  0.68004432  0.92826179  0.57648820  1
  O2-  O167  1  0.67922559  0.93427838  0.89819870  1
  O2-  O168  1  0.42710512  0.31948215  0.08953475  1
  O2-  O169  1  0.42847690  0.32214539  0.42470485  1
  O2-  O170  1  0.42790309  0.31874145  0.75739103  1
  O2-  O171  1  0.42900908  0.82295497  0.10063632  1
  O2-  O172  1  0.42939732  0.82061849  0.42310070  1
  O2-  O173  1  0.42749324  0.81872666  0.76120985  1
  O2-  O174  1  0.93087865  0.31860604  0.09585720  1
  O2-  O175  1  0.92542774  0.32135680  0.43163197  1
  O2-  O176  1  0.92950096  0.32052080  0.76351582  1
  O2-  O177  1  0.92851186  0.82021801  0.09708563  1
  O2-  O178  1  0.93039199  0.82037339  0.43478334  1
  O2-  O179  1  0.92909142  0.82298438  0.75679274  1
  O2-  O180  1  0.32699796  0.07613798  0.24532298  1
  O2-  O181  1  0.32411104  0.07732379  0.57961869  1
  O2-  O182  1  0.32233120  0.07222381  0.90977522  1
  O2-  O183  1  0.32588666  0.56757243  0.24567759  1
  O2-  O184  1  0.31993702  0.56676087  0.57678382  1
  O2-  O185  1  0.31932257  0.56813583  0.90183944  1
  O2-  O186  1  0.81450612  0.07918907  0.24363163  1
  O2-  O187  1  0.81834770  0.06934019  0.56700908  1
  O2-  O188  1  0.81941791  0.07372243  0.91264913  1
  O2-  O189  1  0.82162048  0.56957907  0.24384379  1
  O2-  O190  1  0.82471126  0.57238392  0.57597251  1
  O2-  O191  1  0.81852965  0.56793124  0.90143632  1
  O2-  O192  1  0.04472390  0.08196476  0.26631938  1
  O2-  O193  1  0.04247597  0.08344281  0.60638636  1
  O2-  O194  1  0.04631782  0.07989381  0.92840680  1
  O2-  O195  1  0.04793643  0.58217001  0.26577961  1
  O2-  O196  1  0.04095125  0.58837024  0.60486282  1
  O2-  O197  1  0.04594708  0.57998083  0.93486513  1
  O2-  O198  1  0.54164514  0.08563124  0.27527369  1
  O2-  O199  1  0.54570985  0.08829570  0.60116814  1
  O2-  O200  1  0.53465291  0.08691168  0.92958235  1
  O2-  O201  1  0.53656106  0.58310712  0.26384270  1
  O2-  O202  1  0.54053118  0.57885256  0.59800578  1
  O2-  O203  1  0.54321469  0.57703378  0.93669340  1
  O2-  O204  1  0.17095546  0.20745663  0.26732362  1
  O2-  O205  1  0.16874644  0.19819577  0.60656825  1
  O2-  O206  1  0.17303771  0.20345182  0.93012068  1
  O2-  O207  1  0.17625800  0.70402260  0.27223193  1
  O2-  O208  1  0.16279856  0.70430129  0.60590127  1
  O2-  O209  1  0.16909405  0.70850104  0.93071425  1
  O2-  O210  1  0.65864845  0.20789766  0.27078231  1
  O2-  O211  1  0.66216358  0.21124450  0.60226007  1
  O2-  O212  1  0.66608861  0.20680004  0.93172452  1
  O2-  O213  1  0.66860952  0.70551842  0.26846511  1
  O2-  O214  1  0.67176929  0.70360119  0.59641705  1
  O2-  O215  1  0.66942797  0.70374809  0.93283589  1
  O2-  O216  1  0.08370190  0.44846167  0.06228035  1
  O2-  O217  1  0.08681742  0.45532318  0.39325959  1
  O2-  O218  1  0.08098996  0.45988157  0.73418282  1
  O2-  O219  1  0.08523848  0.95786689  0.06043995  1
  O2-  O220  1  0.08090183  0.96008636  0.39946808  1
  O2-  O221  1  0.08640712  0.96010967  0.73900530  1
  O2-  O222  1  0.58146296  0.44566152  0.06352374  1
  O2-  O223  1  0.58671333  0.45789423  0.39581940  1
  O2-  O224  1  0.58058520  0.45372586  0.73368779  1
  O2-  O225  1  0.58340444  0.96542402  0.06532938  1
  O2-  O226  1  0.58383420  0.95954041  0.40575638  1
  O2-  O227  1  0.58152836  0.95249077  0.72349290  1
  O2-  O228  1  0.20920722  0.33378414  0.06400625  1
  O2-  O229  1  0.21206501  0.33945680  0.39733605  1
  O2-  O230  1  0.20819763  0.33186961  0.73402349  1
  O2-  O231  1  0.20750379  0.83913156  0.06312531  1
  O2-  O232  1  0.21201419  0.83548303  0.40180429  1
  O2-  O233  1  0.21064596  0.83105549  0.73509163  1
  O2-  O234  1  0.70366794  0.33123512  0.06320474  1
  O2-  O235  1  0.70278251  0.33508765  0.39548784  1
  O2-  O236  1  0.71118236  0.33499848  0.73396488  1
  O2-  O237  1  0.70834226  0.83313240  0.06475188  1
  O2-  O238  1  0.71037516  0.83031922  0.40356813  1
  O2-  O239  1  0.70248567  0.83219186  0.72584378  1
  O2-  O240  1  0.46017674  0.41098793  0.27009772  1
  O2-  O241  1  0.45418022  0.41109562  0.60370490  1
  O2-  O242  1  0.44875973  0.41677736  0.93877166  1
  O2-  O243  1  0.45071905  0.92023801  0.27606676  1
  O2-  O244  1  0.44798444  0.92263091  0.59590611  1
  O2-  O245  1  0.45491975  0.91944169  0.93188077  1
  O2-  O246  1  0.95600771  0.41969528  0.26522388  1
  O2-  O247  1  0.95887536  0.41832073  0.59766921  1
  O2-  O248  1  0.95793733  0.41866382  0.92948532  1
  O2-  O249  1  0.94908602  0.92174388  0.26794396  1
  O2-  O250  1  0.96053899  0.91572824  0.60672851  1
  O2-  O251  1  0.95253957  0.92021221  0.93210043  1
  O2-  O252  1  0.33782711  0.29704973  0.26927552  1
  O2-  O253  1  0.33618739  0.28986514  0.60419237  1
  O2-  O254  1  0.33628308  0.29305281  0.93590360  1
  O2-  O255  1  0.33733499  0.79540658  0.27208964  1
  O2-  O256  1  0.32987576  0.78835593  0.59456458  1
  O2-  O257  1  0.33087120  0.79220606  0.93416436  1
  O2-  O258  1  0.82750352  0.29544296  0.26430078  1
  O2-  O259  1  0.83313611  0.28704754  0.59818430  1
  O2-  O260  1  0.83041469  0.29382809  0.93051714  1
  O2-  O261  1  0.83224909  0.78791777  0.26864183  1
  O2-  O262  1  0.83840052  0.79848005  0.60323293  1
  O2-  O263  1  0.83064042  0.78966125  0.92964092  1
  O2-  O264  1  0.41186124  0.04255686  0.06380383  1
  O2-  O265  1  0.41465358  0.04978681  0.40092234  1
  O2-  O266  1  0.42044808  0.05005268  0.72878263  1
  O2-  O267  1  0.41515522  0.53805639  0.07209558  1
  O2-  O268  1  0.41289664  0.53474068  0.39904603  1
  O2-  O269  1  0.41328876  0.54117059  0.72874508  1
  O2-  O270  1  0.91853980  0.05115384  0.06117376  1
  O2-  O271  1  0.91413816  0.05268244  0.39393355  1
  O2-  O272  1  0.91487602  0.04160105  0.73727322  1
  O2-  O273  1  0.91742599  0.53779349  0.06887798  1
  O2-  O274  1  0.91509585  0.54271326  0.39588015  1
  O2-  O275  1  0.91395254  0.54505394  0.72950923  1
  O2-  O276  1  0.29709123  0.16453216  0.06282477  1
  O2-  O277  1  0.29996549  0.17069979  0.39622098  1
  O2-  O278  1  0.29845863  0.16469936  0.73444958  1
  O2-  O279  1  0.28947620  0.66811547  0.07043004  1
  O2-  O280  1  0.30276113  0.66336672  0.39827608  1
  O2-  O281  1  0.29603187  0.66361517  0.72728898  1
  O2-  O282  1  0.79371665  0.16630662  0.06351031  1
  O2-  O283  1  0.78770514  0.16621814  0.39712069  1
  O2-  O284  1  0.78611664  0.16497816  0.73534142  1
  O2-  O285  1  0.79041408  0.66562974  0.06994083  1
  O2-  O286  1  0.79304026  0.65910998  0.39857992  1
  O2-  O287  1  0.80090407  0.66963028  0.72597060  1
