# generated using pymatgen
data_Ca2Al2SiO7
_symmetry_space_group_name_H-M   'P 1'
_cell_length_a   15.45040784
_cell_length_b   15.44985674
_cell_length_c   15.27766702
_cell_angle_alpha   89.99963644
_cell_angle_beta   90.01416425
_cell_angle_gamma   89.99528634
_symmetry_Int_Tables_number   1
_chemical_formula_structural   Ca2Al2SiO7
_chemical_formula_sum   'Ca48 Al48 Si24 O168'
_cell_volume   3646.87963959
_cell_formula_units_Z   24
loop_
 _symmetry_equiv_pos_site_id
 _symmetry_equiv_pos_as_xyz
  1  'x, y, z'
loop_
 _atom_type_symbol
 _atom_type_oxidation_number
  Ca2+  2.0
  Al0+  0.0
  Si0+  0.0
  O2-  -2.0
loop_
 _atom_site_type_symbol
 _atom_site_label
 _atom_site_symmetry_multiplicity
 _atom_site_fract_x
 _atom_site_fract_y
 _atom_site_fract_z
 _atom_site_occupancy
  Ca2+  Ca0  1  0.16146630  0.07061863  0.17349221  1
  Ca2+  Ca1  1  0.16861116  0.08429555  0.50630056  1
  Ca2+  Ca2  1  0.17143539  0.08537612  0.83693516  1
  Ca2+  Ca3  1  0.16295882  0.58520268  0.16712525  1
  Ca2+  Ca4  1  0.16634447  0.57895471  0.50521658  1
  Ca2+  Ca5  1  0.16924042  0.57507233  0.84389267  1
  Ca2+  Ca6  1  0.66582151  0.08207143  0.17327901  1
  Ca2+  Ca7  1  0.65574928  0.07446580  0.50481387  1
  Ca2+  Ca8  1  0.66120504  0.07987262  0.83643574  1
  Ca2+  Ca9  1  0.67171258  0.58079306  0.16953291  1
  Ca2+  Ca10  1  0.67443389  0.58146428  0.50893800  1
  Ca2+  Ca11  1  0.65949125  0.57143775  0.83999826  1
  Ca2+  Ca12  1  0.07863772  0.32987464  0.15969703  1
  Ca2+  Ca13  1  0.08567242  0.32508492  0.49961831  1
  Ca2+  Ca14  1  0.07574974  0.34005803  0.82543179  1
  Ca2+  Ca15  1  0.08401710  0.82630283  0.15776195  1
  Ca2+  Ca16  1  0.08328953  0.82808244  0.48906296  1
  Ca2+  Ca17  1  0.08360441  0.83312210  0.83756817  1
  Ca2+  Ca18  1  0.58971287  0.32374644  0.15864381  1
  Ca2+  Ca19  1  0.59071979  0.32169028  0.49999756  1
  Ca2+  Ca20  1  0.58928565  0.32486079  0.82683376  1
  Ca2+  Ca21  1  0.57802522  0.83106285  0.16297264  1
  Ca2+  Ca22  1  0.58020602  0.83637225  0.49561886  1
  Ca2+  Ca23  1  0.58837587  0.81816875  0.82641090  1
  Ca2+  Ca24  1  0.33048121  0.42439941  0.16343229  1
  Ca2+  Ca25  1  0.32634236  0.41587131  0.50755123  1
  Ca2+  Ca26  1  0.31995400  0.41864406  0.84176282  1
  Ca2+  Ca27  1  0.32252125  0.90950394  0.17147896  1
  Ca2+  Ca28  1  0.33068124  0.91991254  0.50156975  1
  Ca2+  Ca29  1  0.32920830  0.92444047  0.83677277  1
  Ca2+  Ca30  1  0.83299531  0.41961854  0.16646435  1
  Ca2+  Ca31  1  0.83284072  0.42082755  0.50491580  1
  Ca2+  Ca32  1  0.82649840  0.40762476  0.83770709  1
  Ca2+  Ca33  1  0.82810645  0.91362727  0.17176457  1
  Ca2+  Ca34  1  0.82044291  0.91866200  0.50454646  1
  Ca2+  Ca35  1  0.83154243  0.91696026  0.83669654  1
  Ca2+  Ca36  1  0.42910365  0.16618840  0.16442888  1
  Ca2+  Ca37  1  0.42340412  0.16106178  0.49932163  1
  Ca2+  Ca38  1  0.42415514  0.16367317  0.82752982  1
  Ca2+  Ca39  1  0.41740972  0.67153832  0.15933603  1
  Ca2+  Ca40  1  0.42476372  0.67247831  0.49535872  1
  Ca2+  Ca41  1  0.42489563  0.65873300  0.83320645  1
  Ca2+  Ca42  1  0.92096976  0.17072647  0.16119235  1
  Ca2+  Ca43  1  0.92514857  0.17268174  0.49910276  1
  Ca2+  Ca44  1  0.92416477  0.17985801  0.82642931  1
  Ca2+  Ca45  1  0.92416811  0.66947018  0.16120692  1
  Ca2+  Ca46  1  0.92122212  0.66433011  0.49267828  1
  Ca2+  Ca47  1  0.92031096  0.67045061  0.83548971  1
  Al0+  Al48  1  -0.00085629  0.00099382  0.00009550  1
  Al0+  Al49  1  -0.00153232  0.00010915  0.33573285  1
  Al0+  Al50  1  -0.00143653  -0.00096264  0.66273187  1
  Al0+  Al51  1  -0.00149093  0.50025707  -0.00385201  1
  Al0+  Al52  1  -0.00049953  0.50013879  0.33434432  1
  Al0+  Al53  1  -0.00061520  0.50218555  0.66637645  1
  Al0+  Al54  1  0.50009680  -0.00024583  -0.00306407  1
  Al0+  Al55  1  0.49853474  -0.00010541  0.32711975  1
  Al0+  Al56  1  0.49798215  -0.00162136  0.67363327  1
  Al0+  Al57  1  0.49869508  0.49787313  0.00700607  1
  Al0+  Al58  1  0.49924781  0.49853589  0.33557431  1
  Al0+  Al59  1  0.50209970  0.50055493  0.66332477  1
  Al0+  Al60  1  0.25257074  0.24987960  0.00772015  1
  Al0+  Al61  1  0.25050023  0.24980202  0.32698068  1
  Al0+  Al62  1  0.25047535  0.24973853  0.67308991  1
  Al0+  Al63  1  0.25058198  0.75164516  0.00070299  1
  Al0+  Al64  1  0.25086791  0.74957492  0.33199565  1
  Al0+  Al65  1  0.25054640  0.75115052  0.66712547  1
  Al0+  Al66  1  0.75151432  0.24802411  -0.00285419  1
  Al0+  Al67  1  0.75101601  0.25017375  0.33035116  1
  Al0+  Al68  1  0.75187905  0.24994866  0.65947073  1
  Al0+  Al69  1  0.74911144  0.74991609  -0.00705073  1
  Al0+  Al70  1  0.75002634  0.74900012  0.34278618  1
  Al0+  Al71  1  0.75077643  0.75008044  0.66642893  1
  Al0+  Al72  1  0.07257533  0.67977470  0.98377637  1
  Al0+  Al73  1  0.17482213  0.42883521  0.01745216  1
  Al0+  Al74  1  0.32065472  0.57129455  0.01557030  1
  Al0+  Al75  1  0.67778403  0.93126212  0.34541428  1
  Al0+  Al76  1  0.56959327  0.67794605  0.98840123  1
  Al0+  Al77  1  0.07350800  0.17864087  0.65301519  1
  Al0+  Al78  1  0.31942816  0.07004867  0.68003150  1
  Al0+  Al79  1  0.56995799  0.18062977  0.31978537  1
  Al0+  Al80  1  0.57064960  0.17948628  0.98454321  1
  Al0+  Al81  1  0.43056122  0.81967905  0.31969824  1
  Al0+  Al82  1  0.07174307  0.17768453  0.31840432  1
  Al0+  Al83  1  0.17941103  0.43065971  0.67896936  1
  Al0+  Al84  1  0.56966934  0.17776420  0.65332907  1
  Al0+  Al85  1  0.17912736  0.93260009  0.01337861  1
  Al0+  Al86  1  0.67893271  0.92964059  0.68250214  1
  Al0+  Al87  1  0.07024248  0.67908069  0.32068544  1
  Al0+  Al88  1  0.68096053  0.42878195  0.67919550  1
  Al0+  Al89  1  0.17834153  0.92808171  0.34740014  1
  Al0+  Al90  1  0.93084283  0.32042269  0.98719238  1
  Al0+  Al91  1  0.57152289  0.67752072  0.65148309  1
  Al0+  Al92  1  0.92791378  0.82332025  0.98534982  1
  Al0+  Al93  1  0.92911235  0.32369000  0.64882696  1
  Al0+  Al94  1  0.82063624  0.56942278  0.34640621  1
  Al0+  Al95  1  0.68014686  0.42659747  0.01361558  1
  Si0+  Si96  1  0.07156921  0.68120973  0.65170146  1
  Si0+  Si97  1  0.42744929  0.82234990  0.98115558  1
  Si0+  Si98  1  0.42761284  0.32167621  0.98343804  1
  Si0+  Si99  1  0.42773056  0.32232556  0.65194458  1
  Si0+  Si100  1  0.57386322  0.67654220  0.31806249  1
  Si0+  Si101  1  0.07409575  0.17819470  0.98538781  1
  Si0+  Si102  1  0.32198825  0.57172164  0.35017013  1
  Si0+  Si103  1  0.17514207  0.92604342  0.68292847  1
  Si0+  Si104  1  0.32279879  0.57399995  0.68143108  1
  Si0+  Si105  1  0.82319608  0.07133238  0.68307056  1
  Si0+  Si106  1  0.82027820  0.57406095  0.01511014  1
  Si0+  Si107  1  0.32052485  0.07247508  0.34839120  1
  Si0+  Si108  1  0.92844023  0.82163704  0.64890429  1
  Si0+  Si109  1  0.67881645  0.92736065  0.01420349  1
  Si0+  Si110  1  0.92590883  0.82145253  0.31963667  1
  Si0+  Si111  1  0.42640686  0.32498264  0.31488328  1
  Si0+  Si112  1  0.92940724  0.32196492  0.31537518  1
  Si0+  Si113  1  0.17991279  0.42860194  0.34810733  1
  Si0+  Si114  1  0.82275751  0.57313289  0.68617644  1
  Si0+  Si115  1  0.81956262  0.07024128  0.01427374  1
  Si0+  Si116  1  0.32541583  0.07218826  0.02030609  1
  Si0+  Si117  1  0.42781574  0.82147087  0.65070282  1
  Si0+  Si118  1  0.67707177  0.42619321  0.35057509  1
  Si0+  Si119  1  0.82217653  0.07461584  0.35131463  1
  O2-  O120  1  0.25335022  0.00650554  0.06307900  1
  O2-  O121  1  0.24938743  0.00659263  0.39354172  1
  O2-  O122  1  0.24062438  -0.00149718  0.72540417  1
  O2-  O123  1  0.24450665  0.50380065  0.06718428  1
  O2-  O124  1  0.25154242  0.49924856  0.39123294  1
  O2-  O125  1  0.25435298  0.50529132  0.72491859  1
  O2-  O126  1  0.74947452  -0.00190257  0.05698106  1
  O2-  O127  1  0.75116100  0.00700244  0.39372351  1
  O2-  O128  1  0.75216335  0.00588152  0.72928946  1
  O2-  O129  1  0.75248975  0.50417850  0.05951543  1
  O2-  O130  1  0.74351220  0.49730802  0.39372278  1
  O2-  O131  1  0.75438279  0.50344934  0.72876482  1
  O2-  O132  1  -0.00370115  0.25134386  0.27163042  1
  O2-  O133  1  0.00324677  0.25195337  0.60163560  1
  O2-  O134  1  0.01294450  0.25321995  0.94119279  1
  O2-  O135  1  -0.00246648  0.75635919  0.27531051  1
  O2-  O136  1  0.00215099  0.75284109  0.60785438  1
  O2-  O137  1  0.00066558  0.75250156  0.93410948  1
  O2-  O138  1  0.49941188  0.25922200  0.27301039  1
  O2-  O139  1  0.49703382  0.25465924  0.60635355  1
  O2-  O140  1  0.49564271  0.25339612  0.93772738  1
  O2-  O141  1  0.50529442  0.74455490  0.27318162  1
  O2-  O142  1  0.49663452  0.75283652  0.60627641  1
  O2-  O143  1  0.49530506  0.75200631  0.93872385  1
  O2-  O144  1  0.06853491  0.17570741  0.09119218  1
  O2-  O145  1  0.07352161  0.18108146  0.43128302  1
  O2-  O146  1  0.07159809  0.17819403  0.76664495  1
  O2-  O147  1  0.06980234  0.68139813  0.09762739  1
  O2-  O148  1  0.06927524  0.67880508  0.43454659  1
  O2-  O149  1  0.07186437  0.68220898  0.75628692  1
  O2-  O150  1  0.57087355  0.17902685  0.09798921  1
  O2-  O151  1  0.56701171  0.17949834  0.43295993  1
  O2-  O152  1  0.56827987  0.17807749  0.76624114  1
  O2-  O153  1  0.57152295  0.68243779  0.10176992  1
  O2-  O154  1  0.57163711  0.67694917  0.42377796  1
  O2-  O155  1  0.56930794  0.67603570  0.76470122  1
  O2-  O156  1  0.17973773  0.42981259  0.24345741  1
  O2-  O157  1  0.18171575  0.43217934  0.56493156  1
  O2-  O158  1  0.17734701  0.42877714  0.90367586  1
  O2-  O159  1  0.17980840  0.92728339  0.23444483  1
  O2-  O160  1  0.17739114  0.92211468  0.57732440  1
  O2-  O161  1  0.18044694  0.93590461  0.89992219  1
  O2-  O162  1  0.67807889  0.42530289  0.24490255  1
  O2-  O163  1  0.68210088  0.43102989  0.56584479  1
  O2-  O164  1  0.68108869  0.42563799  0.90051821  1
  O2-  O165  1  0.68025388  0.93077196  0.23186984  1
  O2-  O166  1  0.67883321  0.93096458  0.56899877  1
  O2-  O167  1  0.67943900  0.92827367  0.90918538  1
  O2-  O168  1  0.42898656  0.31962965  0.08937829  1
  O2-  O169  1  0.42283073  0.32575571  0.42049594  1
  O2-  O170  1  0.42831262  0.32203762  0.75727232  1
  O2-  O171  1  0.42973165  0.82357304  0.08706140  1
  O2-  O172  1  0.43138949  0.81926136  0.43311678  1
  O2-  O173  1  0.42617498  0.81994272  0.75608334  1
  O2-  O174  1  0.92895931  0.31580784  0.10061628  1
  O2-  O175  1  0.93024481  0.32228476  0.42076718  1
  O2-  O176  1  0.92944737  0.32197247  0.76246047  1
  O2-  O177  1  0.92563415  0.82198578  0.09912345  1
  O2-  O178  1  0.92639930  0.81911182  0.42557823  1
  O2-  O179  1  0.92819142  0.82217835  0.75379017  1
  O2-  O180  1  0.32083136  0.07109306  0.24294896  1
  O2-  O181  1  0.32117875  0.06700738  0.56667619  1
  O2-  O182  1  0.32634262  0.07122775  0.91452253  1
  O2-  O183  1  0.32356115  0.57170140  0.24566050  1
  O2-  O184  1  0.31996313  0.57549878  0.57526944  1
  O2-  O185  1  0.32163253  0.56689286  0.90162513  1
  O2-  O186  1  0.82209453  0.07498911  0.24530123  1
  O2-  O187  1  0.82465276  0.06701210  0.57739942  1
  O2-  O188  1  0.81891059  0.07034715  0.90933334  1
  O2-  O189  1  0.82018831  0.56905268  0.23327232  1
  O2-  O190  1  0.82270752  0.57326622  0.58003105  1
  O2-  O191  1  0.81867037  0.57530578  0.90967583  1
  O2-  O192  1  0.03929250  0.08041538  0.26609146  1
  O2-  O193  1  0.04459016  0.07987043  0.59943014  1
  O2-  O194  1  0.04216649  0.08783227  0.93744816  1
  O2-  O195  1  0.03775171  0.58303496  0.26708134  1
  O2-  O196  1  0.04246260  0.59027029  0.60332020  1
  O2-  O197  1  0.04312611  0.58200936  0.93068557  1
  O2-  O198  1  0.53686412  0.08630853  0.26296834  1
  O2-  O199  1  0.53405667  0.08085373  0.60229833  1
  O2-  O200  1  0.54006600  0.08221982  0.93129101  1
  O2-  O201  1  0.54923254  0.58141617  0.27456948  1
  O2-  O202  1  0.54133308  0.58234942  0.59390290  1
  O2-  O203  1  0.53784697  0.57999790  0.93721841  1
  O2-  O204  1  0.16775265  0.20729199  0.26280800  1
  O2-  O205  1  0.17278247  0.20706674  0.60128547  1
  O2-  O206  1  0.17216502  0.19557100  0.94623960  1
  O2-  O207  1  0.16734871  0.70714259  0.26787611  1
  O2-  O208  1  0.16461921  0.70680442  0.60434255  1
  O2-  O209  1  0.17104004  0.70883775  0.93124829  1
  O2-  O210  1  0.66825777  0.20754975  0.26610043  1
  O2-  O211  1  0.66630434  0.20517864  0.59789739  1
  O2-  O212  1  0.66714065  0.20904421  0.93117202  1
  O2-  O213  1  0.66828525  0.70280106  0.27493657  1
  O2-  O214  1  0.66876056  0.70924938  0.59931671  1
  O2-  O215  1  0.66403994  0.70849740  0.93055458  1
  O2-  O216  1  0.07484883  0.45494760  0.06838095  1
  O2-  O217  1  0.08857617  0.45687775  0.39579013  1
  O2-  O218  1  0.08318905  0.46352168  0.73172728  1
  O2-  O219  1  0.08176547  0.96179971  0.06774915  1
  O2-  O220  1  0.07993790  0.95426202  0.40063177  1
  O2-  O221  1  0.07962854  0.94747941  0.72622389  1
  O2-  O222  1  0.58368958  0.45338640  0.06932510  1
  O2-  O223  1  0.58172351  0.44679545  0.39567740  1
  O2-  O224  1  0.58275676  0.45842136  0.73139108  1
  O2-  O225  1  0.58622745  0.95545680  0.06014009  1
  O2-  O226  1  0.58060580  0.96330103  0.39819426  1
  O2-  O227  1  0.58268252  0.95689031  0.73786302  1
  O2-  O228  1  0.20597902  0.33076816  0.07126865  1
  O2-  O229  1  0.20969046  0.33618893  0.39379636  1
  O2-  O230  1  0.20840325  0.33528275  0.73516432  1
  O2-  O231  1  0.20997834  0.83578923  0.06658215  1
  O2-  O232  1  0.21309735  0.83243608  0.40182917  1
  O2-  O233  1  0.20520632  0.83429807  0.73119943  1
  O2-  O234  1  0.71589319  0.33112711  0.06775698  1
  O2-  O235  1  0.70640575  0.33314067  0.39621030  1
  O2-  O236  1  0.71130550  0.33034726  0.73023088  1
  O2-  O237  1  0.70671069  0.83537052  0.06098386  1
  O2-  O238  1  0.70717616  0.83555961  0.40247047  1
  O2-  O239  1  0.71319758  0.83305856  0.73465899  1
  O2-  O240  1  0.44963290  0.41974063  0.26940757  1
  O2-  O241  1  0.45067710  0.41588752  0.60386418  1
  O2-  O242  1  0.45133324  0.41585815  0.93954076  1
  O2-  O243  1  0.45973194  0.91466393  0.26221028  1
  O2-  O244  1  0.45523612  0.91453674  0.60529343  1
  O2-  O245  1  0.45454302  0.91533187  0.93477345  1
  O2-  O246  1  0.95772360  0.41449278  0.26933806  1
  O2-  O247  1  0.95689082  0.42325958  0.59728481  1
  O2-  O248  1  0.95146391  0.41852045  0.93252980  1
  O2-  O249  1  0.94531243  0.91710354  0.27598494  1
  O2-  O250  1  0.95247169  0.91346402  0.59973204  1
  O2-  O251  1  0.95636192  0.92172531  0.93127775  1
  O2-  O252  1  0.33556676  0.29626254  0.26514263  1
  O2-  O253  1  0.33467431  0.29472185  0.60572313  1
  O2-  O254  1  0.33289537  0.29571952  0.93894382  1
  O2-  O255  1  0.33530142  0.78661853  0.26487714  1
  O2-  O256  1  0.33397194  0.79651476  0.60306994  1
  O2-  O257  1  0.33370390  0.79985904  0.93519981  1
  O2-  O258  1  0.83524608  0.29818212  0.26931346  1
  O2-  O259  1  0.83312798  0.29296293  0.59226675  1
  O2-  O260  1  0.83809188  0.28142270  0.93139051  1
  O2-  O261  1  0.83279637  0.79212855  0.27437196  1
  O2-  O262  1  0.83772952  0.79110533  0.60092032  1
  O2-  O263  1  0.83111587  0.79432944  0.92883921  1
  O2-  O264  1  0.41836596  0.04190398  0.06597125  1
  O2-  O265  1  0.41314683  0.04236479  0.39387762  1
  O2-  O266  1  0.41210861  0.03490250  0.73923891  1
  O2-  O267  1  0.41603735  0.53916575  0.07385260  1
  O2-  O268  1  0.41407555  0.54446101  0.39900669  1
  O2-  O269  1  0.41715673  0.54866792  0.72483962  1
  O2-  O270  1  0.91114307  0.04401246  0.06334802  1
  O2-  O271  1  0.91430113  0.04737845  0.39941875  1
  O2-  O272  1  0.91559788  0.04196006  0.73040222  1
  O2-  O273  1  0.91410448  0.54871415  0.06019111  1
  O2-  O274  1  0.91624629  0.53671504  0.40307270  1
  O2-  O275  1  0.91701615  0.54980452  0.73116339  1
  O2-  O276  1  0.30624254  0.16681883  0.06642445  1
  O2-  O277  1  0.29817499  0.16786735  0.39299821  1
  O2-  O278  1  0.29360255  0.16610247  0.73778751  1
  O2-  O279  1  0.29776625  0.67192098  0.06640295  1
  O2-  O280  1  0.29296850  0.66235020  0.39878982  1
  O2-  O281  1  0.29791923  0.66747540  0.72821548  1
  O2-  O282  1  0.78943964  0.15990997  0.06440632  1
  O2-  O283  1  0.79844696  0.16913984  0.39623682  1
  O2-  O284  1  0.80058672  0.16692019  0.72495784  1
  O2-  O285  1  0.79237747  0.66729565  0.06153413  1
  O2-  O286  1  0.79320352  0.66477771  0.40559629  1
  O2-  O287  1  0.79752548  0.66705893  0.73075415  1
