# generated using pymatgen
data_Ca2Al2SiO7
_symmetry_space_group_name_H-M   'P 1'
_cell_length_a   15.45748016
_cell_length_b   15.45859110
_cell_length_c   15.28435564
_cell_angle_alpha   90.00673439
_cell_angle_beta   89.99575745
_cell_angle_gamma   90.00507245
_symmetry_Int_Tables_number   1
_chemical_formula_structural   Ca2Al2SiO7
_chemical_formula_sum   'Ca48 Al48 Si24 O168'
_cell_volume   3652.20995580
_cell_formula_units_Z   24
loop_
 _symmetry_equiv_pos_site_id
 _symmetry_equiv_pos_as_xyz
  1  'x, y, z'
loop_
 _atom_type_symbol
 _atom_type_oxidation_number
  Ca2+  2.0
  Al0+  0.0
  Si0+  0.0
  O2-  -2.0
loop_
 _atom_site_type_symbol
 _atom_site_label
 _atom_site_symmetry_multiplicity
 _atom_site_fract_x
 _atom_site_fract_y
 _atom_site_fract_z
 _atom_site_occupancy
  Ca2+  Ca0  1  0.17414300  0.08073184  0.16265175  1
  Ca2+  Ca1  1  0.16344352  0.08209335  0.50587799  1
  Ca2+  Ca2  1  0.17084645  0.08169134  0.84197112  1
  Ca2+  Ca3  1  0.16856827  0.58296574  0.16635087  1
  Ca2+  Ca4  1  0.16870581  0.57920141  0.50697094  1
  Ca2+  Ca5  1  0.17923075  0.57084177  0.83828716  1
  Ca2+  Ca6  1  0.67162782  0.07717634  0.17744149  1
  Ca2+  Ca7  1  0.67725212  0.08289704  0.50241337  1
  Ca2+  Ca8  1  0.67091387  0.09379209  0.83190875  1
  Ca2+  Ca9  1  0.66605214  0.57346206  0.17123529  1
  Ca2+  Ca10  1  0.67243951  0.57416348  0.50160606  1
  Ca2+  Ca11  1  0.66138101  0.57257796  0.83972041  1
  Ca2+  Ca12  1  0.06919310  0.33886574  0.15941415  1
  Ca2+  Ca13  1  0.08139994  0.32820120  0.49480458  1
  Ca2+  Ca14  1  0.08179942  0.33552212  0.82796636  1
  Ca2+  Ca15  1  0.08084648  0.82963158  0.16626632  1
  Ca2+  Ca16  1  0.07586944  0.82334418  0.48803566  1
  Ca2+  Ca17  1  0.08855610  0.83474414  0.83252704  1
  Ca2+  Ca18  1  0.58298461  0.33644808  0.15823577  1
  Ca2+  Ca19  1  0.58722596  0.33586502  0.50218071  1
  Ca2+  Ca20  1  0.57295108  0.33818833  0.82767057  1
  Ca2+  Ca21  1  0.57753632  0.83041980  0.15957067  1
  Ca2+  Ca22  1  0.57795615  0.83390959  0.49022894  1
  Ca2+  Ca23  1  0.57767037  0.82552543  0.83393817  1
  Ca2+  Ca24  1  0.33288634  0.42033819  0.16393396  1
  Ca2+  Ca25  1  0.32726695  0.42407504  0.51396971  1
  Ca2+  Ca26  1  0.32969720  0.41655911  0.84235980  1
  Ca2+  Ca27  1  0.33654230  0.91413567  0.16638428  1
  Ca2+  Ca28  1  0.33436648  0.91568988  0.50152914  1
  Ca2+  Ca29  1  0.32932225  0.92520554  0.84677528  1
  Ca2+  Ca30  1  0.82525128  0.41546433  0.17538263  1
  Ca2+  Ca31  1  0.82663386  0.41282445  0.49801697  1
  Ca2+  Ca32  1  0.82106431  0.40942068  0.83864485  1
  Ca2+  Ca33  1  0.82689966  0.92140945  0.18002248  1
  Ca2+  Ca34  1  0.83606071  0.92378524  0.50159184  1
  Ca2+  Ca35  1  0.83362232  0.92659204  0.83603860  1
  Ca2+  Ca36  1  0.41983063  0.17170344  0.15686896  1
  Ca2+  Ca37  1  0.42278106  0.17557492  0.50021498  1
  Ca2+  Ca38  1  0.41681309  0.17792593  0.82723357  1
  Ca2+  Ca39  1  0.42222120  0.67445852  0.15606534  1
  Ca2+  Ca40  1  0.41528592  0.66998276  0.49429994  1
  Ca2+  Ca41  1  0.41252665  0.66249853  0.83635957  1
  Ca2+  Ca42  1  0.90941021  0.17761487  0.16472665  1
  Ca2+  Ca43  1  0.91592065  0.16756913  0.49652693  1
  Ca2+  Ca44  1  0.92285784  0.17162709  0.82710891  1
  Ca2+  Ca45  1  0.91673670  0.66465913  0.16798286  1
  Ca2+  Ca46  1  0.92271935  0.66644911  0.48606813  1
  Ca2+  Ca47  1  0.91871761  0.66980985  0.83088012  1
  Al0+  Al48  1  0.00038663  0.00070727  0.00520123  1
  Al0+  Al49  1  0.00348829  -0.00097808  0.33212488  1
  Al0+  Al50  1  -0.00150601  0.00141422  0.66756141  1
  Al0+  Al51  1  -0.00138663  0.50172128  -0.00511024  1
  Al0+  Al52  1  0.00089356  0.49709473  0.32893805  1
  Al0+  Al53  1  -0.00049607  0.50182380  0.66944749  1
  Al0+  Al54  1  0.50197779  -0.00067202  -0.00183897  1
  Al0+  Al55  1  0.49941847  0.00217825  0.33425962  1
  Al0+  Al56  1  0.50059232  -0.00033261  0.66306187  1
  Al0+  Al57  1  0.50059141  0.49892773  0.00155003  1
  Al0+  Al58  1  0.49753353  0.50008509  0.33793459  1
  Al0+  Al59  1  0.50103183  0.50394645  0.66739821  1
  Al0+  Al60  1  0.24876290  0.24848010  0.00667546  1
  Al0+  Al61  1  0.25128842  0.24946073  0.33282507  1
  Al0+  Al62  1  0.24871640  0.24891601  0.66010304  1
  Al0+  Al63  1  0.24855372  0.75055411  0.00258290  1
  Al0+  Al64  1  0.25067498  0.75050092  0.32617204  1
  Al0+  Al65  1  0.24877421  0.74965465  0.66915603  1
  Al0+  Al66  1  0.75161218  0.25133114  -0.00028734  1
  Al0+  Al67  1  0.74946204  0.24761531  0.33728421  1
  Al0+  Al68  1  0.75022497  0.24901180  0.67156822  1
  Al0+  Al69  1  0.75078011  0.75079029  -0.00645740  1
  Al0+  Al70  1  0.74909315  0.74765355  0.33685421  1
  Al0+  Al71  1  0.74808574  0.75207828  0.66635403  1
  Al0+  Al72  1  0.32092934  0.57287117  0.68127652  1
  Al0+  Al73  1  0.42903208  0.32405423  0.65116500  1
  Al0+  Al74  1  0.43109270  0.82222299  0.31954852  1
  Al0+  Al75  1  0.57227483  0.17864134  0.65006608  1
  Al0+  Al76  1  0.17819726  0.42623052  0.68012342  1
  Al0+  Al77  1  0.92861198  0.32266033  0.98454143  1
  Al0+  Al78  1  0.17592378  0.42745020  0.01648945  1
  Al0+  Al79  1  0.32409661  0.07119691  0.01440950  1
  Al0+  Al80  1  0.67642256  0.42796751  0.34952003  1
  Al0+  Al81  1  0.42849837  0.31890314  0.98885138  1
  Al0+  Al82  1  0.82352944  0.56941163  0.34676014  1
  Al0+  Al83  1  0.17778146  0.92832444  0.01713450  1
  Al0+  Al84  1  0.68063574  0.42972545  0.01341290  1
  Al0+  Al85  1  0.57158707  0.67848537  0.98464887  1
  Al0+  Al86  1  0.07114686  0.67674875  0.31671970  1
  Al0+  Al87  1  0.82338311  0.06955997  0.34839182  1
  Al0+  Al88  1  0.32151180  0.56949793  0.01746257  1
  Al0+  Al89  1  0.68153009  0.43052044  0.68192296  1
  Al0+  Al90  1  0.92676553  0.82117358  0.31857517  1
  Al0+  Al91  1  0.42749159  0.82174647  0.98306127  1
  Al0+  Al92  1  0.07062628  0.17884445  0.65384398  1
  Al0+  Al93  1  0.67670011  0.92736321  0.34748290  1
  Al0+  Al94  1  0.92938892  0.31658195  0.32096029  1
  Al0+  Al95  1  0.82050075  0.06926259  0.68267755  1
  Si0+  Si96  1  0.68097333  0.92756691  0.01293596  1
  Si0+  Si97  1  0.17906596  0.93002497  0.67909136  1
  Si0+  Si98  1  0.32119752  0.07293854  0.35110366  1
  Si0+  Si99  1  0.92833348  0.82184516  0.65283333  1
  Si0+  Si100  1  0.57393750  0.17693312  0.98491887  1
  Si0+  Si101  1  0.17952353  0.42745400  0.34781951  1
  Si0+  Si102  1  0.92960331  0.82323123  0.98382246  1
  Si0+  Si103  1  0.32212771  0.07001216  0.67882753  1
  Si0+  Si104  1  0.31856967  0.57177752  0.34775904  1
  Si0+  Si105  1  0.07618379  0.17621446  0.31383614  1
  Si0+  Si106  1  0.42787635  0.82023749  0.65198559  1
  Si0+  Si107  1  0.56956447  0.18125587  0.31882452  1
  Si0+  Si108  1  0.06983613  0.68079651  0.65319781  1
  Si0+  Si109  1  0.92799062  0.32305496  0.65046523  1
  Si0+  Si110  1  0.57116865  0.67541665  0.31848924  1
  Si0+  Si111  1  0.82048899  0.07072710  0.01540827  1
  Si0+  Si112  1  0.82209620  0.57534092  0.01453645  1
  Si0+  Si113  1  0.06957851  0.17786711  0.98525623  1
  Si0+  Si114  1  0.42774411  0.32241335  0.31787554  1
  Si0+  Si115  1  0.67570231  0.92691001  0.68583680  1
  Si0+  Si116  1  0.82234508  0.57602543  0.68409694  1
  Si0+  Si117  1  0.57252233  0.67992265  0.64902858  1
  Si0+  Si118  1  0.07121759  0.67932751  0.98157916  1
  Si0+  Si119  1  0.18210448  0.92816124  0.34948325  1
  O2-  O120  1  0.25551717  -0.00440071  0.06520570  1
  O2-  O121  1  0.25052105  0.00104662  0.39319146  1
  O2-  O122  1  0.24963281  0.00077445  0.72120389  1
  O2-  O123  1  0.24844496  0.49845768  0.06795355  1
  O2-  O124  1  0.24866508  0.50007807  0.39025137  1
  O2-  O125  1  0.25588284  0.49307743  0.72886001  1
  O2-  O126  1  0.74859769  0.00070034  0.05628748  1
  O2-  O127  1  0.75461221  -0.00664707  0.39746597  1
  O2-  O128  1  0.74307661  -0.00283411  0.73004130  1
  O2-  O129  1  0.75521486  0.50526254  0.05813449  1
  O2-  O130  1  0.75039454  0.49928456  0.39778353  1
  O2-  O131  1  0.75647612  0.50546560  0.72869352  1
  O2-  O132  1  0.00339704  0.24149707  0.27202673  1
  O2-  O133  1  -0.00013431  0.25715408  0.60682232  1
  O2-  O134  1  0.00660297  0.25060191  0.93921971  1
  O2-  O135  1  -0.00411864  0.74669976  0.26770668  1
  O2-  O136  1  -0.00505524  0.74718883  0.61051670  1
  O2-  O137  1  0.00107429  0.75302640  0.94054160  1
  O2-  O138  1  0.50206114  0.25492074  0.27619364  1
  O2-  O139  1  0.50274510  0.25355714  0.59988935  1
  O2-  O140  1  0.50155344  0.24235089  0.94243446  1
  O2-  O141  1  0.50864640  0.75006259  0.27484513  1
  O2-  O142  1  0.49910728  0.75005247  0.60879254  1
  O2-  O143  1  0.49653861  0.74721143  0.93261434  1
  O2-  O144  1  0.06486711  0.17502181  0.09072321  1
  O2-  O145  1  0.07967710  0.17851151  0.41965861  1
  O2-  O146  1  0.06827836  0.17356059  0.76659039  1
  O2-  O147  1  0.06890254  0.67800027  0.08636788  1
  O2-  O148  1  0.07382179  0.67988815  0.43128921  1
  O2-  O149  1  0.07021451  0.68423944  0.75812663  1
  O2-  O150  1  0.57584493  0.17736801  0.09093738  1
  O2-  O151  1  0.56719816  0.17992550  0.42365813  1
  O2-  O152  1  0.56810503  0.17694316  0.76367980  1
  O2-  O153  1  0.57483970  0.68260882  0.09827857  1
  O2-  O154  1  0.56541881  0.67342492  0.42439597  1
  O2-  O155  1  0.57665913  0.68195897  0.75362019  1
  O2-  O156  1  0.18177540  0.42578028  0.24320784  1
  O2-  O157  1  0.17599559  0.43113484  0.56578543  1
  O2-  O158  1  0.17647588  0.42863258  0.90289804  1
  O2-  O159  1  0.18304585  0.92804367  0.24496555  1
  O2-  O160  1  0.18028760  0.92830332  0.57383902  1
  O2-  O161  1  0.17470780  0.93322991  0.90259490  1
  O2-  O162  1  0.67510156  0.42875616  0.23602553  1
  O2-  O163  1  0.68409242  0.43253342  0.56897698  1
  O2-  O164  1  0.68158025  0.42874901  0.90030700  1
  O2-  O165  1  0.67478138  0.93299555  0.23335263  1
  O2-  O166  1  0.67701149  0.92411271  0.58065460  1
  O2-  O167  1  0.68415196  0.92689995  0.90776209  1
  O2-  O168  1  0.43205073  0.31797792  0.10258962  1
  O2-  O169  1  0.42422376  0.32045271  0.42273833  1
  O2-  O170  1  0.42751800  0.32061175  0.76472375  1
  O2-  O171  1  0.43352322  0.82255245  0.09656193  1
  O2-  O172  1  0.42828326  0.81898945  0.43363296  1
  O2-  O173  1  0.42743976  0.82163719  0.75642025  1
  O2-  O174  1  0.92554701  0.31888353  0.09767360  1
  O2-  O175  1  0.93264622  0.31583487  0.43428156  1
  O2-  O176  1  0.92872569  0.32073107  0.75617588  1
  O2-  O177  1  0.92741685  0.82309132  0.08828797  1
  O2-  O178  1  0.93343154  0.82238449  0.43276934  1
  O2-  O179  1  0.93050143  0.82223469  0.75836669  1
  O2-  O180  1  0.32117364  0.07480051  0.24655226  1
  O2-  O181  1  0.32182805  0.06648567  0.57335859  1
  O2-  O182  1  0.32079376  0.07188948  0.90018832  1
  O2-  O183  1  0.32014575  0.57042754  0.24323184  1
  O2-  O184  1  0.31453485  0.57824566  0.56701348  1
  O2-  O185  1  0.31894400  0.56744690  0.90390728  1
  O2-  O186  1  0.81775022  0.07171141  0.23437776  1
  O2-  O187  1  0.82351475  0.06496668  0.57019062  1
  O2-  O188  1  0.82195241  0.06893467  0.91014392  1
  O2-  O189  1  0.82263015  0.56695063  0.23318049  1
  O2-  O190  1  0.82232804  0.57910996  0.57889075  1
  O2-  O191  1  0.82093073  0.57735964  0.90856378  1
  O2-  O192  1  0.05664682  0.08068540  0.27047584  1
  O2-  O193  1  0.03661994  0.08283066  0.59813630  1
  O2-  O194  1  0.03890688  0.08561462  0.93790791  1
  O2-  O195  1  0.04709183  0.57794604  0.26357545  1
  O2-  O196  1  0.04565216  0.58779735  0.60618072  1
  O2-  O197  1  0.04100953  0.59000099  0.93075535  1
  O2-  O198  1  0.53813525  0.09102884  0.27024453  1
  O2-  O199  1  0.54247642  0.08017303  0.59634926  1
  O2-  O200  1  0.55490906  0.08224751  0.93864968  1
  O2-  O201  1  0.53819058  0.58420145  0.27131069  1
  O2-  O202  1  0.54670989  0.58879509  0.60035302  1
  O2-  O203  1  0.54382925  0.57976163  0.93296175  1
  O2-  O204  1  0.16868180  0.20576721  0.26726231  1
  O2-  O205  1  0.16687450  0.20241576  0.59522171  1
  O2-  O206  1  0.16594836  0.19689325  0.94332846  1
  O2-  O207  1  0.16673137  0.71102803  0.26215412  1
  O2-  O208  1  0.15987883  0.71305850  0.60438954  1
  O2-  O209  1  0.16247893  0.70792943  0.93430439  1
  O2-  O210  1  0.66241795  0.20455120  0.27191839  1
  O2-  O211  1  0.67271336  0.20521250  0.60040018  1
  O2-  O212  1  0.66599678  0.20630659  0.93799484  1
  O2-  O213  1  0.66746966  0.69192294  0.27601119  1
  O2-  O214  1  0.66351873  0.71040587  0.60040011  1
  O2-  O215  1  0.66831833  0.71064248  0.92800641  1
  O2-  O216  1  0.07669264  0.46043847  0.06597185  1
  O2-  O217  1  0.08739964  0.45293353  0.39451818  1
  O2-  O218  1  0.08095056  0.45894450  0.73363300  1
  O2-  O219  1  0.08149117  0.96156011  0.07257439  1
  O2-  O220  1  0.08992124  0.95376891  0.39744005  1
  O2-  O221  1  0.08753506  0.95684185  0.72699263  1
  O2-  O222  1  0.58492615  0.45902754  0.06853750  1
  O2-  O223  1  0.57829718  0.45753888  0.40371098  1
  O2-  O224  1  0.58446644  0.46301610  0.73340906  1
  O2-  O225  1  0.58826934  0.95179779  0.05918506  1
  O2-  O226  1  0.58035168  0.96209203  0.40235643  1
  O2-  O227  1  0.58089280  0.95098210  0.73001980  1
  O2-  O228  1  0.19929528  0.32868938  0.07008151  1
  O2-  O229  1  0.20928324  0.33581335  0.39555954  1
  O2-  O230  1  0.19948880  0.32444075  0.72863705  1
  O2-  O231  1  0.19933273  0.82871702  0.06870111  1
  O2-  O232  1  0.21269523  0.83670179  0.39689801  1
  O2-  O233  1  0.20683357  0.83922655  0.72827599  1
  O2-  O234  1  0.71244864  0.33307025  0.06754109  1
  O2-  O235  1  0.70571509  0.32991807  0.40194537  1
  O2-  O236  1  0.71014172  0.33382653  0.73618644  1
  O2-  O237  1  0.71226640  0.83697891  0.06005390  1
  O2-  O238  1  0.69487266  0.82627034  0.39840952  1
  O2-  O239  1  0.70445076  0.83443894  0.73328780  1
  O2-  O240  1  0.45214072  0.41601902  0.27303247  1
  O2-  O241  1  0.45518784  0.42427658  0.60000619  1
  O2-  O242  1  0.46056422  0.41444124  0.93503757  1
  O2-  O243  1  0.45736824  0.92093638  0.26758508  1
  O2-  O244  1  0.45464794  0.91164377  0.60275411  1
  O2-  O245  1  0.45902400  0.91971021  0.92948300  1
  O2-  O246  1  0.96020789  0.41184956  0.26530960  1
  O2-  O247  1  0.94868818  0.41930885  0.60729271  1
  O2-  O248  1  0.95342591  0.42026681  0.92950579  1
  O2-  O249  1  0.95909790  0.91890804  0.26543307  1
  O2-  O250  1  0.96062246  0.91148624  0.60503540  1
  O2-  O251  1  0.95877870  0.91553954  0.93715484  1
  O2-  O252  1  0.33763833  0.29035559  0.26958326  1
  O2-  O253  1  0.33180838  0.29304817  0.59611724  1
  O2-  O254  1  0.33004255  0.28936999  0.93751938  1
  O2-  O255  1  0.33617672  0.79052323  0.26446474  1
  O2-  O256  1  0.33535674  0.79211410  0.60466427  1
  O2-  O257  1  0.32611677  0.79842610  0.93377757  1
  O2-  O258  1  0.83180507  0.28576104  0.26779413  1
  O2-  O259  1  0.83584679  0.29229288  0.60575453  1
  O2-  O260  1  0.83421237  0.28575678  0.92957513  1
  O2-  O261  1  0.82593038  0.79733460  0.26826246  1
  O2-  O262  1  0.83434028  0.79982329  0.60752399  1
  O2-  O263  1  0.83961712  0.79551664  0.93225442  1
  O2-  O264  1  0.42432608  0.04597968  0.06622379  1
  O2-  O265  1  0.41222428  0.04481216  0.39929482  1
  O2-  O266  1  0.41310479  0.04072973  0.72625691  1
  O2-  O267  1  0.41945505  0.54109312  0.07062138  1
  O2-  O268  1  0.40939507  0.54483300  0.39772677  1
  O2-  O269  1  0.42278523  0.55645338  0.72953113  1
  O2-  O270  1  0.91084310  0.04234698  0.06391279  1
  O2-  O271  1  0.92488530  0.04642302  0.39842087  1
  O2-  O272  1  0.91545841  0.03390613  0.73856761  1
  O2-  O273  1  0.91670598  0.55220283  0.05775884  1
  O2-  O274  1  0.92240461  0.53968390  0.39965536  1
  O2-  O275  1  0.91709641  0.55442579  0.72976765  1
  O2-  O276  1  0.29208914  0.16589028  0.07270152  1
  O2-  O277  1  0.29196720  0.16427150  0.39948016  1
  O2-  O278  1  0.29497306  0.16249115  0.72360623  1
  O2-  O279  1  0.29358705  0.66915291  0.06752587  1
  O2-  O280  1  0.29008618  0.66427334  0.39383126  1
  O2-  O281  1  0.28484909  0.66827097  0.73683559  1
  O2-  O282  1  0.79206398  0.16231523  0.06194629  1
  O2-  O283  1  0.78965671  0.16475043  0.40389704  1
  O2-  O284  1  0.79243341  0.16551302  0.73819219  1
  O2-  O285  1  0.79680076  0.66950548  0.05982778  1
  O2-  O286  1  0.79945081  0.66849412  0.40107502  1
  O2-  O287  1  0.79537475  0.66980689  0.73033593  1
