# generated using pymatgen
data_Ca2Al2SiO7
_symmetry_space_group_name_H-M   'P 1'
_cell_length_a   15.46031349
_cell_length_b   15.46034041
_cell_length_c   15.28546989
_cell_angle_alpha   90.00846953
_cell_angle_beta   89.99389198
_cell_angle_gamma   89.98820308
_symmetry_Int_Tables_number   1
_chemical_formula_structural   Ca2Al2SiO7
_chemical_formula_sum   'Ca48 Al48 Si24 O168'
_cell_volume   3653.55900331
_cell_formula_units_Z   24
loop_
 _symmetry_equiv_pos_site_id
 _symmetry_equiv_pos_as_xyz
  1  'x, y, z'
loop_
 _atom_type_symbol
 _atom_type_oxidation_number
  Ca2+  2.0
  Al0+  0.0
  Si0+  0.0
  O2-  -2.0
loop_
 _atom_site_type_symbol
 _atom_site_label
 _atom_site_symmetry_multiplicity
 _atom_site_fract_x
 _atom_site_fract_y
 _atom_site_fract_z
 _atom_site_occupancy
  Ca2+  Ca0  1  0.16183506  0.08405969  0.16652434  1
  Ca2+  Ca1  1  0.16954179  0.08242210  0.50267570  1
  Ca2+  Ca2  1  0.16373633  0.08303114  0.83931378  1
  Ca2+  Ca3  1  0.17113456  0.57894322  0.17087837  1
  Ca2+  Ca4  1  0.17631935  0.57272423  0.50607327  1
  Ca2+  Ca5  1  0.17021830  0.57810220  0.84007830  1
  Ca2+  Ca6  1  0.67214614  0.08309926  0.16921689  1
  Ca2+  Ca7  1  0.66952149  0.08250803  0.51181375  1
  Ca2+  Ca8  1  0.67826172  0.08175093  0.83208829  1
  Ca2+  Ca9  1  0.66741689  0.58510366  0.17211296  1
  Ca2+  Ca10  1  0.66437023  0.57697780  0.50407727  1
  Ca2+  Ca11  1  0.66800159  0.57614649  0.83309550  1
  Ca2+  Ca12  1  0.07841786  0.33665470  0.15880603  1
  Ca2+  Ca13  1  0.07668309  0.34298524  0.49771294  1
  Ca2+  Ca14  1  0.07728022  0.33765084  0.83076791  1
  Ca2+  Ca15  1  0.07632171  0.82657903  0.15774140  1
  Ca2+  Ca16  1  0.07002310  0.83337393  0.49704723  1
  Ca2+  Ca17  1  0.07575100  0.82742913  0.83179556  1
  Ca2+  Ca18  1  0.57570213  0.33213920  0.16875486  1
  Ca2+  Ca19  1  0.58548763  0.32404439  0.49404924  1
  Ca2+  Ca20  1  0.58529782  0.32799629  0.82368381  1
  Ca2+  Ca21  1  0.57727835  0.82400038  0.16301970  1
  Ca2+  Ca22  1  0.58086567  0.82920926  0.49819131  1
  Ca2+  Ca23  1  0.57331033  0.83748807  0.82609527  1
  Ca2+  Ca24  1  0.32118108  0.42296233  0.17701292  1
  Ca2+  Ca25  1  0.33029505  0.42283733  0.50682215  1
  Ca2+  Ca26  1  0.32187176  0.42749569  0.84159573  1
  Ca2+  Ca27  1  0.33417166  0.91448742  0.16663608  1
  Ca2+  Ca28  1  0.33454854  0.91578344  0.50736687  1
  Ca2+  Ca29  1  0.33730786  0.91438106  0.83844589  1
  Ca2+  Ca30  1  0.83892114  0.41454539  0.16968751  1
  Ca2+  Ca31  1  0.83021154  0.41193390  0.50835055  1
  Ca2+  Ca32  1  0.82904413  0.40365401  0.83418117  1
  Ca2+  Ca33  1  0.84426481  0.92223557  0.16928183  1
  Ca2+  Ca34  1  0.82740563  0.92177902  0.51258163  1
  Ca2+  Ca35  1  0.83974574  0.92481043  0.83719150  1
  Ca2+  Ca36  1  0.41893339  0.17251348  0.16732843  1
  Ca2+  Ca37  1  0.43125858  0.17281907  0.49339033  1
  Ca2+  Ca38  1  0.42562555  0.16834664  0.82480021  1
  Ca2+  Ca39  1  0.41629588  0.66129800  0.16297853  1
  Ca2+  Ca40  1  0.41810885  0.66272911  0.49788368  1
  Ca2+  Ca41  1  0.40639867  0.67335593  0.83028799  1
  Ca2+  Ca42  1  0.92194892  0.17709341  0.15792335  1
  Ca2+  Ca43  1  0.91134738  0.17754155  0.49916199  1
  Ca2+  Ca44  1  0.91629445  0.17081930  0.83215028  1
  Ca2+  Ca45  1  0.92354227  0.67693699  0.15740868  1
  Ca2+  Ca46  1  0.90979786  0.67994110  0.49524363  1
  Ca2+  Ca47  1  0.92179357  0.67325115  0.82999572  1
  Al0+  Al48  1  0.00032621  0.00262684  -0.00022818  1
  Al0+  Al49  1  -0.00092882  0.00252927  0.33359985  1
  Al0+  Al50  1  0.00165864  0.00051442  0.66532606  1
  Al0+  Al51  1  -0.00293756  0.50041931  -0.00471277  1
  Al0+  Al52  1  -0.00020669  0.50338714  0.33465263  1
  Al0+  Al53  1  0.00098526  0.50056471  0.66485035  1
  Al0+  Al54  1  0.50169393  -0.00133331  -0.00048339  1
  Al0+  Al55  1  0.50138568  -0.00125437  0.32925530  1
  Al0+  Al56  1  0.50063336  -0.00051337  0.66161821  1
  Al0+  Al57  1  0.50038409  0.49887420  0.00297839  1
  Al0+  Al58  1  0.50114547  0.49959514  0.32928584  1
  Al0+  Al59  1  0.49950489  0.50133455  0.67704460  1
  Al0+  Al60  1  0.25116746  0.24983906  0.00081112  1
  Al0+  Al61  1  0.24965852  0.24794553  0.33621535  1
  Al0+  Al62  1  0.24957357  0.24957201  0.67039991  1
  Al0+  Al63  1  0.25070729  0.75065743  -0.00221646  1
  Al0+  Al64  1  0.24869152  0.75066870  0.33988478  1
  Al0+  Al65  1  0.24936415  0.75098886  0.66361476  1
  Al0+  Al66  1  0.74978954  0.24679696  0.00422287  1
  Al0+  Al67  1  0.75218977  0.24896009  0.32481752  1
  Al0+  Al68  1  0.75162070  0.24850180  0.66695046  1
  Al0+  Al69  1  0.74652508  0.74938005  -0.00383593  1
  Al0+  Al70  1  0.74752139  0.75254648  0.32473116  1
  Al0+  Al71  1  0.74685483  0.74968051  0.66747280  1
  Al0+  Al72  1  0.92833518  0.82276933  0.31951785  1
  Al0+  Al73  1  0.17716749  0.42738512  0.68435387  1
  Al0+  Al74  1  0.32329799  0.57075170  0.35053591  1
  Al0+  Al75  1  0.67695753  0.92731195  0.68131763  1
  Al0+  Al76  1  0.32077963  0.57237784  0.68416362  1
  Al0+  Al77  1  0.56915576  0.67891270  0.32060541  1
  Al0+  Al78  1  0.07369903  0.18027473  0.98522883  1
  Al0+  Al79  1  0.43132232  0.81942177  0.98722191  1
  Al0+  Al80  1  0.32017543  0.57261461  0.01754364  1
  Al0+  Al81  1  0.17652113  0.42854287  0.01658090  1
  Al0+  Al82  1  0.93122177  0.31984976  0.65254428  1
  Al0+  Al83  1  0.42780430  0.32079749  0.31985411  1
  Al0+  Al84  1  0.57281010  0.17673972  0.31584263  1
  Al0+  Al85  1  0.57110763  0.18091937  0.65446978  1
  Al0+  Al86  1  0.92761608  0.32100108  0.98383649  1
  Al0+  Al87  1  0.17643233  0.42716362  0.35007508  1
  Al0+  Al88  1  0.93132155  0.32308040  0.32014795  1
  Al0+  Al89  1  0.68093711  0.42837917  0.67790987  1
  Al0+  Al90  1  0.92805806  0.82112048  0.65290732  1
  Al0+  Al91  1  0.42874185  0.81979224  0.65176951  1
  Al0+  Al92  1  0.82260037  0.07009857  0.68160037  1
  Al0+  Al93  1  0.92723650  0.82258494  0.98429676  1
  Al0+  Al94  1  0.82120144  0.06853886  0.01702408  1
  Al0+  Al95  1  0.07132293  0.67850684  0.98506344  1
  Si0+  Si96  1  0.56993176  0.17900569  0.98430623  1
  Si0+  Si97  1  0.82233203  0.57384990  0.68169556  1
  Si0+  Si98  1  0.32176623  0.06988189  0.68065419  1
  Si0+  Si99  1  0.42993885  0.32127852  0.98459315  1
  Si0+  Si100  1  0.68208029  0.42841312  0.34578030  1
  Si0+  Si101  1  0.32492265  0.07110635  0.01505523  1
  Si0+  Si102  1  0.42758509  0.32300622  0.65376741  1
  Si0+  Si103  1  0.07159430  0.67865362  0.64696676  1
  Si0+  Si104  1  0.81880710  0.57307669  0.01453461  1
  Si0+  Si105  1  0.57193894  0.67412713  0.98038246  1
  Si0+  Si106  1  0.18020035  0.93070389  0.01416624  1
  Si0+  Si107  1  0.32369769  0.06948844  0.34864140  1
  Si0+  Si108  1  0.67629234  0.92721071  0.01871217  1
  Si0+  Si109  1  0.07241882  0.17740897  0.31836594  1
  Si0+  Si110  1  0.81974419  0.57446405  0.34573756  1
  Si0+  Si111  1  0.07525293  0.17699246  0.64824170  1
  Si0+  Si112  1  0.82002441  0.07102007  0.34898581  1
  Si0+  Si113  1  0.17936632  0.92990531  0.68171559  1
  Si0+  Si114  1  0.42537951  0.82176013  0.31739366  1
  Si0+  Si115  1  0.57145825  0.67501444  0.65098090  1
  Si0+  Si116  1  0.67962316  0.42710303  0.01726720  1
  Si0+  Si117  1  0.17783963  0.93035205  0.34862271  1
  Si0+  Si118  1  0.67850035  0.92844741  0.34757937  1
  Si0+  Si119  1  0.07183347  0.68097503  0.31815587  1
  O2-  O120  1  0.25120537  0.00230039  0.05670152  1
  O2-  O121  1  0.25244742  -0.00180913  0.39062831  1
  O2-  O122  1  0.25067619  0.00019210  0.72456001  1
  O2-  O123  1  0.24803226  0.50088475  0.06699385  1
  O2-  O124  1  0.25296447  0.49587049  0.39858526  1
  O2-  O125  1  0.24909876  0.49984119  0.73284621  1
  O2-  O126  1  0.75031984  -0.01049143  0.06426909  1
  O2-  O127  1  0.74782905  0.00086592  0.39026039  1
  O2-  O128  1  0.75407916  -0.00616113  0.73094945  1
  O2-  O129  1  0.75000123  0.49968536  0.05792331  1
  O2-  O130  1  0.75326576  0.49923098  0.38860541  1
  O2-  O131  1  0.75675113  0.50171670  0.72570136  1
  O2-  O132  1  0.01063561  0.25255132  0.27566871  1
  O2-  O133  1  0.00825860  0.24768508  0.60478380  1
  O2-  O134  1  0.00389777  0.25327711  0.93454508  1
  O2-  O135  1  0.00320702  0.74915117  0.27298893  1
  O2-  O136  1  -0.00121392  0.74406038  0.60316755  1
  O2-  O137  1  -0.00253825  0.74907767  0.93495307  1
  O2-  O138  1  0.49891593  0.24793792  0.26767479  1
  O2-  O139  1  0.49839622  0.25753084  0.60785216  1
  O2-  O140  1  0.50041502  0.25049494  0.94113614  1
  O2-  O141  1  0.48961554  0.74877929  0.27416197  1
  O2-  O142  1  0.50284630  0.74410439  0.60690470  1
  O2-  O143  1  0.50233763  0.74280889  0.93846997  1
  O2-  O144  1  0.07159728  0.17865241  0.09921034  1
  O2-  O145  1  0.06894327  0.17036241  0.42369591  1
  O2-  O146  1  0.07649480  0.17448711  0.75325701  1
  O2-  O147  1  0.07028510  0.68210155  0.09929479  1
  O2-  O148  1  0.06983308  0.68398908  0.42368189  1
  O2-  O149  1  0.07183990  0.68177897  0.75240747  1
  O2-  O150  1  0.56769163  0.17916974  0.08944088  1
  O2-  O151  1  0.57361020  0.17717396  0.42942615  1
  O2-  O152  1  0.56887937  0.18153386  0.76796753  1
  O2-  O153  1  0.57336689  0.67500745  0.08633023  1
  O2-  O154  1  0.57316814  0.68141892  0.43336767  1
  O2-  O155  1  0.57246972  0.67397125  0.75623753  1
  O2-  O156  1  0.17487556  0.42969692  0.23676413  1
  O2-  O157  1  0.17912215  0.42787260  0.57071292  1
  O2-  O158  1  0.18007398  0.42822171  0.90338029  1
  O2-  O159  1  0.17721894  0.93115314  0.24355639  1
  O2-  O160  1  0.17960728  0.93211099  0.57599407  1
  O2-  O161  1  0.18169753  0.93163896  0.90902628  1
  O2-  O162  1  0.68320670  0.42967877  0.24041899  1
  O2-  O163  1  0.68100115  0.42892390  0.56434991  1
  O2-  O164  1  0.67885735  0.42614280  0.91207475  1
  O2-  O165  1  0.67855737  0.92842802  0.24256942  1
  O2-  O166  1  0.67717092  0.92928920  0.56690659  1
  O2-  O167  1  0.67140928  0.93207188  0.91384603  1
  O2-  O168  1  0.43177836  0.31937736  0.08968105  1
  O2-  O169  1  0.43185304  0.31862627  0.43366754  1
  O2-  O170  1  0.42918119  0.31787000  0.75962887  1
  O2-  O171  1  0.43356800  0.82256396  0.10042410  1
  O2-  O172  1  0.42834467  0.82558323  0.42271537  1
  O2-  O173  1  0.42922692  0.82181602  0.76468119  1
  O2-  O174  1  0.92672207  0.31918083  0.09770135  1
  O2-  O175  1  0.92626181  0.31959799  0.43304945  1
  O2-  O176  1  0.92880821  0.31673639  0.76481350  1
  O2-  O177  1  0.93131819  0.82107151  0.09835433  1
  O2-  O178  1  0.92761475  0.82257892  0.43277498  1
  O2-  O179  1  0.93257273  0.82096277  0.76535914  1
  O2-  O180  1  0.32402836  0.06821999  0.24341258  1
  O2-  O181  1  0.32054221  0.06857317  0.57519481  1
  O2-  O182  1  0.32876197  0.06905430  0.91001336  1
  O2-  O183  1  0.32004237  0.57274299  0.23730038  1
  O2-  O184  1  0.32184787  0.57042645  0.57046173  1
  O2-  O185  1  0.31993122  0.57160928  0.90435173  1
  O2-  O186  1  0.82136422  0.06920491  0.24402744  1
  O2-  O187  1  0.81993899  0.07074999  0.56724063  1
  O2-  O188  1  0.81854040  0.07053744  0.90444709  1
  O2-  O189  1  0.81776788  0.57494582  0.24055048  1
  O2-  O190  1  0.81898984  0.57573686  0.57553825  1
  O2-  O191  1  0.81538121  0.57587141  0.90968716  1
  O2-  O192  1  0.04030745  0.08709284  0.26881359  1
  O2-  O193  1  0.04953361  0.08382682  0.60077560  1
  O2-  O194  1  0.04451572  0.08219361  0.93250402  1
  O2-  O195  1  0.04583859  0.58813690  0.27206405  1
  O2-  O196  1  0.04985489  0.58422135  0.60183725  1
  O2-  O197  1  0.04184106  0.58199220  0.93034930  1
  O2-  O198  1  0.54378031  0.07856093  0.26224428  1
  O2-  O199  1  0.53732837  0.08658502  0.59821692  1
  O2-  O200  1  0.54049221  0.08776436  0.93777906  1
  O2-  O201  1  0.54614612  0.58196719  0.26400434  1
  O2-  O202  1  0.54455338  0.58109558  0.60532642  1
  O2-  O203  1  0.54852186  0.57916561  0.93632422  1
  O2-  O204  1  0.16914326  0.19208022  0.27545668  1
  O2-  O205  1  0.17033711  0.19984946  0.60268417  1
  O2-  O206  1  0.17520510  0.19996398  0.93394954  1
  O2-  O207  1  0.16534450  0.70878511  0.27324920  1
  O2-  O208  1  0.16255393  0.71050102  0.59942224  1
  O2-  O209  1  0.16767801  0.71131867  0.93149653  1
  O2-  O210  1  0.66901423  0.20734734  0.26067169  1
  O2-  O211  1  0.66687998  0.21093379  0.59951674  1
  O2-  O212  1  0.66195546  0.20747621  0.93939544  1
  O2-  O213  1  0.66164628  0.71485213  0.26061891  1
  O2-  O214  1  0.66481330  0.69892236  0.60327756  1
  O2-  O215  1  0.66459883  0.69929941  0.93327286  1
  O2-  O216  1  0.07526914  0.45548893  0.06463760  1
  O2-  O217  1  0.07897757  0.46151780  0.40344929  1
  O2-  O218  1  0.07779146  0.45659862  0.73449942  1
  O2-  O219  1  0.08961461  0.95931260  0.06355060  1
  O2-  O220  1  0.08793882  0.96340177  0.39788409  1
  O2-  O221  1  0.08875974  0.95838228  0.73005951  1
  O2-  O222  1  0.58801338  0.45513912  0.06531587  1
  O2-  O223  1  0.59024674  0.45563680  0.39235142  1
  O2-  O224  1  0.58625760  0.45774562  0.73684009  1
  O2-  O225  1  0.58568370  0.95997936  0.06829997  1
  O2-  O226  1  0.58510776  0.95310323  0.39370458  1
  O2-  O227  1  0.57986886  0.96197445  0.73354325  1
  O2-  O228  1  0.20701806  0.32907001  0.06792247  1
  O2-  O229  1  0.19801827  0.32531750  0.39993945  1
  O2-  O230  1  0.20382165  0.32777363  0.73612534  1
  O2-  O231  1  0.20962571  0.84030406  0.06308227  1
  O2-  O232  1  0.20135642  0.83908832  0.39891174  1
  O2-  O233  1  0.20679197  0.83823869  0.72796557  1
  O2-  O234  1  0.70664899  0.33591314  0.06591875  1
  O2-  O235  1  0.71073138  0.33558782  0.39094756  1
  O2-  O236  1  0.71195355  0.33310032  0.73409847  1
  O2-  O237  1  0.69413873  0.82983260  0.06036314  1
  O2-  O238  1  0.70799320  0.83678190  0.39426042  1
  O2-  O239  1  0.69587286  0.82636884  0.73239889  1
  O2-  O240  1  0.45903616  0.41663862  0.26408109  1
  O2-  O241  1  0.45120605  0.41854009  0.61258457  1
  O2-  O242  1  0.45949949  0.41268674  0.93803020  1
  O2-  O243  1  0.45460507  0.91314663  0.26876401  1
  O2-  O244  1  0.45968380  0.91558392  0.59578220  1
  O2-  O245  1  0.46350358  0.91615783  0.93273274  1
  O2-  O246  1  0.95468798  0.42277065  0.26858688  1
  O2-  O247  1  0.95584242  0.41898392  0.59916771  1
  O2-  O248  1  0.94559506  0.42140723  0.93201598  1
  O2-  O249  1  0.96189509  0.91928246  0.26758149  1
  O2-  O250  1  0.96299910  0.91662185  0.59827209  1
  O2-  O251  1  0.95951787  0.92005731  0.93393026  1
  O2-  O252  1  0.32962016  0.28958073  0.26744200  1
  O2-  O253  1  0.33499343  0.29427685  0.60785866  1
  O2-  O254  1  0.33880609  0.29267007  0.93773186  1
  O2-  O255  1  0.32894360  0.80224563  0.27491175  1
  O2-  O256  1  0.33126370  0.79347401  0.59665981  1
  O2-  O257  1  0.33357949  0.79530565  0.93326229  1
  O2-  O258  1  0.83770185  0.28884166  0.26290476  1
  O2-  O259  1  0.83540220  0.28612769  0.59799337  1
  O2-  O260  1  0.82907955  0.28587609  0.93420614  1
  O2-  O261  1  0.83316632  0.79339038  0.26336709  1
  O2-  O262  1  0.82945761  0.79227049  0.60088574  1
  O2-  O263  1  0.82690991  0.79745420  0.93456878  1
  O2-  O264  1  0.41447312  0.03905561  0.06513648  1
  O2-  O265  1  0.41569616  0.04044070  0.39564624  1
  O2-  O266  1  0.41291624  0.04058311  0.72781138  1
  O2-  O267  1  0.42041184  0.54327704  0.06765032  1
  O2-  O268  1  0.42413657  0.54397195  0.40003848  1
  O2-  O269  1  0.41892440  0.54853849  0.73959518  1
  O2-  O270  1  0.91907909  0.04099605  0.07128729  1
  O2-  O271  1  0.91173048  0.04368245  0.39684766  1
  O2-  O272  1  0.92273381  0.04474619  0.73238890  1
  O2-  O273  1  0.91124242  0.54791149  0.06150798  1
  O2-  O274  1  0.91257011  0.55394273  0.39359899  1
  O2-  O275  1  0.91745947  0.55278751  0.72473298  1
  O2-  O276  1  0.29936585  0.16289263  0.06342074  1
  O2-  O277  1  0.29667417  0.15997619  0.39861960  1
  O2-  O278  1  0.29673656  0.16142434  0.72967461  1
  O2-  O279  1  0.29440335  0.67306360  0.06835939  1
  O2-  O280  1  0.29493797  0.67024507  0.40317638  1
  O2-  O281  1  0.28975528  0.67217365  0.73283341  1
  O2-  O282  1  0.78495187  0.16305987  0.07291428  1
  O2-  O283  1  0.79149063  0.16388077  0.39380006  1
  O2-  O284  1  0.78874994  0.16574608  0.73563218  1
  O2-  O285  1  0.78844159  0.66405784  0.06386901  1
  O2-  O286  1  0.78592303  0.66523098  0.39236689  1
  O2-  O287  1  0.79311149  0.66480393  0.73083618  1
