# generated using pymatgen
data_Ca2Al2SiO7
_symmetry_space_group_name_H-M   'P 1'
_cell_length_a   15.45980361
_cell_length_b   15.45919680
_cell_length_c   15.28484496
_cell_angle_alpha   90.01486067
_cell_angle_beta   90.00649082
_cell_angle_gamma   89.98781360
_symmetry_Int_Tables_number   1
_chemical_formula_structural   Ca2Al2SiO7
_chemical_formula_sum   'Ca48 Al48 Si24 O168'
_cell_volume   3653.01881559
_cell_formula_units_Z   24
loop_
 _symmetry_equiv_pos_site_id
 _symmetry_equiv_pos_as_xyz
  1  'x, y, z'
loop_
 _atom_type_symbol
 _atom_type_oxidation_number
  Ca2+  2.0
  Al0+  0.0
  Si0+  0.0
  O2-  -2.0
loop_
 _atom_site_type_symbol
 _atom_site_label
 _atom_site_symmetry_multiplicity
 _atom_site_fract_x
 _atom_site_fract_y
 _atom_site_fract_z
 _atom_site_occupancy
  Ca2+  Ca0  1  0.16551563  0.08066622  0.16975324  1
  Ca2+  Ca1  1  0.16639914  0.08650281  0.50275901  1
  Ca2+  Ca2  1  0.17085149  0.07481333  0.84191681  1
  Ca2+  Ca3  1  0.16597060  0.57729186  0.16269406  1
  Ca2+  Ca4  1  0.17755085  0.57958967  0.50905737  1
  Ca2+  Ca5  1  0.17384588  0.58267208  0.84197631  1
  Ca2+  Ca6  1  0.65552683  0.07210588  0.16537733  1
  Ca2+  Ca7  1  0.66709657  0.07947283  0.50819430  1
  Ca2+  Ca8  1  0.66613376  0.08518875  0.83854702  1
  Ca2+  Ca9  1  0.66014176  0.57704055  0.16842155  1
  Ca2+  Ca10  1  0.65791652  0.57208520  0.50163671  1
  Ca2+  Ca11  1  0.67020110  0.57201938  0.84249565  1
  Ca2+  Ca12  1  0.07967096  0.33027797  0.15653442  1
  Ca2+  Ca13  1  0.07407720  0.32856958  0.49489175  1
  Ca2+  Ca14  1  0.07053774  0.34422516  0.83361880  1
  Ca2+  Ca15  1  0.08119145  0.82678027  0.15583269  1
  Ca2+  Ca16  1  0.07376123  0.83622547  0.50063105  1
  Ca2+  Ca17  1  0.08142644  0.82850019  0.83107765  1
  Ca2+  Ca18  1  0.57721510  0.33522212  0.15738268  1
  Ca2+  Ca19  1  0.57976447  0.33644594  0.49889764  1
  Ca2+  Ca20  1  0.58734857  0.32811113  0.82724572  1
  Ca2+  Ca21  1  0.58693232  0.82624417  0.15614790  1
  Ca2+  Ca22  1  0.58093982  0.82809760  0.49382366  1
  Ca2+  Ca23  1  0.57941358  0.83013569  0.83311261  1
  Ca2+  Ca24  1  0.33289979  0.40831699  0.16848555  1
  Ca2+  Ca25  1  0.34048661  0.42001878  0.50826075  1
  Ca2+  Ca26  1  0.33353847  0.41728573  0.83813545  1
  Ca2+  Ca27  1  0.33133210  0.91216198  0.16324699  1
  Ca2+  Ca28  1  0.33231452  0.91644649  0.50845417  1
  Ca2+  Ca29  1  0.33467947  0.91289738  0.84226643  1
  Ca2+  Ca30  1  0.82249036  0.41831233  0.16305480  1
  Ca2+  Ca31  1  0.82046142  0.41088597  0.50713316  1
  Ca2+  Ca32  1  0.82635901  0.41489603  0.84235258  1
  Ca2+  Ca33  1  0.81752453  0.91411046  0.16873197  1
  Ca2+  Ca34  1  0.82776198  0.92169737  0.50760381  1
  Ca2+  Ca35  1  0.83198739  0.92402072  0.83761636  1
  Ca2+  Ca36  1  0.42354033  0.17740983  0.15833113  1
  Ca2+  Ca37  1  0.42223803  0.17894743  0.49852535  1
  Ca2+  Ca38  1  0.42992231  0.17756807  0.83164518  1
  Ca2+  Ca39  1  0.43199328  0.67228033  0.15893347  1
  Ca2+  Ca40  1  0.42041485  0.66770934  0.49928480  1
  Ca2+  Ca41  1  0.41801009  0.67311387  0.83181566  1
  Ca2+  Ca42  1  0.92066410  0.17266080  0.16250811  1
  Ca2+  Ca43  1  0.91588335  0.16830782  0.50224115  1
  Ca2+  Ca44  1  0.90976442  0.17875091  0.82866564  1
  Ca2+  Ca45  1  0.92102058  0.66146783  0.15572253  1
  Ca2+  Ca46  1  0.91237704  0.67359033  0.50064763  1
  Ca2+  Ca47  1  0.91965464  0.66576783  0.83368247  1
  Al0+  Al48  1  0.00147571  0.00017556  0.00605043  1
  Al0+  Al49  1  -0.00015121  -0.00045858  0.32942761  1
  Al0+  Al50  1  -0.00133087  -0.00163319  0.66755931  1
  Al0+  Al51  1  0.00246273  0.50049605  0.00009281  1
  Al0+  Al52  1  -0.00024860  0.50117623  0.33615673  1
  Al0+  Al53  1  -0.00002411  0.49954984  0.65806091  1
  Al0+  Al54  1  0.49983725  0.00235613  -0.00197045  1
  Al0+  Al55  1  0.49633614  0.00128539  0.33981374  1
  Al0+  Al56  1  0.49855714  -0.00137828  0.65920814  1
  Al0+  Al57  1  0.49910852  0.50287496  -0.00322813  1
  Al0+  Al58  1  0.49901746  0.50202082  0.32940426  1
  Al0+  Al59  1  0.49939917  0.50081187  0.67487878  1
  Al0+  Al60  1  0.25078454  0.24869476  -0.00003192  1
  Al0+  Al61  1  0.24787014  0.24873968  0.32772139  1
  Al0+  Al62  1  0.25054598  0.24856928  0.66646615  1
  Al0+  Al63  1  0.24856535  0.74975893  -0.00011926  1
  Al0+  Al64  1  0.24805196  0.75013107  0.33574182  1
  Al0+  Al65  1  0.25096944  0.74813039  0.66595433  1
  Al0+  Al66  1  0.75215725  0.25096107  -0.00001491  1
  Al0+  Al67  1  0.75021497  0.24934014  0.33578208  1
  Al0+  Al68  1  0.75141766  0.24711596  0.66452968  1
  Al0+  Al69  1  0.75242630  0.75157240  0.00125659  1
  Al0+  Al70  1  0.74948787  0.75062912  0.33509203  1
  Al0+  Al71  1  0.75075631  0.74870455  0.66200206  1
  Al0+  Al72  1  0.67723769  0.92887539  0.34862890  1
  Al0+  Al73  1  0.56990539  0.68177963  0.32024075  1
  Al0+  Al74  1  0.82217757  0.57123938  0.01285435  1
  Al0+  Al75  1  0.06915036  0.17958591  0.31906527  1
  Al0+  Al76  1  0.43019869  0.82051964  0.98704686  1
  Al0+  Al77  1  0.93187995  0.31993826  0.98819724  1
  Al0+  Al78  1  0.18149754  0.42892812  0.01276206  1
  Al0+  Al79  1  0.67901191  0.93132382  0.01050555  1
  Al0+  Al80  1  0.68099532  0.42965486  0.68038197  1
  Al0+  Al81  1  0.32042874  0.57058376  0.68194189  1
  Al0+  Al82  1  0.42706438  0.32339846  0.98443334  1
  Al0+  Al83  1  0.82044839  0.06849663  0.68075102  1
  Al0+  Al84  1  0.42923211  0.32254821  0.65250482  1
  Al0+  Al85  1  0.17907538  0.92796155  0.01416607  1
  Al0+  Al86  1  0.57589702  0.67869294  0.98291367  1
  Al0+  Al87  1  0.92913666  0.32131240  0.65189114  1
  Al0+  Al88  1  0.57249699  0.18070008  0.98641738  1
  Al0+  Al89  1  0.42843055  0.81955302  0.65195261  1
  Al0+  Al90  1  0.43088803  0.32108114  0.31963195  1
  Al0+  Al91  1  0.67829165  0.43000612  0.34706099  1
  Al0+  Al92  1  0.92905848  0.82124271  0.65382450  1
  Al0+  Al93  1  0.07004667  0.67934202  0.98682107  1
  Al0+  Al94  1  0.57262170  0.17887734  0.64967285  1
  Al0+  Al95  1  0.67703140  0.42875868  0.01501143  1
  Si0+  Si96  1  0.67605102  0.92592940  0.68256921  1
  Si0+  Si97  1  0.17955857  0.92933469  0.68078450  1
  Si0+  Si98  1  0.92656817  0.32401079  0.31563563  1
  Si0+  Si99  1  0.07221509  0.17604428  0.65263801  1
  Si0+  Si100  1  0.92973740  0.82002452  0.31734471  1
  Si0+  Si101  1  0.82440965  0.57235367  0.35210838  1
  Si0+  Si102  1  0.57251232  0.67791348  0.65015949  1
  Si0+  Si103  1  0.32156111  0.07125879  0.01792543  1
  Si0+  Si104  1  0.82367944  0.06984512  0.34992975  1
  Si0+  Si105  1  0.17646770  0.42645243  0.68109327  1
  Si0+  Si106  1  0.07254484  0.67833067  0.64793208  1
  Si0+  Si107  1  0.07178612  0.67890561  0.31877693  1
  Si0+  Si108  1  0.17775544  0.42726485  0.34876624  1
  Si0+  Si109  1  0.32184378  0.57384669  0.01884935  1
  Si0+  Si110  1  0.57281199  0.17608645  0.31755368  1
  Si0+  Si111  1  0.82449072  0.57345459  0.68180159  1
  Si0+  Si112  1  0.32216864  0.07102319  0.68180197  1
  Si0+  Si113  1  0.31877389  0.57034350  0.34730129  1
  Si0+  Si114  1  0.82361250  0.07388356  0.01844938  1
  Si0+  Si115  1  0.07265675  0.17567609  0.98280181  1
  Si0+  Si116  1  0.31781856  0.07263115  0.35011069  1
  Si0+  Si117  1  0.42519920  0.82420961  0.31768367  1
  Si0+  Si118  1  0.92824511  0.82480071  0.98437822  1
  Si0+  Si119  1  0.17822270  0.92833143  0.35036568  1
  O2-  O120  1  0.25273016  0.00240585  0.06302057  1
  O2-  O121  1  0.24943154  -0.00157514  0.39328719  1
  O2-  O122  1  0.25156187  -0.00126687  0.72310669  1
  O2-  O123  1  0.25999713  0.49816525  0.06282424  1
  O2-  O124  1  0.24946159  0.49748693  0.39075365  1
  O2-  O125  1  0.24608302  0.49380701  0.72499634  1
  O2-  O126  1  0.75305176  0.00595119  0.06056558  1
  O2-  O127  1  0.75027674  0.00602078  0.39420127  1
  O2-  O128  1  0.74348761  -0.00427858  0.72641047  1
  O2-  O129  1  0.74545497  0.50530775  0.06447848  1
  O2-  O130  1  0.75618795  0.50239824  0.39458414  1
  O2-  O131  1  0.75791006  0.50335875  0.72490226  1
  O2-  O132  1  -0.00394711  0.25535553  0.27268440  1
  O2-  O133  1  0.00668390  0.24751805  0.60792105  1
  O2-  O134  1  0.00513751  0.24447195  0.93868694  1
  O2-  O135  1  -0.00231880  0.74591157  0.27597283  1
  O2-  O136  1  0.00181201  0.74540252  0.60413987  1
  O2-  O137  1  -0.00395408  0.75488890  0.94097766  1
  O2-  O138  1  0.50864729  0.24906655  0.27426439  1
  O2-  O139  1  0.50225358  0.25306393  0.60020833  1
  O2-  O140  1  0.50633234  0.25836711  0.93672975  1
  O2-  O141  1  0.49900746  0.76130335  0.27500835  1
  O2-  O142  1  0.50549167  0.74821941  0.60484598  1
  O2-  O143  1  0.50199762  0.75016821  0.93504037  1
  O2-  O144  1  0.07068199  0.17585641  0.08880823  1
  O2-  O145  1  0.06930153  0.18042825  0.43249625  1
  O2-  O146  1  0.07239001  0.17256167  0.75760396  1
  O2-  O147  1  0.06918155  0.68052446  0.10073058  1
  O2-  O148  1  0.07399227  0.68146816  0.42385179  1
  O2-  O149  1  0.07376330  0.67894014  0.75305831  1
  O2-  O150  1  0.56812998  0.17721836  0.10053022  1
  O2-  O151  1  0.57009512  0.17422854  0.42290840  1
  O2-  O152  1  0.57103978  0.17808824  0.76275948  1
  O2-  O153  1  0.57396270  0.68124690  0.09712932  1
  O2-  O154  1  0.56525798  0.68046642  0.43358677  1
  O2-  O155  1  0.57404382  0.68060712  0.75504964  1
  O2-  O156  1  0.17591146  0.42888659  0.24398456  1
  O2-  O157  1  0.17608905  0.42824298  0.57472284  1
  O2-  O158  1  0.17922068  0.43283681  0.89979064  1
  O2-  O159  1  0.17857664  0.92614139  0.24583987  1
  O2-  O160  1  0.17912418  0.93103641  0.57494655  1
  O2-  O161  1  0.17799190  0.92987526  0.90081345  1
  O2-  O162  1  0.67801872  0.43110249  0.23468602  1
  O2-  O163  1  0.68001805  0.43261504  0.56650530  1
  O2-  O164  1  0.68244288  0.42577706  0.90167565  1
  O2-  O165  1  0.67849922  0.92860482  0.23554068  1
  O2-  O166  1  0.67863343  0.92636868  0.57641569  1
  O2-  O167  1  0.68101348  0.93224415  0.89759185  1
  O2-  O168  1  0.42558247  0.31722854  0.09855576  1
  O2-  O169  1  0.42936958  0.32092482  0.43260568  1
  O2-  O170  1  0.42638282  0.31928434  0.76496024  1
  O2-  O171  1  0.42999589  0.81890366  0.10130267  1
  O2-  O172  1  0.42152978  0.82060407  0.42335803  1
  O2-  O173  1  0.42577229  0.81931274  0.76419859  1
  O2-  O174  1  0.93365475  0.31775710  0.10162924  1
  O2-  O175  1  0.92825146  0.32337242  0.42146480  1
  O2-  O176  1  0.93105860  0.32262312  0.76460699  1
  O2-  O177  1  0.93037930  0.82561627  0.09042821  1
  O2-  O178  1  0.93284454  0.82128443  0.42273770  1
  O2-  O179  1  0.93296992  0.82238151  0.76624340  1
  O2-  O180  1  0.31648359  0.07191551  0.24548240  1
  O2-  O181  1  0.31818332  0.07131735  0.57616579  1
  O2-  O182  1  0.31907799  0.07038020  0.91221977  1
  O2-  O183  1  0.31519163  0.57300109  0.24291511  1
  O2-  O184  1  0.31819165  0.57138864  0.56763932  1
  O2-  O185  1  0.31651899  0.57782761  0.91346870  1
  O2-  O186  1  0.82722104  0.06668267  0.24468898  1
  O2-  O187  1  0.82298537  0.06517108  0.56723681  1
  O2-  O188  1  0.82699073  0.07188045  0.91293362  1
  O2-  O189  1  0.82940972  0.57223439  0.24722765  1
  O2-  O190  1  0.82344246  0.57442120  0.57581521  1
  O2-  O191  1  0.82411032  0.56825896  0.89914185  1
  O2-  O192  1  0.03991097  0.08245377  0.26433681  1
  O2-  O193  1  0.04342055  0.08412138  0.60388582  1
  O2-  O194  1  0.04730013  0.08117689  0.93863402  1
  O2-  O195  1  0.04763411  0.58504214  0.27357045  1
  O2-  O196  1  0.04963052  0.58531222  0.59886827  1
  O2-  O197  1  0.04009449  0.58445945  0.93085216  1
  O2-  O198  1  0.53993139  0.08357869  0.27240386  1
  O2-  O199  1  0.54130052  0.08135499  0.59565166  1
  O2-  O200  1  0.53899938  0.08504777  0.93129399  1
  O2-  O201  1  0.53410599  0.58839808  0.26418180  1
  O2-  O202  1  0.54110542  0.58542038  0.60569236  1
  O2-  O203  1  0.54785508  0.58081794  0.93055852  1
  O2-  O204  1  0.16458604  0.20817632  0.26237849  1
  O2-  O205  1  0.16624757  0.19893736  0.60543775  1
  O2-  O206  1  0.16706077  0.19799919  0.93865601  1
  O2-  O207  1  0.16212938  0.71046630  0.27085008  1
  O2-  O208  1  0.16422047  0.70796547  0.59992271  1
  O2-  O209  1  0.16488928  0.71201926  0.93187298  1
  O2-  O210  1  0.66932881  0.19424353  0.27520192  1
  O2-  O211  1  0.67127615  0.20343069  0.59608609  1
  O2-  O212  1  0.67315017  0.20168396  0.93594502  1
  O2-  O213  1  0.66870294  0.70803886  0.26881219  1
  O2-  O214  1  0.66615607  0.69981732  0.60156345  1
  O2-  O215  1  0.67415503  0.70842181  0.93129420  1
  O2-  O216  1  0.08791783  0.46488801  0.06972401  1
  O2-  O217  1  0.08657018  0.45650486  0.39796472  1
  O2-  O218  1  0.08237299  0.45503173  0.72446686  1
  O2-  O219  1  0.08358372  0.95822357  0.07208843  1
  O2-  O220  1  0.08607955  0.95827883  0.39670119  1
  O2-  O221  1  0.08867733  0.95759271  0.72858505  1
  O2-  O222  1  0.57647729  0.45489447  0.06532768  1
  O2-  O223  1  0.58191559  0.46576624  0.39991849  1
  O2-  O224  1  0.58580385  0.45998381  0.73566699  1
  O2-  O225  1  0.58264202  0.96183471  0.06631425  1
  O2-  O226  1  0.57891261  0.95553577  0.40232927  1
  O2-  O227  1  0.58042569  0.94955584  0.72425204  1
  O2-  O228  1  0.20615404  0.32994383  0.06659741  1
  O2-  O229  1  0.20360444  0.33414947  0.39405186  1
  O2-  O230  1  0.19775531  0.33156964  0.72580972  1
  O2-  O231  1  0.20944567  0.83205837  0.07028940  1
  O2-  O232  1  0.20459409  0.83655562  0.39983029  1
  O2-  O233  1  0.20588466  0.83651193  0.72559297  1
  O2-  O234  1  0.71074292  0.33169004  0.06894533  1
  O2-  O235  1  0.70651861  0.33161711  0.40055019  1
  O2-  O236  1  0.71249683  0.33196331  0.72975205  1
  O2-  O237  1  0.71204598  0.83637906  0.06719197  1
  O2-  O238  1  0.71114439  0.83334932  0.40351648  1
  O2-  O239  1  0.70356432  0.83175294  0.72556464  1
  O2-  O240  1  0.45621562  0.41840059  0.26559868  1
  O2-  O241  1  0.45635956  0.42306540  0.60285318  1
  O2-  O242  1  0.44260389  0.42569044  0.93741987  1
  O2-  O243  1  0.44351824  0.92106043  0.27642334  1
  O2-  O244  1  0.45394355  0.91598840  0.59489261  1
  O2-  O245  1  0.45463982  0.91975429  0.93502462  1
  O2-  O246  1  0.95360366  0.41843761  0.27277804  1
  O2-  O247  1  0.95758273  0.41684893  0.59316075  1
  O2-  O248  1  0.96605569  0.41467407  0.93396274  1
  O2-  O249  1  0.96099162  0.90972324  0.26890476  1
  O2-  O250  1  0.96453834  0.91527576  0.59636376  1
  O2-  O251  1  0.95717374  0.91809715  0.93945291  1
  O2-  O252  1  0.33438580  0.28765462  0.26690528  1
  O2-  O253  1  0.32995517  0.29239340  0.59923534  1
  O2-  O254  1  0.33042142  0.28853292  0.93120774  1
  O2-  O255  1  0.33203041  0.79407006  0.27245734  1
  O2-  O256  1  0.33214145  0.78710024  0.59639289  1
  O2-  O257  1  0.33120946  0.79213541  0.93556289  1
  O2-  O258  1  0.83311128  0.29703229  0.27064747  1
  O2-  O259  1  0.83617964  0.28490042  0.59543676  1
  O2-  O260  1  0.83637240  0.28962514  0.93321165  1
  O2-  O261  1  0.83666610  0.79532785  0.27220918  1
  O2-  O262  1  0.83337376  0.79172907  0.59604559  1
  O2-  O263  1  0.83553707  0.80192809  0.93725577  1
  O2-  O264  1  0.41416651  0.04520567  0.06518959  1
  O2-  O265  1  0.40930190  0.04852577  0.40012838  1
  O2-  O266  1  0.41393448  0.04155751  0.72683368  1
  O2-  O267  1  0.41801326  0.55622408  0.06174194  1
  O2-  O268  1  0.41049300  0.54375904  0.39467773  1
  O2-  O269  1  0.41581456  0.54470756  0.73860910  1
  O2-  O270  1  0.91634779  0.04691771  0.06654795  1
  O2-  O271  1  0.91567096  0.03823031  0.39723556  1
  O2-  O272  1  0.91619947  0.03544934  0.73567729  1
  O2-  O273  1  0.91874351  0.53815429  0.06802050  1
  O2-  O274  1  0.91870897  0.54972161  0.40057645  1
  O2-  O275  1  0.92075843  0.55037475  0.72322060  1
  O2-  O276  1  0.29402192  0.16355878  0.06570060  1
  O2-  O277  1  0.28430298  0.16273193  0.39813018  1
  O2-  O278  1  0.29341001  0.16175814  0.73052857  1
  O2-  O279  1  0.28716766  0.66338216  0.06777738  1
  O2-  O280  1  0.28795997  0.66130108  0.39693367  1
  O2-  O281  1  0.28550253  0.66617960  0.73575055  1
  O2-  O282  1  0.80047278  0.16715655  0.06526676  1
  O2-  O283  1  0.80441308  0.16581890  0.39403027  1
  O2-  O284  1  0.79260457  0.16548717  0.73396740  1
  O2-  O285  1  0.80391090  0.67269743  0.06445508  1
  O2-  O286  1  0.79800176  0.66635454  0.39734946  1
  O2-  O287  1  0.79986375  0.66774056  0.72695898  1
