# generated using pymatgen
data_Ca2Al2SiO7
_symmetry_space_group_name_H-M   'P 1'
_cell_length_a   15.45687094
_cell_length_b   15.45679508
_cell_length_c   15.28317767
_cell_angle_alpha   89.99438518
_cell_angle_beta   89.99656297
_cell_angle_gamma   90.01875830
_symmetry_Int_Tables_number   1
_chemical_formula_structural   Ca2Al2SiO7
_chemical_formula_sum   'Ca48 Al48 Si24 O168'
_cell_volume   3651.36010229
_cell_formula_units_Z   24
loop_
 _symmetry_equiv_pos_site_id
 _symmetry_equiv_pos_as_xyz
  1  'x, y, z'
loop_
 _atom_type_symbol
 _atom_type_oxidation_number
  Ca2+  2.0
  Al0+  0.0
  Si0+  0.0
  O2-  -2.0
loop_
 _atom_site_type_symbol
 _atom_site_label
 _atom_site_symmetry_multiplicity
 _atom_site_fract_x
 _atom_site_fract_y
 _atom_site_fract_z
 _atom_site_occupancy
  Ca2+  Ca0  1  0.15956797  0.07340215  0.16745018  1
  Ca2+  Ca1  1  0.17323475  0.07729582  0.50627897  1
  Ca2+  Ca2  1  0.17564423  0.07778932  0.84353362  1
  Ca2+  Ca3  1  0.17364301  0.59254329  0.17194059  1
  Ca2+  Ca4  1  0.17597903  0.58858801  0.49927783  1
  Ca2+  Ca5  1  0.17662527  0.59222713  0.83883020  1
  Ca2+  Ca6  1  0.67103878  0.08879972  0.16763444  1
  Ca2+  Ca7  1  0.66821786  0.07941005  0.50864375  1
  Ca2+  Ca8  1  0.67642441  0.07569708  0.83490324  1
  Ca2+  Ca9  1  0.68047676  0.57259426  0.17155812  1
  Ca2+  Ca10  1  0.66097936  0.57261916  0.50528119  1
  Ca2+  Ca11  1  0.66671757  0.57566255  0.83971916  1
  Ca2+  Ca12  1  0.07492168  0.32839774  0.15286619  1
  Ca2+  Ca13  1  0.08186791  0.33044935  0.49537279  1
  Ca2+  Ca14  1  0.07595148  0.32945244  0.83463344  1
  Ca2+  Ca15  1  0.09106180  0.82589686  0.16225766  1
  Ca2+  Ca16  1  0.07885203  0.83164753  0.49501237  1
  Ca2+  Ca17  1  0.08122023  0.83276362  0.83290132  1
  Ca2+  Ca18  1  0.58443171  0.33782572  0.16869200  1
  Ca2+  Ca19  1  0.58330972  0.33073511  0.49130335  1
  Ca2+  Ca20  1  0.58753252  0.33634499  0.83028123  1
  Ca2+  Ca21  1  0.57888873  0.82982329  0.16167496  1
  Ca2+  Ca22  1  0.57964616  0.83200283  0.50181638  1
  Ca2+  Ca23  1  0.57942900  0.82500704  0.81883636  1
  Ca2+  Ca24  1  0.33550630  0.42705324  0.17193793  1
  Ca2+  Ca25  1  0.34265239  0.42669815  0.50090522  1
  Ca2+  Ca26  1  0.33387274  0.43083359  0.83794779  1
  Ca2+  Ca27  1  0.32042561  0.92143712  0.16709215  1
  Ca2+  Ca28  1  0.32977122  0.91821913  0.50656557  1
  Ca2+  Ca29  1  0.33467621  0.92502596  0.83964640  1
  Ca2+  Ca30  1  0.83100801  0.42048571  0.16915816  1
  Ca2+  Ca31  1  0.82301646  0.42260634  0.50244010  1
  Ca2+  Ca32  1  0.82195085  0.41891153  0.84311025  1
  Ca2+  Ca33  1  0.83913608  0.92557118  0.16647185  1
  Ca2+  Ca34  1  0.82780134  0.92098156  0.51181391  1
  Ca2+  Ca35  1  0.83490426  0.91970476  0.83288272  1
  Ca2+  Ca36  1  0.42048501  0.17155899  0.16296385  1
  Ca2+  Ca37  1  0.42316765  0.17221179  0.49009246  1
  Ca2+  Ca38  1  0.41306784  0.16532880  0.82743935  1
  Ca2+  Ca39  1  0.41285713  0.66346718  0.16183936  1
  Ca2+  Ca40  1  0.41777236  0.66456777  0.50186087  1
  Ca2+  Ca41  1  0.41822335  0.67028003  0.82332221  1
  Ca2+  Ca42  1  0.91982884  0.17299114  0.15296627  1
  Ca2+  Ca43  1  0.91277009  0.16618777  0.49780732  1
  Ca2+  Ca44  1  0.91567436  0.16272857  0.83403696  1
  Ca2+  Ca45  1  0.92645253  0.65873694  0.15945297  1
  Ca2+  Ca46  1  0.91867161  0.67197801  0.49212951  1
  Ca2+  Ca47  1  0.92085748  0.66836461  0.82896492  1
  Al0+  Al48  1  -0.00040077  -0.00172369  0.00352703  1
  Al0+  Al49  1  -0.00061631  -0.00105948  0.33874532  1
  Al0+  Al50  1  0.00163954  -0.00017012  0.66466414  1
  Al0+  Al51  1  0.00079721  0.49995810  -0.01067746  1
  Al0+  Al52  1  0.00160450  0.50106670  0.33390639  1
  Al0+  Al53  1  0.00000054  0.49691085  0.66342477  1
  Al0+  Al54  1  0.49890645  0.00124300  0.00381459  1
  Al0+  Al55  1  0.50057496  0.00045027  0.32645365  1
  Al0+  Al56  1  0.50044913  -0.00039510  0.66927408  1
  Al0+  Al57  1  0.49993404  0.49949570  0.00735704  1
  Al0+  Al58  1  0.50038811  0.50063328  0.33581867  1
  Al0+  Al59  1  0.49858334  0.49944610  0.67175963  1
  Al0+  Al60  1  0.25217517  0.25151117  -0.00213532  1
  Al0+  Al61  1  0.25105995  0.25009443  0.32739735  1
  Al0+  Al62  1  0.24841753  0.25003415  0.66825008  1
  Al0+  Al63  1  0.25037189  0.75248149  0.00151768  1
  Al0+  Al64  1  0.24866856  0.75166181  0.33960313  1
  Al0+  Al65  1  0.24987295  0.74997301  0.66585574  1
  Al0+  Al66  1  0.74697018  0.24824372  0.00264960  1
  Al0+  Al67  1  0.75053115  0.25033875  0.33294239  1
  Al0+  Al68  1  0.75066855  0.25109304  0.67283895  1
  Al0+  Al69  1  0.74925516  0.74799500  0.00305616  1
  Al0+  Al70  1  0.75047637  0.75343724  0.33325013  1
  Al0+  Al71  1  0.75089508  0.74811840  0.65991158  1
  Al0+  Al72  1  0.17916219  0.93050722  0.01452752  1
  Al0+  Al73  1  0.06984633  0.68140235  0.32025526  1
  Al0+  Al74  1  0.07188741  0.17649791  0.98438627  1
  Al0+  Al75  1  0.82239461  0.07075257  0.68155851  1
  Al0+  Al76  1  0.57262067  0.17824495  0.31726140  1
  Al0+  Al77  1  0.82385285  0.57196197  0.01272658  1
  Al0+  Al78  1  0.92607872  0.32045888  0.98295909  1
  Al0+  Al79  1  0.42827645  0.82309554  0.65150309  1
  Al0+  Al80  1  0.31765117  0.56978062  0.68063623  1
  Al0+  Al81  1  0.67851328  0.42792519  0.01753635  1
  Al0+  Al82  1  0.32025396  0.57063691  0.34846111  1
  Al0+  Al83  1  0.67940403  0.43096456  0.68125268  1
  Al0+  Al84  1  0.93034351  0.82081824  0.65268084  1
  Al0+  Al85  1  0.81952880  0.06815483  0.01397781  1
  Al0+  Al86  1  0.57048857  0.67599095  0.65166550  1
  Al0+  Al87  1  0.32138015  0.07153210  0.67783386  1
  Al0+  Al88  1  0.07246888  0.67992265  0.98529064  1
  Al0+  Al89  1  0.17933500  0.93069312  0.35046150  1
  Al0+  Al90  1  0.82464744  0.57314495  0.34919212  1
  Al0+  Al91  1  0.67870175  0.92574302  0.68024187  1
  Al0+  Al92  1  0.32303225  0.07506588  0.01742886  1
  Al0+  Al93  1  0.68137602  0.42992716  0.35050194  1
  Al0+  Al94  1  0.31859317  0.57127200  0.01370030  1
  Al0+  Al95  1  0.42908372  0.32337372  0.31701637  1
  Si0+  Si96  1  0.92541174  0.82112689  0.98425914  1
  Si0+  Si97  1  0.07153295  0.17970957  0.65019191  1
  Si0+  Si98  1  0.42760002  0.32015004  0.65370289  1
  Si0+  Si99  1  0.43057039  0.32321127  0.98289699  1
  Si0+  Si100  1  0.17771246  0.42832640  0.01391448  1
  Si0+  Si101  1  0.17850036  0.92831101  0.68339677  1
  Si0+  Si102  1  0.43032407  0.82111194  0.98643466  1
  Si0+  Si103  1  0.67582590  0.92886152  0.34765438  1
  Si0+  Si104  1  0.57180458  0.67937572  0.31731878  1
  Si0+  Si105  1  0.81952658  0.07015421  0.34788408  1
  Si0+  Si106  1  0.67644003  0.92637948  0.01727487  1
  Si0+  Si107  1  0.93079314  0.32027890  0.31981123  1
  Si0+  Si108  1  0.92710365  0.31964056  0.64950350  1
  Si0+  Si109  1  0.82489122  0.57208933  0.68163827  1
  Si0+  Si110  1  0.92686226  0.82404383  0.31509176  1
  Si0+  Si111  1  0.56958366  0.17749982  0.98177984  1
  Si0+  Si112  1  0.57026556  0.67856401  0.98749202  1
  Si0+  Si113  1  0.17478030  0.42598285  0.68423884  1
  Si0+  Si114  1  0.57172709  0.18044072  0.65490522  1
  Si0+  Si115  1  0.07244659  0.67599268  0.64833584  1
  Si0+  Si116  1  0.32283518  0.07266517  0.34868129  1
  Si0+  Si117  1  0.07062558  0.17694401  0.32001957  1
  Si0+  Si118  1  0.42831644  0.82074927  0.31714525  1
  Si0+  Si119  1  0.17768317  0.42474790  0.34805318  1
  O2-  O120  1  0.24608280  0.00746934  0.06538820  1
  O2-  O121  1  0.25398309  0.00624765  0.39559704  1
  O2-  O122  1  0.25099312  -0.00647850  0.72564916  1
  O2-  O123  1  0.24203780  0.49912363  0.06094717  1
  O2-  O124  1  0.24811866  0.49145158  0.39268975  1
  O2-  O125  1  0.23991924  0.49825239  0.72727031  1
  O2-  O126  1  0.74616454  -0.00685356  0.06282659  1
  O2-  O127  1  0.74686243  0.00055268  0.38863976  1
  O2-  O128  1  0.75289790  -0.00450077  0.73000231  1
  O2-  O129  1  0.75566383  0.49674137  0.06329209  1
  O2-  O130  1  0.74981614  0.50515702  0.40088166  1
  O2-  O131  1  0.75321445  0.50718618  0.72613884  1
  O2-  O132  1  0.00378378  0.25122722  0.27792713  1
  O2-  O133  1  -0.00129269  0.24882397  0.60684830  1
  O2-  O134  1  -0.00193175  0.24685970  0.93362603  1
  O2-  O135  1  -0.00815658  0.75210729  0.27165136  1
  O2-  O136  1  0.00215610  0.74342685  0.60511205  1
  O2-  O137  1  -0.00692015  0.75100457  0.94058041  1
  O2-  O138  1  0.50063221  0.25047796  0.26725456  1
  O2-  O139  1  0.49815150  0.24845939  0.61215292  1
  O2-  O140  1  0.49878612  0.24933194  0.94004880  1
  O2-  O141  1  0.49919508  0.74924935  0.27445672  1
  O2-  O142  1  0.50041944  0.75073582  0.60132092  1
  O2-  O143  1  0.50255944  0.75184611  0.94432852  1
  O2-  O144  1  0.06826010  0.17897993  0.09889088  1
  O2-  O145  1  0.06893791  0.17748179  0.42559186  1
  O2-  O146  1  0.07340862  0.18101680  0.75456637  1
  O2-  O147  1  0.07474680  0.68248104  0.09840876  1
  O2-  O148  1  0.06987321  0.68471348  0.43342571  1
  O2-  O149  1  0.07280620  0.67653283  0.75388203  1
  O2-  O150  1  0.56898819  0.17600327  0.08670173  1
  O2-  O151  1  0.57169600  0.17617798  0.43159627  1
  O2-  O152  1  0.57175925  0.18235391  0.76006361  1
  O2-  O153  1  0.56894740  0.68103767  0.09297183  1
  O2-  O154  1  0.57125646  0.68080229  0.42218476  1
  O2-  O155  1  0.56709367  0.67515683  0.76588092  1
  O2-  O156  1  0.17551219  0.42426193  0.24282803  1
  O2-  O157  1  0.17440653  0.42291302  0.57851352  1
  O2-  O158  1  0.18249954  0.42795378  0.90822072  1
  O2-  O159  1  0.17906518  0.93162117  0.23783702  1
  O2-  O160  1  0.17749234  0.93166098  0.57744696  1
  O2-  O161  1  0.18317667  0.92874894  0.90089827  1
  O2-  O162  1  0.68489970  0.42960740  0.23748242  1
  O2-  O163  1  0.68017900  0.42772372  0.56844581  1
  O2-  O164  1  0.67586870  0.43195428  0.90368748  1
  O2-  O165  1  0.67592664  0.92724439  0.24248168  1
  O2-  O166  1  0.67791959  0.93142918  0.56611298  1
  O2-  O167  1  0.67501373  0.92676276  0.91208891  1
  O2-  O168  1  0.43189037  0.32505179  0.08764735  1
  O2-  O169  1  0.42925377  0.32073580  0.43143994  1
  O2-  O170  1  0.42701643  0.31963975  0.75892638  1
  O2-  O171  1  0.43148317  0.81957216  0.09210770  1
  O2-  O172  1  0.43065417  0.82343318  0.42193563  1
  O2-  O173  1  0.42855744  0.82157141  0.76550415  1
  O2-  O174  1  0.92875142  0.31914873  0.09746251  1
  O2-  O175  1  0.93062900  0.31720522  0.42541009  1
  O2-  O176  1  0.92769155  0.32052772  0.75388521  1
  O2-  O177  1  0.92465290  0.82190761  0.08981437  1
  O2-  O178  1  0.92837858  0.82706379  0.42063935  1
  O2-  O179  1  0.93387219  0.82162959  0.76583919  1
  O2-  O180  1  0.32147939  0.07100654  0.24355767  1
  O2-  O181  1  0.31785489  0.07487085  0.56455787  1
  O2-  O182  1  0.32541790  0.07019479  0.90358220  1
  O2-  O183  1  0.31808021  0.57214093  0.23537339  1
  O2-  O184  1  0.31791385  0.56730881  0.56751600  1
  O2-  O185  1  0.32044044  0.57106002  0.90065399  1
  O2-  O186  1  0.82168987  0.06909561  0.24292418  1
  O2-  O187  1  0.81905726  0.07261948  0.56724590  1
  O2-  O188  1  0.81820431  0.06582212  0.90137806  1
  O2-  O189  1  0.82590765  0.56885183  0.23587718  1
  O2-  O190  1  0.82769515  0.56754851  0.57619737  1
  O2-  O191  1  0.81849630  0.57547681  0.89905762  1
  O2-  O192  1  0.03732598  0.08640135  0.27385621  1
  O2-  O193  1  0.04606201  0.08787979  0.60158163  1
  O2-  O194  1  0.04411694  0.07687189  0.93382094  1
  O2-  O195  1  0.04571923  0.58208310  0.26752357  1
  O2-  O196  1  0.05024202  0.58054284  0.60340958  1
  O2-  O197  1  0.04916662  0.58329724  0.92779152  1
  O2-  O198  1  0.54569752  0.08026513  0.26115595  1
  O2-  O199  1  0.54706098  0.08781726  0.60794102  1
  O2-  O200  1  0.54121437  0.08494710  0.93537899  1
  O2-  O201  1  0.54470840  0.58752495  0.27096136  1
  O2-  O202  1  0.53503926  0.57890997  0.59876504  1
  O2-  O203  1  0.53940554  0.58705753  0.94204251  1
  O2-  O204  1  0.16378644  0.19775044  0.27299130  1
  O2-  O205  1  0.16182899  0.21121498  0.60028278  1
  O2-  O206  1  0.17110822  0.20588543  0.93254888  1
  O2-  O207  1  0.16650798  0.71673497  0.26832702  1
  O2-  O208  1  0.16531862  0.70366613  0.60217859  1
  O2-  O209  1  0.16752678  0.71726215  0.93076053  1
  O2-  O210  1  0.67161187  0.20687140  0.26470344  1
  O2-  O211  1  0.66303610  0.21072244  0.60745362  1
  O2-  O212  1  0.66146757  0.20438527  0.93484210  1
  O2-  O213  1  0.66310200  0.71020639  0.26962690  1
  O2-  O214  1  0.66972319  0.69821643  0.59774251  1
  O2-  O215  1  0.66294162  0.70328548  0.94014966  1
  O2-  O216  1  0.08160221  0.44882263  0.05531813  1
  O2-  O217  1  0.08551804  0.45144901  0.39688411  1
  O2-  O218  1  0.07952282  0.44744067  0.72887637  1
  O2-  O219  1  0.07998914  0.95212620  0.06906254  1
  O2-  O220  1  0.08282560  0.96204224  0.40533002  1
  O2-  O221  1  0.08703978  0.95863004  0.72975236  1
  O2-  O222  1  0.58312745  0.46152045  0.07270581  1
  O2-  O223  1  0.58176319  0.45642679  0.40152587  1
  O2-  O224  1  0.58283188  0.45884321  0.73632644  1
  O2-  O225  1  0.58435291  0.95468565  0.06515809  1
  O2-  O226  1  0.58367352  0.95692487  0.39407207  1
  O2-  O227  1  0.58194837  0.95565264  0.73499602  1
  O2-  O228  1  0.20452620  0.33560160  0.06077754  1
  O2-  O229  1  0.20055291  0.32968547  0.39417992  1
  O2-  O230  1  0.20348718  0.33422840  0.73167250  1
  O2-  O231  1  0.21565029  0.83587962  0.07018695  1
  O2-  O232  1  0.21178158  0.83642423  0.40651527  1
  O2-  O233  1  0.19838750  0.83276769  0.72664396  1
  O2-  O234  1  0.70075742  0.32784138  0.06824746  1
  O2-  O235  1  0.71217882  0.33101792  0.40233777  1
  O2-  O236  1  0.71220051  0.33603951  0.73674102  1
  O2-  O237  1  0.69915437  0.83230480  0.06382549  1
  O2-  O238  1  0.70297870  0.83786247  0.39623795  1
  O2-  O239  1  0.70460448  0.82540805  0.72996288  1
  O2-  O240  1  0.45808931  0.42225487  0.26493954  1
  O2-  O241  1  0.45739126  0.41120751  0.60702319  1
  O2-  O242  1  0.46227620  0.41466177  0.93586568  1
  O2-  O243  1  0.45657180  0.91136442  0.26697672  1
  O2-  O244  1  0.45679250  0.92188959  0.59777968  1
  O2-  O245  1  0.45680984  0.91425798  0.94091762  1
  O2-  O246  1  0.95749776  0.41222729  0.27312945  1
  O2-  O247  1  0.95552059  0.41073876  0.59978064  1
  O2-  O248  1  0.95500019  0.41693115  0.92596855  1
  O2-  O249  1  0.95734350  0.91730377  0.26981704  1
  O2-  O250  1  0.96275489  0.91712999  0.59675821  1
  O2-  O251  1  0.95311248  0.91402819  0.93838214  1
  O2-  O252  1  0.33010088  0.29729404  0.26266025  1
  O2-  O253  1  0.33521536  0.29422961  0.60581007  1
  O2-  O254  1  0.33791935  0.30005788  0.93463366  1
  O2-  O255  1  0.33626040  0.79150613  0.27217316  1
  O2-  O256  1  0.32931660  0.79473127  0.59871932  1
  O2-  O257  1  0.33973136  0.79265035  0.93864551  1
  O2-  O258  1  0.84058237  0.28983219  0.27203810  1
  O2-  O259  1  0.83594472  0.28949979  0.60178622  1
  O2-  O260  1  0.82650722  0.29076058  0.93319507  1
  O2-  O261  1  0.83103048  0.80648437  0.26986387  1
  O2-  O262  1  0.83355178  0.79499203  0.59606187  1
  O2-  O263  1  0.83077047  0.79731462  0.93840813  1
  O2-  O264  1  0.41917899  0.04146980  0.07212672  1
  O2-  O265  1  0.41734833  0.04540366  0.39206875  1
  O2-  O266  1  0.41833041  0.04600888  0.73269179  1
  O2-  O267  1  0.41328527  0.53827597  0.06942314  1
  O2-  O268  1  0.41721495  0.54191407  0.40248335  1
  O2-  O269  1  0.41191981  0.53570530  0.73646566  1
  O2-  O270  1  0.91540322  0.03912220  0.07021778  1
  O2-  O271  1  0.90997280  0.04159608  0.39788509  1
  O2-  O272  1  0.92239025  0.04453573  0.73136692  1
  O2-  O273  1  0.92502592  0.54578734  0.06035587  1
  O2-  O274  1  0.92215868  0.54249190  0.40310381  1
  O2-  O275  1  0.91811644  0.54325266  0.72745044  1
  O2-  O276  1  0.30208210  0.17651520  0.06595942  1
  O2-  O277  1  0.29893811  0.16779226  0.39268509  1
  O2-  O278  1  0.28763215  0.16682884  0.73311374  1
  O2-  O279  1  0.29056141  0.66827927  0.06721591  1
  O2-  O280  1  0.28677839  0.66542617  0.40378189  1
  O2-  O281  1  0.28988131  0.66790399  0.73353703  1
  O2-  O282  1  0.78695839  0.16354198  0.06865726  1
  O2-  O283  1  0.79407181  0.16225528  0.39531527  1
  O2-  O284  1  0.79200070  0.16728485  0.73574904  1
  O2-  O285  1  0.79381291  0.66876877  0.06910494  1
  O2-  O286  1  0.80027186  0.67521665  0.39629304  1
  O2-  O287  1  0.80494437  0.66788098  0.72363655  1
