# generated using pymatgen
data_Ca2Al2SiO7
_symmetry_space_group_name_H-M   'P 1'
_cell_length_a   15.46292943
_cell_length_b   15.46155242
_cell_length_c   15.28643866
_cell_angle_alpha   89.99456908
_cell_angle_beta   89.99225332
_cell_angle_gamma   90.03615206
_symmetry_Int_Tables_number   1
_chemical_formula_structural   Ca2Al2SiO7
_chemical_formula_sum   'Ca48 Al48 Si24 O168'
_cell_volume   3654.69464017
_cell_formula_units_Z   24
loop_
 _symmetry_equiv_pos_site_id
 _symmetry_equiv_pos_as_xyz
  1  'x, y, z'
loop_
 _atom_type_symbol
 _atom_type_oxidation_number
  Ca2+  2.0
  Al0+  0.0
  Si0+  0.0
  O2-  -2.0
loop_
 _atom_site_type_symbol
 _atom_site_label
 _atom_site_symmetry_multiplicity
 _atom_site_fract_x
 _atom_site_fract_y
 _atom_site_fract_z
 _atom_site_occupancy
  Ca2+  Ca0  1  0.17370568  0.07452863  0.17535024  1
  Ca2+  Ca1  1  0.17160064  0.08544285  0.49397738  1
  Ca2+  Ca2  1  0.17835979  0.07482265  0.84472432  1
  Ca2+  Ca3  1  0.18146124  0.58094698  0.17306231  1
  Ca2+  Ca4  1  0.17871860  0.58023892  0.50053319  1
  Ca2+  Ca5  1  0.17766275  0.58560822  0.83691199  1
  Ca2+  Ca6  1  0.66290559  0.07697849  0.16972332  1
  Ca2+  Ca7  1  0.66232738  0.07331764  0.50778503  1
  Ca2+  Ca8  1  0.66290769  0.08320891  0.83377343  1
  Ca2+  Ca9  1  0.67167585  0.57940201  0.17707372  1
  Ca2+  Ca10  1  0.66989229  0.58298812  0.49829792  1
  Ca2+  Ca11  1  0.67603750  0.57903539  0.84158980  1
  Ca2+  Ca12  1  0.09075124  0.33030449  0.16918266  1
  Ca2+  Ca13  1  0.08365114  0.32977093  0.48706278  1
  Ca2+  Ca14  1  0.08095847  0.33243174  0.82908479  1
  Ca2+  Ca15  1  0.07922264  0.83907904  0.15920109  1
  Ca2+  Ca16  1  0.07987811  0.83420059  0.49309778  1
  Ca2+  Ca17  1  0.07803581  0.83696281  0.83497824  1
  Ca2+  Ca18  1  0.58265825  0.33363128  0.16281992  1
  Ca2+  Ca19  1  0.58197571  0.32883402  0.49153443  1
  Ca2+  Ca20  1  0.59140371  0.32296562  0.83264477  1
  Ca2+  Ca21  1  0.58001264  0.82730458  0.16452923  1
  Ca2+  Ca22  1  0.58265331  0.83162403  0.49508104  1
  Ca2+  Ca23  1  0.56888095  0.83658631  0.82666618  1
  Ca2+  Ca24  1  0.33633260  0.42480864  0.17664860  1
  Ca2+  Ca25  1  0.34044702  0.42549773  0.49496081  1
  Ca2+  Ca26  1  0.33898432  0.43031995  0.83628670  1
  Ca2+  Ca27  1  0.33070203  0.92488017  0.16885066  1
  Ca2+  Ca28  1  0.33196687  0.91752838  0.50088331  1
  Ca2+  Ca29  1  0.33208194  0.91507182  0.84478280  1
  Ca2+  Ca30  1  0.82169261  0.42619039  0.17068592  1
  Ca2+  Ca31  1  0.82995679  0.42637092  0.50152463  1
  Ca2+  Ca32  1  0.82827973  0.42645704  0.84069326  1
  Ca2+  Ca33  1  0.82810088  0.91351745  0.17297283  1
  Ca2+  Ca34  1  0.81774321  0.92107484  0.50434371  1
  Ca2+  Ca35  1  0.82661440  0.91839188  0.83438344  1
  Ca2+  Ca36  1  0.41552897  0.16960352  0.16259802  1
  Ca2+  Ca37  1  0.41915511  0.17213085  0.49171695  1
  Ca2+  Ca38  1  0.42947146  0.16038505  0.83117686  1
  Ca2+  Ca39  1  0.41976252  0.66530918  0.16153486  1
  Ca2+  Ca40  1  0.41790790  0.66952996  0.49303947  1
  Ca2+  Ca41  1  0.40887265  0.67570515  0.82914091  1
  Ca2+  Ca42  1  0.92668364  0.16419960  0.16368946  1
  Ca2+  Ca43  1  0.92169545  0.16334190  0.49404991  1
  Ca2+  Ca44  1  0.91586310  0.16672730  0.82597612  1
  Ca2+  Ca45  1  0.91553125  0.66813328  0.15987495  1
  Ca2+  Ca46  1  0.91277189  0.66315594  0.49369585  1
  Ca2+  Ca47  1  0.91143862  0.66806464  0.83227492  1
  Al0+  Al48  1  -0.00064291  -0.00082634  -0.00423243  1
  Al0+  Al49  1  0.00066436  0.00027170  0.33163350  1
  Al0+  Al50  1  -0.00080599  -0.00056445  0.66773681  1
  Al0+  Al51  1  0.00019481  0.49952641  0.00129281  1
  Al0+  Al52  1  0.00092687  0.50096171  0.33613928  1
  Al0+  Al53  1  -0.00014707  0.49959621  0.66998709  1
  Al0+  Al54  1  0.50055300  -0.00002346  -0.00317125  1
  Al0+  Al55  1  0.49900007  -0.00001914  0.34014109  1
  Al0+  Al56  1  0.49776712  -0.00022738  0.66072033  1
  Al0+  Al57  1  0.50098869  0.49816949  0.00390809  1
  Al0+  Al58  1  0.50261517  0.49980637  0.33309592  1
  Al0+  Al59  1  0.49964719  0.50031247  0.67256687  1
  Al0+  Al60  1  0.25213349  0.25050135  -0.00245723  1
  Al0+  Al61  1  0.25037557  0.24929134  0.33087523  1
  Al0+  Al62  1  0.24943841  0.24948825  0.66726657  1
  Al0+  Al63  1  0.24782871  0.74879184  0.00438709  1
  Al0+  Al64  1  0.24815688  0.75193139  0.33878166  1
  Al0+  Al65  1  0.24779677  0.74959940  0.66500933  1
  Al0+  Al66  1  0.75148486  0.24944765  -0.00001624  1
  Al0+  Al67  1  0.75206328  0.25119478  0.33384524  1
  Al0+  Al68  1  0.75184010  0.24917296  0.66238559  1
  Al0+  Al69  1  0.75104966  0.75140163  -0.00333574  1
  Al0+  Al70  1  0.74855447  0.75183412  0.33641748  1
  Al0+  Al71  1  0.74824896  0.75101661  0.67468082  1
  Al0+  Al72  1  0.57101880  0.18081818  0.65083176  1
  Al0+  Al73  1  0.57036856  0.68124094  0.32089141  1
  Al0+  Al74  1  0.32048320  0.57068864  0.01358135  1
  Al0+  Al75  1  0.82102738  0.57329005  0.01591280  1
  Al0+  Al76  1  0.92755017  0.82182887  0.98465042  1
  Al0+  Al77  1  0.42661791  0.81951514  0.65140699  1
  Al0+  Al78  1  0.17656596  0.92929967  0.35003952  1
  Al0+  Al79  1  0.82125623  0.07088431  0.68122477  1
  Al0+  Al80  1  0.18030407  0.42859629  0.34660773  1
  Al0+  Al81  1  0.57110527  0.17987789  0.98729393  1
  Al0+  Al82  1  0.32446656  0.07116946  0.01403262  1
  Al0+  Al83  1  0.32093796  0.07138204  0.34952952  1
  Al0+  Al84  1  0.68031942  0.42675063  0.01500064  1
  Al0+  Al85  1  0.43148134  0.31980328  0.31980603  1
  Al0+  Al86  1  0.06977407  0.17963246  0.31810155  1
  Al0+  Al87  1  0.82154681  0.57047096  0.68228034  1
  Al0+  Al88  1  0.32055924  0.57133139  0.68105899  1
  Al0+  Al89  1  0.42945806  0.81770953  0.98953200  1
  Al0+  Al90  1  0.67549741  0.93033168  0.68468120  1
  Al0+  Al91  1  0.32386101  0.57252684  0.34804144  1
  Al0+  Al92  1  0.17747503  0.92973155  0.01441975  1
  Al0+  Al93  1  0.82037012  0.57243698  0.34780834  1
  Al0+  Al94  1  0.67840797  0.42702489  0.34993648  1
  Al0+  Al95  1  0.67855497  0.93053102  0.34493415  1
  Si0+  Si96  1  0.57269272  0.67730094  0.65208933  1
  Si0+  Si97  1  0.07162009  0.17827219  0.65157120  1
  Si0+  Si98  1  0.82191371  0.07114818  0.01462087  1
  Si0+  Si99  1  0.57254497  0.67584653  0.98325461  1
  Si0+  Si100  1  0.93098887  0.32181872  0.65078893  1
  Si0+  Si101  1  0.17822635  0.92860818  0.68202600  1
  Si0+  Si102  1  0.67820164  0.42659617  0.68310974  1
  Si0+  Si103  1  0.92777617  0.32518851  0.31432547  1
  Si0+  Si104  1  0.06885825  0.67848152  0.65095234  1
  Si0+  Si105  1  0.07062078  0.67667420  0.98304407  1
  Si0+  Si106  1  0.07219869  0.67804318  0.31857315  1
  Si0+  Si107  1  0.42700887  0.32416264  0.98135024  1
  Si0+  Si108  1  0.17780812  0.42689610  0.68354392  1
  Si0+  Si109  1  0.67878794  0.92997755  0.01398741  1
  Si0+  Si110  1  0.42553611  0.82326299  0.31632512  1
  Si0+  Si111  1  0.93079765  0.31966383  0.98457263  1
  Si0+  Si112  1  0.57394938  0.17569253  0.31727832  1
  Si0+  Si113  1  0.31912866  0.07199727  0.68169445  1
  Si0+  Si114  1  0.17728892  0.42627583  0.01515459  1
  Si0+  Si115  1  0.82318598  0.07213134  0.34653173  1
  Si0+  Si116  1  0.07227118  0.17855426  0.98285287  1
  Si0+  Si117  1  0.92982259  0.81957180  0.32020138  1
  Si0+  Si118  1  0.42675912  0.32355775  0.65042178  1
  Si0+  Si119  1  0.92774397  0.82070200  0.65064536  1
  O2-  O120  1  0.24962011  0.00175050  0.06299348  1
  O2-  O121  1  0.25115915  -0.00245530  0.40097300  1
  O2-  O122  1  0.25032893  -0.00146252  0.72345388  1
  O2-  O123  1  0.24851638  0.49243525  0.05764573  1
  O2-  O124  1  0.25162222  0.50007862  0.39774924  1
  O2-  O125  1  0.24804241  0.49378340  0.72749551  1
  O2-  O126  1  0.75221605  -0.00101881  0.05628767  1
  O2-  O127  1  0.74824509  0.01076317  0.39021962  1
  O2-  O128  1  0.74725238  0.00331855  0.73445104  1
  O2-  O129  1  0.74512496  0.50549729  0.06443031  1
  O2-  O130  1  0.75063630  0.49920297  0.39903133  1
  O2-  O131  1  0.74474877  0.49745150  0.72735139  1
  O2-  O132  1  -0.00438814  0.25488759  0.27042055  1
  O2-  O133  1  0.00111895  0.24964072  0.60918945  1
  O2-  O134  1  0.00335133  0.25112330  0.93944316  1
  O2-  O135  1  0.00096899  0.74931117  0.27712071  1
  O2-  O136  1  -0.00445772  0.74697465  0.60779111  1
  O2-  O137  1  0.00087698  0.74475102  0.93840963  1
  O2-  O138  1  0.50733196  0.24568118  0.27301756  1
  O2-  O139  1  0.49727726  0.25709493  0.60606969  1
  O2-  O140  1  0.49582050  0.25414220  0.93915155  1
  O2-  O141  1  0.49212746  0.75213590  0.27309809  1
  O2-  O142  1  0.50261739  0.74466284  0.60771439  1
  O2-  O143  1  0.50111872  0.74166861  0.93886928  1
  O2-  O144  1  0.07016448  0.17804699  0.08753519  1
  O2-  O145  1  0.06571120  0.17932023  0.43181064  1
  O2-  O146  1  0.07183181  0.18002721  0.75696835  1
  O2-  O147  1  0.06977560  0.67586080  0.08845562  1
  O2-  O148  1  0.07100975  0.67848444  0.42410780  1
  O2-  O149  1  0.07002628  0.68006360  0.75607626  1
  O2-  O150  1  0.57223520  0.17899376  0.10001969  1
  O2-  O151  1  0.57288715  0.17618755  0.42293751  1
  O2-  O152  1  0.57006912  0.18173241  0.76432975  1
  O2-  O153  1  0.57373453  0.67880677  0.08875925  1
  O2-  O154  1  0.57218449  0.68445086  0.43420005  1
  O2-  O155  1  0.57167693  0.67751382  0.75788341  1
  O2-  O156  1  0.18111895  0.43174126  0.23283126  1
  O2-  O157  1  0.17459754  0.42658048  0.57880617  1
  O2-  O158  1  0.17521754  0.42685848  0.90895793  1
  O2-  O159  1  0.17313740  0.93110152  0.23702019  1
  O2-  O160  1  0.17583094  0.92946743  0.57740706  1
  O2-  O161  1  0.17738812  0.93173616  0.89993136  1
  O2-  O162  1  0.68056038  0.42704601  0.23666521  1
  O2-  O163  1  0.67948662  0.42663959  0.57790515  1
  O2-  O164  1  0.68560115  0.42502774  0.90084149  1
  O2-  O165  1  0.68151487  0.92964270  0.23125456  1
  O2-  O166  1  0.67899825  0.93001945  0.57104663  1
  O2-  O167  1  0.67834724  0.93218839  0.90921286  1
  O2-  O168  1  0.42474369  0.32427877  0.08646233  1
  O2-  O169  1  0.43274176  0.31821895  0.43347391  1
  O2-  O170  1  0.42488018  0.32204546  0.75608466  1
  O2-  O171  1  0.43301466  0.81874112  0.10224722  1
  O2-  O172  1  0.42709095  0.82252052  0.42221025  1
  O2-  O173  1  0.42420221  0.81870933  0.76502940  1
  O2-  O174  1  0.93159937  0.31698452  0.08907817  1
  O2-  O175  1  0.92881947  0.32433483  0.42034180  1
  O2-  O176  1  0.93335936  0.32202421  0.75632531  1
  O2-  O177  1  0.92798905  0.82407666  0.09787285  1
  O2-  O178  1  0.93052854  0.81957371  0.42559972  1
  O2-  O179  1  0.93112899  0.82209676  0.75564395  1
  O2-  O180  1  0.32081852  0.06980138  0.23605631  1
  O2-  O181  1  0.31556945  0.07544180  0.57718864  1
  O2-  O182  1  0.32270611  0.06864201  0.89950213  1
  O2-  O183  1  0.32145073  0.57222437  0.23453258  1
  O2-  O184  1  0.31923373  0.57129479  0.56872008  1
  O2-  O185  1  0.31701841  0.57132448  0.89992812  1
  O2-  O186  1  0.82578774  0.06860188  0.24053914  1
  O2-  O187  1  0.82523898  0.06713235  0.56785962  1
  O2-  O188  1  0.82240919  0.07235156  0.90972484  1
  O2-  O189  1  0.81968212  0.57377177  0.23462267  1
  O2-  O190  1  0.82429078  0.56824724  0.56977180  1
  O2-  O191  1  0.82129077  0.56939427  0.90192553  1
  O2-  O192  1  0.03583466  0.08401275  0.26261905  1
  O2-  O193  1  0.04281671  0.08642641  0.60491166  1
  O2-  O194  1  0.04170085  0.08847344  0.93369206  1
  O2-  O195  1  0.04501892  0.58657464  0.27041215  1
  O2-  O196  1  0.04306596  0.58514777  0.60543001  1
  O2-  O197  1  0.04659171  0.58264770  0.93539474  1
  O2-  O198  1  0.54669774  0.08156360  0.27280634  1
  O2-  O199  1  0.53811859  0.08513887  0.59714843  1
  O2-  O200  1  0.53998369  0.08436529  0.93032276  1
  O2-  O201  1  0.54485518  0.58368994  0.26696539  1
  O2-  O202  1  0.54901481  0.58190201  0.60844868  1
  O2-  O203  1  0.55082692  0.58031978  0.93935776  1
  O2-  O204  1  0.16541575  0.20964855  0.26293173  1
  O2-  O205  1  0.16343956  0.20592111  0.60410747  1
  O2-  O206  1  0.16464033  0.20480594  0.93465852  1
  O2-  O207  1  0.16427257  0.70612412  0.27181924  1
  O2-  O208  1  0.15878908  0.70920434  0.60197279  1
  O2-  O209  1  0.16327121  0.70490834  0.93603253  1
  O2-  O210  1  0.66997726  0.19703656  0.27352578  1
  O2-  O211  1  0.66912458  0.20721329  0.59705145  1
  O2-  O212  1  0.66848148  0.21049879  0.93243333  1
  O2-  O213  1  0.66563147  0.71716097  0.26585516  1
  O2-  O214  1  0.66652466  0.70499837  0.60720560  1
  O2-  O215  1  0.66520225  0.70389880  0.93647689  1
  O2-  O216  1  0.08443467  0.45169372  0.06183817  1
  O2-  O217  1  0.08203784  0.45596978  0.40049845  1
  O2-  O218  1  0.08577141  0.45481250  0.73228274  1
  O2-  O219  1  0.07860268  0.96004470  0.06508616  1
  O2-  O220  1  0.07894829  0.96145958  0.40364262  1
  O2-  O221  1  0.08700754  0.95785243  0.72984165  1
  O2-  O222  1  0.57934440  0.44585076  0.06439686  1
  O2-  O223  1  0.58152325  0.45597566  0.40360346  1
  O2-  O224  1  0.58394551  0.44751183  0.73005317  1
  O2-  O225  1  0.58903956  0.96059643  0.06227393  1
  O2-  O226  1  0.58276045  0.95567629  0.40201142  1
  O2-  O227  1  0.57562404  0.95978203  0.73404372  1
  O2-  O228  1  0.19978555  0.33133105  0.05878277  1
  O2-  O229  1  0.20596125  0.32991576  0.39880789  1
  O2-  O230  1  0.20115411  0.33243640  0.73017384  1
  O2-  O231  1  0.20110810  0.83083819  0.06630398  1
  O2-  O232  1  0.19997139  0.83057659  0.40420543  1
  O2-  O233  1  0.20397274  0.83622528  0.72874146  1
  O2-  O234  1  0.71588568  0.33099900  0.06873877  1
  O2-  O235  1  0.70722450  0.32804858  0.40265416  1
  O2-  O236  1  0.70876173  0.33392927  0.72780405  1
  O2-  O237  1  0.70567816  0.83750910  0.05963493  1
  O2-  O238  1  0.71524844  0.83842885  0.40261799  1
  O2-  O239  1  0.70463725  0.83314511  0.73897378  1
  O2-  O240  1  0.46088705  0.41657494  0.26573027  1
  O2-  O241  1  0.45055984  0.41895291  0.60720210  1
  O2-  O242  1  0.45448241  0.41745147  0.93446223  1
  O2-  O243  1  0.45508258  0.91686877  0.27255703  1
  O2-  O244  1  0.45497859  0.91606967  0.59682544  1
  O2-  O245  1  0.46204296  0.91314988  0.93332039  1
  O2-  O246  1  0.95572737  0.41809566  0.26834845  1
  O2-  O247  1  0.96084957  0.41321050  0.60367229  1
  O2-  O248  1  0.95790519  0.41204054  0.93639464  1
  O2-  O249  1  0.95673425  0.91121395  0.27178651  1
  O2-  O250  1  0.95960873  0.91137691  0.60298783  1
  O2-  O251  1  0.96035591  0.91710880  0.92723576  1
  O2-  O252  1  0.33529215  0.28945664  0.26504541  1
  O2-  O253  1  0.33318507  0.29551600  0.60498755  1
  O2-  O254  1  0.33303679  0.30137770  0.93310288  1
  O2-  O255  1  0.32961838  0.80168065  0.27364932  1
  O2-  O256  1  0.32976136  0.78867204  0.59741046  1
  O2-  O257  1  0.33085773  0.78907791  0.93660891  1
  O2-  O258  1  0.83398334  0.29983795  0.26841672  1
  O2-  O259  1  0.83985606  0.29580550  0.60196305  1
  O2-  O260  1  0.84098122  0.28870893  0.93527901  1
  O2-  O261  1  0.83821768  0.79213195  0.27268954  1
  O2-  O262  1  0.83367732  0.79534519  0.60703517  1
  O2-  O263  1  0.83123842  0.79389792  0.92766414  1
  O2-  O264  1  0.42152735  0.04073157  0.06711465  1
  O2-  O265  1  0.41879395  0.04597681  0.40455706  1
  O2-  O266  1  0.41196763  0.04502993  0.72573745  1
  O2-  O267  1  0.41825070  0.54395995  0.06567308  1
  O2-  O268  1  0.42099951  0.54293540  0.40113874  1
  O2-  O269  1  0.41704202  0.54362442  0.73753302  1
  O2-  O270  1  0.91404151  0.04344897  0.06071165  1
  O2-  O271  1  0.91320409  0.04000243  0.39502403  1
  O2-  O272  1  0.91935112  0.04060478  0.73571684  1
  O2-  O273  1  0.91941271  0.54192273  0.06662654  1
  O2-  O274  1  0.91935244  0.54567956  0.40014961  1
  O2-  O275  1  0.91763982  0.53776694  0.73720034  1
  O2-  O276  1  0.29886040  0.17202746  0.06203838  1
  O2-  O277  1  0.28762336  0.16784906  0.40259397  1
  O2-  O278  1  0.28951329  0.16265936  0.73116416  1
  O2-  O279  1  0.28667889  0.66437149  0.06985384  1
  O2-  O280  1  0.29360069  0.66986940  0.40140793  1
  O2-  O281  1  0.28281056  0.66636027  0.73444567  1
  O2-  O282  1  0.79476649  0.16182917  0.06331614  1
  O2-  O283  1  0.80776202  0.16840272  0.39009984  1
  O2-  O284  1  0.79825969  0.17203271  0.73142145  1
  O2-  O285  1  0.79852132  0.67475511  0.06423191  1
  O2-  O286  1  0.79023837  0.66945010  0.40230842  1
  O2-  O287  1  0.79376815  0.66744628  0.73623971  1
