# generated using pymatgen
data_Ca2Al2SiO7
_symmetry_space_group_name_H-M   'P 1'
_cell_length_a   15.46676311
_cell_length_b   15.46760338
_cell_length_c   15.29061212
_cell_angle_alpha   90.01496423
_cell_angle_beta   90.01418740
_cell_angle_gamma   90.01199288
_symmetry_Int_Tables_number   1
_chemical_formula_structural   Ca2Al2SiO7
_chemical_formula_sum   'Ca48 Al48 Si24 O168'
_cell_volume   3658.03027369
_cell_formula_units_Z   24
loop_
 _symmetry_equiv_pos_site_id
 _symmetry_equiv_pos_as_xyz
  1  'x, y, z'
loop_
 _atom_type_symbol
 _atom_type_oxidation_number
  Ca2+  2.0
  Al0+  0.0
  Si0+  0.0
  O2-  -2.0
loop_
 _atom_site_type_symbol
 _atom_site_label
 _atom_site_symmetry_multiplicity
 _atom_site_fract_x
 _atom_site_fract_y
 _atom_site_fract_z
 _atom_site_occupancy
  Ca2+  Ca0  1  0.16838833  0.07934088  0.16893025  1
  Ca2+  Ca1  1  0.17103380  0.07672297  0.50331953  1
  Ca2+  Ca2  1  0.17428588  0.07558750  0.83768314  1
  Ca2+  Ca3  1  0.16069381  0.57362802  0.16805926  1
  Ca2+  Ca4  1  0.16260261  0.57672578  0.51187962  1
  Ca2+  Ca5  1  0.15343036  0.57185219  0.83209845  1
  Ca2+  Ca6  1  0.66741969  0.06857647  0.17037507  1
  Ca2+  Ca7  1  0.67286245  0.07403009  0.51034033  1
  Ca2+  Ca8  1  0.67477242  0.07140978  0.83239196  1
  Ca2+  Ca9  1  0.67285548  0.58704752  0.17152556  1
  Ca2+  Ca10  1  0.67121954  0.57980671  0.50796226  1
  Ca2+  Ca11  1  0.65748146  0.58166749  0.83418807  1
  Ca2+  Ca12  1  0.08878777  0.32042132  0.16004909  1
  Ca2+  Ca13  1  0.08108008  0.32665330  0.49971409  1
  Ca2+  Ca14  1  0.08575112  0.32809524  0.82653890  1
  Ca2+  Ca15  1  0.07721770  0.84148603  0.15844133  1
  Ca2+  Ca16  1  0.08103248  0.84173858  0.49967078  1
  Ca2+  Ca17  1  0.07927590  0.83622622  0.82313002  1
  Ca2+  Ca18  1  0.57974448  0.32735685  0.16130697  1
  Ca2+  Ca19  1  0.57979355  0.33423958  0.50378745  1
  Ca2+  Ca20  1  0.57572902  0.33163208  0.82002607  1
  Ca2+  Ca21  1  0.58747200  0.83160407  0.15745718  1
  Ca2+  Ca22  1  0.58036004  0.84325692  0.50206110  1
  Ca2+  Ca23  1  0.58426392  0.82749615  0.82437761  1
  Ca2+  Ca24  1  0.32744336  0.41673505  0.16475135  1
  Ca2+  Ca25  1  0.32827670  0.41816238  0.51117890  1
  Ca2+  Ca26  1  0.32335298  0.41437068  0.83297242  1
  Ca2+  Ca27  1  0.32149198  0.92757608  0.17386073  1
  Ca2+  Ca28  1  0.32691239  0.92651280  0.51165995  1
  Ca2+  Ca29  1  0.32683210  0.91958269  0.83635523  1
  Ca2+  Ca30  1  0.83334274  0.42684743  0.17268384  1
  Ca2+  Ca31  1  0.83315558  0.42123159  0.51085104  1
  Ca2+  Ca32  1  0.83064520  0.41453141  0.83037094  1
  Ca2+  Ca33  1  0.82400441  0.90729845  0.16766008  1
  Ca2+  Ca34  1  0.82534105  0.91922744  0.51022107  1
  Ca2+  Ca35  1  0.82881257  0.90541464  0.83263302  1
  Ca2+  Ca36  1  0.40980639  0.16153574  0.16389270  1
  Ca2+  Ca37  1  0.40468761  0.16958391  0.50004363  1
  Ca2+  Ca38  1  0.41045907  0.16776638  0.82603332  1
  Ca2+  Ca39  1  0.42652464  0.67211871  0.15837400  1
  Ca2+  Ca40  1  0.42010512  0.67654130  0.50513727  1
  Ca2+  Ca41  1  0.42728189  0.67394710  0.82280361  1
  Ca2+  Ca42  1  0.93231551  0.16166014  0.16161892  1
  Ca2+  Ca43  1  0.91766416  0.16811107  0.49827647  1
  Ca2+  Ca44  1  0.92244969  0.16841934  0.82444278  1
  Ca2+  Ca45  1  0.91507822  0.67218396  0.16166911  1
  Ca2+  Ca46  1  0.91965944  0.66944580  0.50383998  1
  Ca2+  Ca47  1  0.92344667  0.68022544  0.82622837  1
  Al0+  Al48  1  -0.00053676  0.00218922  -0.00809936  1
  Al0+  Al49  1  -0.00154872  0.00065698  0.32968228  1
  Al0+  Al50  1  0.00166297  0.00140481  0.66686918  1
  Al0+  Al51  1  -0.00199256  0.49974978  0.00634907  1
  Al0+  Al52  1  -0.00183377  0.50138241  0.33670665  1
  Al0+  Al53  1  -0.00138543  0.49849256  0.66453955  1
  Al0+  Al54  1  0.50180737  0.00060532  0.00688505  1
  Al0+  Al55  1  0.49819958  0.00165875  0.33847940  1
  Al0+  Al56  1  0.50308393  0.00063842  0.67110819  1
  Al0+  Al57  1  0.50011575  0.49842013  -0.00065089  1
  Al0+  Al58  1  0.49900000  0.50011602  0.33000735  1
  Al0+  Al59  1  0.49997297  0.49871690  0.66123091  1
  Al0+  Al60  1  0.24932428  0.25185285  0.00315613  1
  Al0+  Al61  1  0.24849059  0.25150303  0.33032815  1
  Al0+  Al62  1  0.24984160  0.25179619  0.66813114  1
  Al0+  Al63  1  0.25065662  0.74792256  0.00399244  1
  Al0+  Al64  1  0.24961059  0.74810395  0.33250572  1
  Al0+  Al65  1  0.25354385  0.74839862  0.66245707  1
  Al0+  Al66  1  0.74917996  0.25002645  0.00271077  1
  Al0+  Al67  1  0.74656575  0.25135758  0.32841572  1
  Al0+  Al68  1  0.74987034  0.25192200  0.67006237  1
  Al0+  Al69  1  0.75101102  0.74795054  -0.00467042  1
  Al0+  Al70  1  0.75049022  0.74773423  0.34268630  1
  Al0+  Al71  1  0.75396806  0.74772660  0.66205350  1
  Al0+  Al72  1  0.31895153  0.07242755  0.35008213  1
  Al0+  Al73  1  0.17596901  0.92720545  0.34813042  1
  Al0+  Al74  1  0.68170800  0.92634801  0.68310765  1
  Al0+  Al75  1  0.82303406  0.07308224  0.68054798  1
  Al0+  Al76  1  0.17799370  0.43101551  0.67892295  1
  Al0+  Al77  1  0.93119542  0.82029421  0.98740665  1
  Al0+  Al78  1  0.57061181  0.67931285  0.98732776  1
  Al0+  Al79  1  0.82064836  0.56920686  0.34940466  1
  Al0+  Al80  1  0.07220049  0.67871899  0.65270184  1
  Al0+  Al81  1  0.32131053  0.07209634  0.68185786  1
  Al0+  Al82  1  0.92797926  0.31936500  0.65405654  1
  Al0+  Al83  1  0.17855320  0.43138541  0.01472940  1
  Al0+  Al84  1  0.57277884  0.67799639  0.64952039  1
  Al0+  Al85  1  0.17607535  0.92692382  0.01389028  1
  Al0+  Al86  1  0.07162083  0.18123903  0.98345420  1
  Al0+  Al87  1  0.68315682  0.92808216  0.01267641  1
  Al0+  Al88  1  0.67951964  0.92903315  0.34731794  1
  Al0+  Al89  1  0.42782130  0.31872809  0.65318042  1
  Al0+  Al90  1  0.43090347  0.82439490  0.65210273  1
  Al0+  Al91  1  0.18004969  0.92598835  0.68109569  1
  Al0+  Al92  1  0.32068397  0.07106779  0.01555054  1
  Al0+  Al93  1  0.93169838  0.82386128  0.64847687  1
  Al0+  Al94  1  0.67830035  0.43130455  0.68006428  1
  Al0+  Al95  1  0.06900689  0.18070307  0.31883961  1
  Si0+  Si96  1  0.43053605  0.31951223  0.98510408  1
  Si0+  Si97  1  0.67561048  0.42716185  0.34896029  1
  Si0+  Si98  1  0.92898014  0.81837729  0.31862080  1
  Si0+  Si99  1  0.92556341  0.32427509  0.31572684  1
  Si0+  Si100  1  0.32330688  0.57076509  0.34792331  1
  Si0+  Si101  1  0.82285233  0.57060538  0.68627679  1
  Si0+  Si102  1  0.32590998  0.57070939  0.01702714  1
  Si0+  Si103  1  0.82193102  0.07562745  0.01759932  1
  Si0+  Si104  1  0.67615694  0.42719695  0.01642088  1
  Si0+  Si105  1  0.07316381  0.17916816  0.64936557  1
  Si0+  Si106  1  0.57012958  0.68052646  0.31840137  1
  Si0+  Si107  1  0.92641868  0.32401396  0.98474969  1
  Si0+  Si108  1  0.18018015  0.43116531  0.34829650  1
  Si0+  Si109  1  0.57270295  0.17754228  0.98512922  1
  Si0+  Si110  1  0.42907665  0.32144909  0.31588185  1
  Si0+  Si111  1  0.07326560  0.67526545  0.98664985  1
  Si0+  Si112  1  0.42788217  0.82351137  0.98642498  1
  Si0+  Si113  1  0.81825695  0.56925148  0.01443641  1
  Si0+  Si114  1  0.07199815  0.67593551  0.31691148  1
  Si0+  Si115  1  0.42815853  0.82287380  0.31729658  1
  Si0+  Si116  1  0.82107733  0.07403548  0.34627699  1
  Si0+  Si117  1  0.57280462  0.17907262  0.65095303  1
  Si0+  Si118  1  0.57109465  0.17745689  0.31691337  1
  Si0+  Si119  1  0.32377145  0.57142601  0.68234927  1
  O2-  O120  1  0.24885184  -0.00183749  0.06437763  1
  O2-  O121  1  0.25023353  -0.00321567  0.39756506  1
  O2-  O122  1  0.25308114  -0.00319722  0.73099715  1
  O2-  O123  1  0.25142694  0.50819869  0.06209230  1
  O2-  O124  1  0.24856008  0.50415304  0.39028994  1
  O2-  O125  1  0.24972373  0.50837317  0.72636288  1
  O2-  O126  1  0.75701302  0.00288077  0.06156592  1
  O2-  O127  1  0.75202658  0.00678964  0.39080622  1
  O2-  O128  1  0.75763936  -0.00465683  0.73153421  1
  O2-  O129  1  0.74756065  0.49778330  0.05803580  1
  O2-  O130  1  0.74838784  0.49074935  0.39250868  1
  O2-  O131  1  0.74896536  0.50749463  0.73075140  1
  O2-  O132  1  -0.00791007  0.25439751  0.27096808  1
  O2-  O133  1  -0.00044139  0.24339720  0.60567613  1
  O2-  O134  1  -0.00610167  0.25519003  0.94053029  1
  O2-  O135  1  0.00438315  0.75110973  0.27600008  1
  O2-  O136  1  0.00712900  0.75471727  0.59867106  1
  O2-  O137  1  0.01428437  0.75248778  0.94425236  1
  O2-  O138  1  0.49886407  0.24847962  0.27468678  1
  O2-  O139  1  0.49937016  0.24204141  0.60476377  1
  O2-  O140  1  0.49946091  0.24658970  0.94373868  1
  O2-  O141  1  0.50184832  0.75347638  0.27453884  1
  O2-  O142  1  0.50617317  0.75548374  0.60013955  1
  O2-  O143  1  0.49518465  0.75318550  0.94271983  1
  O2-  O144  1  0.07094438  0.18308926  0.09726602  1
  O2-  O145  1  0.06864351  0.18439908  0.43137516  1
  O2-  O146  1  0.07515873  0.18348770  0.75483074  1
  O2-  O147  1  0.06720029  0.67012668  0.09255661  1
  O2-  O148  1  0.07109742  0.66965844  0.42088234  1
  O2-  O149  1  0.06643919  0.67509202  0.76655123  1
  O2-  O150  1  0.57420517  0.18091029  0.09079183  1
  O2-  O151  1  0.57609084  0.18006947  0.42107829  1
  O2-  O152  1  0.57370144  0.18358697  0.75674725  1
  O2-  O153  1  0.57150896  0.67967427  0.10154355  1
  O2-  O154  1  0.56713809  0.67644259  0.42228371  1
  O2-  O155  1  0.56745634  0.67613321  0.76338884  1
  O2-  O156  1  0.18164377  0.43232053  0.24280943  1
  O2-  O157  1  0.18025297  0.43037932  0.56525820  1
  O2-  O158  1  0.17807380  0.43212471  0.90227968  1
  O2-  O159  1  0.17596518  0.92834117  0.23440979  1
  O2-  O160  1  0.18032278  0.92953207  0.56742996  1
  O2-  O161  1  0.17861709  0.92620504  0.90115048  1
  O2-  O162  1  0.67391785  0.42893194  0.24271442  1
  O2-  O163  1  0.67994906  0.43130795  0.56664711  1
  O2-  O164  1  0.67355229  0.42615038  0.91212967  1
  O2-  O165  1  0.68171846  0.92648263  0.23358692  1
  O2-  O166  1  0.68120723  0.93135763  0.56925653  1
  O2-  O167  1  0.68356005  0.92720044  0.90082085  1
  O2-  O168  1  0.43352037  0.32210368  0.09092783  1
  O2-  O169  1  0.42920170  0.32477160  0.42032744  1
  O2-  O170  1  0.42874590  0.31959286  0.76653734  1
  O2-  O171  1  0.43069704  0.82083913  0.09274693  1
  O2-  O172  1  0.42839092  0.82094645  0.42169110  1
  O2-  O173  1  0.43073227  0.82108811  0.76599265  1
  O2-  O174  1  0.92640763  0.32516615  0.09077711  1
  O2-  O175  1  0.92545327  0.32461857  0.42085422  1
  O2-  O176  1  0.92990313  0.31985453  0.76726761  1
  O2-  O177  1  0.92666251  0.81457014  0.10140510  1
  O2-  O178  1  0.92855130  0.81771155  0.42283357  1
  O2-  O179  1  0.93057471  0.81909409  0.76213727  1
  O2-  O180  1  0.31838216  0.07173502  0.23655437  1
  O2-  O181  1  0.31611146  0.07451788  0.56834524  1
  O2-  O182  1  0.32109152  0.07223689  0.90281746  1
  O2-  O183  1  0.32570488  0.56766726  0.24259681  1
  O2-  O184  1  0.32469185  0.56684779  0.57614087  1
  O2-  O185  1  0.33206269  0.56638872  0.91258797  1
  O2-  O186  1  0.81995417  0.07261567  0.24044632  1
  O2-  O187  1  0.81791289  0.07512085  0.56618471  1
  O2-  O188  1  0.81685146  0.08313605  0.91318285  1
  O2-  O189  1  0.81781958  0.57042925  0.23523811  1
  O2-  O190  1  0.82372289  0.56586876  0.58050088  1
  O2-  O191  1  0.81942612  0.56702744  0.91032005  1
  O2-  O192  1  0.03785465  0.08450490  0.26252197  1
  O2-  O193  1  0.05223194  0.08502150  0.60385815  1
  O2-  O194  1  0.04307693  0.08569757  0.92799948  1
  O2-  O195  1  0.03833731  0.58569854  0.26758890  1
  O2-  O196  1  0.03624246  0.58251287  0.59799543  1
  O2-  O197  1  0.03732313  0.58473886  0.94011410  1
  O2-  O198  1  0.54275323  0.08561184  0.26927569  1
  O2-  O199  1  0.55438074  0.08365458  0.60742450  1
  O2-  O200  1  0.54829252  0.08431803  0.94036249  1
  O2-  O201  1  0.54059646  0.58899561  0.26881347  1
  O2-  O202  1  0.53851850  0.58208431  0.59443948  1
  O2-  O203  1  0.54084256  0.58123636  0.93577655  1
  O2-  O204  1  0.16393580  0.21649453  0.26318728  1
  O2-  O205  1  0.16311282  0.21344811  0.60174434  1
  O2-  O206  1  0.16713009  0.21816306  0.93216983  1
  O2-  O207  1  0.16614138  0.69581835  0.26953424  1
  O2-  O208  1  0.17423757  0.69330224  0.60248362  1
  O2-  O209  1  0.17154207  0.68676313  0.94637320  1
  O2-  O210  1  0.66117062  0.20625468  0.26434755  1
  O2-  O211  1  0.66289661  0.21278327  0.60293970  1
  O2-  O212  1  0.66348822  0.20901343  0.93852350  1
  O2-  O213  1  0.66413594  0.70681529  0.27398436  1
  O2-  O214  1  0.67411711  0.69638317  0.60021055  1
  O2-  O215  1  0.66624654  0.70715050  0.93222893  1
  O2-  O216  1  0.08219502  0.46042253  0.07203215  1
  O2-  O217  1  0.08709658  0.45617677  0.39337969  1
  O2-  O218  1  0.08144492  0.46018629  0.73358031  1
  O2-  O219  1  0.07637640  0.95798209  0.06363973  1
  O2-  O220  1  0.07707083  0.95815278  0.39798038  1
  O2-  O221  1  0.08137902  0.95454396  0.73190952  1
  O2-  O222  1  0.58540664  0.45572636  0.06625109  1
  O2-  O223  1  0.58298164  0.45727939  0.39388975  1
  O2-  O224  1  0.58046799  0.45983266  0.73316163  1
  O2-  O225  1  0.58758832  0.95885036  0.06960322  1
  O2-  O226  1  0.58287235  0.95926292  0.39963552  1
  O2-  O227  1  0.58480008  0.95655697  0.73708313  1
  O2-  O228  1  0.21493763  0.33817717  0.07149722  1
  O2-  O229  1  0.21075902  0.34053392  0.39415674  1
  O2-  O230  1  0.21269044  0.33721485  0.73434925  1
  O2-  O231  1  0.19906962  0.82593438  0.06685773  1
  O2-  O232  1  0.19906208  0.82515189  0.39559446  1
  O2-  O233  1  0.20616450  0.82551497  0.73077268  1
  O2-  O234  1  0.70381124  0.33606324  0.06629533  1
  O2-  O235  1  0.69505015  0.33121466  0.39183230  1
  O2-  O236  1  0.71003708  0.33672507  0.73651482  1
  O2-  O237  1  0.71537287  0.83076913  0.06646178  1
  O2-  O238  1  0.71039470  0.83414064  0.40219369  1
  O2-  O239  1  0.70874478  0.82554461  0.73161529  1
  O2-  O240  1  0.45966673  0.41196122  0.26550071  1
  O2-  O241  1  0.46137392  0.41274401  0.59586992  1
  O2-  O242  1  0.46095201  0.41005348  0.93774108  1
  O2-  O243  1  0.45420177  0.91611158  0.27198391  1
  O2-  O244  1  0.45880777  0.92352340  0.59935681  1
  O2-  O245  1  0.45513901  0.91714838  0.94322661  1
  O2-  O246  1  0.95399645  0.41802346  0.27030314  1
  O2-  O247  1  0.96096555  0.41386394  0.59773805  1
  O2-  O248  1  0.95193236  0.41822103  0.94060350  1
  O2-  O249  1  0.95048511  0.91151239  0.27039545  1
  O2-  O250  1  0.95512234  0.92410664  0.59645239  1
  O2-  O251  1  0.94949241  0.91881621  0.93354982  1
  O2-  O252  1  0.33718547  0.29550932  0.26735366  1
  O2-  O253  1  0.33118921  0.29108270  0.59702477  1
  O2-  O254  1  0.33743639  0.29539251  0.94026916  1
  O2-  O255  1  0.33740049  0.79130722  0.26877249  1
  O2-  O256  1  0.33532839  0.79158890  0.59515673  1
  O2-  O257  1  0.33323313  0.79866931  0.94239643  1
  O2-  O258  1  0.82993579  0.30428926  0.26966910  1
  O2-  O259  1  0.83050688  0.29244969  0.59936146  1
  O2-  O260  1  0.83087081  0.30051599  0.94139075  1
  O2-  O261  1  0.83776979  0.78346278  0.27267547  1
  O2-  O262  1  0.83493431  0.79083439  0.59473367  1
  O2-  O263  1  0.83919954  0.77947086  0.93179546  1
  O2-  O264  1  0.41999872  0.04593567  0.07006712  1
  O2-  O265  1  0.41906493  0.05043077  0.40125968  1
  O2-  O266  1  0.42243196  0.05156263  0.73177985  1
  O2-  O267  1  0.41589348  0.53705677  0.06822404  1
  O2-  O268  1  0.41330384  0.53799654  0.39543349  1
  O2-  O269  1  0.41436240  0.53806597  0.72877103  1
  O2-  O270  1  0.91730966  0.05157021  0.05895685  1
  O2-  O271  1  0.91424655  0.04902592  0.39151323  1
  O2-  O272  1  0.92397923  0.05392843  0.73013214  1
  O2-  O273  1  0.90843224  0.54196710  0.06668929  1
  O2-  O274  1  0.91721012  0.54061033  0.40399443  1
  O2-  O275  1  0.91303035  0.53707855  0.73339037  1
  O2-  O276  1  0.29267794  0.17013894  0.06828659  1
  O2-  O277  1  0.28903768  0.17240727  0.39883363  1
  O2-  O278  1  0.29018726  0.16986496  0.73434794  1
  O2-  O279  1  0.30733044  0.66578541  0.06311450  1
  O2-  O280  1  0.30018635  0.66389259  0.39328721  1
  O2-  O281  1  0.30666314  0.66667526  0.72642519  1
  O2-  O282  1  0.79336049  0.16718348  0.06832565  1
  O2-  O283  1  0.79649211  0.16952273  0.38925545  1
  O2-  O284  1  0.78917563  0.16864805  0.73597418  1
  O2-  O285  1  0.78776513  0.65939331  0.06350119  1
  O2-  O286  1  0.78778475  0.66230300  0.40643365  1
  O2-  O287  1  0.80357771  0.66618893  0.72877317  1
