# generated using pymatgen
data_Ca2Al2SiO7
_symmetry_space_group_name_H-M   'P 1'
_cell_length_a   15.46628799
_cell_length_b   15.46510009
_cell_length_c   15.28914043
_cell_angle_alpha   90.00149212
_cell_angle_beta   90.00299660
_cell_angle_gamma   89.95665864
_symmetry_Int_Tables_number   1
_chemical_formula_structural   Ca2Al2SiO7
_chemical_formula_sum   'Ca48 Al48 Si24 O168'
_cell_volume   3656.97315746
_cell_formula_units_Z   24
loop_
 _symmetry_equiv_pos_site_id
 _symmetry_equiv_pos_as_xyz
  1  'x, y, z'
loop_
 _atom_type_symbol
 _atom_type_oxidation_number
  Ca2+  2.0
  Al0+  0.0
  Si0+  0.0
  O2-  -2.0
loop_
 _atom_site_type_symbol
 _atom_site_label
 _atom_site_symmetry_multiplicity
 _atom_site_fract_x
 _atom_site_fract_y
 _atom_site_fract_z
 _atom_site_occupancy
  Ca2+  Ca0  1  0.17342693  0.08359938  0.17051689  1
  Ca2+  Ca1  1  0.16347765  0.08497008  0.50419365  1
  Ca2+  Ca2  1  0.17164886  0.08363328  0.84061829  1
  Ca2+  Ca3  1  0.16681680  0.57626002  0.17497951  1
  Ca2+  Ca4  1  0.17549506  0.59013969  0.50319667  1
  Ca2+  Ca5  1  0.16873346  0.58244576  0.83896220  1
  Ca2+  Ca6  1  0.66285662  0.07954230  0.16573555  1
  Ca2+  Ca7  1  0.66653596  0.07606774  0.51019070  1
  Ca2+  Ca8  1  0.65694114  0.07477687  0.83933477  1
  Ca2+  Ca9  1  0.66311622  0.58164271  0.17113937  1
  Ca2+  Ca10  1  0.66404719  0.57617654  0.50101052  1
  Ca2+  Ca11  1  0.66793453  0.58684430  0.83985353  1
  Ca2+  Ca12  1  0.09635215  0.33229554  0.16512677  1
  Ca2+  Ca13  1  0.09412927  0.32219569  0.49523517  1
  Ca2+  Ca14  1  0.08845330  0.32982245  0.83109806  1
  Ca2+  Ca15  1  0.07608124  0.81910754  0.16145686  1
  Ca2+  Ca16  1  0.07539836  0.82370150  0.49265313  1
  Ca2+  Ca17  1  0.07551450  0.82523530  0.82694290  1
  Ca2+  Ca18  1  0.57129671  0.33418706  0.15947142  1
  Ca2+  Ca19  1  0.57328922  0.33605008  0.49435971  1
  Ca2+  Ca20  1  0.57144951  0.32184580  0.82603875  1
  Ca2+  Ca21  1  0.57499000  0.82957321  0.15684126  1
  Ca2+  Ca22  1  0.57796562  0.83391424  0.49616786  1
  Ca2+  Ca23  1  0.58339854  0.83588149  0.83659061  1
  Ca2+  Ca24  1  0.32874781  0.42032886  0.17429874  1
  Ca2+  Ca25  1  0.33483117  0.42553977  0.50045726  1
  Ca2+  Ca26  1  0.33206904  0.41724138  0.83728138  1
  Ca2+  Ca27  1  0.34414502  0.92184992  0.16850350  1
  Ca2+  Ca28  1  0.33226296  0.91623563  0.50384705  1
  Ca2+  Ca29  1  0.33666962  0.92600257  0.84406435  1
  Ca2+  Ca30  1  0.82215206  0.41861065  0.17465393  1
  Ca2+  Ca31  1  0.82616471  0.41441374  0.50087165  1
  Ca2+  Ca32  1  0.83153401  0.41857534  0.83975376  1
  Ca2+  Ca33  1  0.83087734  0.90695585  0.16729253  1
  Ca2+  Ca34  1  0.83125041  0.91068295  0.50795713  1
  Ca2+  Ca35  1  0.82571841  0.90766678  0.83812135  1
  Ca2+  Ca36  1  0.41690716  0.17903723  0.15731347  1
  Ca2+  Ca37  1  0.41926953  0.18110821  0.49800693  1
  Ca2+  Ca38  1  0.41871993  0.17415637  0.83287091  1
  Ca2+  Ca39  1  0.41542716  0.67526381  0.16292183  1
  Ca2+  Ca40  1  0.41017431  0.66882488  0.49258852  1
  Ca2+  Ca41  1  0.41866079  0.66786683  0.83281175  1
  Ca2+  Ca42  1  0.92337921  0.16832779  0.16824001  1
  Ca2+  Ca43  1  0.92929118  0.16334368  0.49679202  1
  Ca2+  Ca44  1  0.92407404  0.16717606  0.82832621  1
  Ca2+  Ca45  1  0.92466181  0.67108947  0.16107399  1
  Ca2+  Ca46  1  0.92659652  0.67450744  0.49455131  1
  Ca2+  Ca47  1  0.92830160  0.67348302  0.83025440  1
  Al0+  Al48  1  -0.00113542  0.00107968  -0.00131371  1
  Al0+  Al49  1  0.00014035  0.00112846  0.32516313  1
  Al0+  Al50  1  -0.00153081  0.00032165  0.66167865  1
  Al0+  Al51  1  -0.00029262  0.49890379  0.00166508  1
  Al0+  Al52  1  -0.00164158  0.49637987  0.33692705  1
  Al0+  Al53  1  0.00008693  0.49942012  0.66313877  1
  Al0+  Al54  1  0.50123923  0.00055843  0.00477231  1
  Al0+  Al55  1  0.50144285  0.00067016  0.33367760  1
  Al0+  Al56  1  0.50015176  0.00042616  0.66743991  1
  Al0+  Al57  1  0.49842248  0.50086718  -0.00706813  1
  Al0+  Al58  1  0.49948272  0.49966494  0.33756640  1
  Al0+  Al59  1  0.49875601  0.50114754  0.66882092  1
  Al0+  Al60  1  0.25061382  0.24984475  0.00356495  1
  Al0+  Al61  1  0.25308079  0.24967489  0.32951243  1
  Al0+  Al62  1  0.25141144  0.25127024  0.65949076  1
  Al0+  Al63  1  0.24951676  0.75070515  -0.00681706  1
  Al0+  Al64  1  0.24895810  0.75272623  0.32776390  1
  Al0+  Al65  1  0.25053628  0.75020358  0.67036083  1
  Al0+  Al66  1  0.75087701  0.24840164  -0.00173103  1
  Al0+  Al67  1  0.75177912  0.24681518  0.34008577  1
  Al0+  Al68  1  0.75006626  0.24731935  0.66619366  1
  Al0+  Al69  1  0.75023931  0.75005726  -0.00003663  1
  Al0+  Al70  1  0.74932386  0.74972250  0.33348793  1
  Al0+  Al71  1  0.74821545  0.74894723  0.66752245  1
  Al0+  Al72  1  0.67882602  0.92885872  0.68171313  1
  Al0+  Al73  1  0.67851216  0.42822857  0.34628813  1
  Al0+  Al74  1  0.31838142  0.57366923  0.34647568  1
  Al0+  Al75  1  0.17975725  0.43102656  0.01276799  1
  Al0+  Al76  1  0.43008020  0.32324007  0.64868911  1
  Al0+  Al77  1  0.07041082  0.18054965  0.65513343  1
  Al0+  Al78  1  0.43184019  0.32171183  0.31805406  1
  Al0+  Al79  1  0.92749023  0.81912089  0.65144830  1
  Al0+  Al80  1  0.32089371  0.57271915  0.68336550  1
  Al0+  Al81  1  0.42909944  0.82297384  0.32127171  1
  Al0+  Al82  1  0.07185236  0.18128634  0.31744607  1
  Al0+  Al83  1  0.68182629  0.92964237  0.01627082  1
  Al0+  Al84  1  0.57087291  0.67881137  0.98556894  1
  Al0+  Al85  1  0.92948907  0.82186553  0.98392039  1
  Al0+  Al86  1  0.42609923  0.32159229  0.98425991  1
  Al0+  Al87  1  0.07154292  0.67587813  0.31794815  1
  Al0+  Al88  1  0.92716861  0.82073259  0.31699756  1
  Al0+  Al89  1  0.32027557  0.06912699  0.01436568  1
  Al0+  Al90  1  0.07124192  0.67533077  0.98446005  1
  Al0+  Al91  1  0.07380002  0.67780385  0.65020866  1
  Al0+  Al92  1  0.17821356  0.42646345  0.35012546  1
  Al0+  Al93  1  0.57273998  0.17975393  0.98647366  1
  Al0+  Al94  1  0.42888727  0.82256195  0.98423128  1
  Al0+  Al95  1  0.57091837  0.17662919  0.65045678  1
  Si0+  Si96  1  0.81983418  0.56935005  0.01469874  1
  Si0+  Si97  1  0.57109315  0.67805462  0.31981963  1
  Si0+  Si98  1  0.82375999  0.07160941  0.68445845  1
  Si0+  Si99  1  0.67889399  0.42763604  0.68332489  1
  Si0+  Si100  1  0.67820223  0.42768905  0.01201956  1
  Si0+  Si101  1  0.82495465  0.07490625  0.01930984  1
  Si0+  Si102  1  0.32269715  0.07067693  0.35012201  1
  Si0+  Si103  1  0.82324589  0.06927328  0.35000650  1
  Si0+  Si104  1  0.82045439  0.56921011  0.68171221  1
  Si0+  Si105  1  0.17749836  0.93008922  0.68036007  1
  Si0+  Si106  1  0.42952304  0.82162761  0.65331881  1
  Si0+  Si107  1  0.17533386  0.92742437  0.01641359  1
  Si0+  Si108  1  0.32347077  0.57426795  0.01628382  1
  Si0+  Si109  1  0.31933530  0.07147319  0.68004200  1
  Si0+  Si110  1  0.92781696  0.32089350  0.98708957  1
  Si0+  Si111  1  0.57081075  0.67884503  0.65104090  1
  Si0+  Si112  1  0.82132216  0.57267385  0.35143771  1
  Si0+  Si113  1  0.17831897  0.93200266  0.34683887  1
  Si0+  Si114  1  0.92590127  0.32330692  0.65012020  1
  Si0+  Si115  1  0.57447931  0.17780024  0.31763093  1
  Si0+  Si116  1  0.07117997  0.18047078  0.98658253  1
  Si0+  Si117  1  0.17875570  0.42698850  0.68224865  1
  Si0+  Si118  1  0.67949221  0.92923062  0.34917620  1
  Si0+  Si119  1  0.92464965  0.32037974  0.31755219  1
  O2-  O120  1  0.24816138  -0.00851617  0.06159939  1
  O2-  O121  1  0.25075684  0.00051739  0.39246348  1
  O2-  O122  1  0.24734611  0.00194603  0.72300037  1
  O2-  O123  1  0.25289798  0.50713334  0.05910637  1
  O2-  O124  1  0.24489696  0.50394223  0.39909661  1
  O2-  O125  1  0.24411980  0.49817170  0.72696632  1
  O2-  O126  1  0.75752327  0.00438542  0.06257250  1
  O2-  O127  1  0.75300123  -0.00276684  0.39165459  1
  O2-  O128  1  0.75375400  0.00430693  0.72776910  1
  O2-  O129  1  0.74607691  0.50063959  0.05631217  1
  O2-  O130  1  0.75321873  0.50254220  0.39501851  1
  O2-  O131  1  0.75243092  0.49576140  0.72616004  1
  O2-  O132  1  0.00022918  0.26007911  0.27215841  1
  O2-  O133  1  -0.00406821  0.25521012  0.60777563  1
  O2-  O134  1  -0.00065045  0.25064823  0.94480689  1
  O2-  O135  1  -0.00364140  0.74544790  0.26918844  1
  O2-  O136  1  0.00137728  0.74987315  0.60151554  1
  O2-  O137  1  0.00435830  0.75264968  0.93524204  1
  O2-  O138  1  0.50902421  0.24854475  0.27324642  1
  O2-  O139  1  0.50489379  0.25297759  0.59967497  1
  O2-  O140  1  0.50085400  0.25128675  0.93645501  1
  O2-  O141  1  0.50203573  0.74606863  0.27662252  1
  O2-  O142  1  0.49838790  0.74894210  0.61008460  1
  O2-  O143  1  0.49874227  0.74921849  0.93314033  1
  O2-  O144  1  0.07072197  0.18121059  0.09143029  1
  O2-  O145  1  0.06902225  0.17848609  0.43065813  1
  O2-  O146  1  0.07044080  0.18156260  0.76865897  1
  O2-  O147  1  0.06667550  0.67238560  0.09771050  1
  O2-  O148  1  0.07197913  0.68168428  0.43143743  1
  O2-  O149  1  0.07135549  0.67814922  0.76359758  1
  O2-  O150  1  0.57455887  0.18433364  0.10033323  1
  O2-  O151  1  0.57203449  0.17597966  0.42316262  1
  O2-  O152  1  0.56733561  0.17663253  0.76363280  1
  O2-  O153  1  0.57113155  0.67787224  0.09937002  1
  O2-  O154  1  0.57327533  0.68051059  0.42586524  1
  O2-  O155  1  0.57266481  0.67863073  0.75565482  1
  O2-  O156  1  0.18333996  0.42645158  0.23645275  1
  O2-  O157  1  0.18054981  0.42452570  0.57727198  1
  O2-  O158  1  0.17844194  0.42924513  0.89941187  1
  O2-  O159  1  0.17857638  0.93513599  0.24213380  1
  O2-  O160  1  0.17966879  0.93062836  0.57493720  1
  O2-  O161  1  0.17324286  0.93345995  0.91041860  1
  O2-  O162  1  0.68001576  0.42938943  0.23278388  1
  O2-  O163  1  0.67987129  0.42969249  0.57809039  1
  O2-  O164  1  0.68369571  0.42705398  0.90691440  1
  O2-  O165  1  0.67820904  0.93062474  0.24454255  1
  O2-  O166  1  0.67850392  0.92925370  0.56795664  1
  O2-  O167  1  0.68273046  0.93078924  0.90318526  1
  O2-  O168  1  0.42792389  0.32165809  0.09792359  1
  O2-  O169  1  0.43272394  0.32088871  0.43099187  1
  O2-  O170  1  0.42845569  0.32048425  0.76200743  1
  O2-  O171  1  0.43216653  0.82156264  0.09793755  1
  O2-  O172  1  0.43208468  0.82578864  0.43503048  1
  O2-  O173  1  0.43081106  0.82365044  0.75774608  1
  O2-  O174  1  0.92384145  0.32004216  0.09173145  1
  O2-  O175  1  0.91893645  0.31417358  0.42271399  1
  O2-  O176  1  0.92483956  0.32355810  0.75621796  1
  O2-  O177  1  0.92986496  0.81798116  0.09733496  1
  O2-  O178  1  0.92735259  0.82071375  0.43062508  1
  O2-  O179  1  0.92843006  0.81748073  0.76460746  1
  O2-  O180  1  0.32318640  0.06956714  0.24523172  1
  O2-  O181  1  0.31878433  0.06896942  0.57464941  1
  O2-  O182  1  0.31572063  0.07104450  0.90057714  1
  O2-  O183  1  0.32089183  0.57318396  0.23316695  1
  O2-  O184  1  0.32196191  0.57523072  0.57056483  1
  O2-  O185  1  0.32368995  0.57205482  0.91054709  1
  O2-  O186  1  0.82217834  0.07290375  0.24520488  1
  O2-  O187  1  0.82524680  0.07109176  0.57870344  1
  O2-  O188  1  0.82803018  0.07897807  0.91428016  1
  O2-  O189  1  0.81888141  0.57264591  0.24564919  1
  O2-  O190  1  0.81719873  0.56791010  0.57678669  1
  O2-  O191  1  0.82071945  0.56577038  0.90929175  1
  O2-  O192  1  0.03730375  0.08755633  0.26097617  1
  O2-  O193  1  0.03994676  0.08513937  0.59832031  1
  O2-  O194  1  0.04438496  0.08909512  0.93826523  1
  O2-  O195  1  0.04508865  0.57458229  0.27036709  1
  O2-  O196  1  0.04606180  0.57875888  0.59871291  1
  O2-  O197  1  0.03578808  0.57899169  0.93070473  1
  O2-  O198  1  0.54629683  0.08513982  0.27154498  1
  O2-  O199  1  0.53848833  0.07971581  0.59652502  1
  O2-  O200  1  0.54301511  0.08138261  0.93697171  1
  O2-  O201  1  0.54805363  0.58403350  0.27506364  1
  O2-  O202  1  0.54449426  0.58666075  0.60427884  1
  O2-  O203  1  0.54641501  0.58090968  0.92920654  1
  O2-  O204  1  0.16925586  0.20765971  0.26387476  1
  O2-  O205  1  0.16569631  0.20908504  0.59792174  1
  O2-  O206  1  0.16150889  0.20992980  0.93853246  1
  O2-  O207  1  0.16699927  0.70917956  0.26301767  1
  O2-  O208  1  0.17213598  0.71024193  0.59990459  1
  O2-  O209  1  0.17042965  0.69883625  0.93240427  1
  O2-  O210  1  0.67043179  0.19871348  0.27538900  1
  O2-  O211  1  0.67286761  0.19802084  0.60161386  1
  O2-  O212  1  0.67150718  0.20548380  0.93214379  1
  O2-  O213  1  0.66428873  0.70303799  0.27319335  1
  O2-  O214  1  0.66135840  0.70714147  0.60198343  1
  O2-  O215  1  0.66926229  0.70707389  0.93286311  1
  O2-  O216  1  0.08120918  0.45602539  0.06738614  1
  O2-  O217  1  0.07458026  0.44014176  0.39869666  1
  O2-  O218  1  0.08194321  0.44688550  0.72553111  1
  O2-  O219  1  0.08365733  0.95821029  0.06369094  1
  O2-  O220  1  0.08689639  0.96314600  0.39378457  1
  O2-  O221  1  0.08538182  0.95866069  0.72661616  1
  O2-  O222  1  0.58506575  0.45445004  0.05678944  1
  O2-  O223  1  0.58502398  0.46154038  0.40439864  1
  O2-  O224  1  0.58840747  0.45840483  0.73028451  1
  O2-  O225  1  0.58620269  0.96101369  0.07198075  1
  O2-  O226  1  0.58894832  0.96029939  0.39834887  1
  O2-  O227  1  0.58183040  0.96034196  0.73532587  1
  O2-  O228  1  0.21068254  0.33471635  0.06717820  1
  O2-  O229  1  0.21316005  0.32839630  0.40093595  1
  O2-  O230  1  0.20777631  0.33357235  0.72848927  1
  O2-  O231  1  0.19617595  0.83103473  0.05790768  1
  O2-  O232  1  0.20514527  0.84005225  0.39391156  1
  O2-  O233  1  0.20576426  0.83965980  0.72926699  1
  O2-  O234  1  0.70969985  0.33744850  0.06036321  1
  O2-  O235  1  0.71051868  0.33231703  0.40228508  1
  O2-  O236  1  0.70522746  0.33443670  0.72907360  1
  O2-  O237  1  0.71197614  0.83220909  0.07030610  1
  O2-  O238  1  0.70316162  0.83582695  0.39616741  1
  O2-  O239  1  0.70815415  0.83118333  0.73481292  1
  O2-  O240  1  0.46281187  0.41890920  0.26604785  1
  O2-  O241  1  0.46012572  0.42217544  0.59808719  1
  O2-  O242  1  0.45202423  0.41947601  0.93086183  1
  O2-  O243  1  0.46391403  0.91828780  0.26716225  1
  O2-  O244  1  0.45820831  0.91228485  0.60425045  1
  O2-  O245  1  0.46017972  0.92083203  0.93366877  1
  O2-  O246  1  0.93883380  0.41741951  0.27561078  1
  O2-  O247  1  0.94786515  0.41664433  0.60287422  1
  O2-  O248  1  0.95519141  0.41160922  0.93798768  1
  O2-  O249  1  0.95584371  0.91817220  0.26373179  1
  O2-  O250  1  0.95266438  0.91867486  0.59968154  1
  O2-  O251  1  0.95260874  0.92270331  0.93305085  1
  O2-  O252  1  0.33757131  0.28703227  0.26366477  1
  O2-  O253  1  0.33397618  0.29110525  0.59420672  1
  O2-  O254  1  0.32955123  0.28706964  0.93125770  1
  O2-  O255  1  0.33262955  0.79871840  0.26571461  1
  O2-  O256  1  0.33681607  0.79608053  0.60699035  1
  O2-  O257  1  0.32912403  0.80171124  0.93111916  1
  O2-  O258  1  0.83430359  0.28608637  0.26876631  1
  O2-  O259  1  0.83278416  0.29678490  0.60379893  1
  O2-  O260  1  0.83791361  0.29293397  0.93584394  1
  O2-  O261  1  0.82727332  0.79343570  0.26625499  1
  O2-  O262  1  0.82930826  0.78770496  0.59937236  1
  O2-  O263  1  0.83237836  0.78921209  0.93257729  1
  O2-  O264  1  0.41642938  0.04171440  0.07060518  1
  O2-  O265  1  0.41416314  0.04167746  0.39822333  1
  O2-  O266  1  0.40983580  0.04121880  0.72788327  1
  O2-  O267  1  0.41773158  0.54788020  0.06105083  1
  O2-  O268  1  0.41682957  0.54484323  0.40058463  1
  O2-  O269  1  0.41801649  0.54185914  0.73703567  1
  O2-  O270  1  0.91919683  0.05094217  0.06590928  1
  O2-  O271  1  0.91607696  0.04159452  0.39577014  1
  O2-  O272  1  0.91768295  0.04607587  0.73084182  1
  O2-  O273  1  0.90897945  0.53702810  0.06412273  1
  O2-  O274  1  0.91401217  0.54734917  0.39893227  1
  O2-  O275  1  0.91337692  0.54311235  0.72855633  1
  O2-  O276  1  0.28516475  0.16357436  0.07005726  1
  O2-  O277  1  0.29392455  0.16213725  0.39655072  1
  O2-  O278  1  0.29131191  0.16396495  0.72560560  1
  O2-  O279  1  0.30107812  0.67038439  0.05860472  1
  O2-  O280  1  0.29233069  0.67442833  0.39848182  1
  O2-  O281  1  0.29261011  0.66990316  0.73844955  1
  O2-  O282  1  0.79693237  0.16784225  0.06721539  1
  O2-  O283  1  0.79633417  0.15936297  0.40158249  1
  O2-  O284  1  0.80217515  0.16690331  0.72999103  1
  O2-  O285  1  0.79336466  0.66068576  0.06251083  1
  O2-  O286  1  0.79274073  0.66518529  0.39892210  1
  O2-  O287  1  0.78822507  0.65898489  0.72987498  1
