# generated using pymatgen
data_Ca2Al2SiO7
_symmetry_space_group_name_H-M   'P 1'
_cell_length_a   15.45367825
_cell_length_b   15.45348394
_cell_length_c   15.28061184
_cell_angle_alpha   89.99703620
_cell_angle_beta   90.00623700
_cell_angle_gamma   90.00487967
_symmetry_Int_Tables_number   1
_chemical_formula_structural   Ca2Al2SiO7
_chemical_formula_sum   'Ca48 Al48 Si24 O168'
_cell_volume   3649.21129393
_cell_formula_units_Z   24
loop_
 _symmetry_equiv_pos_site_id
 _symmetry_equiv_pos_as_xyz
  1  'x, y, z'
loop_
 _atom_type_symbol
 _atom_type_oxidation_number
  Ca2+  2.0
  Al0+  0.0
  Si0+  0.0
  O2-  -2.0
loop_
 _atom_site_type_symbol
 _atom_site_label
 _atom_site_symmetry_multiplicity
 _atom_site_fract_x
 _atom_site_fract_y
 _atom_site_fract_z
 _atom_site_occupancy
  Ca2+  Ca0  1  0.16377666  0.08050739  0.16902044  1
  Ca2+  Ca1  1  0.17790498  0.09200385  0.50608778  1
  Ca2+  Ca2  1  0.16611032  0.08484130  0.83718933  1
  Ca2+  Ca3  1  0.17524987  0.58576001  0.17183536  1
  Ca2+  Ca4  1  0.16880313  0.57745255  0.49869484  1
  Ca2+  Ca5  1  0.17328681  0.58905554  0.84441180  1
  Ca2+  Ca6  1  0.66990195  0.07458117  0.17156084  1
  Ca2+  Ca7  1  0.67037561  0.07386602  0.50674070  1
  Ca2+  Ca8  1  0.66079234  0.07425803  0.83957885  1
  Ca2+  Ca9  1  0.67324715  0.58032210  0.16648687  1
  Ca2+  Ca10  1  0.66166640  0.58036960  0.50727596  1
  Ca2+  Ca11  1  0.66770714  0.57229764  0.84085080  1
  Ca2+  Ca12  1  0.07444386  0.33190949  0.15956227  1
  Ca2+  Ca13  1  0.07955314  0.33097622  0.49190903  1
  Ca2+  Ca14  1  0.07918695  0.32530183  0.83145505  1
  Ca2+  Ca15  1  0.07764456  0.83150020  0.15195179  1
  Ca2+  Ca16  1  0.07608047  0.83496622  0.50005537  1
  Ca2+  Ca17  1  0.07254180  0.83498587  0.83453999  1
  Ca2+  Ca18  1  0.58357277  0.32540793  0.15667384  1
  Ca2+  Ca19  1  0.58676908  0.32807361  0.50005944  1
  Ca2+  Ca20  1  0.59218471  0.32340306  0.83013968  1
  Ca2+  Ca21  1  0.58746349  0.83272266  0.16512376  1
  Ca2+  Ca22  1  0.59267226  0.82497743  0.49590848  1
  Ca2+  Ca23  1  0.58990374  0.82814332  0.82598257  1
  Ca2+  Ca24  1  0.32546025  0.42703655  0.17231425  1
  Ca2+  Ca25  1  0.32918660  0.41822068  0.49903758  1
  Ca2+  Ca26  1  0.33275802  0.42481042  0.83988088  1
  Ca2+  Ca27  1  0.32440991  0.92188350  0.16905377  1
  Ca2+  Ca28  1  0.33451732  0.92834787  0.50345085  1
  Ca2+  Ca29  1  0.32668875  0.92287447  0.83907871  1
  Ca2+  Ca30  1  0.83655204  0.41487121  0.16621891  1
  Ca2+  Ca31  1  0.82954235  0.41759804  0.50463481  1
  Ca2+  Ca32  1  0.82455336  0.41798459  0.84241751  1
  Ca2+  Ca33  1  0.82675882  0.92028609  0.17044173  1
  Ca2+  Ca34  1  0.82683766  0.91907705  0.50369282  1
  Ca2+  Ca35  1  0.82625442  0.91014213  0.83879799  1
  Ca2+  Ca36  1  0.42064914  0.16425967  0.16223286  1
  Ca2+  Ca37  1  0.42035029  0.15822937  0.49887015  1
  Ca2+  Ca38  1  0.42752645  0.16299696  0.82811396  1
  Ca2+  Ca39  1  0.41969452  0.66000566  0.16395341  1
  Ca2+  Ca40  1  0.42932507  0.66423684  0.49266054  1
  Ca2+  Ca41  1  0.42097622  0.66835943  0.82815396  1
  Ca2+  Ca42  1  0.91449929  0.17628367  0.15950496  1
  Ca2+  Ca43  1  0.91939472  0.17033991  0.49306129  1
  Ca2+  Ca44  1  0.92677384  0.16710528  0.83244541  1
  Ca2+  Ca45  1  0.92323971  0.67113329  0.15361725  1
  Ca2+  Ca46  1  0.91082881  0.67615971  0.49788809  1
  Ca2+  Ca47  1  0.90954246  0.67599365  0.83621030  1
  Al0+  Al48  1  -0.00096041  0.00032496  -0.00320554  1
  Al0+  Al49  1  -0.00129462  0.00051367  0.33634143  1
  Al0+  Al50  1  0.00106518  0.00054066  0.65578181  1
  Al0+  Al51  1  0.00037219  0.50028016  -0.00671811  1
  Al0+  Al52  1  -0.00103842  0.50045117  0.33438734  1
  Al0+  Al53  1  0.00098920  0.50094195  0.66804553  1
  Al0+  Al54  1  0.49920610  -0.00111899  0.00107994  1
  Al0+  Al55  1  0.49892254  -0.00402651  0.33929835  1
  Al0+  Al56  1  0.49954844  0.00030453  0.67087901  1
  Al0+  Al57  1  0.49973889  0.49912496  0.00802684  1
  Al0+  Al58  1  0.50062249  0.49946870  0.33074424  1
  Al0+  Al59  1  0.49970801  0.49931710  0.66707483  1
  Al0+  Al60  1  0.25260159  0.25248652  -0.00333615  1
  Al0+  Al61  1  0.25044103  0.24985123  0.33901436  1
  Al0+  Al62  1  0.25083136  0.25144521  0.66897750  1
  Al0+  Al63  1  0.25127228  0.75298711  0.00495722  1
  Al0+  Al64  1  0.25225077  0.75075625  0.34014283  1
  Al0+  Al65  1  0.24880432  0.75110663  0.66425705  1
  Al0+  Al66  1  0.74847023  0.24821010  -0.00548833  1
  Al0+  Al67  1  0.75097613  0.24933247  0.33250660  1
  Al0+  Al68  1  0.75055433  0.24951668  0.66558776  1
  Al0+  Al69  1  0.74849945  0.74758767  0.00512433  1
  Al0+  Al70  1  0.74966473  0.74802201  0.32999059  1
  Al0+  Al71  1  0.75092368  0.75035283  0.66127853  1
  Al0+  Al72  1  0.17761396  0.93238930  0.01148218  1
  Al0+  Al73  1  0.92943381  0.81957709  0.65096574  1
  Al0+  Al74  1  0.31946614  0.07007903  0.34627672  1
  Al0+  Al75  1  0.67762411  0.92796822  0.01383161  1
  Al0+  Al76  1  0.56875238  0.67933240  0.65524994  1
  Al0+  Al77  1  0.67912226  0.42874774  0.67951209  1
  Al0+  Al78  1  0.07215654  0.18095075  0.65037590  1
  Al0+  Al79  1  0.56905838  0.17733075  0.98767682  1
  Al0+  Al80  1  0.82211846  0.56971171  0.01504623  1
  Al0+  Al81  1  0.68045109  0.92737741  0.34973999  1
  Al0+  Al82  1  0.82096922  0.07343457  0.34862485  1
  Al0+  Al83  1  0.57083291  0.67798720  0.31585248  1
  Al0+  Al84  1  0.07313827  0.17879654  0.98613232  1
  Al0+  Al85  1  0.67989842  0.42573106  0.01695265  1
  Al0+  Al86  1  0.57121108  0.17784324  0.65161623  1
  Al0+  Al87  1  0.32025454  0.57270395  0.01314703  1
  Al0+  Al88  1  0.92600259  0.82062572  0.98671290  1
  Al0+  Al89  1  0.92746412  0.32248982  0.98252412  1
  Al0+  Al90  1  0.32030024  0.07147516  0.68324632  1
  Al0+  Al91  1  0.07431944  0.67971134  0.98685453  1
  Al0+  Al92  1  0.68178432  0.92922888  0.68126433  1
  Al0+  Al93  1  0.92872499  0.32128660  0.31962681  1
  Al0+  Al94  1  0.17732207  0.43057645  0.34740887  1
  Al0+  Al95  1  0.32353578  0.57193566  0.35110389  1
  Si0+  Si96  1  0.07377227  0.17853408  0.31740433  1
  Si0+  Si97  1  0.56929392  0.67825489  0.98612629  1
  Si0+  Si98  1  0.42857941  0.32248881  0.64932285  1
  Si0+  Si99  1  0.92887290  0.32319205  0.64908231  1
  Si0+  Si100  1  0.92976225  0.82125839  0.31708445  1
  Si0+  Si101  1  0.82302009  0.57266284  0.68241199  1
  Si0+  Si102  1  0.07473174  0.67645486  0.64774826  1
  Si0+  Si103  1  0.17563140  0.92700978  0.35159079  1
  Si0+  Si104  1  0.17820885  0.42976391  0.68343417  1
  Si0+  Si105  1  0.17811728  0.42685054  0.01427924  1
  Si0+  Si106  1  0.82213410  0.07131512  0.01409465  1
  Si0+  Si107  1  0.17632854  0.92776173  0.68319345  1
  Si0+  Si108  1  0.42566808  0.82245313  0.65015001  1
  Si0+  Si109  1  0.42813997  0.32016055  0.31837291  1
  Si0+  Si110  1  0.07165866  0.68045141  0.32056364  1
  Si0+  Si111  1  0.56967805  0.17724721  0.32011445  1
  Si0+  Si112  1  0.82447576  0.07211126  0.68343051  1
  Si0+  Si113  1  0.42895793  0.82141769  0.98563787  1
  Si0+  Si114  1  0.67883307  0.42794455  0.34765048  1
  Si0+  Si115  1  0.32199718  0.07344666  0.01555026  1
  Si0+  Si116  1  0.82061216  0.57023262  0.34857536  1
  Si0+  Si117  1  0.42729622  0.82263581  0.31557847  1
  Si0+  Si118  1  0.42955146  0.32421072  0.98376425  1
  Si0+  Si119  1  0.32001163  0.57113262  0.68082977  1
  O2-  O120  1  0.24752823  0.01125610  0.05937335  1
  O2-  O121  1  0.24230068  -0.00163756  0.39427103  1
  O2-  O122  1  0.24467805  -0.00338667  0.72758323  1
  O2-  O123  1  0.24196509  0.50058499  0.05782519  1
  O2-  O124  1  0.25021066  0.50083576  0.40014881  1
  O2-  O125  1  0.24644189  0.50404141  0.72469198  1
  O2-  O126  1  0.75370974  0.00201859  0.05835271  1
  O2-  O127  1  0.75036796  0.00094469  0.39992511  1
  O2-  O128  1  0.75504991  0.00485406  0.72892156  1
  O2-  O129  1  0.75456098  0.49456835  0.06758838  1
  O2-  O130  1  0.74907645  0.49957414  0.39042472  1
  O2-  O131  1  0.75547478  0.50222397  0.72481701  1
  O2-  O132  1  0.00341982  0.24559273  0.27409264  1
  O2-  O133  1  -0.00291805  0.25506223  0.60348170  1
  O2-  O134  1  0.00161657  0.25094062  0.93506452  1
  O2-  O135  1  0.00594474  0.75517600  0.27683811  1
  O2-  O136  1  0.00414930  0.74359863  0.60422994  1
  O2-  O137  1  -0.00117424  0.74837875  0.93714650  1
  O2-  O138  1  0.49839868  0.24786079  0.27695569  1
  O2-  O139  1  0.49656633  0.25301566  0.60451581  1
  O2-  O140  1  0.49714077  0.25464372  0.94004344  1
  O2-  O141  1  0.49395351  0.75197579  0.27085128  1
  O2-  O142  1  0.49527031  0.75441824  0.60646726  1
  O2-  O143  1  0.50008815  0.75054647  0.94319227  1
  O2-  O144  1  0.07365940  0.18016148  0.09994767  1
  O2-  O145  1  0.07432136  0.18147449  0.42310247  1
  O2-  O146  1  0.07162259  0.18232016  0.76323259  1
  O2-  O147  1  0.07582618  0.68353269  0.10114469  1
  O2-  O148  1  0.06797770  0.68064162  0.42598998  1
  O2-  O149  1  0.07950319  0.67689875  0.75255384  1
  O2-  O150  1  0.56545514  0.17621157  0.10154204  1
  O2-  O151  1  0.56894121  0.17949748  0.42525027  1
  O2-  O152  1  0.56926439  0.17788968  0.76455219  1
  O2-  O153  1  0.56774963  0.67859419  0.09118017  1
  O2-  O154  1  0.57108915  0.67759886  0.42938522  1
  O2-  O155  1  0.56624476  0.67863366  0.76857432  1
  O2-  O156  1  0.17801772  0.43243579  0.23398890  1
  O2-  O157  1  0.17820391  0.43035314  0.57836734  1
  O2-  O158  1  0.18386632  0.42507029  0.90840653  1
  O2-  O159  1  0.17546375  0.92601505  0.24593612  1
  O2-  O160  1  0.17880884  0.92639199  0.57733538  1
  O2-  O161  1  0.18119912  0.93074957  0.89852061  1
  O2-  O162  1  0.67921730  0.42703935  0.24304824  1
  O2-  O163  1  0.67961239  0.43071193  0.56557491  1
  O2-  O164  1  0.67733885  0.42910000  0.90321222  1
  O2-  O165  1  0.68143175  0.92940422  0.23598190  1
  O2-  O166  1  0.68364405  0.92816944  0.56838046  1
  O2-  O167  1  0.67658486  0.92791138  0.90060919  1
  O2-  O168  1  0.42843244  0.32281019  0.08966254  1
  O2-  O169  1  0.42941634  0.32135680  0.42352855  1
  O2-  O170  1  0.42855842  0.32468771  0.75477476  1
  O2-  O171  1  0.42883779  0.82279191  0.09063648  1
  O2-  O172  1  0.42763784  0.82324148  0.42119103  1
  O2-  O173  1  0.42216215  0.81870477  0.75597798  1
  O2-  O174  1  0.92923174  0.31996919  0.09656834  1
  O2-  O175  1  0.92944238  0.32220756  0.43299456  1
  O2-  O176  1  0.93068473  0.32379901  0.75412326  1
  O2-  O177  1  0.92849739  0.82058301  0.10076647  1
  O2-  O178  1  0.92937580  0.81860106  0.42245552  1
  O2-  O179  1  0.92867673  0.81822184  0.76361654  1
  O2-  O180  1  0.31942604  0.06897075  0.23307271  1
  O2-  O181  1  0.31939012  0.06977574  0.56982967  1
  O2-  O182  1  0.32430979  0.06966076  0.91020929  1
  O2-  O183  1  0.32138984  0.57033962  0.23763673  1
  O2-  O184  1  0.32008027  0.56854507  0.57609137  1
  O2-  O185  1  0.32219335  0.57123475  0.89923342  1
  O2-  O186  1  0.81929988  0.07359788  0.23488393  1
  O2-  O187  1  0.82233416  0.07116932  0.57765258  1
  O2-  O188  1  0.82221446  0.07043701  0.90845705  1
  O2-  O189  1  0.82224367  0.57070168  0.24407110  1
  O2-  O190  1  0.82352834  0.57136989  0.57604183  1
  O2-  O191  1  0.81473535  0.57297380  0.90142924  1
  O2-  O192  1  0.05028003  0.08265697  0.27477128  1
  O2-  O193  1  0.04605397  0.08458953  0.59391245  1
  O2-  O194  1  0.04425436  0.08150799  0.93123580  1
  O2-  O195  1  0.04067927  0.59008212  0.27337772  1
  O2-  O196  1  0.04981672  0.58180680  0.60256663  1
  O2-  O197  1  0.05387395  0.58032689  0.93321984  1
  O2-  O198  1  0.54082511  0.08441509  0.27548819  1
  O2-  O199  1  0.53783602  0.08119173  0.59880193  1
  O2-  O200  1  0.53423597  0.08216701  0.93254555  1
  O2-  O201  1  0.54060885  0.58082659  0.26212397  1
  O2-  O202  1  0.53600013  0.58350281  0.59974431  1
  O2-  O203  1  0.53904528  0.58603937  0.94085913  1
  O2-  O204  1  0.16794201  0.20371491  0.27239665  1
  O2-  O205  1  0.16915799  0.21502208  0.59849937  1
  O2-  O206  1  0.17241721  0.20641608  0.93290726  1
  O2-  O207  1  0.16696520  0.70343315  0.27796942  1
  O2-  O208  1  0.16705013  0.70407060  0.59850472  1
  O2-  O209  1  0.17196256  0.71279075  0.93403309  1
  O2-  O210  1  0.66091326  0.20605011  0.27283050  1
  O2-  O211  1  0.66816483  0.20863046  0.59759242  1
  O2-  O212  1  0.66487162  0.20370012  0.93108287  1
  O2-  O213  1  0.66739113  0.70927737  0.26174754  1
  O2-  O214  1  0.66517001  0.70748830  0.59959818  1
  O2-  O215  1  0.66122499  0.70477400  0.93967753  1
  O2-  O216  1  0.08202648  0.44605202  0.05575359  1
  O2-  O217  1  0.08061670  0.46204286  0.40356310  1
  O2-  O218  1  0.08548233  0.45440774  0.73058516  1
  O2-  O219  1  0.08029483  0.95878330  0.06659153  1
  O2-  O220  1  0.08143588  0.94957519  0.39746618  1
  O2-  O221  1  0.08187318  0.95463778  0.72543554  1
  O2-  O222  1  0.58265621  0.45620546  0.07131659  1
  O2-  O223  1  0.58686935  0.45519601  0.39457321  1
  O2-  O224  1  0.58253738  0.45992144  0.73339039  1
  O2-  O225  1  0.58157053  0.96033562  0.06865238  1
  O2-  O226  1  0.58099724  0.95109394  0.40184745  1
  O2-  O227  1  0.58352471  0.95600371  0.73371617  1
  O2-  O228  1  0.20932143  0.33583065  0.06318134  1
  O2-  O229  1  0.20672565  0.33309646  0.40203036  1
  O2-  O230  1  0.20969547  0.34016160  0.73193713  1
  O2-  O231  1  0.21394647  0.83959353  0.06967122  1
  O2-  O232  1  0.20305845  0.83518322  0.40052488  1
  O2-  O233  1  0.20182194  0.83337656  0.72837980  1
  O2-  O234  1  0.70427510  0.32491561  0.06676693  1
  O2-  O235  1  0.70696760  0.33660845  0.39562652  1
  O2-  O236  1  0.70903228  0.33142199  0.73243820  1
  O2-  O237  1  0.70591862  0.83177792  0.06874735  1
  O2-  O238  1  0.71245720  0.82846420  0.39996009  1
  O2-  O239  1  0.71385858  0.83138293  0.73268460  1
  O2-  O240  1  0.45665880  0.41089951  0.26963468  1
  O2-  O241  1  0.45543054  0.41511624  0.60136180  1
  O2-  O242  1  0.45591283  0.41800865  0.93813962  1
  O2-  O243  1  0.45476414  0.91544311  0.26815774  1
  O2-  O244  1  0.45120795  0.91658553  0.60658608  1
  O2-  O245  1  0.45576398  0.91267843  0.93685815  1
  O2-  O246  1  0.95947485  0.41862395  0.26654423  1
  O2-  O247  1  0.95458780  0.41801982  0.60397422  1
  O2-  O248  1  0.95260090  0.42069532  0.92776343  1
  O2-  O249  1  0.95296639  0.91548183  0.27238241  1
  O2-  O250  1  0.96093344  0.91412537  0.59301797  1
  O2-  O251  1  0.95349854  0.91819635  0.93258514  1
  O2-  O252  1  0.33590962  0.29224171  0.27166542  1
  O2-  O253  1  0.33461244  0.29766876  0.60382269  1
  O2-  O254  1  0.33638484  0.30164579  0.93530569  1
  O2-  O255  1  0.33143391  0.79940673  0.27181177  1
  O2-  O256  1  0.33249298  0.79757797  0.60182296  1
  O2-  O257  1  0.33822172  0.79274178  0.93711684  1
  O2-  O258  1  0.83203763  0.29085877  0.26484432  1
  O2-  O259  1  0.83511222  0.29809323  0.60310741  1
  O2-  O260  1  0.82991349  0.29252596  0.92927027  1
  O2-  O261  1  0.83993952  0.78875207  0.26989078  1
  O2-  O262  1  0.83539612  0.78631728  0.59280244  1
  O2-  O263  1  0.82796363  0.78808652  0.93421140  1
  O2-  O264  1  0.41168122  0.03988550  0.06461181  1
  O2-  O265  1  0.41393926  0.03625696  0.40303865  1
  O2-  O266  1  0.41566080  0.03923617  0.73820057  1
  O2-  O267  1  0.41372843  0.53842412  0.07051763  1
  O2-  O268  1  0.42165760  0.53908245  0.40213478  1
  O2-  O269  1  0.41030041  0.54070108  0.72952091  1
  O2-  O270  1  0.91531476  0.04749452  0.06157395  1
  O2-  O271  1  0.92002950  0.04633338  0.40184372  1
  O2-  O272  1  0.91952502  0.04499145  0.72493539  1
  O2-  O273  1  0.92408265  0.54733218  0.06407382  1
  O2-  O274  1  0.91139871  0.54356231  0.39857345  1
  O2-  O275  1  0.91789604  0.55083758  0.72781808  1
  O2-  O276  1  0.30474665  0.17023932  0.05827314  1
  O2-  O277  1  0.29364405  0.16663594  0.40309496  1
  O2-  O278  1  0.29160895  0.16919706  0.73589721  1
  O2-  O279  1  0.29364366  0.66901863  0.06941670  1
  O2-  O280  1  0.29826248  0.67074219  0.40495201  1
  O2-  O281  1  0.29501278  0.66512192  0.72593546  1
  O2-  O282  1  0.79421126  0.16421965  0.05961373  1
  O2-  O283  1  0.79216595  0.17126807  0.40294251  1
  O2-  O284  1  0.80163211  0.16690743  0.72743587  1
  O2-  O285  1  0.78935045  0.66521007  0.07188267  1
  O2-  O286  1  0.79126775  0.66160553  0.39606341  1
  O2-  O287  1  0.79513727  0.66573380  0.72633156  1
