# generated using pymatgen
data_Ca2Al2SiO7
_symmetry_space_group_name_H-M   'P 1'
_cell_length_a   15.46949371
_cell_length_b   15.46779442
_cell_length_c   15.29118489
_cell_angle_alpha   89.99901203
_cell_angle_beta   90.00558894
_cell_angle_gamma   89.99261560
_symmetry_Int_Tables_number   1
_chemical_formula_structural   Ca2Al2SiO7
_chemical_formula_sum   'Ca48 Al48 Si24 O168'
_cell_volume   3658.85859394
_cell_formula_units_Z   24
loop_
 _symmetry_equiv_pos_site_id
 _symmetry_equiv_pos_as_xyz
  1  'x, y, z'
loop_
 _atom_type_symbol
 _atom_type_oxidation_number
  Ca2+  2.0
  Al0+  0.0
  Si0+  0.0
  O2-  -2.0
loop_
 _atom_site_type_symbol
 _atom_site_label
 _atom_site_symmetry_multiplicity
 _atom_site_fract_x
 _atom_site_fract_y
 _atom_site_fract_z
 _atom_site_occupancy
  Ca2+  Ca0  1  0.17241624  0.08770891  0.17385746  1
  Ca2+  Ca1  1  0.18036029  0.08826119  0.50550564  1
  Ca2+  Ca2  1  0.17348048  0.09107628  0.83636096  1
  Ca2+  Ca3  1  0.15778232  0.58124833  0.17368747  1
  Ca2+  Ca4  1  0.15355287  0.57621240  0.50471728  1
  Ca2+  Ca5  1  0.15659243  0.58177313  0.83304494  1
  Ca2+  Ca6  1  0.67926489  0.07748128  0.16887862  1
  Ca2+  Ca7  1  0.67088316  0.07273913  0.50408340  1
  Ca2+  Ca8  1  0.66852286  0.07682249  0.84101993  1
  Ca2+  Ca9  1  0.67310007  0.57239068  0.17489365  1
  Ca2+  Ca10  1  0.67343719  0.58466371  0.50307980  1
  Ca2+  Ca11  1  0.66515109  0.57680568  0.83866378  1
  Ca2+  Ca12  1  0.08269845  0.32801404  0.16407097  1
  Ca2+  Ca13  1  0.08142878  0.33989443  0.50019979  1
  Ca2+  Ca14  1  0.07793814  0.33020799  0.82619494  1
  Ca2+  Ca15  1  0.06835014  0.82636143  0.15709232  1
  Ca2+  Ca16  1  0.07206559  0.82598267  0.49010279  1
  Ca2+  Ca17  1  0.07021333  0.82537195  0.82659466  1
  Ca2+  Ca18  1  0.58921004  0.32872287  0.15856043  1
  Ca2+  Ca19  1  0.58021937  0.32833857  0.49665807  1
  Ca2+  Ca20  1  0.58440314  0.32070252  0.82522143  1
  Ca2+  Ca21  1  0.58761242  0.84155804  0.16591184  1
  Ca2+  Ca22  1  0.59222834  0.83319866  0.49922238  1
  Ca2+  Ca23  1  0.59149397  0.83142851  0.82502632  1
  Ca2+  Ca24  1  0.32406043  0.41966662  0.17413348  1
  Ca2+  Ca25  1  0.32122498  0.41354724  0.50882534  1
  Ca2+  Ca26  1  0.33073201  0.41250864  0.83044363  1
  Ca2+  Ca27  1  0.32924535  0.92490628  0.17426594  1
  Ca2+  Ca28  1  0.33445832  0.92866266  0.50554496  1
  Ca2+  Ca29  1  0.33377087  0.92282418  0.83304279  1
  Ca2+  Ca30  1  0.82253218  0.42027513  0.17447413  1
  Ca2+  Ca31  1  0.83528288  0.42296100  0.50184693  1
  Ca2+  Ca32  1  0.83042751  0.41618259  0.83779918  1
  Ca2+  Ca33  1  0.83237438  0.92110166  0.17180171  1
  Ca2+  Ca34  1  0.82934980  0.91134317  0.50301190  1
  Ca2+  Ca35  1  0.82735149  0.91575347  0.83947531  1
  Ca2+  Ca36  1  0.42479442  0.16636990  0.16190809  1
  Ca2+  Ca37  1  0.41887110  0.16326324  0.50123057  1
  Ca2+  Ca38  1  0.42956611  0.16825609  0.82332687  1
  Ca2+  Ca39  1  0.41879897  0.66960347  0.16341876  1
  Ca2+  Ca40  1  0.42575763  0.66385431  0.50028111  1
  Ca2+  Ca41  1  0.42651050  0.67009454  0.82656228  1
  Ca2+  Ca42  1  0.91558079  0.16323987  0.15869198  1
  Ca2+  Ca43  1  0.91005756  0.17341350  0.49622457  1
  Ca2+  Ca44  1  0.91719634  0.16927076  0.83143999  1
  Ca2+  Ca45  1  0.91618585  0.67379347  0.16698412  1
  Ca2+  Ca46  1  0.92053540  0.67489746  0.49430397  1
  Ca2+  Ca47  1  0.91883748  0.67854037  0.82640606  1
  Al0+  Al48  1  0.00216412  -0.00017083  -0.00724489  1
  Al0+  Al49  1  0.00137122  0.00103630  0.33321098  1
  Al0+  Al50  1  0.00100830  0.00061202  0.66271260  1
  Al0+  Al51  1  0.00019010  0.49922733  0.00022679  1
  Al0+  Al52  1  -0.00215711  0.49804674  0.33546568  1
  Al0+  Al53  1  -0.00120281  0.49874259  0.66746840  1
  Al0+  Al54  1  0.49895439  0.00173039  -0.00025420  1
  Al0+  Al55  1  0.50088822  0.00094811  0.33876673  1
  Al0+  Al56  1  0.50079694  -0.00051086  0.67186050  1
  Al0+  Al57  1  0.49619333  0.50122506  0.00483302  1
  Al0+  Al58  1  0.49666066  0.49865631  0.33389952  1
  Al0+  Al59  1  0.49855987  0.49946234  0.65976584  1
  Al0+  Al60  1  0.24987175  0.25245877  -0.00156812  1
  Al0+  Al61  1  0.25127320  0.25252465  0.33993477  1
  Al0+  Al62  1  0.25067094  0.25185048  0.67441832  1
  Al0+  Al63  1  0.25151670  0.75019652  -0.00387350  1
  Al0+  Al64  1  0.25242724  0.74936325  0.32973369  1
  Al0+  Al65  1  0.25193138  0.74850771  0.66397488  1
  Al0+  Al66  1  0.74902135  0.24859699  0.00213924  1
  Al0+  Al67  1  0.74802947  0.24790565  0.33781123  1
  Al0+  Al68  1  0.75026780  0.24919791  0.65747406  1
  Al0+  Al69  1  0.74800488  0.74838737  0.00077920  1
  Al0+  Al70  1  0.74971715  0.74786562  0.33370833  1
  Al0+  Al71  1  0.75119164  0.74896063  0.66403041  1
  Al0+  Al72  1  0.67751279  0.42885456  0.01059257  1
  Al0+  Al73  1  0.31986849  0.07030641  0.68377689  1
  Al0+  Al74  1  0.07097150  0.67707866  0.31756340  1
  Al0+  Al75  1  0.82554017  0.07127739  0.34917699  1
  Al0+  Al76  1  0.17838149  0.43237270  0.68393127  1
  Al0+  Al77  1  0.07149461  0.67867706  0.65129909  1
  Al0+  Al78  1  0.68309798  0.92912886  0.68134127  1
  Al0+  Al79  1  0.92903258  0.31978568  0.65308832  1
  Al0+  Al80  1  0.82384866  0.06961056  0.01211661  1
  Al0+  Al81  1  0.32019335  0.07084560  0.34643993  1
  Al0+  Al82  1  0.17967739  0.43172141  0.34676842  1
  Al0+  Al83  1  0.67537656  0.42698006  0.35026883  1
  Al0+  Al84  1  0.92731152  0.82274816  0.31567423  1
  Al0+  Al85  1  0.42853084  0.31977518  0.65082302  1
  Al0+  Al86  1  0.57068298  0.18017984  0.98736391  1
  Al0+  Al87  1  0.68087458  0.92929474  0.34882371  1
  Al0+  Al88  1  0.92580404  0.82085680  0.98350986  1
  Al0+  Al89  1  0.92896790  0.82304755  0.64987169  1
  Al0+  Al90  1  0.07241273  0.67772938  0.98372203  1
  Al0+  Al91  1  0.07308412  0.17908454  0.98755066  1
  Al0+  Al92  1  0.67722913  0.92723462  0.01463201  1
  Al0+  Al93  1  0.57156217  0.17588258  0.64878780  1
  Al0+  Al94  1  0.57153027  0.67888458  0.65376019  1
  Al0+  Al95  1  0.81948846  0.56913500  0.34928808  1
  Si0+  Si96  1  0.42840799  0.82233931  0.65001206  1
  Si0+  Si97  1  0.32245746  0.57503401  0.35093166  1
  Si0+  Si98  1  0.42917933  0.82235114  0.98555377  1
  Si0+  Si99  1  0.32028736  0.57308491  0.01572347  1
  Si0+  Si100  1  0.56969555  0.17873707  0.31683931  1
  Si0+  Si101  1  0.18127535  0.92792966  0.01284923  1
  Si0+  Si102  1  0.82221200  0.57106634  0.01599056  1
  Si0+  Si103  1  0.43096862  0.82305656  0.31839543  1
  Si0+  Si104  1  0.56971874  0.67717387  0.31687056  1
  Si0+  Si105  1  0.07370384  0.17921232  0.65008366  1
  Si0+  Si106  1  0.17892782  0.42956890  0.01582638  1
  Si0+  Si107  1  0.07384784  0.18134659  0.32154500  1
  Si0+  Si108  1  0.42750740  0.32430069  0.98436109  1
  Si0+  Si109  1  0.81931929  0.56882841  0.68307646  1
  Si0+  Si110  1  0.31950298  0.07267743  0.01549948  1
  Si0+  Si111  1  0.92770384  0.32088134  0.98606538  1
  Si0+  Si112  1  0.42714391  0.32041911  0.31705027  1
  Si0+  Si113  1  0.92724950  0.31878387  0.31764236  1
  Si0+  Si114  1  0.17893021  0.92669222  0.34789262  1
  Si0+  Si115  1  0.82388587  0.07514390  0.68311223  1
  Si0+  Si116  1  0.17777470  0.92591540  0.68279227  1
  Si0+  Si117  1  0.56863230  0.67769272  0.98780548  1
  Si0+  Si118  1  0.32494394  0.57294081  0.68489179  1
  Si0+  Si119  1  0.67698502  0.42804359  0.67999520  1
  O2-  O120  1  0.24711260  0.00340195  0.05782686  1
  O2-  O121  1  0.24521442  -0.00307698  0.39336886  1
  O2-  O122  1  0.24359190  -0.00348194  0.72994876  1
  O2-  O123  1  0.24606890  0.50483873  0.05706798  1
  O2-  O124  1  0.24899432  0.51144555  0.39334629  1
  O2-  O125  1  0.25291049  0.50822529  0.73012286  1
  O2-  O126  1  0.75421044  -0.00493862  0.06234951  1
  O2-  O127  1  0.75754762  -0.00432817  0.39885043  1
  O2-  O128  1  0.75725728  0.00464745  0.72713847  1
  O2-  O129  1  0.75293139  0.50184211  0.05847132  1
  O2-  O130  1  0.74635187  0.49880619  0.40112414  1
  O2-  O131  1  0.74748675  0.49801756  0.72485690  1
  O2-  O132  1  -0.00291784  0.24523481  0.27724352  1
  O2-  O133  1  0.00140240  0.24303456  0.60522721  1
  O2-  O134  1  -0.00416089  0.25152401  0.94223913  1
  O2-  O135  1  0.00180879  0.75147327  0.26751614  1
  O2-  O136  1  0.00557657  0.75524997  0.60158711  1
  O2-  O137  1  -0.00262627  0.74683546  0.93547256  1
  O2-  O138  1  0.50176421  0.25373484  0.27428903  1
  O2-  O139  1  0.49950303  0.24841091  0.59874587  1
  O2-  O140  1  0.49855672  0.25813468  0.94170082  1
  O2-  O141  1  0.50073719  0.75100189  0.27496325  1
  O2-  O142  1  0.49765907  0.75427192  0.60630279  1
  O2-  O143  1  0.50476086  0.75514149  0.94525735  1
  O2-  O144  1  0.07920235  0.18396894  0.10090429  1
  O2-  O145  1  0.07792286  0.18601807  0.42611927  1
  O2-  O146  1  0.07356920  0.18201486  0.75597686  1
  O2-  O147  1  0.07441452  0.67956086  0.09695625  1
  O2-  O148  1  0.07056926  0.67913615  0.43060995  1
  O2-  O149  1  0.06682818  0.67945800  0.76502314  1
  O2-  O150  1  0.56710790  0.18070002  0.10076019  1
  O2-  O151  1  0.56675496  0.17755335  0.42139050  1
  O2-  O152  1  0.57158322  0.17831960  0.76289547  1
  O2-  O153  1  0.56332725  0.67362107  0.09264624  1
  O2-  O154  1  0.56687039  0.67555905  0.42171435  1
  O2-  O155  1  0.56969258  0.67804256  0.76762257  1
  O2-  O156  1  0.18308810  0.42818190  0.23300021  1
  O2-  O157  1  0.17914828  0.43271309  0.57098255  1
  O2-  O158  1  0.18033962  0.42739336  0.91129471  1
  O2-  O159  1  0.18268321  0.92887265  0.24179232  1
  O2-  O160  1  0.18195036  0.92726298  0.57726134  1
  O2-  O161  1  0.18745061  0.92719742  0.90814146  1
  O2-  O162  1  0.67713222  0.42854813  0.23586317  1
  O2-  O163  1  0.67761461  0.43081073  0.57540937  1
  O2-  O164  1  0.67744728  0.43105387  0.89719062  1
  O2-  O165  1  0.67690525  0.93449468  0.23539582  1
  O2-  O166  1  0.68326658  0.92841270  0.56868776  1
  O2-  O167  1  0.67545353  0.92871328  0.90129049  1
  O2-  O168  1  0.42424746  0.32309932  0.09024921  1
  O2-  O169  1  0.42458432  0.31876188  0.42133876  1
  O2-  O170  1  0.43190223  0.31979415  0.76502195  1
  O2-  O171  1  0.42572305  0.82097473  0.09081861  1
  O2-  O172  1  0.43023361  0.82316438  0.42299906  1
  O2-  O173  1  0.42791792  0.82078485  0.75611750  1
  O2-  O174  1  0.92992894  0.32245982  0.09179792  1
  O2-  O175  1  0.92907036  0.32010082  0.42256593  1
  O2-  O176  1  0.92914727  0.32021593  0.76675909  1
  O2-  O177  1  0.92735860  0.82042112  0.09689364  1
  O2-  O178  1  0.92921161  0.82143900  0.42879096  1
  O2-  O179  1  0.92678963  0.82015658  0.76352763  1
  O2-  O180  1  0.31964448  0.07057778  0.23260342  1
  O2-  O181  1  0.31849329  0.06907831  0.57051539  1
  O2-  O182  1  0.32005093  0.07188335  0.91081614  1
  O2-  O183  1  0.32640364  0.57233895  0.24482971  1
  O2-  O184  1  0.32802034  0.57142738  0.57970006  1
  O2-  O185  1  0.32607121  0.57252666  0.91138561  1
  O2-  O186  1  0.82304717  0.07443346  0.23549996  1
  O2-  O187  1  0.82213638  0.07593274  0.57782047  1
  O2-  O188  1  0.82082406  0.07317106  0.89882809  1
  O2-  O189  1  0.81738571  0.56632344  0.23502131  1
  O2-  O190  1  0.81903429  0.56809423  0.57836517  1
  O2-  O191  1  0.82111326  0.57004984  0.91012682  1
  O2-  O192  1  0.05609288  0.08686128  0.27546120  1
  O2-  O193  1  0.05699694  0.08350613  0.60550059  1
  O2-  O194  1  0.05087127  0.08250707  0.93057899  1
  O2-  O195  1  0.03970814  0.57801106  0.26624274  1
  O2-  O196  1  0.03700199  0.58165305  0.60107401  1
  O2-  O197  1  0.04772777  0.57648421  0.93487494  1
  O2-  O198  1  0.53564866  0.08852416  0.27003716  1
  O2-  O199  1  0.53884182  0.07772098  0.59876465  1
  O2-  O200  1  0.53547970  0.08520830  0.93287952  1
  O2-  O201  1  0.53747186  0.58640222  0.26854348  1
  O2-  O202  1  0.53939734  0.58470085  0.59670726  1
  O2-  O203  1  0.53338253  0.58859923  0.93873385  1
  O2-  O204  1  0.16342078  0.21610700  0.27226266  1
  O2-  O205  1  0.16609590  0.21055510  0.60602822  1
  O2-  O206  1  0.16778687  0.21459909  0.93154217  1
  O2-  O207  1  0.17330680  0.69934014  0.26768658  1
  O2-  O208  1  0.17408412  0.69654581  0.60264497  1
  O2-  O209  1  0.17113079  0.70701219  0.93114939  1
  O2-  O210  1  0.66255644  0.20470795  0.27059419  1
  O2-  O211  1  0.66865965  0.20359796  0.59465979  1
  O2-  O212  1  0.66725340  0.20937498  0.93316738  1
  O2-  O213  1  0.66166702  0.70157530  0.26941057  1
  O2-  O214  1  0.66671322  0.70877866  0.59847038  1
  O2-  O215  1  0.66223074  0.69645963  0.94107874  1
  O2-  O216  1  0.08572174  0.45198638  0.06345560  1
  O2-  O217  1  0.08176512  0.45567835  0.39985565  1
  O2-  O218  1  0.08140769  0.46187318  0.73868092  1
  O2-  O219  1  0.08782311  0.95155124  0.05722198  1
  O2-  O220  1  0.08539872  0.94976737  0.39310112  1
  O2-  O221  1  0.08271527  0.94920173  0.72679485  1
  O2-  O222  1  0.58106803  0.45973663  0.06597026  1
  O2-  O223  1  0.57506897  0.45318652  0.39915333  1
  O2-  O224  1  0.58489339  0.45675036  0.72612783  1
  O2-  O225  1  0.57851358  0.95883239  0.06691950  1
  O2-  O226  1  0.58373418  0.96070220  0.40284971  1
  O2-  O227  1  0.58482398  0.95565781  0.73444908  1
  O2-  O228  1  0.21191628  0.33961782  0.06492677  1
  O2-  O229  1  0.21539094  0.33854156  0.40342560  1
  O2-  O230  1  0.21046820  0.33689804  0.73973434  1
  O2-  O231  1  0.21511561  0.83851849  0.06171951  1
  O2-  O232  1  0.20781083  0.83376520  0.39280794  1
  O2-  O233  1  0.20683013  0.83292282  0.72890182  1
  O2-  O234  1  0.70777957  0.33345697  0.06633364  1
  O2-  O235  1  0.70192069  0.32859133  0.40121624  1
  O2-  O236  1  0.70618257  0.33504459  0.72424641  1
  O2-  O237  1  0.69644153  0.82538161  0.06504513  1
  O2-  O238  1  0.70079537  0.82765346  0.39726463  1
  O2-  O239  1  0.71279347  0.83080645  0.73385637  1
  O2-  O240  1  0.44886183  0.41434446  0.26974925  1
  O2-  O241  1  0.45328305  0.41801407  0.59671364  1
  O2-  O242  1  0.44894325  0.41958569  0.94021389  1
  O2-  O243  1  0.45993183  0.91458084  0.27004382  1
  O2-  O244  1  0.45380101  0.91602799  0.60585481  1
  O2-  O245  1  0.45150760  0.91533050  0.93852059  1
  O2-  O246  1  0.95741610  0.40910772  0.26922174  1
  O2-  O247  1  0.96311969  0.41470379  0.59897992  1
  O2-  O248  1  0.95418125  0.41382158  0.93910879  1
  O2-  O249  1  0.95632913  0.92277219  0.26471019  1
  O2-  O250  1  0.95192759  0.92328631  0.59808874  1
  O2-  O251  1  0.95633330  0.91787093  0.92961230  1
  O2-  O252  1  0.33677727  0.28822148  0.26830780  1
  O2-  O253  1  0.32862586  0.29082878  0.60182548  1
  O2-  O254  1  0.33533461  0.29647938  0.93721666  1
  O2-  O255  1  0.33970185  0.79659295  0.26792825  1
  O2-  O256  1  0.33593067  0.79715929  0.60182174  1
  O2-  O257  1  0.34100862  0.78990055  0.93428535  1
  O2-  O258  1  0.83426926  0.29242712  0.27143262  1
  O2-  O259  1  0.83360931  0.29407694  0.59491521  1
  O2-  O260  1  0.83434476  0.29651389  0.93966849  1
  O2-  O261  1  0.82885446  0.79073559  0.26417293  1
  O2-  O262  1  0.83369552  0.78670599  0.59707419  1
  O2-  O263  1  0.82638350  0.79149582  0.93214549  1
  O2-  O264  1  0.40991872  0.04217656  0.06371382  1
  O2-  O265  1  0.41427393  0.03768028  0.40198410  1
  O2-  O266  1  0.41508672  0.03694644  0.73891992  1
  O2-  O267  1  0.40897491  0.54269142  0.06884346  1
  O2-  O268  1  0.41373510  0.54447873  0.39811817  1
  O2-  O269  1  0.41741084  0.54258094  0.73224414  1
  O2-  O270  1  0.92565630  0.04740951  0.06211187  1
  O2-  O271  1  0.92726623  0.05363025  0.39993079  1
  O2-  O272  1  0.92050907  0.05417229  0.72559275  1
  O2-  O273  1  0.91545409  0.54482926  0.06243766  1
  O2-  O274  1  0.91605586  0.53776994  0.40296600  1
  O2-  O275  1  0.90916580  0.53816773  0.73191269  1
  O2-  O276  1  0.29298719  0.16556626  0.06212514  1
  O2-  O277  1  0.28878107  0.16580075  0.40196025  1
  O2-  O278  1  0.28968214  0.16604973  0.73940023  1
  O2-  O279  1  0.29650384  0.66633814  0.06283866  1
  O2-  O280  1  0.30597410  0.67124538  0.39465926  1
  O2-  O281  1  0.30504848  0.66880686  0.72954980  1
  O2-  O282  1  0.79332271  0.16712460  0.06700953  1
  O2-  O283  1  0.79193503  0.16752692  0.40258610  1
  O2-  O284  1  0.79677894  0.16946522  0.72752510  1
  O2-  O285  1  0.79460844  0.66322599  0.06282317  1
  O2-  O286  1  0.79068252  0.66681341  0.40193474  1
  O2-  O287  1  0.78971331  0.65987279  0.73036822  1
