# generated using pymatgen
data_Ca2Al2SiO7
_symmetry_space_group_name_H-M   'P 1'
_cell_length_a   15.46210419
_cell_length_b   15.46548432
_cell_length_c   15.28818184
_cell_angle_alpha   89.98868239
_cell_angle_beta   90.00206981
_cell_angle_gamma   89.99423188
_symmetry_Int_Tables_number   1
_chemical_formula_structural   Ca2Al2SiO7
_chemical_formula_sum   'Ca48 Al48 Si24 O168'
_cell_volume   3655.84647177
_cell_formula_units_Z   24
loop_
 _symmetry_equiv_pos_site_id
 _symmetry_equiv_pos_as_xyz
  1  'x, y, z'
loop_
 _atom_type_symbol
 _atom_type_oxidation_number
  Ca2+  2.0
  Al0+  0.0
  Si0+  0.0
  O2-  -2.0
loop_
 _atom_site_type_symbol
 _atom_site_label
 _atom_site_symmetry_multiplicity
 _atom_site_fract_x
 _atom_site_fract_y
 _atom_site_fract_z
 _atom_site_occupancy
  Ca2+  Ca0  1  0.16876805  0.07732762  0.16804587  1
  Ca2+  Ca1  1  0.16075513  0.06918349  0.50619741  1
  Ca2+  Ca2  1  0.16563288  0.07928182  0.84019463  1
  Ca2+  Ca3  1  0.16974599  0.59460763  0.17451468  1
  Ca2+  Ca4  1  0.17046585  0.59602562  0.50147044  1
  Ca2+  Ca5  1  0.15993557  0.58673504  0.83594295  1
  Ca2+  Ca6  1  0.67114783  0.06996668  0.16790996  1
  Ca2+  Ca7  1  0.66527621  0.07732605  0.50258882  1
  Ca2+  Ca8  1  0.67343708  0.07715662  0.84393080  1
  Ca2+  Ca9  1  0.67915323  0.58666403  0.17184072  1
  Ca2+  Ca10  1  0.68012363  0.58599432  0.50667153  1
  Ca2+  Ca11  1  0.67570766  0.59501628  0.83773030  1
  Ca2+  Ca12  1  0.07440549  0.33029293  0.16222593  1
  Ca2+  Ca13  1  0.07808493  0.32672207  0.49515429  1
  Ca2+  Ca14  1  0.08314265  0.31930795  0.83016970  1
  Ca2+  Ca15  1  0.07898664  0.82501614  0.16148297  1
  Ca2+  Ca16  1  0.08028736  0.83019059  0.49631590  1
  Ca2+  Ca17  1  0.07088244  0.82913668  0.82630903  1
  Ca2+  Ca18  1  0.58660447  0.33636483  0.16652721  1
  Ca2+  Ca19  1  0.59468764  0.32685888  0.49645443  1
  Ca2+  Ca20  1  0.58248537  0.32499373  0.82685226  1
  Ca2+  Ca21  1  0.57642589  0.83690167  0.15958659  1
  Ca2+  Ca22  1  0.57912175  0.82833958  0.49415642  1
  Ca2+  Ca23  1  0.58433594  0.82873042  0.83457302  1
  Ca2+  Ca24  1  0.32835177  0.42767216  0.17308897  1
  Ca2+  Ca25  1  0.33344517  0.42594225  0.50089096  1
  Ca2+  Ca26  1  0.33002802  0.41828610  0.83757935  1
  Ca2+  Ca27  1  0.33152973  0.91453343  0.17286331  1
  Ca2+  Ca28  1  0.31983450  0.90667061  0.50097549  1
  Ca2+  Ca29  1  0.32706980  0.91850546  0.83931531  1
  Ca2+  Ca30  1  0.83254404  0.42762444  0.17556398  1
  Ca2+  Ca31  1  0.83799690  0.42624819  0.49808281  1
  Ca2+  Ca32  1  0.83692002  0.43177794  0.83708444  1
  Ca2+  Ca33  1  0.82306172  0.90842547  0.16443619  1
  Ca2+  Ca34  1  0.82817163  0.90936081  0.50404250  1
  Ca2+  Ca35  1  0.83096561  0.91391000  0.84367424  1
  Ca2+  Ca36  1  0.41530629  0.16642974  0.15966671  1
  Ca2+  Ca37  1  0.42335395  0.16612752  0.49920358  1
  Ca2+  Ca38  1  0.42091856  0.16242013  0.83015838  1
  Ca2+  Ca39  1  0.42031291  0.67888213  0.16094075  1
  Ca2+  Ca40  1  0.42135453  0.66946899  0.49167577  1
  Ca2+  Ca41  1  0.43016955  0.67196801  0.83262448  1
  Ca2+  Ca42  1  0.91636128  0.17128770  0.16054614  1
  Ca2+  Ca43  1  0.92078519  0.17179626  0.49468223  1
  Ca2+  Ca44  1  0.92718367  0.15669143  0.83104460  1
  Ca2+  Ca45  1  0.92280774  0.66505003  0.15873354  1
  Ca2+  Ca46  1  0.92414469  0.66349767  0.49898613  1
  Ca2+  Ca47  1  0.91611547  0.67563073  0.82868040  1
  Al0+  Al48  1  0.00079138  0.00070073  -0.00086704  1
  Al0+  Al49  1  0.00065559  -0.00085429  0.33505706  1
  Al0+  Al50  1  -0.00113719  -0.00071917  0.66180350  1
  Al0+  Al51  1  -0.00045373  0.49660764  0.00038034  1
  Al0+  Al52  1  0.00144103  0.49705654  0.32890550  1
  Al0+  Al53  1  0.00089299  0.50041672  0.66913586  1
  Al0+  Al54  1  0.49806721  0.00210449  0.00258255  1
  Al0+  Al55  1  0.50149681  0.00098989  0.33440925  1
  Al0+  Al56  1  0.49889801  0.00139028  0.66211836  1
  Al0+  Al57  1  0.49749482  0.49966976  -0.00398514  1
  Al0+  Al58  1  0.50036000  0.49712939  0.34042847  1
  Al0+  Al59  1  0.49998875  0.50000683  0.66446268  1
  Al0+  Al60  1  0.24899733  0.25059220  0.00136745  1
  Al0+  Al61  1  0.25284664  0.24932463  0.33367987  1
  Al0+  Al62  1  0.25053758  0.25086744  0.66103234  1
  Al0+  Al63  1  0.25124322  0.74982187  -0.00784283  1
  Al0+  Al64  1  0.25113393  0.75140312  0.33401601  1
  Al0+  Al65  1  0.24955479  0.75095807  0.67373058  1
  Al0+  Al66  1  0.74922747  0.25130192  0.00182728  1
  Al0+  Al67  1  0.75189485  0.24980797  0.33049487  1
  Al0+  Al68  1  0.74893063  0.25046363  0.66335395  1
  Al0+  Al69  1  0.74981583  0.74867727  0.00447020  1
  Al0+  Al70  1  0.75112440  0.75005140  0.34312802  1
  Al0+  Al71  1  0.74838959  0.75040006  0.66367220  1
  Al0+  Al72  1  0.92763659  0.82129983  0.64999934  1
  Al0+  Al73  1  0.17725712  0.92940604  0.68289984  1
  Al0+  Al74  1  0.43111924  0.82005017  0.32099075  1
  Al0+  Al75  1  0.07152695  0.67607862  0.98493416  1
  Al0+  Al76  1  0.57110778  0.17934002  0.65286129  1
  Al0+  Al77  1  0.42871448  0.82553332  0.98374326  1
  Al0+  Al78  1  0.31929403  0.07170942  0.01267507  1
  Al0+  Al79  1  0.07171375  0.67855334  0.65110450  1
  Al0+  Al80  1  0.57040606  0.67924693  0.65132783  1
  Al0+  Al81  1  0.57048909  0.67799517  0.98804199  1
  Al0+  Al82  1  0.07050769  0.18020940  0.98834530  1
  Al0+  Al83  1  0.82424990  0.57125590  0.35003729  1
  Al0+  Al84  1  0.92851973  0.82014573  0.98766498  1
  Al0+  Al85  1  0.67838669  0.92951510  0.34945817  1
  Al0+  Al86  1  0.93037412  0.31910505  0.31848352  1
  Al0+  Al87  1  0.82053622  0.57065109  0.68287665  1
  Al0+  Al88  1  0.31926629  0.57124077  0.34594828  1
  Al0+  Al89  1  0.17987263  0.93037128  0.34575074  1
  Al0+  Al90  1  0.82069748  0.56980992  0.01371271  1
  Al0+  Al91  1  0.06974054  0.68090198  0.32087594  1
  Al0+  Al92  1  0.67906378  0.92842964  0.01382827  1
  Al0+  Al93  1  0.07160009  0.17815831  0.65174297  1
  Al0+  Al94  1  0.67981857  0.42761509  0.34882606  1
  Al0+  Al95  1  0.82426757  0.07301564  0.01452166  1
  Si0+  Si96  1  0.42780429  0.32098434  0.98557977  1
  Si0+  Si97  1  0.18041243  0.42754757  0.68192006  1
  Si0+  Si98  1  0.32361124  0.07403797  0.35185310  1
  Si0+  Si99  1  0.32274734  0.57112373  0.68427351  1
  Si0+  Si100  1  0.17879132  0.92622701  0.01634789  1
  Si0+  Si101  1  0.17995389  0.42856069  0.01449920  1
  Si0+  Si102  1  0.67733526  0.93064964  0.68129864  1
  Si0+  Si103  1  0.07387427  0.17566075  0.31607185  1
  Si0+  Si104  1  0.32066724  0.57106807  0.01332349  1
  Si0+  Si105  1  0.67450880  0.42752148  0.01449920  1
  Si0+  Si106  1  0.42796115  0.32181884  0.31675672  1
  Si0+  Si107  1  0.57355283  0.67601219  0.31909585  1
  Si0+  Si108  1  0.92590478  0.82358934  0.31615142  1
  Si0+  Si109  1  0.17887962  0.42520505  0.35002726  1
  Si0+  Si110  1  0.32133086  0.07298741  0.68196848  1
  Si0+  Si111  1  0.42803202  0.82208095  0.65001710  1
  Si0+  Si112  1  0.92553365  0.32097286  0.98145611  1
  Si0+  Si113  1  0.82148665  0.07168727  0.35026697  1
  Si0+  Si114  1  0.57088115  0.17984798  0.31573880  1
  Si0+  Si115  1  0.57093435  0.18024751  0.98691816  1
  Si0+  Si116  1  0.92894907  0.32239010  0.65102989  1
  Si0+  Si117  1  0.42776550  0.32309552  0.64794760  1
  Si0+  Si118  1  0.81944374  0.07293263  0.67934164  1
  Si0+  Si119  1  0.67714817  0.42702983  0.68472365  1
  O2-  O120  1  0.24898281  -0.00592700  0.06039929  1
  O2-  O121  1  0.25304993  0.00702871  0.39425068  1
  O2-  O122  1  0.25130584  0.00692679  0.72695246  1
  O2-  O123  1  0.24370335  0.50645999  0.05583130  1
  O2-  O124  1  0.24404863  0.49710529  0.39437272  1
  O2-  O125  1  0.24968396  0.50055991  0.72477065  1
  O2-  O126  1  0.75418963  -0.00150465  0.06333532  1
  O2-  O127  1  0.75654234  0.00071395  0.39656714  1
  O2-  O128  1  0.74946329  0.00119204  0.72188856  1
  O2-  O129  1  0.74289742  0.49628620  0.05754218  1
  O2-  O130  1  0.74796671  0.50235661  0.39937319  1
  O2-  O131  1  0.74355537  0.49672833  0.72960723  1
  O2-  O132  1  0.00581313  0.24459673  0.27211202  1
  O2-  O133  1  -0.00390736  0.25234689  0.60624826  1
  O2-  O134  1  -0.00921252  0.24837392  0.93861063  1
  O2-  O135  1  -0.00826806  0.75148444  0.27357814  1
  O2-  O136  1  0.00069973  0.75026774  0.60024032  1
  O2-  O137  1  -0.00039543  0.74816603  0.93603900  1
  O2-  O138  1  0.49923897  0.25119333  0.27424540  1
  O2-  O139  1  0.49832692  0.25567023  0.60498974  1
  O2-  O140  1  0.50021015  0.25149877  0.94397183  1
  O2-  O141  1  0.50757018  0.74691351  0.27439646  1
  O2-  O142  1  0.49442003  0.75218006  0.60468112  1
  O2-  O143  1  0.50239862  0.75364443  0.93671376  1
  O2-  O144  1  0.07380818  0.18601601  0.10109654  1
  O2-  O145  1  0.07288010  0.17714308  0.42185735  1
  O2-  O146  1  0.07248487  0.18036922  0.76493541  1
  O2-  O147  1  0.07240220  0.67808128  0.09876471  1
  O2-  O148  1  0.07102854  0.68330460  0.43363233  1
  O2-  O149  1  0.06902863  0.67846815  0.76426217  1
  O2-  O150  1  0.56965854  0.18211620  0.09196987  1
  O2-  O151  1  0.56960453  0.18020616  0.42110165  1
  O2-  O152  1  0.56944528  0.17995223  0.76623533  1
  O2-  O153  1  0.56591475  0.67325627  0.10141116  1
  O2-  O154  1  0.57016317  0.67779345  0.42494700  1
  O2-  O155  1  0.56988184  0.68115366  0.76430354  1
  O2-  O156  1  0.18310656  0.42122641  0.24439712  1
  O2-  O157  1  0.18297016  0.42433213  0.57709036  1
  O2-  O158  1  0.18434398  0.42431703  0.90924312  1
  O2-  O159  1  0.18126493  0.93197411  0.23274448  1
  O2-  O160  1  0.18018973  0.92926516  0.56955572  1
  O2-  O161  1  0.17910250  0.92945486  0.91077286  1
  O2-  O162  1  0.68014653  0.42835390  0.23492444  1
  O2-  O163  1  0.67885111  0.42557399  0.57956038  1
  O2-  O164  1  0.67376575  0.42372893  0.90901830  1
  O2-  O165  1  0.67543033  0.93204898  0.23686324  1
  O2-  O166  1  0.67618974  0.93301355  0.57607292  1
  O2-  O167  1  0.67770133  0.93241360  0.89973515  1
  O2-  O168  1  0.42746650  0.32235697  0.09059517  1
  O2-  O169  1  0.42417272  0.31974993  0.42151721  1
  O2-  O170  1  0.42622234  0.32287044  0.75391921  1
  O2-  O171  1  0.42753091  0.82282034  0.09759335  1
  O2-  O172  1  0.43039365  0.81707212  0.43428702  1
  O2-  O173  1  0.43072562  0.82347619  0.75539468  1
  O2-  O174  1  0.92795011  0.32214539  0.08696427  1
  O2-  O175  1  0.93263278  0.31644407  0.43198737  1
  O2-  O176  1  0.93032450  0.32151208  0.75662848  1
  O2-  O177  1  0.92944689  0.81843095  0.10143982  1
  O2-  O178  1  0.92823074  0.82672698  0.42147166  1
  O2-  O179  1  0.92597952  0.82241201  0.76348879  1
  O2-  O180  1  0.32357393  0.07653373  0.24625181  1
  O2-  O181  1  0.32269499  0.07290965  0.57648885  1
  O2-  O182  1  0.31773844  0.07524154  0.89959500  1
  O2-  O183  1  0.31851342  0.56933524  0.23254164  1
  O2-  O184  1  0.32368774  0.56991861  0.57908004  1
  O2-  O185  1  0.32392913  0.56510670  0.90824576  1
  O2-  O186  1  0.81888782  0.07316676  0.24503881  1
  O2-  O187  1  0.81645913  0.07526197  0.57420681  1
  O2-  O188  1  0.81990237  0.07528994  0.90038491  1
  O2-  O189  1  0.82383459  0.57004434  0.23631293  1
  O2-  O190  1  0.82244518  0.56675892  0.57025753  1
  O2-  O191  1  0.82108276  0.56860752  0.90045947  1
  O2-  O192  1  0.04793596  0.08238566  0.27037300  1
  O2-  O193  1  0.03926170  0.08385216  0.59607148  1
  O2-  O194  1  0.04610260  0.08284969  0.93338634  1
  O2-  O195  1  0.04821630  0.58116371  0.26866681  1
  O2-  O196  1  0.04655522  0.57794660  0.60054869  1
  O2-  O197  1  0.04668705  0.57505724  0.93532312  1
  O2-  O198  1  0.54153630  0.08886472  0.26857130  1
  O2-  O199  1  0.53769540  0.08498648  0.59540262  1
  O2-  O200  1  0.54157873  0.09010816  0.93843941  1
  O2-  O201  1  0.54677066  0.58132119  0.27693781  1
  O2-  O202  1  0.54161307  0.58136721  0.59904178  1
  O2-  O203  1  0.53767187  0.58172555  0.93098106  1
  O2-  O204  1  0.16922137  0.20075349  0.27318266  1
  O2-  O205  1  0.16735349  0.21004593  0.59673035  1
  O2-  O206  1  0.16464397  0.21825201  0.93286283  1
  O2-  O207  1  0.16562556  0.71512727  0.26729420  1
  O2-  O208  1  0.17299685  0.70625219  0.60366285  1
  O2-  O209  1  0.17080369  0.69977194  0.93220369  1
  O2-  O210  1  0.66205324  0.20815112  0.26845438  1
  O2-  O211  1  0.66686204  0.20950024  0.59620730  1
  O2-  O212  1  0.66219796  0.20805837  0.93810616  1
  O2-  O213  1  0.66948098  0.70007072  0.27806693  1
  O2-  O214  1  0.66481668  0.71187640  0.59615186  1
  O2-  O215  1  0.66920400  0.70499974  0.93656320  1
  O2-  O216  1  0.08590523  0.44737261  0.06053398  1
  O2-  O217  1  0.08405065  0.44579699  0.39348640  1
  O2-  O218  1  0.08861290  0.45207995  0.73050964  1
  O2-  O219  1  0.08622227  0.95377311  0.06259784  1
  O2-  O220  1  0.08337273  0.95995923  0.40163963  1
  O2-  O221  1  0.07962573  0.96159309  0.73363583  1
  O2-  O222  1  0.57949634  0.45102269  0.05961323  1
  O2-  O223  1  0.57898585  0.44488448  0.40179908  1
  O2-  O224  1  0.58097241  0.44835362  0.72801677  1
  O2-  O225  1  0.58230269  0.96247526  0.06707779  1
  O2-  O226  1  0.58381637  0.96596930  0.40479580  1
  O2-  O227  1  0.58531299  0.96076198  0.72705582  1
  O2-  O228  1  0.21583646  0.34153869  0.06563427  1
  O2-  O229  1  0.20897197  0.33309880  0.39813575  1
  O2-  O230  1  0.21250140  0.33661210  0.73041567  1
  O2-  O231  1  0.20516721  0.83162003  0.05990669  1
  O2-  O232  1  0.21453248  0.83623654  0.40157883  1
  O2-  O233  1  0.20934295  0.83455327  0.73936660  1
  O2-  O234  1  0.69917509  0.33447902  0.06237457  1
  O2-  O235  1  0.71221383  0.32919574  0.40066859  1
  O2-  O236  1  0.70346366  0.33268945  0.73036465  1
  O2-  O237  1  0.70397327  0.83075149  0.06957601  1
  O2-  O238  1  0.70466531  0.83309028  0.40556299  1
  O2-  O239  1  0.70394082  0.83845911  0.72710869  1
  O2-  O240  1  0.45542847  0.41402404  0.26964282  1
  O2-  O241  1  0.45153678  0.41670018  0.60188500  1
  O2-  O242  1  0.45343625  0.41141803  0.93429870  1
  O2-  O243  1  0.45923548  0.91870008  0.26937751  1
  O2-  O244  1  0.45324961  0.91510296  0.60273483  1
  O2-  O245  1  0.45483756  0.92485765  0.93151629  1
  O2-  O246  1  0.96240875  0.41343905  0.26101761  1
  O2-  O247  1  0.95872299  0.41414786  0.60468276  1
  O2-  O248  1  0.95785231  0.41155057  0.93368437  1
  O2-  O249  1  0.95385518  0.91680097  0.27029922  1
  O2-  O250  1  0.95328357  0.91974269  0.59576520  1
  O2-  O251  1  0.95449070  0.91963707  0.93526646  1
  O2-  O252  1  0.33669984  0.29361160  0.26722612  1
  O2-  O253  1  0.33596755  0.29650587  0.59904100  1
  O2-  O254  1  0.33751710  0.29103399  0.93666326  1
  O2-  O255  1  0.33591383  0.78777663  0.26609098  1
  O2-  O256  1  0.33349164  0.79509878  0.60781970  1
  O2-  O257  1  0.33259302  0.79481823  0.92833507  1
  O2-  O258  1  0.83465653  0.28789049  0.26281113  1
  O2-  O259  1  0.83510601  0.29804841  0.60516401  1
  O2-  O260  1  0.83004052  0.30143705  0.93701498  1
  O2-  O261  1  0.82970097  0.80017506  0.27487217  1
  O2-  O262  1  0.82953576  0.79265009  0.59748495  1
  O2-  O263  1  0.82925771  0.79348871  0.93619722  1
  O2-  O264  1  0.41661381  0.04757187  0.06814406  1
  O2-  O265  1  0.41705362  0.04826212  0.39741109  1
  O2-  O266  1  0.41515824  0.04551930  0.72786763  1
  O2-  O267  1  0.40943780  0.53585354  0.06219790  1
  O2-  O268  1  0.41384905  0.53744303  0.40268818  1
  O2-  O269  1  0.41357569  0.53907901  0.73199383  1
  O2-  O270  1  0.92439587  0.05152021  0.06654538  1
  O2-  O271  1  0.91700484  0.05116126  0.39453250  1
  O2-  O272  1  0.91229653  0.04651282  0.72429664  1
  O2-  O273  1  0.91652881  0.53448396  0.06734439  1
  O2-  O274  1  0.92171259  0.53500899  0.40069729  1
  O2-  O275  1  0.91695512  0.53739129  0.73671660  1
  O2-  O276  1  0.28712061  0.16769788  0.06882573  1
  O2-  O277  1  0.30129023  0.16861957  0.39823649  1
  O2-  O278  1  0.29974898  0.16907467  0.72527814  1
  O2-  O279  1  0.29856925  0.66527412  0.05801494  1
  O2-  O280  1  0.28899772  0.66633139  0.40214352  1
  O2-  O281  1  0.29774494  0.66245449  0.73292033  1
  O2-  O282  1  0.79211385  0.17097313  0.06764990  1
  O2-  O283  1  0.79191503  0.16381725  0.39690913  1
  O2-  O284  1  0.79143021  0.16454570  0.72738716  1
  O2-  O285  1  0.79199298  0.66488172  0.07044352  1
  O2-  O286  1  0.80039188  0.66957958  0.40482430  1
  O2-  O287  1  0.78626595  0.66798214  0.73348741  1
