# generated using pymatgen
data_Ca2Al2SiO7
_symmetry_space_group_name_H-M   'P 1'
_cell_length_a   15.45568170
_cell_length_b   15.45520631
_cell_length_c   15.28123254
_cell_angle_alpha   90.00577596
_cell_angle_beta   89.99010522
_cell_angle_gamma   89.99081622
_symmetry_Int_Tables_number   1
_chemical_formula_structural   Ca2Al2SiO7
_chemical_formula_sum   'Ca48 Al48 Si24 O168'
_cell_volume   3650.23934673
_cell_formula_units_Z   24
loop_
 _symmetry_equiv_pos_site_id
 _symmetry_equiv_pos_as_xyz
  1  'x, y, z'
loop_
 _atom_type_symbol
 _atom_type_oxidation_number
  Ca2+  2.0
  Al0+  0.0
  Si0+  0.0
  O2-  -2.0
loop_
 _atom_site_type_symbol
 _atom_site_label
 _atom_site_symmetry_multiplicity
 _atom_site_fract_x
 _atom_site_fract_y
 _atom_site_fract_z
 _atom_site_occupancy
  Ca2+  Ca0  1  0.17069415  0.08449112  0.16963845  1
  Ca2+  Ca1  1  0.16357050  0.08549667  0.50058250  1
  Ca2+  Ca2  1  0.17254823  0.08251219  0.84011239  1
  Ca2+  Ca3  1  0.16818513  0.57415774  0.17829432  1
  Ca2+  Ca4  1  0.16649237  0.57535902  0.49921266  1
  Ca2+  Ca5  1  0.16435330  0.56919264  0.83710212  1
  Ca2+  Ca6  1  0.67092849  0.08609598  0.17088163  1
  Ca2+  Ca7  1  0.66956498  0.07820517  0.50763933  1
  Ca2+  Ca8  1  0.67808039  0.08096176  0.83517907  1
  Ca2+  Ca9  1  0.67288527  0.58319188  0.17457083  1
  Ca2+  Ca10  1  0.67455849  0.59166212  0.50431241  1
  Ca2+  Ca11  1  0.67004720  0.58738880  0.82947774  1
  Ca2+  Ca12  1  0.07670112  0.34048075  0.16587535  1
  Ca2+  Ca13  1  0.07658255  0.33718516  0.49593828  1
  Ca2+  Ca14  1  0.07707157  0.33708859  0.82896831  1
  Ca2+  Ca15  1  0.08077006  0.82266837  0.16292419  1
  Ca2+  Ca16  1  0.07509784  0.82667175  0.49396290  1
  Ca2+  Ca17  1  0.07048527  0.83573041  0.82976681  1
  Ca2+  Ca18  1  0.57856172  0.32846297  0.16265926  1
  Ca2+  Ca19  1  0.57900697  0.32890546  0.49602902  1
  Ca2+  Ca20  1  0.56833845  0.33542266  0.82789327  1
  Ca2+  Ca21  1  0.57436540  0.82637931  0.16709740  1
  Ca2+  Ca22  1  0.58526735  0.82457994  0.49595873  1
  Ca2+  Ca23  1  0.58362633  0.83143092  0.82827372  1
  Ca2+  Ca24  1  0.32220673  0.41727332  0.17416088  1
  Ca2+  Ca25  1  0.32336740  0.41624649  0.50538266  1
  Ca2+  Ca26  1  0.32325738  0.40821944  0.84020906  1
  Ca2+  Ca27  1  0.34288715  0.91841006  0.17019250  1
  Ca2+  Ca28  1  0.33483503  0.91461304  0.50013178  1
  Ca2+  Ca29  1  0.33492130  0.92266338  0.84321053  1
  Ca2+  Ca30  1  0.83741593  0.41878490  0.17534938  1
  Ca2+  Ca31  1  0.84157324  0.42622862  0.50369543  1
  Ca2+  Ca32  1  0.84041569  0.42109030  0.83590673  1
  Ca2+  Ca33  1  0.83897609  0.92177348  0.16674559  1
  Ca2+  Ca34  1  0.82690689  0.92260401  0.51481039  1
  Ca2+  Ca35  1  0.83411674  0.92278064  0.83682381  1
  Ca2+  Ca36  1  0.42169182  0.16821758  0.16078265  1
  Ca2+  Ca37  1  0.42240028  0.17254000  0.49563619  1
  Ca2+  Ca38  1  0.40884763  0.17570907  0.83223052  1
  Ca2+  Ca39  1  0.41197800  0.67249662  0.16558119  1
  Ca2+  Ca40  1  0.42788197  0.66854701  0.48912923  1
  Ca2+  Ca41  1  0.42376599  0.67120211  0.82715888  1
  Ca2+  Ca42  1  0.92142885  0.17744351  0.16149624  1
  Ca2+  Ca43  1  0.91724294  0.17758805  0.49304649  1
  Ca2+  Ca44  1  0.90984821  0.17478381  0.82856692  1
  Ca2+  Ca45  1  0.92261224  0.66365323  0.16574073  1
  Ca2+  Ca46  1  0.91563644  0.66639438  0.49559889  1
  Ca2+  Ca47  1  0.91063386  0.67794694  0.82628175  1
  Al0+  Al48  1  0.00075291  -0.00091162  0.00207945  1
  Al0+  Al49  1  0.00119612  0.00324210  0.33140646  1
  Al0+  Al50  1  0.00096445  0.00046386  0.66694856  1
  Al0+  Al51  1  0.00077636  0.49871943  0.00028498  1
  Al0+  Al52  1  -0.00102015  0.50222058  0.33450721  1
  Al0+  Al53  1  0.00080210  0.50015256  0.67282480  1
  Al0+  Al54  1  0.50252415  -0.00244456  0.00000282  1
  Al0+  Al55  1  0.50125689  0.00091288  0.32820467  1
  Al0+  Al56  1  0.49941187  0.00030675  0.67231338  1
  Al0+  Al57  1  0.50101679  0.49896890  -0.00374222  1
  Al0+  Al58  1  0.50106237  0.49979385  0.33230818  1
  Al0+  Al59  1  0.49959943  0.50165048  0.65754634  1
  Al0+  Al60  1  0.24977842  0.24796312  0.00745523  1
  Al0+  Al61  1  0.24887854  0.24768025  0.33642400  1
  Al0+  Al62  1  0.24894972  0.25066325  0.66546400  1
  Al0+  Al63  1  0.25083758  0.74819322  -0.00753344  1
  Al0+  Al64  1  0.24828946  0.75109677  0.33060799  1
  Al0+  Al65  1  0.24972249  0.74955099  0.66904916  1
  Al0+  Al66  1  0.75103178  0.24987565  -0.00024898  1
  Al0+  Al67  1  0.74932131  0.25066390  0.32698595  1
  Al0+  Al68  1  0.74841747  0.25170113  0.66614401  1
  Al0+  Al69  1  0.75111526  0.74996903  -0.00118235  1
  Al0+  Al70  1  0.74745564  0.75195263  0.33191297  1
  Al0+  Al71  1  0.74874518  0.75115226  0.66762860  1
  Al0+  Al72  1  0.06890605  0.68018778  0.32147264  1
  Al0+  Al73  1  0.18107970  0.42980272  0.68228257  1
  Al0+  Al74  1  0.81863603  0.57137258  0.34616617  1
  Al0+  Al75  1  0.42660125  0.32054296  0.65182178  1
  Al0+  Al76  1  0.42871456  0.31852177  0.98859097  1
  Al0+  Al77  1  0.42955397  0.82046011  0.98414661  1
  Al0+  Al78  1  0.57019889  0.68130142  0.65217406  1
  Al0+  Al79  1  0.32166179  0.06842230  0.01496309  1
  Al0+  Al80  1  0.93106770  0.32206415  0.31869286  1
  Al0+  Al81  1  0.32222531  0.57363133  0.34822928  1
  Al0+  Al82  1  0.92945253  0.32081568  0.98433548  1
  Al0+  Al83  1  0.67839360  0.92879134  0.68271649  1
  Al0+  Al84  1  0.07239262  0.17682181  0.31684785  1
  Al0+  Al85  1  0.82161651  0.07177938  0.01641606  1
  Al0+  Al86  1  0.82002333  0.56942263  0.68113380  1
  Al0+  Al87  1  0.92815829  0.32196545  0.65364217  1
  Al0+  Al88  1  0.17939249  0.42950795  0.01612300  1
  Al0+  Al89  1  0.17904003  0.42804602  0.35088801  1
  Al0+  Al90  1  0.93050744  0.82048414  0.98667888  1
  Al0+  Al91  1  0.42876971  0.81986085  0.31959699  1
  Al0+  Al92  1  0.82271802  0.07375544  0.68060222  1
  Al0+  Al93  1  0.57311530  0.67639507  0.31668291  1
  Al0+  Al94  1  0.92946833  0.82176886  0.65275658  1
  Al0+  Al95  1  0.57035359  0.17963509  0.32002360  1
  Si0+  Si96  1  0.67889884  0.93192030  0.34741318  1
  Si0+  Si97  1  0.67746166  0.42517003  0.34946173  1
  Si0+  Si98  1  0.07215480  0.67813862  0.65107418  1
  Si0+  Si99  1  0.07199937  0.67607128  0.98137072  1
  Si0+  Si100  1  0.42579079  0.82417516  0.65102218  1
  Si0+  Si101  1  0.31967492  0.07026464  0.68062266  1
  Si0+  Si102  1  0.32420342  0.57209669  0.01445591  1
  Si0+  Si103  1  0.17753597  0.92918691  0.34815990  1
  Si0+  Si104  1  0.32312274  0.06929042  0.34933761  1
  Si0+  Si105  1  0.57067697  0.17757787  0.65200900  1
  Si0+  Si106  1  0.07198598  0.17770542  0.98366965  1
  Si0+  Si107  1  0.67722062  0.42895889  0.01356114  1
  Si0+  Si108  1  0.67457710  0.42768461  0.68258346  1
  Si0+  Si109  1  0.57319862  0.67712060  0.98185913  1
  Si0+  Si110  1  0.07245846  0.17833278  0.65156988  1
  Si0+  Si111  1  0.67984430  0.92622744  0.02027657  1
  Si0+  Si112  1  0.82159072  0.07222748  0.34744568  1
  Si0+  Si113  1  0.17862217  0.92673179  0.68151853  1
  Si0+  Si114  1  0.17850944  0.92535657  0.01684353  1
  Si0+  Si115  1  0.42674238  0.32170201  0.31744190  1
  Si0+  Si116  1  0.57345398  0.17693622  0.98159177  1
  Si0+  Si117  1  0.81975372  0.57082476  0.01452185  1
  Si0+  Si118  1  0.32442464  0.57246661  0.68367890  1
  Si0+  Si119  1  0.92635207  0.82427520  0.31814410  1
  O2-  O120  1  0.25066851  -0.01012848  0.06203422  1
  O2-  O121  1  0.24977829  -0.00025867  0.39067980  1
  O2-  O122  1  0.25121062  -0.00333122  0.72275787  1
  O2-  O123  1  0.25531726  0.50463745  0.05950769  1
  O2-  O124  1  0.25427152  0.49820707  0.39946608  1
  O2-  O125  1  0.25750048  0.50309154  0.72954376  1
  O2-  O126  1  0.74726687  -0.00343582  0.06428643  1
  O2-  O127  1  0.75299297  -0.00055417  0.39014087  1
  O2-  O128  1  0.75228877  -0.00002039  0.73114949  1
  O2-  O129  1  0.74980042  0.49851112  0.05582160  1
  O2-  O130  1  0.74324726  0.49691678  0.39296896  1
  O2-  O131  1  0.74645091  0.49283334  0.72795155  1
  O2-  O132  1  0.00392750  0.25161607  0.26717545  1
  O2-  O133  1  -0.00030234  0.24329085  0.60895369  1
  O2-  O134  1  0.00270114  0.24440307  0.93779288  1
  O2-  O135  1  -0.00676585  0.75393544  0.27413402  1
  O2-  O136  1  0.00383035  0.74706732  0.60635446  1
  O2-  O137  1  0.00494017  0.74665454  0.93792153  1
  O2-  O138  1  0.49697270  0.25497351  0.27279965  1
  O2-  O139  1  0.50338109  0.24710686  0.60687187  1
  O2-  O140  1  0.50191679  0.24339912  0.93834785  1
  O2-  O141  1  0.49502828  0.74285134  0.26859393  1
  O2-  O142  1  0.49367950  0.75554609  0.60739209  1
  O2-  O143  1  0.50336795  0.74509553  0.93820717  1
  O2-  O144  1  0.07084138  0.17811832  0.08890409  1
  O2-  O145  1  0.06737778  0.17136370  0.43042531  1
  O2-  O146  1  0.07744995  0.17865684  0.75709269  1
  O2-  O147  1  0.07100319  0.67632826  0.08711480  1
  O2-  O148  1  0.06792651  0.68266485  0.43467037  1
  O2-  O149  1  0.07246138  0.68089938  0.75685825  1
  O2-  O150  1  0.57306982  0.17928881  0.08747182  1
  O2-  O151  1  0.56803731  0.17809834  0.43339311  1
  O2-  O152  1  0.56865240  0.17753809  0.75751606  1
  O2-  O153  1  0.57481471  0.67691210  0.08703361  1
  O2-  O154  1  0.57688676  0.68322895  0.42989172  1
  O2-  O155  1  0.56791449  0.68168982  0.76576020  1
  O2-  O156  1  0.17982046  0.42983040  0.23710398  1
  O2-  O157  1  0.18075555  0.42995659  0.56978268  1
  O2-  O158  1  0.17975801  0.42988936  0.90270049  1
  O2-  O159  1  0.17614878  0.92957119  0.24328235  1
  O2-  O160  1  0.17875365  0.92575734  0.57637792  1
  O2-  O161  1  0.17810834  0.92883580  0.91077721  1
  O2-  O162  1  0.67934754  0.42358051  0.24332957  1
  O2-  O163  1  0.67357790  0.42750404  0.57722794  1
  O2-  O164  1  0.67473225  0.43071108  0.90856077  1
  O2-  O165  1  0.67869468  0.93328327  0.24233186  1
  O2-  O166  1  0.67749206  0.93152853  0.56851999  1
  O2-  O167  1  0.68060023  0.92542816  0.91482878  1
  O2-  O168  1  0.43219980  0.31794241  0.10141243  1
  O2-  O169  1  0.42752531  0.31807047  0.42329246  1
  O2-  O170  1  0.42531973  0.31713148  0.76527968  1
  O2-  O171  1  0.43042146  0.81935939  0.09680371  1
  O2-  O172  1  0.43249813  0.82397340  0.43330598  1
  O2-  O173  1  0.42495640  0.82388715  0.75664755  1
  O2-  O174  1  0.92949434  0.32321079  0.09690954  1
  O2-  O175  1  0.93000917  0.32072390  0.43239924  1
  O2-  O176  1  0.93132990  0.32188953  0.76694851  1
  O2-  O177  1  0.93182678  0.81772501  0.09997318  1
  O2-  O178  1  0.92813593  0.82571614  0.42380529  1
  O2-  O179  1  0.93200761  0.82189522  0.76606517  1
  O2-  O180  1  0.32510179  0.06782288  0.24447320  1
  O2-  O181  1  0.32048979  0.06939423  0.57540185  1
  O2-  O182  1  0.31751290  0.06896309  0.90116470  1
  O2-  O183  1  0.31820877  0.57295619  0.23407358  1
  O2-  O184  1  0.32217077  0.57387891  0.57857264  1
  O2-  O185  1  0.32442259  0.57107699  0.90868004  1
  O2-  O186  1  0.82043258  0.07053706  0.24226617  1
  O2-  O187  1  0.82041987  0.07252732  0.56645080  1
  O2-  O188  1  0.81955714  0.07168650  0.90351668  1
  O2-  O189  1  0.81856369  0.57046503  0.23231945  1
  O2-  O190  1  0.82035195  0.56992589  0.56819808  1
  O2-  O191  1  0.81828854  0.57214022  0.90936161  1
  O2-  O192  1  0.04331551  0.07971169  0.26092957  1
  O2-  O193  1  0.05279609  0.08298764  0.60640248  1
  O2-  O194  1  0.04982043  0.08255670  0.93891810  1
  O2-  O195  1  0.03710279  0.58572219  0.26498866  1
  O2-  O196  1  0.04520627  0.58476914  0.60715400  1
  O2-  O197  1  0.04274721  0.58401150  0.93508715  1
  O2-  O198  1  0.53819916  0.08564641  0.26233899  1
  O2-  O199  1  0.54203936  0.08424214  0.60616290  1
  O2-  O200  1  0.55152213  0.08175656  0.93824396  1
  O2-  O201  1  0.55388064  0.57499195  0.26601633  1
  O2-  O202  1  0.54304189  0.58550337  0.59548317  1
  O2-  O203  1  0.54895772  0.58365027  0.93458913  1
  O2-  O204  1  0.17419459  0.19804545  0.26825025  1
  O2-  O205  1  0.16359848  0.20723736  0.60206435  1
  O2-  O206  1  0.16620046  0.20377129  0.93925815  1
  O2-  O207  1  0.16315352  0.71278989  0.26436958  1
  O2-  O208  1  0.16631155  0.70419841  0.60581959  1
  O2-  O209  1  0.16595637  0.69773124  0.93414383  1
  O2-  O210  1  0.66546928  0.20888847  0.26258497  1
  O2-  O211  1  0.66384315  0.20170597  0.60477628  1
  O2-  O212  1  0.66560493  0.20585216  0.93540904  1
  O2-  O213  1  0.66818979  0.71281707  0.26071021  1
  O2-  O214  1  0.66560599  0.71433984  0.59819826  1
  O2-  O215  1  0.66610058  0.70539178  0.93561666  1
  O2-  O216  1  0.08302946  0.46305374  0.06933815  1
  O2-  O217  1  0.08179878  0.46216950  0.40227415  1
  O2-  O218  1  0.08636634  0.46270848  0.73877079  1
  O2-  O219  1  0.08668784  0.95274414  0.06498382  1
  O2-  O220  1  0.08662008  0.95927068  0.39750489  1
  O2-  O221  1  0.08841011  0.95661359  0.73080592  1
  O2-  O222  1  0.58642600  0.45781506  0.06326704  1
  O2-  O223  1  0.58209395  0.44523505  0.39401304  1
  O2-  O224  1  0.58160978  0.45849662  0.72847389  1
  O2-  O225  1  0.58579973  0.95109650  0.06546865  1
  O2-  O226  1  0.58858004  0.96409946  0.39525438  1
  O2-  O227  1  0.58009983  0.95737451  0.73770148  1
  O2-  O228  1  0.20913543  0.33334380  0.07033554  1
  O2-  O229  1  0.20412691  0.32759723  0.40272812  1
  O2-  O230  1  0.21194659  0.33216623  0.73529653  1
  O2-  O231  1  0.20080024  0.82871834  0.05801564  1
  O2-  O232  1  0.20432922  0.83829271  0.39732408  1
  O2-  O233  1  0.20382106  0.83527443  0.73150491  1
  O2-  O234  1  0.70286298  0.33650601  0.06037100  1
  O2-  O235  1  0.70456060  0.33182609  0.39607943  1
  O2-  O236  1  0.69425719  0.33288553  0.72862019  1
  O2-  O237  1  0.70789435  0.83288405  0.06618534  1
  O2-  O238  1  0.70361379  0.83933557  0.39442966  1
  O2-  O239  1  0.70618127  0.83139424  0.73674007  1
  O2-  O240  1  0.44953062  0.41574715  0.27205198  1
  O2-  O241  1  0.45498351  0.41659375  0.59710924  1
  O2-  O242  1  0.45958959  0.41468668  0.93264816  1
  O2-  O243  1  0.46368179  0.91568169  0.26473864  1
  O2-  O244  1  0.45009977  0.91917342  0.60716024  1
  O2-  O245  1  0.46120996  0.91726087  0.93052298  1
  O2-  O246  1  0.95813062  0.42066293  0.26613475  1
  O2-  O247  1  0.96353758  0.41841383  0.60229180  1
  O2-  O248  1  0.96180140  0.41762088  0.93119830  1
  O2-  O249  1  0.95547878  0.91659228  0.27176411  1
  O2-  O250  1  0.96147949  0.91827279  0.59877002  1
  O2-  O251  1  0.96220075  0.91713634  0.93292781  1
  O2-  O252  1  0.33390311  0.29264939  0.27305156  1
  O2-  O253  1  0.33255883  0.28479676  0.59646076  1
  O2-  O254  1  0.33183860  0.28503011  0.93614323  1
  O2-  O255  1  0.32864876  0.79974727  0.26661256  1
  O2-  O256  1  0.33097727  0.80010159  0.60612130  1
  O2-  O257  1  0.33228514  0.79376518  0.92820814  1
  O2-  O258  1  0.83306909  0.29304075  0.26502804  1
  O2-  O259  1  0.82935354  0.29731194  0.60096311  1
  O2-  O260  1  0.83134773  0.29257289  0.93173684  1
  O2-  O261  1  0.83242356  0.80219256  0.27239222  1
  O2-  O262  1  0.83242526  0.79255495  0.60077021  1
  O2-  O263  1  0.83395444  0.78924270  0.93280122  1
  O2-  O264  1  0.42042593  0.04019812  0.06653978  1
  O2-  O265  1  0.41406166  0.03851669  0.39746241  1
  O2-  O266  1  0.41104151  0.04654093  0.73085983  1
  O2-  O267  1  0.41870627  0.54780792  0.05940109  1
  O2-  O268  1  0.42387972  0.55022446  0.39745726  1
  O2-  O269  1  0.41931453  0.54841887  0.72737449  1
  O2-  O270  1  0.91843611  0.03958786  0.06959037  1
  O2-  O271  1  0.91442750  0.04720830  0.39377637  1
  O2-  O272  1  0.92228813  0.04739255  0.73277875  1
  O2-  O273  1  0.91222075  0.54353630  0.06035083  1
  O2-  O274  1  0.91455116  0.54186252  0.40148326  1
  O2-  O275  1  0.91605668  0.54152439  0.73784310  1
  O2-  O276  1  0.28938815  0.16238677  0.07234273  1
  O2-  O277  1  0.29716140  0.16064583  0.39859807  1
  O2-  O278  1  0.28777368  0.16052769  0.72845760  1
  O2-  O279  1  0.29880684  0.66721900  0.05779424  1
  O2-  O280  1  0.29185215  0.67231371  0.40014101  1
  O2-  O281  1  0.29857110  0.66651950  0.73081962  1
  O2-  O282  1  0.78964021  0.16864612  0.06986748  1
  O2-  O283  1  0.79067202  0.16391024  0.39277288  1
  O2-  O284  1  0.79095714  0.17149108  0.73400770  1
  O2-  O285  1  0.79161976  0.66218927  0.06268575  1
  O2-  O286  1  0.78909474  0.66985610  0.39848494  1
  O2-  O287  1  0.78587522  0.66516789  0.73514272  1
