# generated using pymatgen
data_Ca2Al2SiO7
_symmetry_space_group_name_H-M   'P 1'
_cell_length_a   15.46173461
_cell_length_b   15.46199067
_cell_length_c   15.28715695
_cell_angle_alpha   89.98622839
_cell_angle_beta   89.99271534
_cell_angle_gamma   90.00012291
_symmetry_Int_Tables_number   1
_chemical_formula_structural   Ca2Al2SiO7
_chemical_formula_sum   'Ca48 Al48 Si24 O168'
_cell_volume   3654.68818998
_cell_formula_units_Z   24
loop_
 _symmetry_equiv_pos_site_id
 _symmetry_equiv_pos_as_xyz
  1  'x, y, z'
loop_
 _atom_type_symbol
 _atom_type_oxidation_number
  Ca2+  2.0
  Al0+  0.0
  Si0+  0.0
  O2-  -2.0
loop_
 _atom_site_type_symbol
 _atom_site_label
 _atom_site_symmetry_multiplicity
 _atom_site_fract_x
 _atom_site_fract_y
 _atom_site_fract_z
 _atom_site_occupancy
  Ca2+  Ca0  1  0.17276657  0.09099000  0.16623535  1
  Ca2+  Ca1  1  0.16641528  0.08267969  0.50752919  1
  Ca2+  Ca2  1  0.16970676  0.09346000  0.84100481  1
  Ca2+  Ca3  1  0.16844259  0.58825748  0.16402097  1
  Ca2+  Ca4  1  0.17464616  0.58379600  0.51055617  1
  Ca2+  Ca5  1  0.17406592  0.59260748  0.83906554  1
  Ca2+  Ca6  1  0.67617267  0.08550049  0.17282831  1
  Ca2+  Ca7  1  0.67005983  0.07652370  0.50311262  1
  Ca2+  Ca8  1  0.67567701  0.08345916  0.83865770  1
  Ca2+  Ca9  1  0.66942616  0.57967266  0.16630977  1
  Ca2+  Ca10  1  0.66966584  0.58092350  0.51186989  1
  Ca2+  Ca11  1  0.67932627  0.56894217  0.83685889  1
  Ca2+  Ca12  1  0.07289253  0.32685729  0.15541548  1
  Ca2+  Ca13  1  0.07515896  0.32862961  0.50386874  1
  Ca2+  Ca14  1  0.07117788  0.32505540  0.82856787  1
  Ca2+  Ca15  1  0.07437634  0.82793897  0.15538513  1
  Ca2+  Ca16  1  0.08099858  0.82704668  0.50133292  1
  Ca2+  Ca17  1  0.07302119  0.82605151  0.83471005  1
  Ca2+  Ca18  1  0.58936464  0.32232518  0.15979789  1
  Ca2+  Ca19  1  0.58264248  0.33319836  0.49974368  1
  Ca2+  Ca20  1  0.58542149  0.33382043  0.83036216  1
  Ca2+  Ca21  1  0.58452594  0.83394714  0.16829362  1
  Ca2+  Ca22  1  0.58518650  0.83088840  0.49000836  1
  Ca2+  Ca23  1  0.58345154  0.83387042  0.82843826  1
  Ca2+  Ca24  1  0.33214604  0.42215612  0.16516490  1
  Ca2+  Ca25  1  0.33532100  0.42251195  0.51182945  1
  Ca2+  Ca26  1  0.33374896  0.42389828  0.83759065  1
  Ca2+  Ca27  1  0.33435875  0.91934632  0.16704154  1
  Ca2+  Ca28  1  0.33516815  0.91456239  0.50213961  1
  Ca2+  Ca29  1  0.32699210  0.92457901  0.84106552  1
  Ca2+  Ca30  1  0.83192666  0.41502696  0.16157247  1
  Ca2+  Ca31  1  0.82533575  0.42077057  0.51224451  1
  Ca2+  Ca32  1  0.83270124  0.41589484  0.84022890  1
  Ca2+  Ca33  1  0.83357735  0.92724034  0.17208903  1
  Ca2+  Ca34  1  0.82085906  0.92509367  0.50719631  1
  Ca2+  Ca35  1  0.83291436  0.92463844  0.83671143  1
  Ca2+  Ca36  1  0.43085242  0.16084746  0.15909236  1
  Ca2+  Ca37  1  0.42501665  0.17502469  0.49559948  1
  Ca2+  Ca38  1  0.42220557  0.17143323  0.83014339  1
  Ca2+  Ca39  1  0.42165012  0.67049556  0.16467531  1
  Ca2+  Ca40  1  0.42501532  0.67139257  0.49274516  1
  Ca2+  Ca41  1  0.41504127  0.66212999  0.82852789  1
  Ca2+  Ca42  1  0.91696050  0.16631009  0.15254742  1
  Ca2+  Ca43  1  0.90774299  0.16649620  0.50300425  1
  Ca2+  Ca44  1  0.91431644  0.17290181  0.82864455  1
  Ca2+  Ca45  1  0.91839571  0.67461644  0.15085119  1
  Ca2+  Ca46  1  0.91887540  0.66077926  0.50028194  1
  Ca2+  Ca47  1  0.92160213  0.66055218  0.82888489  1
  Al0+  Al48  1  0.00128170  -0.00328318  -0.00398726  1
  Al0+  Al49  1  0.00304080  0.00050434  0.33846526  1
  Al0+  Al50  1  0.00008731  -0.00316518  0.66526440  1
  Al0+  Al51  1  0.00175762  0.49980006  -0.00295557  1
  Al0+  Al52  1  0.00166099  0.49747022  0.33309472  1
  Al0+  Al53  1  0.00293133  0.49779184  0.65881869  1
  Al0+  Al54  1  0.49850363  0.00000310  -0.00182887  1
  Al0+  Al55  1  0.49946053  0.00112261  0.32966255  1
  Al0+  Al56  1  0.49685285  -0.00026158  0.66905080  1
  Al0+  Al57  1  0.49944033  0.50033660  0.00991890  1
  Al0+  Al58  1  0.49915852  0.50129094  0.32932110  1
  Al0+  Al59  1  0.49975605  0.50149542  0.66999793  1
  Al0+  Al60  1  0.25249661  0.25212067  0.00467763  1
  Al0+  Al61  1  0.24804048  0.25202099  0.33519250  1
  Al0+  Al62  1  0.25099567  0.25117487  0.65831666  1
  Al0+  Al63  1  0.25069394  0.75185323  0.00260818  1
  Al0+  Al64  1  0.25083241  0.75074575  0.33081405  1
  Al0+  Al65  1  0.24939302  0.75124463  0.66633982  1
  Al0+  Al66  1  0.74875637  0.24760226  -0.00019452  1
  Al0+  Al67  1  0.75034576  0.25364762  0.33485752  1
  Al0+  Al68  1  0.74804316  0.24769691  0.66683230  1
  Al0+  Al69  1  0.74681237  0.74965872  -0.00202755  1
  Al0+  Al70  1  0.75227471  0.75034096  0.33163233  1
  Al0+  Al71  1  0.74942317  0.74971319  0.67355284  1
  Al0+  Al72  1  0.82351210  0.57123438  0.01481412  1
  Al0+  Al73  1  0.82486170  0.56967553  0.68008555  1
  Al0+  Al74  1  0.32080272  0.07319320  0.01340252  1
  Al0+  Al75  1  0.57049542  0.17774594  0.98536457  1
  Al0+  Al76  1  0.32063302  0.57354401  0.01651836  1
  Al0+  Al77  1  0.57450728  0.67803234  0.31745180  1
  Al0+  Al78  1  0.07091334  0.17662810  0.65041729  1
  Al0+  Al79  1  0.82330849  0.07370637  0.34905610  1
  Al0+  Al80  1  0.07100674  0.67912710  0.98534626  1
  Al0+  Al81  1  0.67890943  0.92868454  0.34690572  1
  Al0+  Al82  1  0.42846228  0.82176178  0.31699365  1
  Al0+  Al83  1  0.31936296  0.57190396  0.67925766  1
  Al0+  Al84  1  0.82110265  0.06955789  0.68351893  1
  Al0+  Al85  1  0.67988230  0.42760512  0.01723502  1
  Al0+  Al86  1  0.92585285  0.31990072  0.64966359  1
  Al0+  Al87  1  0.57042079  0.18223708  0.32035801  1
  Al0+  Al88  1  0.82107059  0.06774073  0.01223246  1
  Al0+  Al89  1  0.07406959  0.17765185  0.98769000  1
  Al0+  Al90  1  0.92409188  0.82168641  0.98442773  1
  Al0+  Al91  1  0.43096143  0.32267918  0.65477254  1
  Al0+  Al92  1  0.67506610  0.92840171  0.68263779  1
  Al0+  Al93  1  0.92815168  0.31926407  0.98549597  1
  Al0+  Al94  1  0.67782848  0.42821402  0.68010827  1
  Al0+  Al95  1  0.07135172  0.67880627  0.65215485  1
  Si0+  Si96  1  0.17958610  0.92879026  0.01736309  1
  Si0+  Si97  1  0.93025672  0.32063625  0.31795419  1
  Si0+  Si98  1  0.42500446  0.32331679  0.31513959  1
  Si0+  Si99  1  0.17990355  0.42648205  0.68260864  1
  Si0+  Si100  1  0.82308162  0.57085805  0.34641366  1
  Si0+  Si101  1  0.67491221  0.92735211  0.01687347  1
  Si0+  Si102  1  0.57007455  0.17565333  0.64941714  1
  Si0+  Si103  1  0.31844804  0.07272201  0.68003817  1
  Si0+  Si104  1  0.17891821  0.42815433  0.01738643  1
  Si0+  Si105  1  0.67838939  0.43125673  0.34845565  1
  Si0+  Si106  1  0.42975826  0.81996091  0.98313966  1
  Si0+  Si107  1  0.07173034  0.17804967  0.31829831  1
  Si0+  Si108  1  0.07068120  0.67800350  0.31856840  1
  Si0+  Si109  1  0.42788539  0.82182705  0.65287737  1
  Si0+  Si110  1  0.31952338  0.57120913  0.34919763  1
  Si0+  Si111  1  0.32093521  0.07236247  0.34923624  1
  Si0+  Si112  1  0.56949853  0.67626822  0.98305417  1
  Si0+  Si113  1  0.17819765  0.42924664  0.35087297  1
  Si0+  Si114  1  0.42931786  0.32375816  0.98525913  1
  Si0+  Si115  1  0.92609663  0.81973709  0.64776958  1
  Si0+  Si116  1  0.57004960  0.68117268  0.65474366  1
  Si0+  Si117  1  0.17941643  0.92806410  0.68163045  1
  Si0+  Si118  1  0.18042056  0.92817469  0.34989211  1
  Si0+  Si119  1  0.93134317  0.82162731  0.32031622  1
  O2-  O120  1  0.24274079  0.00269223  0.06181268  1
  O2-  O121  1  0.25120656  -0.00004384  0.39204402  1
  O2-  O122  1  0.24364685  0.00588598  0.72234710  1
  O2-  O123  1  0.24439578  0.50015531  0.06282961  1
  O2-  O124  1  0.25101657  0.49879913  0.39267089  1
  O2-  O125  1  0.24404346  0.49899736  0.72728945  1
  O2-  O126  1  0.74781640  -0.00811462  0.06010804  1
  O2-  O127  1  0.74989452  0.00159656  0.39669074  1
  O2-  O128  1  0.74714084  -0.00081130  0.73283141  1
  O2-  O129  1  0.75270036  0.49949185  0.06751103  1
  O2-  O130  1  0.74594123  0.50655209  0.38871871  1
  O2-  O131  1  0.75826354  0.49182695  0.72834691  1
  O2-  O132  1  -0.00429190  0.24353328  0.27709908  1
  O2-  O133  1  -0.00438763  0.24465537  0.59904331  1
  O2-  O134  1  -0.00084618  0.24518939  0.93726172  1
  O2-  O135  1  -0.00109922  0.74752971  0.27695888  1
  O2-  O136  1  -0.00754889  0.74809453  0.60292107  1
  O2-  O137  1  -0.00823297  0.74368218  0.93651038  1
  O2-  O138  1  0.49385582  0.25509648  0.27186062  1
  O2-  O139  1  0.50546088  0.24910382  0.60596531  1
  O2-  O140  1  0.49712902  0.25501649  0.94069905  1
  O2-  O141  1  0.50325545  0.75195686  0.26790282  1
  O2-  O142  1  0.50258623  0.75516110  0.61103010  1
  O2-  O143  1  0.49955882  0.74867885  0.94035315  1
  O2-  O144  1  0.07380799  0.18126288  0.10224309  1
  O2-  O145  1  0.07653815  0.18020825  0.42283480  1
  O2-  O146  1  0.07675812  0.18107252  0.76298451  1
  O2-  O147  1  0.07274352  0.68362767  0.10002353  1
  O2-  O148  1  0.07177928  0.67858083  0.42361983  1
  O2-  O149  1  0.07634959  0.68507453  0.76412117  1
  O2-  O150  1  0.56926779  0.17769237  0.09895053  1
  O2-  O151  1  0.56695420  0.18496881  0.43355191  1
  O2-  O152  1  0.56517894  0.17227377  0.75462906  1
  O2-  O153  1  0.56852565  0.67782992  0.08828156  1
  O2-  O154  1  0.57099854  0.67532588  0.43162672  1
  O2-  O155  1  0.56579316  0.68114312  0.75963098  1
  O2-  O156  1  0.17669379  0.42969395  0.24595166  1
  O2-  O157  1  0.18392434  0.42783718  0.57619926  1
  O2-  O158  1  0.18297324  0.42424675  0.91240224  1
  O2-  O159  1  0.17861382  0.92784642  0.24523147  1
  O2-  O160  1  0.18370540  0.92547269  0.57589645  1
  O2-  O161  1  0.18505299  0.92443796  0.91200467  1
  O2-  O162  1  0.68059286  0.42863456  0.24386051  1
  O2-  O163  1  0.67489057  0.43476283  0.56555388  1
  O2-  O164  1  0.67735463  0.43008293  0.90417560  1
  O2-  O165  1  0.68238759  0.92851018  0.23360223  1
  O2-  O166  1  0.67334853  0.92833489  0.56881401  1
  O2-  O167  1  0.67144218  0.93056419  0.91147951  1
  O2-  O168  1  0.42853240  0.32233657  0.09120489  1
  O2-  O169  1  0.42425772  0.32426245  0.42089917  1
  O2-  O170  1  0.42897958  0.32068507  0.76750933  1
  O2-  O171  1  0.42969642  0.82020514  0.08815861  1
  O2-  O172  1  0.42433113  0.81751043  0.43091985  1
  O2-  O173  1  0.42552392  0.82139416  0.75788817  1
  O2-  O174  1  0.93052466  0.31812596  0.10023698  1
  O2-  O175  1  0.93304499  0.32453216  0.42246860  1
  O2-  O176  1  0.92892870  0.32088943  0.76247235  1
  O2-  O177  1  0.92949223  0.82289146  0.09924619  1
  O2-  O178  1  0.93379576  0.81991392  0.42525810  1
  O2-  O179  1  0.92876001  0.82094044  0.75292161  1
  O2-  O180  1  0.31768267  0.07378527  0.24438421  1
  O2-  O181  1  0.32002141  0.06941210  0.57450234  1
  O2-  O182  1  0.32104870  0.07014924  0.90000987  1
  O2-  O183  1  0.31667919  0.57122377  0.24424676  1
  O2-  O184  1  0.31984898  0.57201111  0.56548063  1
  O2-  O185  1  0.32016417  0.57257783  0.90352850  1
  O2-  O186  1  0.82616154  0.07166001  0.23538751  1
  O2-  O187  1  0.81844862  0.06677234  0.56954009  1
  O2-  O188  1  0.81974905  0.06795500  0.89988693  1
  O2-  O189  1  0.82690329  0.56800219  0.24188167  1
  O2-  O190  1  0.81889794  0.57182367  0.56521321  1
  O2-  O191  1  0.82213838  0.56937613  0.90181209  1
  O2-  O192  1  0.05200962  0.08310952  0.27380539  1
  O2-  O193  1  0.04934749  0.07505793  0.59924025  1
  O2-  O194  1  0.05618693  0.07654024  0.93810895  1
  O2-  O195  1  0.04551904  0.58484574  0.27271877  1
  O2-  O196  1  0.04996536  0.58129958  0.59505123  1
  O2-  O197  1  0.05439493  0.57841493  0.93423418  1
  O2-  O198  1  0.54034296  0.08603508  0.26610022  1
  O2-  O199  1  0.53617676  0.08445541  0.60190346  1
  O2-  O200  1  0.53519157  0.08309638  0.93054885  1
  O2-  O201  1  0.54181446  0.58119360  0.26295103  1
  O2-  O202  1  0.53853616  0.59135881  0.60571422  1
  O2-  O203  1  0.53680195  0.58495372  0.93872821  1
  O2-  O204  1  0.16236361  0.21125593  0.27061109  1
  O2-  O205  1  0.16799998  0.20857102  0.59397928  1
  O2-  O206  1  0.17293498  0.20950598  0.93743753  1
  O2-  O207  1  0.16201568  0.70753776  0.27176521  1
  O2-  O208  1  0.16606522  0.71742973  0.59602020  1
  O2-  O209  1  0.16821531  0.71595352  0.93468890  1
  O2-  O210  1  0.66705026  0.21558413  0.26754159  1
  O2-  O211  1  0.66432083  0.19608541  0.60401120  1
  O2-  O212  1  0.66603898  0.20732041  0.93122998  1
  O2-  O213  1  0.67389970  0.70328364  0.26465134  1
  O2-  O214  1  0.66304363  0.70556416  0.60791484  1
  O2-  O215  1  0.66101506  0.70162417  0.93504873  1
  O2-  O216  1  0.08525935  0.45195984  0.06398268  1
  O2-  O217  1  0.08759256  0.45934247  0.39970066  1
  O2-  O218  1  0.08429600  0.44704876  0.72375718  1
  O2-  O219  1  0.08434727  0.94728638  0.06202851  1
  O2-  O220  1  0.09030373  0.95561815  0.40084064  1
  O2-  O221  1  0.08525446  0.94640052  0.72638333  1
  O2-  O222  1  0.58273800  0.45744975  0.07285320  1
  O2-  O223  1  0.58347970  0.45436666  0.39264829  1
  O2-  O224  1  0.58366840  0.46460019  0.73561183  1
  O2-  O225  1  0.58234390  0.95605852  0.06337423  1
  O2-  O226  1  0.57813773  0.95484968  0.39699161  1
  O2-  O227  1  0.57512883  0.95443517  0.73489134  1
  O2-  O228  1  0.20926179  0.33808453  0.06943286  1
  O2-  O229  1  0.20449481  0.33718073  0.39888216  1
  O2-  O230  1  0.21123277  0.33444403  0.72737952  1
  O2-  O231  1  0.21288299  0.83937345  0.06802679  1
  O2-  O232  1  0.20942198  0.83617300  0.39771821  1
  O2-  O233  1  0.21620906  0.84101154  0.73129282  1
  O2-  O234  1  0.70888276  0.32928495  0.07025781  1
  O2-  O235  1  0.70947734  0.34205199  0.39859855  1
  O2-  O236  1  0.69349708  0.32588524  0.72731237  1
  O2-  O237  1  0.69366142  0.83115929  0.05991812  1
  O2-  O238  1  0.70823810  0.82941071  0.39962060  1
  O2-  O239  1  0.70152732  0.83016282  0.73615689  1
  O2-  O240  1  0.44851748  0.41742387  0.26975693  1
  O2-  O241  1  0.46106952  0.41966976  0.59944060  1
  O2-  O242  1  0.45438047  0.41851748  0.94181689  1
  O2-  O243  1  0.45069570  0.92149729  0.26458881  1
  O2-  O244  1  0.45026344  0.91519045  0.60516999  1
  O2-  O245  1  0.45696130  0.91122314  0.93454036  1
  O2-  O246  1  0.96580100  0.40961636  0.26872119  1
  O2-  O247  1  0.95821645  0.41622400  0.59271880  1
  O2-  O248  1  0.95782693  0.41719060  0.93371505  1
  O2-  O249  1  0.96430326  0.91273378  0.27419949  1
  O2-  O250  1  0.95712958  0.91079091  0.59943858  1
  O2-  O251  1  0.96148166  0.91506397  0.92768005  1
  O2-  O252  1  0.33041065  0.29772235  0.27074100  1
  O2-  O253  1  0.33682756  0.29155309  0.59522932  1
  O2-  O254  1  0.33570430  0.29860681  0.94009571  1
  O2-  O255  1  0.33087877  0.79007182  0.26258036  1
  O2-  O256  1  0.33837682  0.79078224  0.60277753  1
  O2-  O257  1  0.33761276  0.79269812  0.93665466  1
  O2-  O258  1  0.83619590  0.30073531  0.27281497  1
  O2-  O259  1  0.82597545  0.29374937  0.59655962  1
  O2-  O260  1  0.83004211  0.29175998  0.93403617  1
  O2-  O261  1  0.83952590  0.79792763  0.27217495  1
  O2-  O262  1  0.83101667  0.79558903  0.60389236  1
  O2-  O263  1  0.82326376  0.80200822  0.93381305  1
  O2-  O264  1  0.41493475  0.03513894  0.06795840  1
  O2-  O265  1  0.41266174  0.04597148  0.39631809  1
  O2-  O266  1  0.40779083  0.04145972  0.72945888  1
  O2-  O267  1  0.41442127  0.54106170  0.07455093  1
  O2-  O268  1  0.41303982  0.54522977  0.39417835  1
  O2-  O269  1  0.41451437  0.54114263  0.73430210  1
  O2-  O270  1  0.91984833  0.03882332  0.06452804  1
  O2-  O271  1  0.92228542  0.04541645  0.40172101  1
  O2-  O272  1  0.92094406  0.04007187  0.73251741  1
  O2-  O273  1  0.92396453  0.54665476  0.06667449  1
  O2-  O274  1  0.91348708  0.53731665  0.39468543  1
  O2-  O275  1  0.92754211  0.54865419  0.72561628  1
  O2-  O276  1  0.29541892  0.16956570  0.07117524  1
  O2-  O277  1  0.29127216  0.16429981  0.39649564  1
  O2-  O278  1  0.29411591  0.16609571  0.72498500  1
  O2-  O279  1  0.28988342  0.66990594  0.07147330  1
  O2-  O280  1  0.28973798  0.66299460  0.39571578  1
  O2-  O281  1  0.28906782  0.66882180  0.73292612  1
  O2-  O282  1  0.78908173  0.16339363  0.06710993  1
  O2-  O283  1  0.79426222  0.17288977  0.40013643  1
  O2-  O284  1  0.79442888  0.16897785  0.73333296  1
  O2-  O285  1  0.79194924  0.67055682  0.06609685  1
  O2-  O286  1  0.80353760  0.66510848  0.39207838  1
  O2-  O287  1  0.79380482  0.66601017  0.73392617  1
