# generated using pymatgen
data_Ca2Al2SiO7
_symmetry_space_group_name_H-M   'P 1'
_cell_length_a   15.45514073
_cell_length_b   15.45502282
_cell_length_c   15.28152740
_cell_angle_alpha   89.99487147
_cell_angle_beta   89.99770352
_cell_angle_gamma   90.00047859
_symmetry_Int_Tables_number   1
_chemical_formula_structural   Ca2Al2SiO7
_chemical_formula_sum   'Ca48 Al48 Si24 O168'
_cell_volume   3650.13878332
_cell_formula_units_Z   24
loop_
 _symmetry_equiv_pos_site_id
 _symmetry_equiv_pos_as_xyz
  1  'x, y, z'
loop_
 _atom_type_symbol
 _atom_type_oxidation_number
  Ca2+  2.0
  Al0+  0.0
  Si0+  0.0
  O2-  -2.0
loop_
 _atom_site_type_symbol
 _atom_site_label
 _atom_site_symmetry_multiplicity
 _atom_site_fract_x
 _atom_site_fract_y
 _atom_site_fract_z
 _atom_site_occupancy
  Ca2+  Ca0  1  0.16725201  0.08046021  0.17721615  1
  Ca2+  Ca1  1  0.16174206  0.07602378  0.49657810  1
  Ca2+  Ca2  1  0.16998808  0.08021889  0.83627009  1
  Ca2+  Ca3  1  0.17277539  0.57900270  0.17352016  1
  Ca2+  Ca4  1  0.16603385  0.58428486  0.50447679  1
  Ca2+  Ca5  1  0.17977376  0.58890718  0.83660854  1
  Ca2+  Ca6  1  0.67042416  0.07638310  0.17327134  1
  Ca2+  Ca7  1  0.67799857  0.07704353  0.50255031  1
  Ca2+  Ca8  1  0.67024022  0.07869736  0.84287226  1
  Ca2+  Ca9  1  0.66565355  0.58238295  0.17102878  1
  Ca2+  Ca10  1  0.66739597  0.58348836  0.49927686  1
  Ca2+  Ca11  1  0.67688312  0.58789093  0.84137507  1
  Ca2+  Ca12  1  0.08047692  0.33038896  0.16474140  1
  Ca2+  Ca13  1  0.08226888  0.32801491  0.48968024  1
  Ca2+  Ca14  1  0.07594963  0.33437610  0.83375244  1
  Ca2+  Ca15  1  0.07766420  0.83484603  0.17224553  1
  Ca2+  Ca16  1  0.08009601  0.82181982  0.48803131  1
  Ca2+  Ca17  1  0.07998253  0.82495236  0.82590986  1
  Ca2+  Ca18  1  0.58361067  0.32883484  0.15793394  1
  Ca2+  Ca19  1  0.57941967  0.33897509  0.49593615  1
  Ca2+  Ca20  1  0.57541366  0.33194266  0.83401510  1
  Ca2+  Ca21  1  0.59159971  0.82719641  0.16437784  1
  Ca2+  Ca22  1  0.57453617  0.82984476  0.48893318  1
  Ca2+  Ca23  1  0.58277166  0.83012990  0.83252125  1
  Ca2+  Ca24  1  0.33476490  0.42154580  0.17152001  1
  Ca2+  Ca25  1  0.32708414  0.42373069  0.50649921  1
  Ca2+  Ca26  1  0.34002707  0.42409619  0.83784450  1
  Ca2+  Ca27  1  0.32912913  0.91618250  0.17530689  1
  Ca2+  Ca28  1  0.32981282  0.90424037  0.50034933  1
  Ca2+  Ca29  1  0.33339886  0.91131601  0.83438440  1
  Ca2+  Ca30  1  0.83047779  0.41934365  0.16966477  1
  Ca2+  Ca31  1  0.82511192  0.42211320  0.50337370  1
  Ca2+  Ca32  1  0.83725588  0.42762454  0.84002097  1
  Ca2+  Ca33  1  0.82393459  0.92314595  0.17445899  1
  Ca2+  Ca34  1  0.83707847  0.92125613  0.49846625  1
  Ca2+  Ca35  1  0.82687076  0.92810288  0.84403619  1
  Ca2+  Ca36  1  0.42474780  0.17424451  0.15629539  1
  Ca2+  Ca37  1  0.41579764  0.17541505  0.49676228  1
  Ca2+  Ca38  1  0.42240155  0.17697371  0.83057831  1
  Ca2+  Ca39  1  0.42822883  0.66870082  0.16361101  1
  Ca2+  Ca40  1  0.41757606  0.67441365  0.49375832  1
  Ca2+  Ca41  1  0.42154044  0.66496310  0.82844999  1
  Ca2+  Ca42  1  0.91494922  0.16735369  0.16317550  1
  Ca2+  Ca43  1  0.91836247  0.16098113  0.49204690  1
  Ca2+  Ca44  1  0.90445188  0.17185690  0.83399135  1
  Ca2+  Ca45  1  0.91703229  0.66924019  0.16412979  1
  Ca2+  Ca46  1  0.92493275  0.66710741  0.49227299  1
  Ca2+  Ca47  1  0.91979706  0.66276829  0.82587886  1
  Al0+  Al48  1  0.00026158  -0.00099770  0.00107827  1
  Al0+  Al49  1  0.00362773  -0.00008044  0.33264029  1
  Al0+  Al50  1  -0.00040580  0.00031466  0.67372822  1
  Al0+  Al51  1  0.00202899  0.49921641  0.00006616  1
  Al0+  Al52  1  0.00122713  0.49841026  0.33318380  1
  Al0+  Al53  1  -0.00082007  0.49678962  0.66545520  1
  Al0+  Al54  1  0.49783043  -0.00089205  -0.00043051  1
  Al0+  Al55  1  0.50026191  0.00316430  0.33492859  1
  Al0+  Al56  1  0.49895453  0.00029658  0.66231607  1
  Al0+  Al57  1  0.50085821  0.50327833  -0.00389729  1
  Al0+  Al58  1  0.49979384  0.50189636  0.33524975  1
  Al0+  Al59  1  0.49879626  0.49871706  0.66576819  1
  Al0+  Al60  1  0.24809517  0.24949793  -0.00532358  1
  Al0+  Al61  1  0.24851046  0.25184472  0.33294383  1
  Al0+  Al62  1  0.24925886  0.24855649  0.66376634  1
  Al0+  Al63  1  0.25033985  0.74817596  0.00582509  1
  Al0+  Al64  1  0.25078156  0.75065306  0.32850818  1
  Al0+  Al65  1  0.24909922  0.74764998  0.66460164  1
  Al0+  Al66  1  0.75158660  0.25101274  -0.00671341  1
  Al0+  Al67  1  0.74918267  0.25200332  0.34287413  1
  Al0+  Al68  1  0.74877029  0.24930086  0.66969522  1
  Al0+  Al69  1  0.75137350  0.75117108  0.00173403  1
  Al0+  Al70  1  0.75015470  0.75095446  0.33165761  1
  Al0+  Al71  1  0.74992372  0.75099258  0.66967090  1
  Al0+  Al72  1  0.57101260  0.67874144  0.31846278  1
  Al0+  Al73  1  0.67709929  0.92672439  0.35072359  1
  Al0+  Al74  1  0.32320854  0.57034309  0.01533424  1
  Al0+  Al75  1  0.57172247  0.17680324  0.98558397  1
  Al0+  Al76  1  0.17867734  0.42867408  0.34645113  1
  Al0+  Al77  1  0.67662502  0.92974130  0.01548179  1
  Al0+  Al78  1  0.18201649  0.92905336  0.34711889  1
  Al0+  Al79  1  0.57289800  0.68113170  0.98478273  1
  Al0+  Al80  1  0.06893916  0.67822111  0.65419512  1
  Al0+  Al81  1  0.92932082  0.82152976  0.31809612  1
  Al0+  Al82  1  0.31882815  0.57030183  0.67972463  1
  Al0+  Al83  1  0.82145892  0.06981230  0.68342556  1
  Al0+  Al84  1  0.93023524  0.32115744  0.98685948  1
  Al0+  Al85  1  0.82101799  0.07379528  0.01676787  1
  Al0+  Al86  1  0.82071856  0.57009582  0.67894452  1
  Al0+  Al87  1  0.07150367  0.67542409  0.31569048  1
  Al0+  Al88  1  0.67791454  0.43004791  0.34592657  1
  Al0+  Al89  1  0.82384010  0.57115880  0.01426908  1
  Al0+  Al90  1  0.42991972  0.82001861  0.65353550  1
  Al0+  Al91  1  0.42891743  0.32158691  0.65042344  1
  Al0+  Al92  1  0.42929249  0.82409469  0.31663611  1
  Al0+  Al93  1  0.07040918  0.18005752  0.32045227  1
  Al0+  Al94  1  0.82147596  0.07034561  0.34836200  1
  Al0+  Al95  1  0.42747003  0.32265172  0.98559179  1
  Si0+  Si96  1  0.07171417  0.67938777  0.98485910  1
  Si0+  Si97  1  0.67664817  0.42812360  0.68569818  1
  Si0+  Si98  1  0.42480158  0.82055427  0.98339912  1
  Si0+  Si99  1  0.57479671  0.67764535  0.65061095  1
  Si0+  Si100  1  0.32144131  0.07264081  0.68137852  1
  Si0+  Si101  1  0.17754177  0.42437907  0.68441965  1
  Si0+  Si102  1  0.92797229  0.82362363  0.65280416  1
  Si0+  Si103  1  0.32083977  0.57124872  0.35053007  1
  Si0+  Si104  1  0.32263549  0.07471170  0.35013177  1
  Si0+  Si105  1  0.67900768  0.43011456  0.01356846  1
  Si0+  Si106  1  0.42894971  0.32117595  0.31953736  1
  Si0+  Si107  1  0.07061477  0.17727495  0.65162707  1
  Si0+  Si108  1  0.07169242  0.17493833  0.98113260  1
  Si0+  Si109  1  0.17929364  0.92799120  0.01481603  1
  Si0+  Si110  1  0.92801877  0.31939356  0.65047344  1
  Si0+  Si111  1  0.93013070  0.82122636  0.98384814  1
  Si0+  Si112  1  0.67504254  0.92884733  0.68374601  1
  Si0+  Si113  1  0.82309196  0.57244909  0.34850549  1
  Si0+  Si114  1  0.92542089  0.32137018  0.31861732  1
  Si0+  Si115  1  0.18059724  0.92860744  0.68150743  1
  Si0+  Si116  1  0.17895598  0.42699515  0.01580821  1
  Si0+  Si117  1  0.57250828  0.18174943  0.32105394  1
  Si0+  Si118  1  0.57206003  0.17864489  0.64716428  1
  Si0+  Si119  1  0.31898434  0.07226565  0.01297539  1
  O2-  O120  1  0.24850944  0.00142644  0.05539178  1
  O2-  O121  1  0.25953908  0.00084085  0.39499167  1
  O2-  O122  1  0.25268817  -0.00107614  0.72385164  1
  O2-  O123  1  0.25215539  0.49086956  0.05948288  1
  O2-  O124  1  0.24877111  0.50614552  0.39497612  1
  O2-  O125  1  0.24587720  0.49366079  0.72801558  1
  O2-  O126  1  0.74596313  0.00479269  0.06487923  1
  O2-  O127  1  0.75186543  -0.00338490  0.39998132  1
  O2-  O128  1  0.74591715  -0.00463857  0.72801526  1
  O2-  O129  1  0.74809519  0.49725276  0.05953555  1
  O2-  O130  1  0.75201246  0.50567580  0.39221395  1
  O2-  O131  1  0.74407972  0.49869645  0.72861492  1
  O2-  O132  1  -0.00608544  0.25258648  0.27440969  1
  O2-  O133  1  -0.00220922  0.24649659  0.60955730  1
  O2-  O134  1  0.00120373  0.24255823  0.93818046  1
  O2-  O135  1  -0.00258535  0.74575338  0.26636032  1
  O2-  O136  1  -0.00850540  0.75034916  0.60872987  1
  O2-  O137  1  -0.00045189  0.74848532  0.94102657  1
  O2-  O138  1  0.50069433  0.25145228  0.27759747  1
  O2-  O139  1  0.50447340  0.24850015  0.60242344  1
  O2-  O140  1  0.49926293  0.24955461  0.93622607  1
  O2-  O141  1  0.50435396  0.75540527  0.26719160  1
  O2-  O142  1  0.50597590  0.74675309  0.60765368  1
  O2-  O143  1  0.49649587  0.75521179  0.93921851  1
  O2-  O144  1  0.07563350  0.17500994  0.08621989  1
  O2-  O145  1  0.07057637  0.18132332  0.43417307  1
  O2-  O146  1  0.07338578  0.17760331  0.75674235  1
  O2-  O147  1  0.07200976  0.68062909  0.08932847  1
  O2-  O148  1  0.06984740  0.67601864  0.42986617  1
  O2-  O149  1  0.07049957  0.68210549  0.76794607  1
  O2-  O150  1  0.56914566  0.17914589  0.09973843  1
  O2-  O151  1  0.57095198  0.18384136  0.42629329  1
  O2-  O152  1  0.56990315  0.17829829  0.75265466  1
  O2-  O153  1  0.57194651  0.67943390  0.09720210  1
  O2-  O154  1  0.56647798  0.67539579  0.43246111  1
  O2-  O155  1  0.57549802  0.67910451  0.75636864  1
  O2-  O156  1  0.18369666  0.42598431  0.23346811  1
  O2-  O157  1  0.17813674  0.42291951  0.57886178  1
  O2-  O158  1  0.17664401  0.42912709  0.90993351  1
  O2-  O159  1  0.18237939  0.93334845  0.23367110  1
  O2-  O160  1  0.17933094  0.92964551  0.57700796  1
  O2-  O161  1  0.18029674  0.92724328  0.90886743  1
  O2-  O162  1  0.67872058  0.42654237  0.23295971  1
  O2-  O163  1  0.67829423  0.42751307  0.57982875  1
  O2-  O164  1  0.68000125  0.43267792  0.90776315  1
  O2-  O165  1  0.67644672  0.93121785  0.23752712  1
  O2-  O166  1  0.67422151  0.93011055  0.57862647  1
  O2-  O167  1  0.67916067  0.92922927  0.90110069  1
  O2-  O168  1  0.42727810  0.31970241  0.09965935  1
  O2-  O169  1  0.42869675  0.31961826  0.42482724  1
  O2-  O170  1  0.42926384  0.31913832  0.76320048  1
  O2-  O171  1  0.42045439  0.81943620  0.08816893  1
  O2-  O172  1  0.42811485  0.81855866  0.43064579  1
  O2-  O173  1  0.42956321  0.81982736  0.76686148  1
  O2-  O174  1  0.93365000  0.32281328  0.09968798  1
  O2-  O175  1  0.92647386  0.32121825  0.42467852  1
  O2-  O176  1  0.93043254  0.32068224  0.75564229  1
  O2-  O177  1  0.93264446  0.82285565  0.08830177  1
  O2-  O178  1  0.93288072  0.82033267  0.43247838  1
  O2-  O179  1  0.93215907  0.82469710  0.75884964  1
  O2-  O180  1  0.31963906  0.07804327  0.24426840  1
  O2-  O181  1  0.31907036  0.07625677  0.57682175  1
  O2-  O182  1  0.31682913  0.07192093  0.90735376  1
  O2-  O183  1  0.32297091  0.56669618  0.24492111  1
  O2-  O184  1  0.31582200  0.57020939  0.56690831  1
  O2-  O185  1  0.31971960  0.57335569  0.90181524  1
  O2-  O186  1  0.81791335  0.07402972  0.23538233  1
  O2-  O187  1  0.82443727  0.06841808  0.57077318  1
  O2-  O188  1  0.82077502  0.06931978  0.90268943  1
  O2-  O189  1  0.82440403  0.56909713  0.24296030  1
  O2-  O190  1  0.82145381  0.56703223  0.56608538  1
  O2-  O191  1  0.82488640  0.56972414  0.90065163  1
  O2-  O192  1  0.04482204  0.08360470  0.26548011  1
  O2-  O193  1  0.04308088  0.08401472  0.60675768  1
  O2-  O194  1  0.04894277  0.08036181  0.93475011  1
  O2-  O195  1  0.04629120  0.57554162  0.26374900  1
  O2-  O196  1  0.04210875  0.57978636  0.60176769  1
  O2-  O197  1  0.04692996  0.58692925  0.93766379  1
  O2-  O198  1  0.54633319  0.09014304  0.27345843  1
  O2-  O199  1  0.54445000  0.08605119  0.60060817  1
  O2-  O200  1  0.53970426  0.07950755  0.93117970  1
  O2-  O201  1  0.53783201  0.58125741  0.26466195  1
  O2-  O202  1  0.54985689  0.58316065  0.60684795  1
  O2-  O203  1  0.54273670  0.58558170  0.92860988  1
  O2-  O204  1  0.16601902  0.21350184  0.26475649  1
  O2-  O205  1  0.16169295  0.20429534  0.60283667  1
  O2-  O206  1  0.16370942  0.20242798  0.93148537  1
  O2-  O207  1  0.16917848  0.70568783  0.26366074  1
  O2-  O208  1  0.16334091  0.71218828  0.59919424  1
  O2-  O209  1  0.16306735  0.71160405  0.93806242  1
  O2-  O210  1  0.66371428  0.21245310  0.27498850  1
  O2-  O211  1  0.66644672  0.20473527  0.60275610  1
  O2-  O212  1  0.66887477  0.20481528  0.93039463  1
  O2-  O213  1  0.67166228  0.69948242  0.26775650  1
  O2-  O214  1  0.66871888  0.70224849  0.60439947  1
  O2-  O215  1  0.66975059  0.71285917  0.93043805  1
  O2-  O216  1  0.08822711  0.45750330  0.06399179  1
  O2-  O217  1  0.08049768  0.45315870  0.40116066  1
  O2-  O218  1  0.08311855  0.44895624  0.72896926  1
  O2-  O219  1  0.08743343  0.95464640  0.06160373  1
  O2-  O220  1  0.08778259  0.96300135  0.40329388  1
  O2-  O221  1  0.09080120  0.95838988  0.73263012  1
  O2-  O222  1  0.58563464  0.45569890  0.05927634  1
  O2-  O223  1  0.58201794  0.46089890  0.40256980  1
  O2-  O224  1  0.58195512  0.45075492  0.72994119  1
  O2-  O225  1  0.57555735  0.95214757  0.06593468  1
  O2-  O226  1  0.57903706  0.95918800  0.40342746  1
  O2-  O227  1  0.58171709  0.95730070  0.72974451  1
  O2-  O228  1  0.19833833  0.33039156  0.05851945  1
  O2-  O229  1  0.21193813  0.33365315  0.40297642  1
  O2-  O230  1  0.20303475  0.33041122  0.73031751  1
  O2-  O231  1  0.20820398  0.83800243  0.06385512  1
  O2-  O232  1  0.21036092  0.83104795  0.40046273  1
  O2-  O233  1  0.20917495  0.83756591  0.73013552  1
  O2-  O234  1  0.70406206  0.33555019  0.05707421  1
  O2-  O235  1  0.70875012  0.33697159  0.40717344  1
  O2-  O236  1  0.70330135  0.33469464  0.73112766  1
  O2-  O237  1  0.71072924  0.83327936  0.06763962  1
  O2-  O238  1  0.70228362  0.82678219  0.40228422  1
  O2-  O239  1  0.69792009  0.83419480  0.72920016  1
  O2-  O240  1  0.45592021  0.41346233  0.27395464  1
  O2-  O241  1  0.45795156  0.41834075  0.59561252  1
  O2-  O242  1  0.45771534  0.41983162  0.93175336  1
  O2-  O243  1  0.44936030  0.92692396  0.26887593  1
  O2-  O244  1  0.45390341  0.91838840  0.59924298  1
  O2-  O245  1  0.44520195  0.91594043  0.93841093  1
  O2-  O246  1  0.95162121  0.41415542  0.27218509  1
  O2-  O247  1  0.95692034  0.40961583  0.60099458  1
  O2-  O248  1  0.96689909  0.41580566  0.92994267  1
  O2-  O249  1  0.96507242  0.91710081  0.26435471  1
  O2-  O250  1  0.95951982  0.91589756  0.60769373  1
  O2-  O251  1  0.96125109  0.91203946  0.93489408  1
  O2-  O252  1  0.33816340  0.29226718  0.27168487  1
  O2-  O253  1  0.33213123  0.28800543  0.59740613  1
  O2-  O254  1  0.32923596  0.29401180  0.93102845  1
  O2-  O255  1  0.33195276  0.79467456  0.26302262  1
  O2-  O256  1  0.33368709  0.78721436  0.60016409  1
  O2-  O257  1  0.33188377  0.79107875  0.93618164  1
  O2-  O258  1  0.83135612  0.29576452  0.27405074  1
  O2-  O259  1  0.83448665  0.29380096  0.60561454  1
  O2-  O260  1  0.83447692  0.29629034  0.92794007  1
  O2-  O261  1  0.82981344  0.79856441  0.26607291  1
  O2-  O262  1  0.83196621  0.80453901  0.60993148  1
  O2-  O263  1  0.83855916  0.79499698  0.93599638  1
  O2-  O264  1  0.41050574  0.04643422  0.06104033  1
  O2-  O265  1  0.41774961  0.05753902  0.39585391  1
  O2-  O266  1  0.41397876  0.04632924  0.72788742  1
  O2-  O267  1  0.42071484  0.54222127  0.06805052  1
  O2-  O268  1  0.41211629  0.54168233  0.39878999  1
  O2-  O269  1  0.41687423  0.54103464  0.73220907  1
  O2-  O270  1  0.92084341  0.04369087  0.06593848  1
  O2-  O271  1  0.92116281  0.04252434  0.39927399  1
  O2-  O272  1  0.91811159  0.04138821  0.73992094  1
  O2-  O273  1  0.92008796  0.53889531  0.06759507  1
  O2-  O274  1  0.91547337  0.54361188  0.39553627  1
  O2-  O275  1  0.91665031  0.53531265  0.73360733  1
  O2-  O276  1  0.29065079  0.16411703  0.06026852  1
  O2-  O277  1  0.28997268  0.16560647  0.39813118  1
  O2-  O278  1  0.28894640  0.16222417  0.73123655  1
  O2-  O279  1  0.28772784  0.66431072  0.07112399  1
  O2-  O280  1  0.29746850  0.66635658  0.39310069  1
  O2-  O281  1  0.28525917  0.66570008  0.73555820  1
  O2-  O282  1  0.79937498  0.17591820  0.06375140  1
  O2-  O283  1  0.79163123  0.16745112  0.40462315  1
  O2-  O284  1  0.79022344  0.16756078  0.73517411  1
  O2-  O285  1  0.79531110  0.66816587  0.06632182  1
  O2-  O286  1  0.80064682  0.66643849  0.39421192  1
  O2-  O287  1  0.79600490  0.66890732  0.73306762  1
