# generated using pymatgen
data_Ca2Al2SiO7
_symmetry_space_group_name_H-M   'P 1'
_cell_length_a   15.45635899
_cell_length_b   15.45589274
_cell_length_c   15.28285135
_cell_angle_alpha   89.99333405
_cell_angle_beta   89.99379398
_cell_angle_gamma   90.01221253
_symmetry_Int_Tables_number   1
_chemical_formula_structural   Ca2Al2SiO7
_chemical_formula_sum   'Ca48 Al48 Si24 O168'
_cell_volume   3650.94814667
_cell_formula_units_Z   24
loop_
 _symmetry_equiv_pos_site_id
 _symmetry_equiv_pos_as_xyz
  1  'x, y, z'
loop_
 _atom_type_symbol
 _atom_type_oxidation_number
  Ca2+  2.0
  Al0+  0.0
  Si0+  0.0
  O2-  -2.0
loop_
 _atom_site_type_symbol
 _atom_site_label
 _atom_site_symmetry_multiplicity
 _atom_site_fract_x
 _atom_site_fract_y
 _atom_site_fract_z
 _atom_site_occupancy
  Ca2+  Ca0  1  0.17507729  0.07769430  0.17650835  1
  Ca2+  Ca1  1  0.16844906  0.08375673  0.50097369  1
  Ca2+  Ca2  1  0.17705500  0.09014414  0.83366348  1
  Ca2+  Ca3  1  0.17216327  0.58901349  0.17030508  1
  Ca2+  Ca4  1  0.16663403  0.57803262  0.51024071  1
  Ca2+  Ca5  1  0.17842980  0.57835151  0.83330232  1
  Ca2+  Ca6  1  0.67541940  0.06924456  0.17262943  1
  Ca2+  Ca7  1  0.67078898  0.07722177  0.49848311  1
  Ca2+  Ca8  1  0.67202098  0.07821950  0.84476611  1
  Ca2+  Ca9  1  0.66242494  0.58330272  0.17237726  1
  Ca2+  Ca10  1  0.67807135  0.59356325  0.49992459  1
  Ca2+  Ca11  1  0.66724296  0.57842608  0.83801124  1
  Ca2+  Ca12  1  0.08035363  0.32570452  0.16604860  1
  Ca2+  Ca13  1  0.08555376  0.32557571  0.50009028  1
  Ca2+  Ca14  1  0.07931542  0.32839431  0.82025302  1
  Ca2+  Ca15  1  0.08055500  0.83775525  0.17145162  1
  Ca2+  Ca16  1  0.07925196  0.82700087  0.48641011  1
  Ca2+  Ca17  1  0.08143254  0.83153648  0.83005580  1
  Ca2+  Ca18  1  0.58494796  0.33224801  0.16090086  1
  Ca2+  Ca19  1  0.57472724  0.33322796  0.49926846  1
  Ca2+  Ca20  1  0.57982797  0.33322925  0.82949897  1
  Ca2+  Ca21  1  0.58717889  0.82683506  0.15997641  1
  Ca2+  Ca22  1  0.57807383  0.83100242  0.49386498  1
  Ca2+  Ca23  1  0.57320300  0.83505945  0.83338096  1
  Ca2+  Ca24  1  0.33495347  0.42603963  0.16775582  1
  Ca2+  Ca25  1  0.32713765  0.42312892  0.51233375  1
  Ca2+  Ca26  1  0.33544788  0.42410556  0.83291239  1
  Ca2+  Ca27  1  0.33449267  0.92483259  0.17249761  1
  Ca2+  Ca28  1  0.32950360  0.92383761  0.50485976  1
  Ca2+  Ca29  1  0.34090980  0.92384508  0.83762720  1
  Ca2+  Ca30  1  0.82473843  0.42245860  0.17099204  1
  Ca2+  Ca31  1  0.84010078  0.42805813  0.50561163  1
  Ca2+  Ca32  1  0.83078137  0.41871209  0.83540088  1
  Ca2+  Ca33  1  0.82527973  0.91723030  0.17536666  1
  Ca2+  Ca34  1  0.83130753  0.91222715  0.49652238  1
  Ca2+  Ca35  1  0.82507179  0.92466249  0.84328970  1
  Ca2+  Ca36  1  0.41319820  0.16328940  0.16285975  1
  Ca2+  Ca37  1  0.40327591  0.17185220  0.49958273  1
  Ca2+  Ca38  1  0.41388572  0.16918175  0.82400040  1
  Ca2+  Ca39  1  0.42657856  0.67476404  0.15460817  1
  Ca2+  Ca40  1  0.41786372  0.67195664  0.49483792  1
  Ca2+  Ca41  1  0.41600495  0.67286679  0.82998906  1
  Ca2+  Ca42  1  0.91997740  0.15206982  0.16573972  1
  Ca2+  Ca43  1  0.92785715  0.16775489  0.49236175  1
  Ca2+  Ca44  1  0.92073197  0.17238065  0.82263348  1
  Ca2+  Ca45  1  0.91695781  0.66963588  0.17163061  1
  Ca2+  Ca46  1  0.92015244  0.66638609  0.48757704  1
  Ca2+  Ca47  1  0.91477180  0.66605484  0.82731500  1
  Al0+  Al48  1  0.00358857  -0.00000110  -0.00252715  1
  Al0+  Al49  1  0.00102946  -0.00030122  0.33156436  1
  Al0+  Al50  1  -0.00095893  -0.00099458  0.66377005  1
  Al0+  Al51  1  0.00031749  0.49833777  -0.00105469  1
  Al0+  Al52  1  -0.00025172  0.49836229  0.33001462  1
  Al0+  Al53  1  -0.00039796  0.50015775  0.67336561  1
  Al0+  Al54  1  0.50151481  0.00015133  0.00454042  1
  Al0+  Al55  1  0.50071644  0.00396171  0.34188898  1
  Al0+  Al56  1  0.49979629  -0.00234019  0.66517620  1
  Al0+  Al57  1  0.50015919  0.49999580  0.00390105  1
  Al0+  Al58  1  0.49843388  0.49946106  0.33061627  1
  Al0+  Al59  1  0.50310191  0.49997221  0.66418353  1
  Al0+  Al60  1  0.24890785  0.25041979  0.00347774  1
  Al0+  Al61  1  0.24795630  0.25296309  0.32925299  1
  Al0+  Al62  1  0.24994763  0.24930404  0.66664912  1
  Al0+  Al63  1  0.24920262  0.74986109  -0.00104800  1
  Al0+  Al64  1  0.25139246  0.75158319  0.33241565  1
  Al0+  Al65  1  0.24961457  0.75145680  0.66608827  1
  Al0+  Al66  1  0.75146874  0.25250360  0.00704813  1
  Al0+  Al67  1  0.74700456  0.25024927  0.33757122  1
  Al0+  Al68  1  0.75029577  0.25082478  0.66055979  1
  Al0+  Al69  1  0.75177243  0.74846826  -0.00358872  1
  Al0+  Al70  1  0.74908676  0.74814921  0.33297055  1
  Al0+  Al71  1  0.74882424  0.74993348  0.67357588  1
  Al0+  Al72  1  0.31995248  0.57125900  0.01418014  1
  Al0+  Al73  1  0.42816349  0.82086429  0.65100661  1
  Al0+  Al74  1  0.31954979  0.06870479  0.68064701  1
  Al0+  Al75  1  0.32045313  0.07399558  0.35014504  1
  Al0+  Al76  1  0.81918369  0.56763378  0.34511352  1
  Al0+  Al77  1  0.17971426  0.42818009  0.68176966  1
  Al0+  Al78  1  0.67917373  0.43113206  0.01330294  1
  Al0+  Al79  1  0.32065157  0.07137854  0.01300717  1
  Al0+  Al80  1  0.43062214  0.32102410  0.65453545  1
  Al0+  Al81  1  0.07393265  0.67585857  0.31836449  1
  Al0+  Al82  1  0.32401695  0.57376136  0.67998173  1
  Al0+  Al83  1  0.42854997  0.82272092  0.98535978  1
  Al0+  Al84  1  0.07102153  0.17806009  0.65082946  1
  Al0+  Al85  1  0.57264674  0.67667003  0.98233956  1
  Al0+  Al86  1  0.56874403  0.68008776  0.32022934  1
  Al0+  Al87  1  0.82254035  0.07141107  0.35053324  1
  Al0+  Al88  1  0.92903697  0.82012926  0.31836280  1
  Al0+  Al89  1  0.67975618  0.92748153  0.01453956  1
  Al0+  Al90  1  0.18002743  0.92764550  0.34873292  1
  Al0+  Al91  1  0.92765036  0.32338056  0.65066797  1
  Al0+  Al92  1  0.82324795  0.07201467  0.01293053  1
  Al0+  Al93  1  0.82039888  0.57112473  0.68083511  1
  Al0+  Al94  1  0.67937712  0.92643148  0.35056909  1
  Al0+  Al95  1  0.06978699  0.17997661  0.31694577  1
  Si0+  Si96  1  0.82475390  0.57202678  0.01736882  1
  Si0+  Si97  1  0.67825073  0.42553557  0.68201837  1
  Si0+  Si98  1  0.92528790  0.32174400  0.31499244  1
  Si0+  Si99  1  0.67412141  0.42725763  0.35272224  1
  Si0+  Si100  1  0.93066812  0.82106583  0.98334767  1
  Si0+  Si101  1  0.57314138  0.67857135  0.64987397  1
  Si0+  Si102  1  0.07111123  0.67634369  0.98237479  1
  Si0+  Si103  1  0.92869398  0.32137697  0.98494163  1
  Si0+  Si104  1  0.06953319  0.68036045  0.65461439  1
  Si0+  Si105  1  0.42854922  0.32046892  0.31609330  1
  Si0+  Si106  1  0.57200156  0.18076499  0.98826934  1
  Si0+  Si107  1  0.82116632  0.07132029  0.67987859  1
  Si0+  Si108  1  0.17922338  0.43091652  0.34679860  1
  Si0+  Si109  1  0.42890066  0.82545859  0.31755965  1
  Si0+  Si110  1  0.17499247  0.92735532  0.68414394  1
  Si0+  Si111  1  0.92658917  0.82016594  0.65346190  1
  Si0+  Si112  1  0.67908555  0.92932267  0.68361251  1
  Si0+  Si113  1  0.17745232  0.92674275  0.01589543  1
  Si0+  Si114  1  0.07166827  0.17948629  0.98389551  1
  Si0+  Si115  1  0.57181658  0.17930853  0.31727583  1
  Si0+  Si116  1  0.32185613  0.57078903  0.34674440  1
  Si0+  Si117  1  0.42787388  0.32013606  0.98585955  1
  Si0+  Si118  1  0.17699802  0.42826369  0.01856506  1
  Si0+  Si119  1  0.57300345  0.17565127  0.64965070  1
  O2-  O120  1  0.24935494  -0.00688413  0.05785786  1
  O2-  O121  1  0.25077663  -0.00004384  0.39985874  1
  O2-  O122  1  0.24413107  -0.00466616  0.72883493  1
  O2-  O123  1  0.24404519  0.49824663  0.06300580  1
  O2-  O124  1  0.24513120  0.50651999  0.38878787  1
  O2-  O125  1  0.25445962  0.49874952  0.72995595  1
  O2-  O126  1  0.75453249  -0.00258805  0.06282323  1
  O2-  O127  1  0.75287192  -0.00265830  0.40120087  1
  O2-  O128  1  0.74887175  0.00282678  0.72400634  1
  O2-  O129  1  0.75060924  0.50874022  0.06010519  1
  O2-  O130  1  0.74513459  0.49385939  0.39528411  1
  O2-  O131  1  0.74792655  0.49347457  0.72568546  1
  O2-  O132  1  -0.01140443  0.24840438  0.26941670  1
  O2-  O133  1  -0.00163580  0.25011408  0.60139544  1
  O2-  O134  1  -0.00200362  0.24841941  0.94319570  1
  O2-  O135  1  0.00340705  0.74958036  0.26823368  1
  O2-  O136  1  -0.00187654  0.75008232  0.61187092  1
  O2-  O137  1  -0.00054112  0.74749300  0.94067884  1
  O2-  O138  1  0.49924023  0.24898099  0.27445106  1
  O2-  O139  1  0.50308347  0.24434414  0.60660486  1
  O2-  O140  1  0.49810794  0.24795145  0.94390398  1
  O2-  O141  1  0.49728997  0.75713114  0.27278749  1
  O2-  O142  1  0.50011108  0.74259276  0.60583509  1
  O2-  O143  1  0.49999561  0.74959974  0.93443550  1
  O2-  O144  1  0.07253897  0.18056260  0.08883893  1
  O2-  O145  1  0.07308384  0.18524440  0.42940140  1
  O2-  O146  1  0.06795624  0.17804484  0.76533511  1
  O2-  O147  1  0.07057208  0.67435027  0.08702674  1
  O2-  O148  1  0.07149353  0.67264830  0.43235010  1
  O2-  O149  1  0.06865836  0.68283473  0.76019168  1
  O2-  O150  1  0.57118859  0.18383021  0.09325339  1
  O2-  O151  1  0.57366483  0.18197913  0.42230699  1
  O2-  O152  1  0.57494855  0.17635578  0.75578716  1
  O2-  O153  1  0.57038083  0.67684382  0.09606883  1
  O2-  O154  1  0.56566216  0.67851984  0.43356585  1
  O2-  O155  1  0.57544397  0.68042355  0.75514312  1
  O2-  O156  1  0.18229312  0.42929145  0.24136535  1
  O2-  O157  1  0.17981670  0.43149875  0.56764903  1
  O2-  O158  1  0.17711616  0.42743677  0.91342932  1
  O2-  O159  1  0.18314833  0.92893172  0.23465574  1
  O2-  O160  1  0.17370464  0.92588411  0.57915553  1
  O2-  O161  1  0.17277407  0.92878237  0.91018875  1
  O2-  O162  1  0.67333778  0.42767238  0.24685415  1
  O2-  O163  1  0.67609010  0.42557774  0.57675265  1
  O2-  O164  1  0.68212175  0.42744215  0.90021534  1
  O2-  O165  1  0.67925317  0.92736993  0.23719911  1
  O2-  O166  1  0.68072917  0.92691997  0.57886446  1
  O2-  O167  1  0.68051525  0.93250627  0.90017080  1
  O2-  O168  1  0.42769368  0.31926938  0.09128540  1
  O2-  O169  1  0.42848509  0.32259976  0.42112660  1
  O2-  O170  1  0.43367529  0.32017861  0.76811098  1
  O2-  O171  1  0.42841422  0.82205699  0.09889729  1
  O2-  O172  1  0.42876527  0.82165042  0.42340386  1
  O2-  O173  1  0.43137032  0.82404808  0.76386305  1
  O2-  O174  1  0.93065172  0.32512949  0.08973263  1
  O2-  O175  1  0.92965507  0.32482215  0.42012862  1
  O2-  O176  1  0.92596212  0.31934279  0.76512016  1
  O2-  O177  1  0.93166320  0.82224890  0.08777888  1
  O2-  O178  1  0.92918560  0.81534879  0.43261438  1
  O2-  O179  1  0.92775405  0.82028450  0.75909417  1
  O2-  O180  1  0.31992438  0.07361977  0.23615882  1
  O2-  O181  1  0.31830814  0.06830939  0.56827888  1
  O2-  O182  1  0.31890798  0.07544863  0.89997363  1
  O2-  O183  1  0.32332611  0.56662185  0.24159214  1
  O2-  O184  1  0.32017169  0.57293345  0.56585040  1
  O2-  O185  1  0.31907288  0.56875452  0.90134203  1
  O2-  O186  1  0.81810650  0.07055599  0.23696425  1
  O2-  O187  1  0.82100227  0.06878116  0.57539776  1
  O2-  O188  1  0.82071755  0.07249147  0.89833250  1
  O2-  O189  1  0.81835599  0.56526385  0.23202745  1
  O2-  O190  1  0.82002840  0.57421098  0.56794259  1
  O2-  O191  1  0.82771188  0.56827225  0.91164856  1
  O2-  O192  1  0.04525444  0.08199313  0.26315408  1
  O2-  O193  1  0.04191903  0.07932856  0.59847711  1
  O2-  O194  1  0.04901896  0.08681557  0.93548207  1
  O2-  O195  1  0.04406679  0.57848238  0.26289475  1
  O2-  O196  1  0.04250225  0.58773158  0.60977248  1
  O2-  O197  1  0.04288488  0.58428432  0.93469699  1
  O2-  O198  1  0.54458917  0.08670146  0.27139912  1
  O2-  O199  1  0.54833896  0.08231488  0.60388941  1
  O2-  O200  1  0.54845782  0.08792747  0.94142368  1
  O2-  O201  1  0.53668312  0.58318329  0.26621431  1
  O2-  O202  1  0.55629449  0.58311521  0.60462160  1
  O2-  O203  1  0.54281848  0.57700136  0.93194244  1
  O2-  O204  1  0.16354617  0.21872329  0.26064753  1
  O2-  O205  1  0.16899940  0.20701740  0.59871542  1
  O2-  O206  1  0.16252899  0.21224429  0.93680507  1
  O2-  O207  1  0.17294349  0.70423512  0.26554096  1
  O2-  O208  1  0.16090964  0.70664054  0.60622564  1
  O2-  O209  1  0.16205036  0.70507942  0.93404914  1
  O2-  O210  1  0.66268174  0.20897100  0.26845359  1
  O2-  O211  1  0.66502596  0.20247370  0.60087710  1
  O2-  O212  1  0.66334011  0.21224536  0.94098268  1
  O2-  O213  1  0.66602832  0.70597902  0.26644477  1
  O2-  O214  1  0.66531039  0.71218377  0.60439189  1
  O2-  O215  1  0.67327077  0.70048409  0.93059481  1
  O2-  O216  1  0.08266659  0.45255095  0.06399065  1
  O2-  O217  1  0.08590679  0.45301395  0.39282329  1
  O2-  O218  1  0.08333494  0.45868436  0.73782668  1
  O2-  O219  1  0.08600632  0.95679652  0.06358730  1
  O2-  O220  1  0.08031648  0.95279169  0.39895539  1
  O2-  O221  1  0.08058324  0.95229451  0.73074406  1
  O2-  O222  1  0.58235750  0.45592824  0.06976370  1
  O2-  O223  1  0.58047471  0.45519406  0.39765828  1
  O2-  O224  1  0.58581739  0.45252330  0.72988234  1
  O2-  O225  1  0.58364959  0.95755367  0.06948992  1
  O2-  O226  1  0.58315453  0.95954600  0.40562556  1
  O2-  O227  1  0.58726631  0.95710396  0.73018775  1
  O2-  O228  1  0.20489058  0.33598683  0.06633764  1
  O2-  O229  1  0.21274383  0.34175607  0.39471773  1
  O2-  O230  1  0.20654509  0.32994116  0.73491245  1
  O2-  O231  1  0.19693644  0.83169361  0.06039940  1
  O2-  O232  1  0.20689590  0.82835628  0.40231711  1
  O2-  O233  1  0.20012868  0.83383534  0.73065093  1
  O2-  O234  1  0.71276985  0.33739739  0.07199482  1
  O2-  O235  1  0.69533183  0.33310913  0.39839795  1
  O2-  O236  1  0.70216766  0.33102354  0.72831615  1
  O2-  O237  1  0.70798417  0.82752730  0.06341703  1
  O2-  O238  1  0.70712717  0.82817288  0.40383150  1
  O2-  O239  1  0.70911810  0.83969577  0.73373007  1
  O2-  O240  1  0.45849717  0.41118587  0.26687970  1
  O2-  O241  1  0.46230308  0.41651194  0.59734962  1
  O2-  O242  1  0.45763546  0.41137559  0.93970173  1
  O2-  O243  1  0.45354394  0.92135555  0.27648654  1
  O2-  O244  1  0.46288891  0.91564849  0.59586048  1
  O2-  O245  1  0.45987446  0.92183144  0.93300836  1
  O2-  O246  1  0.95696569  0.41200179  0.26514213  1
  O2-  O247  1  0.95845069  0.42270514  0.60116612  1
  O2-  O248  1  0.95786712  0.41229935  0.93547571  1
  O2-  O249  1  0.95533067  0.91852858  0.26455986  1
  O2-  O250  1  0.95149308  0.91195280  0.60556689  1
  O2-  O251  1  0.96182618  0.91170126  0.93361642  1
  O2-  O252  1  0.33733698  0.29483984  0.26657989  1
  O2-  O253  1  0.33410087  0.29162782  0.60020092  1
  O2-  O254  1  0.33508082  0.29352235  0.93964074  1
  O2-  O255  1  0.33556409  0.80060093  0.27130811  1
  O2-  O256  1  0.33008378  0.79351824  0.59782480  1
  O2-  O257  1  0.32857248  0.79637652  0.93308699  1
  O2-  O258  1  0.82790362  0.30260188  0.27385640  1
  O2-  O259  1  0.82855694  0.29996631  0.59691005  1
  O2-  O260  1  0.83588685  0.29488815  0.93869506  1
  O2-  O261  1  0.83230044  0.78735254  0.26478563  1
  O2-  O262  1  0.83431808  0.79141203  0.60839238  1
  O2-  O263  1  0.83910337  0.79555529  0.93385872  1
  O2-  O264  1  0.41811379  0.04582809  0.06704620  1
  O2-  O265  1  0.41988084  0.05318197  0.40326978  1
  O2-  O266  1  0.41802542  0.03898447  0.73276964  1
  O2-  O267  1  0.41460352  0.53771118  0.06962460  1
  O2-  O268  1  0.41051449  0.53573839  0.39551837  1
  O2-  O269  1  0.42388077  0.54651122  0.73012926  1
  O2-  O270  1  0.92364057  0.04486202  0.06118997  1
  O2-  O271  1  0.92251246  0.04683064  0.40005984  1
  O2-  O272  1  0.91234965  0.04194052  0.72820151  1
  O2-  O273  1  0.91642923  0.54042981  0.06401595  1
  O2-  O274  1  0.91686948  0.53665495  0.39788332  1
  O2-  O275  1  0.91590650  0.54310737  0.73810303  1
  O2-  O276  1  0.28758550  0.16699096  0.06838997  1
  O2-  O277  1  0.28808671  0.17357776  0.39864504  1
  O2-  O278  1  0.29066836  0.16590662  0.73455267  1
  O2-  O279  1  0.28869519  0.66784379  0.06762506  1
  O2-  O280  1  0.30238438  0.66536115  0.39076010  1
  O2-  O281  1  0.29114938  0.67057619  0.73379480  1
  O2-  O282  1  0.79620477  0.16916150  0.06751026  1
  O2-  O283  1  0.79115555  0.16988896  0.40276984  1
  O2-  O284  1  0.79520141  0.16506293  0.72469142  1
  O2-  O285  1  0.80621049  0.66825941  0.05893998  1
  O2-  O286  1  0.78914470  0.66343845  0.40002269  1
  O2-  O287  1  0.78800498  0.66598459  0.73863865  1
