# generated using pymatgen
data_Ca2Al2SiO7
_symmetry_space_group_name_H-M   'P 1'
_cell_length_a   15.46407251
_cell_length_b   15.46509858
_cell_length_c   15.28880515
_cell_angle_alpha   90.00153711
_cell_angle_beta   90.00092754
_cell_angle_gamma   89.99538975
_symmetry_Int_Tables_number   1
_chemical_formula_structural   Ca2Al2SiO7
_chemical_formula_sum   'Ca48 Al48 Si24 O168'
_cell_volume   3656.36980859
_cell_formula_units_Z   24
loop_
 _symmetry_equiv_pos_site_id
 _symmetry_equiv_pos_as_xyz
  1  'x, y, z'
loop_
 _atom_type_symbol
 _atom_type_oxidation_number
  Ca2+  2.0
  Al0+  0.0
  Si0+  0.0
  O2-  -2.0
loop_
 _atom_site_type_symbol
 _atom_site_label
 _atom_site_symmetry_multiplicity
 _atom_site_fract_x
 _atom_site_fract_y
 _atom_site_fract_z
 _atom_site_occupancy
  Ca2+  Ca0  1  0.17035907  0.08968813  0.16901206  1
  Ca2+  Ca1  1  0.17021749  0.08347294  0.50784781  1
  Ca2+  Ca2  1  0.17003900  0.08534171  0.83267168  1
  Ca2+  Ca3  1  0.17270431  0.57500681  0.18153192  1
  Ca2+  Ca4  1  0.17171508  0.58017285  0.49881896  1
  Ca2+  Ca5  1  0.16502120  0.58069014  0.83642680  1
  Ca2+  Ca6  1  0.66463207  0.07180273  0.17417568  1
  Ca2+  Ca7  1  0.66674247  0.07128059  0.50618510  1
  Ca2+  Ca8  1  0.67423688  0.07100053  0.83609950  1
  Ca2+  Ca9  1  0.66921714  0.58057452  0.18074461  1
  Ca2+  Ca10  1  0.66471652  0.58557965  0.49758483  1
  Ca2+  Ca11  1  0.66463082  0.58530504  0.83225308  1
  Ca2+  Ca12  1  0.09254210  0.32389428  0.16689135  1
  Ca2+  Ca13  1  0.08131881  0.32280647  0.49530654  1
  Ca2+  Ca14  1  0.07773435  0.32103672  0.82545724  1
  Ca2+  Ca15  1  0.06797970  0.83379632  0.16265438  1
  Ca2+  Ca16  1  0.07104712  0.84578152  0.49729254  1
  Ca2+  Ca17  1  0.07295662  0.84155213  0.82696106  1
  Ca2+  Ca18  1  0.58338613  0.33333611  0.17157007  1
  Ca2+  Ca19  1  0.57986742  0.32439184  0.48719213  1
  Ca2+  Ca20  1  0.57999896  0.32922431  0.82644309  1
  Ca2+  Ca21  1  0.57692758  0.83604906  0.16754352  1
  Ca2+  Ca22  1  0.58466904  0.82871646  0.49069004  1
  Ca2+  Ca23  1  0.58379908  0.83610543  0.83031314  1
  Ca2+  Ca24  1  0.33033727  0.42214979  0.18160300  1
  Ca2+  Ca25  1  0.33447396  0.41659274  0.49460988  1
  Ca2+  Ca26  1  0.33153571  0.41941830  0.83691258  1
  Ca2+  Ca27  1  0.33868094  0.91855085  0.17064086  1
  Ca2+  Ca28  1  0.32895798  0.92197140  0.50906536  1
  Ca2+  Ca29  1  0.33090242  0.92813171  0.83884034  1
  Ca2+  Ca30  1  0.82788939  0.42721345  0.18101178  1
  Ca2+  Ca31  1  0.83262898  0.41981235  0.50176094  1
  Ca2+  Ca32  1  0.83697004  0.41600595  0.83390837  1
  Ca2+  Ca33  1  0.82403237  0.90902740  0.17278272  1
  Ca2+  Ca34  1  0.82589830  0.91630031  0.50575919  1
  Ca2+  Ca35  1  0.82698725  0.91056290  0.83367234  1
  Ca2+  Ca36  1  0.42150000  0.16721461  0.16874340  1
  Ca2+  Ca37  1  0.42150818  0.16674046  0.48983855  1
  Ca2+  Ca38  1  0.41234247  0.16146121  0.83171066  1
  Ca2+  Ca39  1  0.41572623  0.67640014  0.16810781  1
  Ca2+  Ca40  1  0.42660822  0.67253531  0.48913740  1
  Ca2+  Ca41  1  0.42305573  0.67758748  0.82695757  1
  Ca2+  Ca42  1  0.93130823  0.16418030  0.16297810  1
  Ca2+  Ca43  1  0.92621530  0.15892519  0.49793102  1
  Ca2+  Ca44  1  0.92513999  0.16586426  0.82108755  1
  Ca2+  Ca45  1  0.90527015  0.67638340  0.16909642  1
  Ca2+  Ca46  1  0.91202864  0.67883911  0.49407194  1
  Ca2+  Ca47  1  0.91505357  0.67992580  0.82860267  1
  Al0+  Al48  1  0.00076479  -0.00007678  -0.00885397  1
  Al0+  Al49  1  0.00026609  0.00015704  0.32176865  1
  Al0+  Al50  1  0.00055972  0.00067624  0.66470288  1
  Al0+  Al51  1  -0.00034179  0.49919627  0.00253700  1
  Al0+  Al52  1  0.00050299  0.49966348  0.34338587  1
  Al0+  Al53  1  -0.00028306  0.50021666  0.66535434  1
  Al0+  Al54  1  0.49974464  0.00055129  0.00368239  1
  Al0+  Al55  1  0.50042935  0.00022606  0.33131653  1
  Al0+  Al56  1  0.49933066  0.00007952  0.67488707  1
  Al0+  Al57  1  0.49975962  0.49974264  -0.00020849  1
  Al0+  Al58  1  0.50023023  0.49999915  0.33399419  1
  Al0+  Al59  1  0.50060337  0.50098741  0.66487063  1
  Al0+  Al60  1  0.25092519  0.25005164  -0.00107851  1
  Al0+  Al61  1  0.25097951  0.24966871  0.33043578  1
  Al0+  Al62  1  0.24893015  0.25315883  0.66791824  1
  Al0+  Al63  1  0.25064836  0.75092516  -0.00484335  1
  Al0+  Al64  1  0.24774914  0.75036096  0.33469967  1
  Al0+  Al65  1  0.25027561  0.74921249  0.67247657  1
  Al0+  Al66  1  0.74971308  0.24915636  0.00089761  1
  Al0+  Al67  1  0.75361179  0.24883936  0.33163714  1
  Al0+  Al68  1  0.74784721  0.25148436  0.66756760  1
  Al0+  Al69  1  0.74924809  0.74816509  -0.00068564  1
  Al0+  Al70  1  0.74850057  0.75043162  0.33363153  1
  Al0+  Al71  1  0.75034641  0.74685288  0.66410231  1
  Al0+  Al72  1  0.57527659  0.17699099  0.31868229  1
  Al0+  Al73  1  0.82036433  0.07283118  0.67983630  1
  Al0+  Al74  1  0.17968076  0.42563881  0.35072821  1
  Al0+  Al75  1  0.93113850  0.82008402  0.65200315  1
  Al0+  Al76  1  0.32162366  0.57397489  0.34914315  1
  Al0+  Al77  1  0.68022963  0.92537596  0.68202866  1
  Al0+  Al78  1  0.67886633  0.93149151  0.34664961  1
  Al0+  Al79  1  0.67889264  0.42597102  0.34940080  1
  Al0+  Al80  1  0.42880315  0.82294480  0.98403911  1
  Al0+  Al81  1  0.68125245  0.92892144  0.01596875  1
  Al0+  Al82  1  0.57059192  0.67987192  0.31760065  1
  Al0+  Al83  1  0.56963964  0.67954970  0.65213848  1
  Al0+  Al84  1  0.17812463  0.92771328  0.68133075  1
  Al0+  Al85  1  0.32084810  0.07373143  0.68080129  1
  Al0+  Al86  1  0.31895070  0.07095889  0.01757556  1
  Al0+  Al87  1  0.92936000  0.81956529  0.31948659  1
  Al0+  Al88  1  0.92792883  0.81833924  0.98471250  1
  Al0+  Al89  1  0.42553764  0.82253393  0.32055142  1
  Al0+  Al90  1  0.07080282  0.18012520  0.31816953  1
  Al0+  Al91  1  0.43051271  0.31987724  0.31892059  1
  Al0+  Al92  1  0.07213488  0.18092145  0.98335879  1
  Al0+  Al93  1  0.92596507  0.32263267  0.65040409  1
  Al0+  Al94  1  0.82022221  0.57251861  0.35124544  1
  Al0+  Al95  1  0.07090453  0.17970034  0.64983410  1
  Si0+  Si96  1  0.17823787  0.43124120  0.68405169  1
  Si0+  Si97  1  0.82437337  0.07301768  0.01666527  1
  Si0+  Si98  1  0.17639094  0.92691509  0.01770339  1
  Si0+  Si99  1  0.82020951  0.56857509  0.01371340  1
  Si0+  Si100  1  0.67731401  0.42987509  0.68269598  1
  Si0+  Si101  1  0.92670650  0.32279794  0.98519495  1
  Si0+  Si102  1  0.56893761  0.17823255  0.65493308  1
  Si0+  Si103  1  0.57189279  0.17890246  0.98378153  1
  Si0+  Si104  1  0.32162210  0.57206788  0.01370012  1
  Si0+  Si105  1  0.07173391  0.67584346  0.31889175  1
  Si0+  Si106  1  0.82626246  0.07064848  0.34645089  1
  Si0+  Si107  1  0.17577286  0.92954805  0.34435806  1
  Si0+  Si108  1  0.07487313  0.67651190  0.65012616  1
  Si0+  Si109  1  0.57011196  0.67661454  0.98279501  1
  Si0+  Si110  1  0.82187775  0.56962915  0.68378001  1
  Si0+  Si111  1  0.43109303  0.32186298  0.98412399  1
  Si0+  Si112  1  0.92912416  0.32485984  0.31650629  1
  Si0+  Si113  1  0.31975637  0.06894423  0.34620890  1
  Si0+  Si114  1  0.42789635  0.82345549  0.65203143  1
  Si0+  Si115  1  0.42900534  0.32248927  0.65323470  1
  Si0+  Si116  1  0.32319107  0.56977290  0.68375566  1
  Si0+  Si117  1  0.67708654  0.42701659  0.01406028  1
  Si0+  Si118  1  0.07258698  0.67567986  0.98482576  1
  Si0+  Si119  1  0.18005735  0.43073295  0.01396461  1
  O2-  O120  1  0.24487959  -0.00512409  0.06381002  1
  O2-  O121  1  0.25110960  -0.00440438  0.38675909  1
  O2-  O122  1  0.25004247  0.00041378  0.73098478  1
  O2-  O123  1  0.24715274  0.50510531  0.05560961  1
  O2-  O124  1  0.25088278  0.49985590  0.39905681  1
  O2-  O125  1  0.24892481  0.50249884  0.72755807  1
  O2-  O126  1  0.75772562  0.00304979  0.06154312  1
  O2-  O127  1  0.75221047  0.00843038  0.39094653  1
  O2-  O128  1  0.75273157  -0.00254110  0.73198280  1
  O2-  O129  1  0.75077736  0.49553132  0.05414665  1
  O2-  O130  1  0.74977425  0.49830273  0.40067955  1
  O2-  O131  1  0.75145063  0.49736788  0.72631506  1
  O2-  O132  1  -0.00211777  0.25694446  0.27111120  1
  O2-  O133  1  -0.00513752  0.24804340  0.60059743  1
  O2-  O134  1  -0.00793220  0.25197891  0.94025972  1
  O2-  O135  1  0.00157252  0.74170191  0.27291007  1
  O2-  O136  1  0.01068192  0.74915244  0.60661584  1
  O2-  O137  1  0.00626299  0.74580432  0.93974218  1
  O2-  O138  1  0.50572725  0.25173147  0.26791776  1
  O2-  O139  1  0.49382063  0.24539481  0.61384070  1
  O2-  O140  1  0.50203898  0.25158024  0.94089727  1
  O2-  O141  1  0.49662842  0.75018988  0.26876066  1
  O2-  O142  1  0.49858563  0.75794565  0.60742968  1
  O2-  O143  1  0.50365488  0.74726823  0.93873291  1
  O2-  O144  1  0.07350952  0.18459692  0.09656993  1
  O2-  O145  1  0.07047328  0.17723745  0.43046864  1
  O2-  O146  1  0.07296112  0.18460562  0.76364704  1
  O2-  O147  1  0.07230002  0.67249224  0.08992757  1
  O2-  O148  1  0.07319763  0.67870043  0.42423962  1
  O2-  O149  1  0.07121998  0.67240160  0.75621985  1
  O2-  O150  1  0.57255672  0.18139439  0.08832445  1
  O2-  O151  1  0.56986627  0.17476187  0.43275344  1
  O2-  O152  1  0.56975206  0.18207648  0.76057514  1
  O2-  O153  1  0.56889834  0.67137452  0.08740130  1
  O2-  O154  1  0.57037875  0.68348386  0.43119513  1
  O2-  O155  1  0.56571816  0.67521995  0.76586574  1
  O2-  O156  1  0.18165936  0.42742342  0.23598728  1
  O2-  O157  1  0.17950651  0.43100676  0.57978303  1
  O2-  O158  1  0.18079074  0.43254115  0.90850461  1
  O2-  O159  1  0.17395828  0.93160172  0.23919775  1
  O2-  O160  1  0.18139748  0.92749583  0.56716438  1
  O2-  O161  1  0.17775513  0.92765428  0.91236230  1
  O2-  O162  1  0.68253879  0.42795708  0.23466485  1
  O2-  O163  1  0.67369151  0.43085294  0.57873837  1
  O2-  O164  1  0.67467333  0.42730283  0.90865830  1
  O2-  O165  1  0.68002567  0.93125080  0.23320986  1
  O2-  O166  1  0.67882666  0.92712888  0.56877182  1
  O2-  O167  1  0.68250728  0.92925072  0.90288558  1
  O2-  O168  1  0.43201652  0.32530878  0.08826906  1
  O2-  O169  1  0.42826025  0.31391424  0.43291483  1
  O2-  O170  1  0.43218552  0.32661489  0.75912071  1
  O2-  O171  1  0.42771806  0.81977793  0.09656874  1
  O2-  O172  1  0.42557174  0.82406867  0.43414033  1
  O2-  O173  1  0.42850967  0.82063185  0.75795910  1
  O2-  O174  1  0.92758164  0.32608783  0.09026223  1
  O2-  O175  1  0.92931780  0.32349320  0.42164439  1
  O2-  O176  1  0.93083072  0.32475941  0.76495233  1
  O2-  O177  1  0.92656168  0.81477431  0.09764962  1
  O2-  O178  1  0.93180804  0.82238475  0.43220874  1
  O2-  O179  1  0.92977107  0.81518541  0.76547051  1
  O2-  O180  1  0.31870852  0.07015732  0.24097958  1
  O2-  O181  1  0.32271753  0.07372881  0.56700385  1
  O2-  O182  1  0.31737681  0.07263160  0.90471823  1
  O2-  O183  1  0.31712796  0.57378258  0.23459643  1
  O2-  O184  1  0.32419628  0.56798125  0.57954041  1
  O2-  O185  1  0.32286974  0.56764201  0.90814229  1
  O2-  O186  1  0.82882784  0.06651074  0.24056565  1
  O2-  O187  1  0.81622920  0.07297083  0.56629346  1
  O2-  O188  1  0.82073900  0.07648532  0.91140478  1
  O2-  O189  1  0.81923072  0.57085414  0.23645180  1
  O2-  O190  1  0.82222811  0.57009262  0.57959715  1
  O2-  O191  1  0.82114503  0.56753947  0.90838728  1
  O2-  O192  1  0.03865130  0.08657532  0.25856644  1
  O2-  O193  1  0.04790828  0.08022354  0.59774893  1
  O2-  O194  1  0.04691004  0.08321653  0.93001892  1
  O2-  O195  1  0.04936092  0.58017968  0.27545318  1
  O2-  O196  1  0.04611584  0.58457004  0.60349193  1
  O2-  O197  1  0.04443270  0.58223972  0.93754178  1
  O2-  O198  1  0.53987140  0.08234768  0.26288436  1
  O2-  O199  1  0.54388432  0.08505680  0.60949152  1
  O2-  O200  1  0.54121374  0.08835354  0.93701762  1
  O2-  O201  1  0.54613002  0.57991808  0.26670423  1
  O2-  O202  1  0.53529552  0.58406861  0.59838435  1
  O2-  O203  1  0.54220595  0.58350822  0.93441846  1
  O2-  O204  1  0.16662084  0.21189689  0.26323117  1
  O2-  O205  1  0.16890204  0.21409090  0.59880373  1
  O2-  O206  1  0.16700717  0.21801830  0.92967379  1
  O2-  O207  1  0.16395193  0.70234817  0.27062138  1
  O2-  O208  1  0.17159614  0.69557405  0.60834923  1
  O2-  O209  1  0.16676171  0.69688623  0.93750348  1
  O2-  O210  1  0.67492303  0.20047826  0.26535908  1
  O2-  O211  1  0.65833818  0.20996438  0.60695214  1
  O2-  O212  1  0.66407580  0.20648240  0.93596284  1
  O2-  O213  1  0.66799071  0.70926372  0.26379887  1
  O2-  O214  1  0.66798765  0.70280797  0.60034795  1
  O2-  O215  1  0.66426917  0.70063617  0.93702247  1
  O2-  O216  1  0.08708290  0.45398860  0.06166469  1
  O2-  O217  1  0.08203551  0.45138747  0.40498082  1
  O2-  O218  1  0.08686766  0.46031834  0.73264511  1
  O2-  O219  1  0.08126200  0.95273191  0.06069614  1
  O2-  O220  1  0.08592628  0.96397544  0.39131686  1
  O2-  O221  1  0.07997767  0.95647920  0.73375803  1
  O2-  O222  1  0.58604475  0.45702159  0.06162512  1
  O2-  O223  1  0.57925840  0.45049526  0.40016920  1
  O2-  O224  1  0.58716646  0.46213983  0.73292749  1
  O2-  O225  1  0.58524224  0.96244583  0.06840625  1
  O2-  O226  1  0.58195064  0.96139402  0.40068792  1
  O2-  O227  1  0.58253938  0.95505580  0.73629952  1
  O2-  O228  1  0.21261495  0.34068114  0.06040552  1
  O2-  O229  1  0.21291898  0.32851913  0.40319912  1
  O2-  O230  1  0.20825424  0.34123313  0.73385282  1
  O2-  O231  1  0.20026909  0.83121078  0.06074964  1
  O2-  O232  1  0.19555120  0.83648321  0.39164914  1
  O2-  O233  1  0.20198578  0.82811115  0.73633374  1
  O2-  O234  1  0.70097840  0.33423989  0.06100577  1
  O2-  O235  1  0.70694082  0.32614602  0.40045666  1
  O2-  O236  1  0.70118937  0.33803479  0.73249105  1
  O2-  O237  1  0.71047414  0.83022282  0.06682120  1
  O2-  O238  1  0.71111793  0.83586939  0.39938262  1
  O2-  O239  1  0.70934194  0.82640097  0.73464281  1
  O2-  O240  1  0.45363670  0.41965255  0.26672595  1
  O2-  O241  1  0.46272622  0.41104926  0.60459934  1
  O2-  O242  1  0.45909395  0.41334129  0.93409313  1
  O2-  O243  1  0.45607928  0.91917723  0.26569371  1
  O2-  O244  1  0.44925057  0.91937112  0.60972575  1
  O2-  O245  1  0.46094781  0.92000074  0.93218931  1
  O2-  O246  1  0.95431383  0.41981608  0.27252879  1
  O2-  O247  1  0.95748863  0.42062198  0.59903955  1
  O2-  O248  1  0.95516907  0.41590505  0.93795452  1
  O2-  O249  1  0.96311657  0.91234584  0.26007089  1
  O2-  O250  1  0.95763323  0.91729326  0.59836766  1
  O2-  O251  1  0.95511841  0.91547694  0.93068855  1
  O2-  O252  1  0.33425828  0.28846057  0.26326566  1
  O2-  O253  1  0.33486069  0.30274426  0.60890239  1
  O2-  O254  1  0.33950298  0.29395662  0.93616954  1
  O2-  O255  1  0.32642986  0.79532809  0.26672514  1
  O2-  O256  1  0.33385359  0.79517635  0.60888530  1
  O2-  O257  1  0.33239062  0.79220002  0.92851611  1
  O2-  O258  1  0.83600096  0.30083937  0.26879584  1
  O2-  O259  1  0.82413794  0.30216482  0.60207162  1
  O2-  O260  1  0.83117087  0.30175347  0.93989579  1
  O2-  O261  1  0.83363583  0.78736548  0.26542237  1
  O2-  O262  1  0.83614824  0.78395112  0.59929287  1
  O2-  O263  1  0.83325556  0.78155271  0.93000971  1
  O2-  O264  1  0.41651311  0.04233346  0.06997135  1
  O2-  O265  1  0.41188154  0.04383100  0.39354442  1
  O2-  O266  1  0.41810640  0.04675803  0.73786672  1
  O2-  O267  1  0.41197922  0.54000411  0.06094001  1
  O2-  O268  1  0.41971037  0.54581594  0.40123273  1
  O2-  O269  1  0.41258865  0.53582741  0.73309360  1
  O2-  O270  1  0.92012976  0.04887817  0.05836939  1
  O2-  O271  1  0.91772902  0.03768520  0.39265006  1
  O2-  O272  1  0.92068522  0.04901329  0.72965853  1
  O2-  O273  1  0.91232501  0.54326737  0.06247179  1
  O2-  O274  1  0.91917013  0.54848960  0.40450152  1
  O2-  O275  1  0.91389436  0.54261506  0.73255071  1
  O2-  O276  1  0.28813475  0.16911275  0.06938165  1
  O2-  O277  1  0.29000254  0.15974935  0.39316542  1
  O2-  O278  1  0.29354801  0.17324555  0.73428088  1
  O2-  O279  1  0.29798069  0.66578147  0.05796587  1
  O2-  O280  1  0.29003068  0.67095317  0.40409349  1
  O2-  O281  1  0.29873055  0.66179187  0.73288940  1
  O2-  O282  1  0.79868747  0.16700339  0.06337252  1
  O2-  O283  1  0.81061384  0.16715795  0.38881016  1
  O2-  O284  1  0.78969376  0.17078542  0.73495167  1
  O2-  O285  1  0.78993660  0.65892193  0.06136678  1
  O2-  O286  1  0.78897979  0.66968604  0.40366064  1
  O2-  O287  1  0.79057657  0.65941981  0.73304480  1
