# generated using pymatgen
data_Ca2Al2SiO7
_symmetry_space_group_name_H-M   'P 1'
_cell_length_a   15.45744941
_cell_length_b   15.45825083
_cell_length_c   15.28295038
_cell_angle_alpha   89.99751733
_cell_angle_beta   90.00375136
_cell_angle_gamma   90.00719853
_symmetry_Int_Tables_number   1
_chemical_formula_structural   Ca2Al2SiO7
_chemical_formula_sum   'Ca48 Al48 Si24 O168'
_cell_volume   3651.78652565
_cell_formula_units_Z   24
loop_
 _symmetry_equiv_pos_site_id
 _symmetry_equiv_pos_as_xyz
  1  'x, y, z'
loop_
 _atom_type_symbol
 _atom_type_oxidation_number
  Ca2+  2.0
  Al0+  0.0
  Si0+  0.0
  O2-  -2.0
loop_
 _atom_site_type_symbol
 _atom_site_label
 _atom_site_symmetry_multiplicity
 _atom_site_fract_x
 _atom_site_fract_y
 _atom_site_fract_z
 _atom_site_occupancy
  Ca2+  Ca0  1  0.17134476  0.07977684  0.17526196  1
  Ca2+  Ca1  1  0.17585167  0.08322211  0.50295395  1
  Ca2+  Ca2  1  0.16506387  0.06582819  0.83904320  1
  Ca2+  Ca3  1  0.16359728  0.57190390  0.16798299  1
  Ca2+  Ca4  1  0.16439627  0.57231089  0.50649656  1
  Ca2+  Ca5  1  0.15875947  0.57724381  0.83774196  1
  Ca2+  Ca6  1  0.66961710  0.08873470  0.16772628  1
  Ca2+  Ca7  1  0.66933819  0.09274664  0.50159905  1
  Ca2+  Ca8  1  0.66779603  0.08088408  0.84130331  1
  Ca2+  Ca9  1  0.67928875  0.58608766  0.17316010  1
  Ca2+  Ca10  1  0.67536928  0.57737136  0.50822957  1
  Ca2+  Ca11  1  0.67830031  0.58503851  0.83814755  1
  Ca2+  Ca12  1  0.09006057  0.32905510  0.16558523  1
  Ca2+  Ca13  1  0.08696278  0.33170279  0.49246845  1
  Ca2+  Ca14  1  0.08452959  0.33714897  0.83090331  1
  Ca2+  Ca15  1  0.08252270  0.82585997  0.15694521  1
  Ca2+  Ca16  1  0.08198994  0.83006023  0.50255620  1
  Ca2+  Ca17  1  0.08183830  0.82390733  0.82284721  1
  Ca2+  Ca18  1  0.57401525  0.32364677  0.15753016  1
  Ca2+  Ca19  1  0.58216288  0.32693382  0.49250703  1
  Ca2+  Ca20  1  0.58828013  0.32339811  0.82718916  1
  Ca2+  Ca21  1  0.57851578  0.84077512  0.16485190  1
  Ca2+  Ca22  1  0.57059400  0.83481433  0.49549189  1
  Ca2+  Ca23  1  0.57985145  0.83707301  0.82796946  1
  Ca2+  Ca24  1  0.32693264  0.40447520  0.17058854  1
  Ca2+  Ca25  1  0.32387750  0.40707638  0.50110602  1
  Ca2+  Ca26  1  0.32330302  0.41284132  0.83889302  1
  Ca2+  Ca27  1  0.32895173  0.92122554  0.17311690  1
  Ca2+  Ca28  1  0.33524277  0.92029655  0.50501646  1
  Ca2+  Ca29  1  0.32303060  0.90905044  0.83545000  1
  Ca2+  Ca30  1  0.83687498  0.42897601  0.17117503  1
  Ca2+  Ca31  1  0.83019207  0.42765660  0.50754028  1
  Ca2+  Ca32  1  0.82971166  0.42729179  0.83329335  1
  Ca2+  Ca33  1  0.82607333  0.92823429  0.16845225  1
  Ca2+  Ca34  1  0.83624075  0.92202796  0.50294888  1
  Ca2+  Ca35  1  0.83035798  0.92112647  0.84233956  1
  Ca2+  Ca36  1  0.42071852  0.17237504  0.16435365  1
  Ca2+  Ca37  1  0.42802187  0.16864339  0.48816711  1
  Ca2+  Ca38  1  0.42796217  0.16958718  0.83155021  1
  Ca2+  Ca39  1  0.41467159  0.67377782  0.16497588  1
  Ca2+  Ca40  1  0.40976355  0.67972004  0.49748247  1
  Ca2+  Ca41  1  0.41781251  0.67372660  0.82694086  1
  Ca2+  Ca42  1  0.91876878  0.16113969  0.16482639  1
  Ca2+  Ca43  1  0.92481664  0.16791378  0.49036855  1
  Ca2+  Ca44  1  0.91499543  0.16610515  0.83043683  1
  Ca2+  Ca45  1  0.91928241  0.66342678  0.15914506  1
  Ca2+  Ca46  1  0.91559920  0.66604488  0.50137834  1
  Ca2+  Ca47  1  0.92319499  0.66647914  0.82624231  1
  Al0+  Al48  1  -0.00079405  -0.00145199  0.00736664  1
  Al0+  Al49  1  -0.00214368  -0.00184193  0.33248426  1
  Al0+  Al50  1  0.00204872  -0.00062132  0.66672003  1
  Al0+  Al51  1  0.00130410  0.49871104  0.00399875  1
  Al0+  Al52  1  0.00058311  0.50025782  0.34197676  1
  Al0+  Al53  1  0.00009408  0.49959867  0.66979984  1
  Al0+  Al54  1  0.49836790  0.00107261  -0.00175220  1
  Al0+  Al55  1  0.49883944  -0.00074551  0.32833048  1
  Al0+  Al56  1  0.50234535  0.00286741  0.65882654  1
  Al0+  Al57  1  0.49791186  0.50217466  -0.00528005  1
  Al0+  Al58  1  0.49898692  0.50269525  0.32982500  1
  Al0+  Al59  1  0.49858817  0.49766493  0.66985918  1
  Al0+  Al60  1  0.24895579  0.24853801  -0.00315026  1
  Al0+  Al61  1  0.24940839  0.24615505  0.33505105  1
  Al0+  Al62  1  0.25229791  0.24893507  0.67377401  1
  Al0+  Al63  1  0.24858182  0.74676526  0.00041286  1
  Al0+  Al64  1  0.24799163  0.74745657  0.32779313  1
  Al0+  Al65  1  0.24927929  0.74964866  0.66074522  1
  Al0+  Al66  1  0.75116739  0.25169334  -0.00069881  1
  Al0+  Al67  1  0.75184035  0.25155083  0.33253435  1
  Al0+  Al68  1  0.75216010  0.25109417  0.66549110  1
  Al0+  Al69  1  0.74911445  0.75222808  0.00881863  1
  Al0+  Al70  1  0.75070802  0.75180970  0.33840881  1
  Al0+  Al71  1  0.75069437  0.75230698  0.66575912  1
  Al0+  Al72  1  0.57426936  0.17961737  0.31573720  1
  Al0+  Al73  1  0.82058758  0.07214518  0.34880412  1
  Al0+  Al74  1  0.82124281  0.57231516  0.34980008  1
  Al0+  Al75  1  0.42749566  0.82024937  0.31747637  1
  Al0+  Al76  1  0.42997572  0.82014761  0.65376781  1
  Al0+  Al77  1  0.18100966  0.42867316  0.01477363  1
  Al0+  Al78  1  0.06981473  0.67698963  0.64937619  1
  Al0+  Al79  1  0.42633522  0.32236919  0.98157596  1
  Al0+  Al80  1  0.42796098  0.32209217  0.31933159  1
  Al0+  Al81  1  0.18073975  0.92939096  0.67867972  1
  Al0+  Al82  1  0.82109309  0.07404316  0.01470534  1
  Al0+  Al83  1  0.07003396  0.17796928  0.32070815  1
  Al0+  Al84  1  0.32033500  0.06804411  0.34661224  1
  Al0+  Al85  1  0.18270990  0.42884591  0.34719631  1
  Al0+  Al86  1  0.57244502  0.18185094  0.65064205  1
  Al0+  Al87  1  0.82002184  0.56975823  0.01411718  1
  Al0+  Al88  1  0.92753146  0.82342581  0.65161048  1
  Al0+  Al89  1  0.18032177  0.42819904  0.68183470  1
  Al0+  Al90  1  0.06906745  0.67816304  0.98679774  1
  Al0+  Al91  1  0.67758070  0.42705366  0.68132540  1
  Al0+  Al92  1  0.57200259  0.18005651  0.98256097  1
  Al0+  Al93  1  0.81958752  0.57329101  0.68354214  1
  Al0+  Al94  1  0.17903107  0.92524411  0.01413409  1
  Al0+  Al95  1  0.67568352  0.92990272  0.01473333  1
  Si0+  Si96  1  0.57335370  0.68045953  0.98595087  1
  Si0+  Si97  1  0.42845540  0.82029243  0.98520884  1
  Si0+  Si98  1  0.93041226  0.32396188  0.31760911  1
  Si0+  Si99  1  0.57297685  0.67594603  0.65177038  1
  Si0+  Si100  1  0.93048397  0.32170339  0.98543450  1
  Si0+  Si101  1  0.07266667  0.17798717  0.65421049  1
  Si0+  Si102  1  0.93144031  0.31986863  0.65228268  1
  Si0+  Si103  1  0.92730270  0.82198309  0.98582981  1
  Si0+  Si104  1  0.32297376  0.57465114  0.34978305  1
  Si0+  Si105  1  0.06842246  0.67733756  0.31720907  1
  Si0+  Si106  1  0.32161291  0.57373553  0.68257742  1
  Si0+  Si107  1  0.82254619  0.07075809  0.67974595  1
  Si0+  Si108  1  0.17677472  0.92447490  0.34994289  1
  Si0+  Si109  1  0.67634319  0.42980098  0.34725085  1
  Si0+  Si110  1  0.67574507  0.42913799  0.01618552  1
  Si0+  Si111  1  0.67766257  0.92957634  0.35255696  1
  Si0+  Si112  1  0.32539035  0.07082955  0.68483894  1
  Si0+  Si113  1  0.57370633  0.68003547  0.31728926  1
  Si0+  Si114  1  0.32416842  0.57267744  0.01705056  1
  Si0+  Si115  1  0.07005640  0.17620578  0.98468482  1
  Si0+  Si116  1  0.92736033  0.82087893  0.31603891  1
  Si0+  Si117  1  0.67782966  0.93115028  0.67848055  1
  Si0+  Si118  1  0.31938201  0.07011740  0.01564321  1
  Si0+  Si119  1  0.42585065  0.32199208  0.64989703  1
  O2-  O120  1  0.25157664  0.00107651  0.06096433  1
  O2-  O121  1  0.24665714  -0.00809026  0.39392705  1
  O2-  O122  1  0.25669252  0.00157653  0.72832531  1
  O2-  O123  1  0.26013833  0.49905764  0.06032340  1
  O2-  O124  1  0.25975922  0.50108966  0.39403167  1
  O2-  O125  1  0.25449266  0.50390722  0.72754194  1
  O2-  O126  1  0.74550652  0.00481997  0.06321274  1
  O2-  O127  1  0.74311151  0.00129220  0.39736761  1
  O2-  O128  1  0.75225397  -0.00130246  0.72055101  1
  O2-  O129  1  0.74291292  0.49822997  0.06243281  1
  O2-  O130  1  0.74437903  0.49853069  0.39290698  1
  O2-  O131  1  0.74359291  0.50442061  0.73208738  1
  O2-  O132  1  -0.00475215  0.25218384  0.27242322  1
  O2-  O133  1  0.00492737  0.25118836  0.61077631  1
  O2-  O134  1  -0.00248255  0.24614166  0.94295284  1
  O2-  O135  1  -0.00194834  0.74893268  0.27464610  1
  O2-  O136  1  -0.00322896  0.74896906  0.60030625  1
  O2-  O137  1  -0.00420642  0.75426030  0.94040687  1
  O2-  O138  1  0.50260935  0.25341005  0.26844933  1
  O2-  O139  1  0.49842424  0.25778264  0.60574893  1
  O2-  O140  1  0.50320037  0.25516239  0.93191541  1
  O2-  O141  1  0.50344658  0.74637291  0.27131166  1
  O2-  O142  1  0.50284493  0.74305107  0.60700250  1
  O2-  O143  1  0.50190724  0.75135426  0.94347724  1
  O2-  O144  1  0.07136538  0.17692303  0.08970385  1
  O2-  O145  1  0.06995481  0.17982594  0.43441762  1
  O2-  O146  1  0.06870613  0.17612336  0.75957195  1
  O2-  O147  1  0.06714176  0.67803375  0.10041731  1
  O2-  O148  1  0.06907703  0.67756683  0.42193979  1
  O2-  O149  1  0.06902451  0.67770923  0.76320923  1
  O2-  O150  1  0.57060068  0.18061142  0.09558134  1
  O2-  O151  1  0.57363282  0.18202988  0.42971260  1
  O2-  O152  1  0.57270577  0.17891563  0.76339565  1
  O2-  O153  1  0.57265876  0.67978001  0.09097162  1
  O2-  O154  1  0.57375493  0.68185897  0.42285129  1
  O2-  O155  1  0.57277962  0.67971366  0.75774154  1
  O2-  O156  1  0.18060197  0.43077079  0.23418409  1
  O2-  O157  1  0.18168952  0.42545992  0.56875203  1
  O2-  O158  1  0.17898568  0.43117993  0.90168891  1
  O2-  O159  1  0.17819258  0.92491103  0.24397489  1
  O2-  O160  1  0.18086203  0.93309091  0.56573332  1
  O2-  O161  1  0.18020557  0.92519181  0.90077127  1
  O2-  O162  1  0.67791906  0.43280297  0.24161948  1
  O2-  O163  1  0.68183731  0.42702611  0.56745277  1
  O2-  O164  1  0.67939843  0.43074293  0.91064475  1
  O2-  O165  1  0.68098530  0.92655592  0.24716388  1
  O2-  O166  1  0.67588724  0.93302264  0.57365266  1
  O2-  O167  1  0.67731706  0.92807862  0.90043674  1
  O2-  O168  1  0.42574055  0.31851555  0.09502029  1
  O2-  O169  1  0.42913932  0.31993544  0.43314771  1
  O2-  O170  1  0.42340619  0.31843162  0.75511278  1
  O2-  O171  1  0.42790631  0.81825638  0.09022658  1
  O2-  O172  1  0.42780258  0.81900369  0.43070587  1
  O2-  O173  1  0.43169049  0.81934377  0.76735011  1
  O2-  O174  1  0.93259783  0.32412405  0.09044361  1
  O2-  O175  1  0.93282617  0.32375536  0.42357566  1
  O2-  O176  1  0.93043713  0.31762378  0.75774383  1
  O2-  O177  1  0.92894398  0.82015541  0.09167371  1
  O2-  O178  1  0.92797242  0.82215298  0.42094636  1
  O2-  O179  1  0.92904574  0.82686304  0.76518092  1
  O2-  O180  1  0.31718906  0.06702369  0.23339414  1
  O2-  O181  1  0.32374168  0.07135013  0.57911198  1
  O2-  O182  1  0.31811757  0.06750851  0.90975558  1
  O2-  O183  1  0.31933269  0.57924527  0.24446572  1
  O2-  O184  1  0.32085283  0.57416927  0.57696541  1
  O2-  O185  1  0.32302943  0.57775294  0.91165233  1
  O2-  O186  1  0.82250038  0.06839437  0.23636338  1
  O2-  O187  1  0.82311370  0.07182362  0.57474010  1
  O2-  O188  1  0.82375215  0.07084572  0.90038159  1
  O2-  O189  1  0.82222121  0.57107258  0.23629350  1
  O2-  O190  1  0.81882279  0.56982037  0.56990106  1
  O2-  O191  1  0.81970409  0.56955721  0.90151714  1
  O2-  O192  1  0.03966476  0.08096588  0.26674574  1
  O2-  O193  1  0.04350319  0.08827645  0.60453773  1
  O2-  O194  1  0.04174173  0.08338040  0.93854529  1
  O2-  O195  1  0.03814357  0.58520630  0.27175531  1
  O2-  O196  1  0.04093394  0.57773382  0.59785985  1
  O2-  O197  1  0.03646903  0.58156914  0.93414982  1
  O2-  O198  1  0.54562094  0.08066168  0.26542541  1
  O2-  O199  1  0.54199283  0.08664061  0.59396323  1
  O2-  O200  1  0.54014146  0.08146998  0.92998819  1
  O2-  O201  1  0.55176716  0.58633189  0.26986506  1
  O2-  O202  1  0.54999087  0.58082784  0.60773940  1
  O2-  O203  1  0.54741273  0.58952975  0.93588209  1
  O2-  O204  1  0.16537786  0.20883685  0.26561162  1
  O2-  O205  1  0.16665890  0.20387035  0.61045035  1
  O2-  O206  1  0.16041340  0.20397518  0.93505681  1
  O2-  O207  1  0.15989278  0.70298211  0.26799926  1
  O2-  O208  1  0.16741233  0.70585623  0.59529065  1
  O2-  O209  1  0.16683054  0.70611859  0.93347606  1
  O2-  O210  1  0.67391512  0.20683007  0.26437286  1
  O2-  O211  1  0.67011135  0.21213930  0.59781901  1
  O2-  O212  1  0.67268613  0.20594385  0.93132407  1
  O2-  O213  1  0.66705078  0.70895124  0.27155701  1
  O2-  O214  1  0.66557199  0.70291596  0.60492691  1
  O2-  O215  1  0.66492540  0.71055633  0.93903985  1
  O2-  O216  1  0.08643118  0.46205800  0.07067787  1
  O2-  O217  1  0.08771498  0.46185263  0.40320583  1
  O2-  O218  1  0.08325829  0.45719322  0.73531742  1
  O2-  O219  1  0.08292666  0.95399696  0.06899984  1
  O2-  O220  1  0.08270589  0.94992162  0.39386817  1
  O2-  O221  1  0.08542175  0.96269633  0.73473335  1
  O2-  O222  1  0.58054990  0.45374968  0.05864787  1
  O2-  O223  1  0.58240484  0.45489266  0.39343375  1
  O2-  O224  1  0.57628732  0.44540454  0.73238250  1
  O2-  O225  1  0.57593295  0.95519097  0.06642428  1
  O2-  O226  1  0.58171007  0.95084614  0.39455846  1
  O2-  O227  1  0.58756308  0.96263329  0.72712310  1
  O2-  O228  1  0.20745666  0.32923596  0.06562098  1
  O2-  O229  1  0.21022359  0.33162730  0.40139442  1
  O2-  O230  1  0.20984335  0.33169337  0.73806549  1
  O2-  O231  1  0.21096085  0.82946638  0.06872021  1
  O2-  O232  1  0.20163007  0.82961566  0.39326058  1
  O2-  O233  1  0.21061682  0.83152205  0.73070797  1
  O2-  O234  1  0.70270304  0.33595953  0.06130679  1
  O2-  O235  1  0.70270899  0.33645217  0.39282860  1
  O2-  O236  1  0.71588950  0.33189823  0.73579572  1
  O2-  O237  1  0.70440003  0.83389914  0.07270294  1
  O2-  O238  1  0.70648280  0.83765846  0.40059450  1
  O2-  O239  1  0.69990810  0.83793840  0.72550047  1
  O2-  O240  1  0.44775910  0.42378527  0.26802323  1
  O2-  O241  1  0.44374393  0.41842010  0.60660524  1
  O2-  O242  1  0.44603358  0.42451019  0.93194560  1
  O2-  O243  1  0.45783449  0.91542167  0.26157452  1
  O2-  O244  1  0.46313611  0.91516767  0.59819890  1
  O2-  O245  1  0.45221915  0.91249944  0.93733786  1
  O2-  O246  1  0.96079639  0.41676728  0.27214703  1
  O2-  O247  1  0.95758704  0.41185784  0.60538624  1
  O2-  O248  1  0.96443923  0.41054721  0.93614665  1
  O2-  O249  1  0.95547291  0.91170154  0.26725691  1
  O2-  O250  1  0.96064223  0.92060002  0.59688712  1
  O2-  O251  1  0.95175077  0.91673258  0.94155100  1
  O2-  O252  1  0.33113142  0.28729913  0.26745276  1
  O2-  O253  1  0.33310543  0.29098095  0.60409380  1
  O2-  O254  1  0.32912745  0.28852735  0.92798952  1
  O2-  O255  1  0.33151874  0.78764860  0.26229607  1
  O2-  O256  1  0.33461487  0.79101773  0.59691438  1
  O2-  O257  1  0.33801041  0.78776634  0.93766141  1
  O2-  O258  1  0.83568363  0.30401353  0.27233073  1
  O2-  O259  1  0.84175652  0.28988010  0.60254011  1
  O2-  O260  1  0.83794739  0.29898819  0.93699640  1
  O2-  O261  1  0.83483208  0.79315315  0.27035197  1
  O2-  O262  1  0.82789987  0.79961157  0.59775844  1
  O2-  O263  1  0.83212930  0.79751511  0.94260228  1
  O2-  O264  1  0.41281884  0.04507849  0.06102687  1
  O2-  O265  1  0.41774015  0.03776366  0.39967599  1
  O2-  O266  1  0.41958741  0.04397727  0.72835810  1
  O2-  O267  1  0.42005204  0.55466820  0.06191825  1
  O2-  O268  1  0.41950791  0.55815611  0.39317702  1
  O2-  O269  1  0.41617251  0.55214844  0.72903713  1
  O2-  O270  1  0.91734294  0.04259653  0.07064308  1
  O2-  O271  1  0.91662664  0.03703138  0.40278970  1
  O2-  O272  1  0.91424540  0.04439644  0.72804234  1
  O2-  O273  1  0.91448404  0.53424096  0.06922204  1
  O2-  O274  1  0.91546799  0.53878696  0.40580772  1
  O2-  O275  1  0.91624395  0.53881616  0.73558937  1
  O2-  O276  1  0.29134859  0.16300442  0.06070138  1
  O2-  O277  1  0.28738039  0.16214118  0.40379977  1
  O2-  O278  1  0.29962286  0.16310021  0.73283221  1
  O2-  O279  1  0.29277114  0.66322706  0.06642299  1
  O2-  O280  1  0.28985831  0.66580997  0.39751990  1
  O2-  O281  1  0.29564273  0.66732464  0.72843523  1
  O2-  O282  1  0.79871700  0.17434168  0.06660125  1
  O2-  O283  1  0.79701339  0.17181698  0.40122033  1
  O2-  O284  1  0.79481616  0.16230145  0.72713751  1
  O2-  O285  1  0.79131562  0.66615270  0.06965139  1
  O2-  O286  1  0.79187013  0.66925790  0.40336676  1
  O2-  O287  1  0.79466939  0.67370401  0.73468727  1
