# generated using pymatgen
data_Ca2Al2SiO7
_symmetry_space_group_name_H-M   'P 1'
_cell_length_a   15.46059734
_cell_length_b   15.46148207
_cell_length_c   15.28615806
_cell_angle_alpha   90.00743710
_cell_angle_beta   89.99504738
_cell_angle_gamma   90.00098840
_symmetry_Int_Tables_number   1
_chemical_formula_structural   Ca2Al2SiO7
_chemical_formula_sum   'Ca48 Al48 Si24 O168'
_cell_volume   3654.06047895
_cell_formula_units_Z   24
loop_
 _symmetry_equiv_pos_site_id
 _symmetry_equiv_pos_as_xyz
  1  'x, y, z'
loop_
 _atom_type_symbol
 _atom_type_oxidation_number
  Ca2+  2.0
  Al0+  0.0
  Si0+  0.0
  O2-  -2.0
loop_
 _atom_site_type_symbol
 _atom_site_label
 _atom_site_symmetry_multiplicity
 _atom_site_fract_x
 _atom_site_fract_y
 _atom_site_fract_z
 _atom_site_occupancy
  Ca2+  Ca0  1  0.16083672  0.08190502  0.17302804  1
  Ca2+  Ca1  1  0.16346718  0.07850234  0.49704885  1
  Ca2+  Ca2  1  0.16805444  0.08334943  0.83918904  1
  Ca2+  Ca3  1  0.17347416  0.59350121  0.16518264  1
  Ca2+  Ca4  1  0.17564341  0.58181182  0.50846045  1
  Ca2+  Ca5  1  0.17920531  0.59185221  0.84141753  1
  Ca2+  Ca6  1  0.67125656  0.07026064  0.16754674  1
  Ca2+  Ca7  1  0.66974588  0.06987528  0.50848160  1
  Ca2+  Ca8  1  0.67406355  0.07345450  0.84083626  1
  Ca2+  Ca9  1  0.66830568  0.57540265  0.17450439  1
  Ca2+  Ca10  1  0.67126990  0.58751414  0.49859142  1
  Ca2+  Ca11  1  0.66693509  0.58206197  0.83487567  1
  Ca2+  Ca12  1  0.07531659  0.32204548  0.15794632  1
  Ca2+  Ca13  1  0.08057311  0.32527690  0.49159351  1
  Ca2+  Ca14  1  0.07688502  0.32935087  0.83694529  1
  Ca2+  Ca15  1  0.07053063  0.83421079  0.16087694  1
  Ca2+  Ca16  1  0.07462728  0.83289123  0.49057153  1
  Ca2+  Ca17  1  0.07614422  0.82898766  0.83816190  1
  Ca2+  Ca18  1  0.57828769  0.34301812  0.16123037  1
  Ca2+  Ca19  1  0.57874084  0.33630962  0.49166210  1
  Ca2+  Ca20  1  0.58361831  0.33820374  0.83604602  1
  Ca2+  Ca21  1  0.58644903  0.82904954  0.16181979  1
  Ca2+  Ca22  1  0.59230230  0.82387785  0.49675286  1
  Ca2+  Ca23  1  0.57624960  0.83621585  0.82555261  1
  Ca2+  Ca24  1  0.33848481  0.41941514  0.16815700  1
  Ca2+  Ca25  1  0.33579560  0.42196400  0.50338915  1
  Ca2+  Ca26  1  0.33738541  0.43060014  0.84203841  1
  Ca2+  Ca27  1  0.32596246  0.91499512  0.16992886  1
  Ca2+  Ca28  1  0.32536460  0.90824755  0.50279565  1
  Ca2+  Ca29  1  0.33562007  0.90981776  0.84106528  1
  Ca2+  Ca30  1  0.82570214  0.41890290  0.17140892  1
  Ca2+  Ca31  1  0.83104555  0.42996090  0.50433111  1
  Ca2+  Ca32  1  0.82920731  0.42122581  0.84273269  1
  Ca2+  Ca33  1  0.82981406  0.91192841  0.16974926  1
  Ca2+  Ca34  1  0.82317009  0.91539273  0.50250725  1
  Ca2+  Ca35  1  0.82238866  0.92065818  0.84167517  1
  Ca2+  Ca36  1  0.41824485  0.18037469  0.16149364  1
  Ca2+  Ca37  1  0.41975187  0.17484245  0.49145344  1
  Ca2+  Ca38  1  0.41839602  0.17457355  0.83276731  1
  Ca2+  Ca39  1  0.42369775  0.67054448  0.15957064  1
  Ca2+  Ca40  1  0.42909641  0.66708592  0.50061554  1
  Ca2+  Ca41  1  0.42084923  0.67319997  0.82727569  1
  Ca2+  Ca42  1  0.92415110  0.16498684  0.15549635  1
  Ca2+  Ca43  1  0.91894765  0.16249652  0.49528120  1
  Ca2+  Ca44  1  0.90916577  0.16535404  0.83575150  1
  Ca2+  Ca45  1  0.91662122  0.67578524  0.16190742  1
  Ca2+  Ca46  1  0.90809114  0.67034108  0.49178282  1
  Ca2+  Ca47  1  0.91393601  0.66998389  0.83072058  1
  Al0+  Al48  1  0.00100427  -0.00169162  -0.00703727  1
  Al0+  Al49  1  0.00113870  -0.00203404  0.33088003  1
  Al0+  Al50  1  0.00177149  0.00024477  0.66950585  1
  Al0+  Al51  1  0.00425382  0.49749017  -0.00648022  1
  Al0+  Al52  1  0.00321877  0.49968443  0.33652009  1
  Al0+  Al53  1  -0.00063958  0.49763554  0.66973250  1
  Al0+  Al54  1  0.49932493  0.00113204  0.00234410  1
  Al0+  Al55  1  0.49880140  0.00145481  0.33773702  1
  Al0+  Al56  1  0.49540131  0.00245378  0.66435913  1
  Al0+  Al57  1  0.49933565  0.50206395  0.00362032  1
  Al0+  Al58  1  0.50057066  0.50154976  0.33009488  1
  Al0+  Al59  1  0.49872900  0.50197665  0.66641371  1
  Al0+  Al60  1  0.25095542  0.25239238  -0.00869600  1
  Al0+  Al61  1  0.25052638  0.25093883  0.32654949  1
  Al0+  Al62  1  0.24730703  0.24859680  0.66545580  1
  Al0+  Al63  1  0.25205264  0.75108819  -0.00048406  1
  Al0+  Al64  1  0.25088046  0.75071196  0.34039592  1
  Al0+  Al65  1  0.24889782  0.74932987  0.66699163  1
  Al0+  Al66  1  0.74977922  0.24887585  0.00537578  1
  Al0+  Al67  1  0.74871765  0.24947938  0.33697073  1
  Al0+  Al68  1  0.74991607  0.25030436  0.66636452  1
  Al0+  Al69  1  0.75006787  0.74803632  -0.00166815  1
  Al0+  Al70  1  0.74981724  0.74983397  0.33025405  1
  Al0+  Al71  1  0.74908802  0.74926183  0.67143662  1
  Al0+  Al72  1  0.92633149  0.81936881  0.98227857  1
  Al0+  Al73  1  0.92972454  0.81819139  0.32147979  1
  Al0+  Al74  1  0.82197159  0.07159514  0.68139411  1
  Al0+  Al75  1  0.31956764  0.56947841  0.68104846  1
  Al0+  Al76  1  0.42629802  0.82357908  0.64975557  1
  Al0+  Al77  1  0.67775201  0.92900339  0.34725837  1
  Al0+  Al78  1  0.43101720  0.32330802  0.98455207  1
  Al0+  Al79  1  0.67705300  0.42811833  0.34930700  1
  Al0+  Al80  1  0.43178484  0.32080990  0.31942864  1
  Al0+  Al81  1  0.67648684  0.92872195  0.68182895  1
  Al0+  Al82  1  0.57196999  0.67978165  0.65077822  1
  Al0+  Al83  1  0.82172208  0.57068859  0.68193621  1
  Al0+  Al84  1  0.92576567  0.32022961  0.98530113  1
  Al0+  Al85  1  0.67683317  0.92656688  0.01609283  1
  Al0+  Al86  1  0.07092429  0.17731738  0.98245595  1
  Al0+  Al87  1  0.06804669  0.17971887  0.32037235  1
  Al0+  Al88  1  0.82266071  0.06873522  0.01649244  1
  Al0+  Al89  1  0.57004761  0.68186105  0.31780454  1
  Al0+  Al90  1  0.07251069  0.67898077  0.98634046  1
  Al0+  Al91  1  0.43157614  0.82189501  0.98959449  1
  Al0+  Al92  1  0.31940179  0.57199882  0.01602700  1
  Al0+  Al93  1  0.17913358  0.92957898  0.34632050  1
  Al0+  Al94  1  0.82232614  0.56990974  0.34578058  1
  Al0+  Al95  1  0.68019038  0.43079810  0.01320885  1
  Si0+  Si96  1  0.57167544  0.67757837  0.98387188  1
  Si0+  Si97  1  0.57370717  0.17507516  0.31663975  1
  Si0+  Si98  1  0.07035026  0.67726103  0.65148267  1
  Si0+  Si99  1  0.32133653  0.57145112  0.34964020  1
  Si0+  Si100  1  0.17997805  0.92922117  0.68335856  1
  Si0+  Si101  1  0.32109889  0.07498418  0.01440742  1
  Si0+  Si102  1  0.92703098  0.32428196  0.31904803  1
  Si0+  Si103  1  0.82335743  0.07077009  0.34840832  1
  Si0+  Si104  1  0.07117792  0.17858929  0.64862800  1
  Si0+  Si105  1  0.82698541  0.57132172  0.01562414  1
  Si0+  Si106  1  0.32015753  0.07451864  0.34936870  1
  Si0+  Si107  1  0.42859943  0.32066378  0.65239741  1
  Si0+  Si108  1  0.67744950  0.42782108  0.68262091  1
  Si0+  Si109  1  0.31916745  0.07418580  0.68147835  1
  Si0+  Si110  1  0.07611209  0.67582972  0.32002485  1
  Si0+  Si111  1  0.17754554  0.42533668  0.68454119  1
  Si0+  Si112  1  0.93086159  0.82019530  0.65200075  1
  Si0+  Si113  1  0.17924920  0.42616815  0.01764694  1
  Si0+  Si114  1  0.18133382  0.93046956  0.01383883  1
  Si0+  Si115  1  0.92793043  0.32109876  0.64978350  1
  Si0+  Si116  1  0.57111121  0.17797585  0.98397911  1
  Si0+  Si117  1  0.42551276  0.82336379  0.31742953  1
  Si0+  Si118  1  0.57110715  0.17984850  0.65166096  1
  Si0+  Si119  1  0.18089534  0.42692357  0.34758712  1
  O2-  O120  1  0.24834735  0.00564977  0.05594428  1
  O2-  O121  1  0.25521099  0.00261245  0.39471694  1
  O2-  O122  1  0.25500879  -0.00290054  0.72386786  1
  O2-  O123  1  0.24390264  0.49790947  0.06340721  1
  O2-  O124  1  0.24888649  0.50049353  0.39069493  1
  O2-  O125  1  0.24455199  0.49521913  0.72834613  1
  O2-  O126  1  0.75373698  -0.00621354  0.06608796  1
  O2-  O127  1  0.75021969  0.00708861  0.39273559  1
  O2-  O128  1  0.74946318  0.00029223  0.73058643  1
  O2-  O129  1  0.75846638  0.50214571  0.05889561  1
  O2-  O130  1  0.75243751  0.49672391  0.39848661  1
  O2-  O131  1  0.74621350  0.49605067  0.72650322  1
  O2-  O132  1  -0.00948352  0.25112940  0.27488062  1
  O2-  O133  1  -0.00203907  0.24812363  0.60786745  1
  O2-  O134  1  -0.00450532  0.24621046  0.93313211  1
  O2-  O135  1  0.00453570  0.74155111  0.27778287  1
  O2-  O136  1  -0.00241877  0.74534936  0.60788951  1
  O2-  O137  1  -0.00488969  0.74295177  0.93320668  1
  O2-  O138  1  0.50912825  0.24832882  0.27327368  1
  O2-  O139  1  0.50049599  0.25168493  0.60903057  1
  O2-  O140  1  0.50579445  0.24925899  0.93738337  1
  O2-  O141  1  0.49680060  0.75901050  0.27245727  1
  O2-  O142  1  0.50298697  0.75602176  0.60085769  1
  O2-  O143  1  0.50973587  0.75281211  0.94104181  1
  O2-  O144  1  0.07297242  0.17962834  0.09615154  1
  O2-  O145  1  0.06838517  0.18117027  0.43422142  1
  O2-  O146  1  0.07651193  0.17989178  0.75284097  1
  O2-  O147  1  0.07371919  0.68493249  0.10022795  1
  O2-  O148  1  0.07864548  0.67685893  0.42596982  1
  O2-  O149  1  0.07199657  0.67998331  0.75608072  1
  O2-  O150  1  0.56644198  0.17647755  0.08938041  1
  O2-  O151  1  0.56953804  0.17406412  0.42272274  1
  O2-  O152  1  0.56935649  0.18071988  0.75661723  1
  O2-  O153  1  0.56842232  0.67614575  0.08957449  1
  O2-  O154  1  0.56914502  0.68091512  0.43076149  1
  O2-  O155  1  0.56822454  0.67568378  0.76407538  1
  O2-  O156  1  0.18124084  0.42481888  0.24318374  1
  O2-  O157  1  0.17909298  0.42413300  0.57828019  1
  O2-  O158  1  0.18299273  0.42448542  0.91194078  1
  O2-  O159  1  0.18004789  0.93014691  0.23341322  1
  O2-  O160  1  0.17718265  0.93131756  0.57808789  1
  O2-  O161  1  0.18446462  0.92985132  0.90827514  1
  O2-  O162  1  0.67683479  0.43123615  0.23601556  1
  O2-  O163  1  0.67844210  0.42554270  0.57725247  1
  O2-  O164  1  0.67877359  0.43404773  0.89954463  1
  O2-  O165  1  0.67806408  0.92945208  0.23474578  1
  O2-  O166  1  0.68044376  0.92949594  0.56783018  1
  O2-  O167  1  0.67297261  0.93113722  0.90271244  1
  O2-  O168  1  0.43069011  0.32103231  0.09752601  1
  O2-  O169  1  0.42940194  0.31866979  0.43347079  1
  O2-  O170  1  0.42847829  0.31910094  0.75717718  1
  O2-  O171  1  0.42811350  0.81975305  0.10265252  1
  O2-  O172  1  0.42181318  0.81910057  0.42267410  1
  O2-  O173  1  0.42487650  0.82096834  0.76333302  1
  O2-  O174  1  0.92880510  0.32033425  0.09916127  1
  O2-  O175  1  0.93182453  0.32521700  0.42512858  1
  O2-  O176  1  0.92842748  0.32193084  0.75423898  1
  O2-  O177  1  0.92912588  0.82031735  0.09595703  1
  O2-  O178  1  0.93132347  0.81900687  0.43537868  1
  O2-  O179  1  0.93466861  0.82011588  0.75656128  1
  O2-  O180  1  0.31852714  0.07599716  0.24395567  1
  O2-  O181  1  0.31418488  0.08165112  0.57686869  1
  O2-  O182  1  0.32137888  0.07415710  0.90883445  1
  O2-  O183  1  0.31947924  0.57337316  0.24481118  1
  O2-  O184  1  0.31830246  0.56560955  0.56734320  1
  O2-  O185  1  0.31945901  0.57125066  0.90288090  1
  O2-  O186  1  0.82515565  0.06930255  0.24340545  1
  O2-  O187  1  0.82198094  0.07053348  0.56725195  1
  O2-  O188  1  0.81814243  0.06831359  0.90290725  1
  O2-  O189  1  0.82378290  0.56816588  0.23251432  1
  O2-  O190  1  0.82509046  0.56901948  0.56909194  1
  O2-  O191  1  0.82452960  0.57027974  0.90977014  1
  O2-  O192  1  0.04148593  0.08263719  0.26672911  1
  O2-  O193  1  0.04492736  0.08552570  0.60230607  1
  O2-  O194  1  0.04898814  0.07855766  0.92819599  1
  O2-  O195  1  0.05675768  0.58044991  0.27498474  1
  O2-  O196  1  0.04781474  0.58242723  0.60682290  1
  O2-  O197  1  0.05876144  0.57729942  0.93500363  1
  O2-  O198  1  0.54278888  0.08341575  0.26945960  1
  O2-  O199  1  0.54081711  0.08990977  0.60198309  1
  O2-  O200  1  0.53995112  0.08697584  0.93587255  1
  O2-  O201  1  0.53618195  0.58662138  0.26372507  1
  O2-  O202  1  0.53853047  0.58195704  0.59710414  1
  O2-  O203  1  0.53762470  0.58765296  0.93641540  1
  O2-  O204  1  0.16365584  0.21174763  0.26609423  1
  O2-  O205  1  0.16161871  0.20928250  0.59867275  1
  O2-  O206  1  0.16776356  0.20997901  0.92745172  1
  O2-  O207  1  0.16892511  0.70533292  0.27452190  1
  O2-  O208  1  0.16091323  0.70756966  0.60280955  1
  O2-  O209  1  0.16741089  0.71718924  0.93151925  1
  O2-  O210  1  0.66968035  0.19471948  0.27358212  1
  O2-  O211  1  0.66274896  0.20663649  0.60313479  1
  O2-  O212  1  0.66525961  0.20180562  0.93970308  1
  O2-  O213  1  0.66601857  0.71043326  0.26288941  1
  O2-  O214  1  0.67233479  0.70572165  0.59898077  1
  O2-  O215  1  0.66766424  0.69338326  0.93999208  1
  O2-  O216  1  0.08356172  0.44615987  0.06149310  1
  O2-  O217  1  0.08935332  0.45112445  0.39815271  1
  O2-  O218  1  0.08338796  0.44796108  0.72952838  1
  O2-  O219  1  0.08798221  0.95466791  0.05863802  1
  O2-  O220  1  0.08407314  0.96282598  0.40297560  1
  O2-  O221  1  0.09076857  0.96164412  0.73247894  1
  O2-  O222  1  0.58526149  0.46520532  0.06811042  1
  O2-  O223  1  0.57895787  0.46021310  0.40159678  1
  O2-  O224  1  0.58339020  0.45326717  0.72754245  1
  O2-  O225  1  0.57983272  0.96020904  0.07037730  1
  O2-  O226  1  0.58013520  0.95665997  0.40210570  1
  O2-  O227  1  0.57602072  0.95899968  0.72963699  1
  O2-  O228  1  0.21025025  0.33360483  0.06312775  1
  O2-  O229  1  0.21233132  0.33654914  0.39689998  1
  O2-  O230  1  0.20443535  0.33184151  0.72980851  1
  O2-  O231  1  0.21426694  0.84166628  0.06286358  1
  O2-  O232  1  0.20818462  0.83383857  0.40484068  1
  O2-  O233  1  0.20422909  0.83646800  0.72968135  1
  O2-  O234  1  0.70350691  0.33267130  0.06734810  1
  O2-  O235  1  0.69769420  0.32684447  0.40136295  1
  O2-  O236  1  0.70269937  0.33429056  0.72877641  1
  O2-  O237  1  0.70194071  0.82548055  0.06495666  1
  O2-  O238  1  0.71398302  0.83406555  0.40019117  1
  O2-  O239  1  0.70268961  0.83066060  0.73457658  1
  O2-  O240  1  0.45861948  0.41770300  0.26541656  1
  O2-  O241  1  0.45436313  0.41256927  0.60486168  1
  O2-  O242  1  0.46327590  0.41982945  0.93178263  1
  O2-  O243  1  0.44434080  0.92059238  0.27662996  1
  O2-  O244  1  0.44182628  0.92655851  0.59999310  1
  O2-  O245  1  0.45449106  0.92092063  0.93579630  1
  O2-  O246  1  0.95866429  0.41564348  0.27227708  1
  O2-  O247  1  0.95935350  0.41198511  0.60154727  1
  O2-  O248  1  0.95765115  0.41656468  0.92894678  1
  O2-  O249  1  0.96425352  0.91249867  0.26631548  1
  O2-  O250  1  0.96448683  0.91104015  0.60545995  1
  O2-  O251  1  0.96113538  0.91451156  0.92733531  1
  O2-  O252  1  0.33684178  0.28801381  0.26359110  1
  O2-  O253  1  0.33652437  0.29051899  0.60558723  1
  O2-  O254  1  0.33644486  0.29213662  0.92752582  1
  O2-  O255  1  0.33226290  0.79381988  0.27190538  1
  O2-  O256  1  0.32821451  0.78950021  0.59744976  1
  O2-  O257  1  0.33702110  0.78815833  0.93380747  1
  O2-  O258  1  0.83034175  0.30490990  0.27780174  1
  O2-  O259  1  0.83581534  0.29535758  0.60159642  1
  O2-  O260  1  0.82637559  0.29371859  0.93293498  1
  O2-  O261  1  0.83529003  0.78823348  0.26482926  1
  O2-  O262  1  0.83708968  0.79542260  0.60801515  1
  O2-  O263  1  0.82741594  0.79346071  0.92888417  1
  O2-  O264  1  0.41119582  0.04704831  0.06408385  1
  O2-  O265  1  0.41442548  0.05423942  0.39639874  1
  O2-  O266  1  0.41305124  0.05541167  0.72770630  1
  O2-  O267  1  0.41440992  0.53913296  0.07084978  1
  O2-  O268  1  0.41164156  0.53973357  0.39641039  1
  O2-  O269  1  0.41543907  0.53757356  0.73499285  1
  O2-  O270  1  0.92455867  0.04342623  0.06364316  1
  O2-  O271  1  0.91507220  0.04033449  0.39600676  1
  O2-  O272  1  0.92176615  0.04580024  0.73251929  1
  O2-  O273  1  0.92245734  0.54764722  0.05820281  1
  O2-  O274  1  0.92259964  0.54560657  0.40029474  1
  O2-  O275  1  0.91823968  0.53880723  0.73594913  1
  O2-  O276  1  0.29414030  0.16803126  0.05946690  1
  O2-  O277  1  0.28961237  0.16674842  0.39672295  1
  O2-  O278  1  0.28499277  0.16302631  0.73224254  1
  O2-  O279  1  0.28688301  0.66805886  0.07075945  1
  O2-  O280  1  0.29409450  0.66186130  0.40012429  1
  O2-  O281  1  0.28686357  0.66607322  0.73371611  1
  O2-  O282  1  0.79395018  0.16649286  0.07019091  1
  O2-  O283  1  0.80441568  0.16655960  0.39372531  1
  O2-  O284  1  0.79385300  0.17112169  0.73222093  1
  O2-  O285  1  0.80137092  0.66522361  0.06013983  1
  O2-  O286  1  0.78993477  0.66720183  0.39857751  1
  O2-  O287  1  0.79269642  0.66659683  0.73670630  1
