# generated using pymatgen
data_Ca2Al2SiO7
_symmetry_space_group_name_H-M   'P 1'
_cell_length_a   15.45934389
_cell_length_b   15.45948066
_cell_length_c   15.28381518
_cell_angle_alpha   89.99220472
_cell_angle_beta   90.00967878
_cell_angle_gamma   90.00518117
_symmetry_Int_Tables_number   1
_chemical_formula_structural   Ca2Al2SiO7
_chemical_formula_sum   'Ca48 Al48 Si24 O168'
_cell_volume   3652.73128113
_cell_formula_units_Z   24
loop_
 _symmetry_equiv_pos_site_id
 _symmetry_equiv_pos_as_xyz
  1  'x, y, z'
loop_
 _atom_type_symbol
 _atom_type_oxidation_number
  Ca2+  2.0
  Al0+  0.0
  Si0+  0.0
  O2-  -2.0
loop_
 _atom_site_type_symbol
 _atom_site_label
 _atom_site_symmetry_multiplicity
 _atom_site_fract_x
 _atom_site_fract_y
 _atom_site_fract_z
 _atom_site_occupancy
  Ca2+  Ca0  1  0.17071342  0.08025041  0.17592691  1
  Ca2+  Ca1  1  0.17888681  0.07237477  0.50709570  1
  Ca2+  Ca2  1  0.17063486  0.08640421  0.83769477  1
  Ca2+  Ca3  1  0.17123736  0.58427143  0.17142268  1
  Ca2+  Ca4  1  0.17697714  0.58290104  0.51046094  1
  Ca2+  Ca5  1  0.16599056  0.58499796  0.83219494  1
  Ca2+  Ca6  1  0.66647140  0.07799769  0.17404897  1
  Ca2+  Ca7  1  0.66013222  0.07569121  0.50208184  1
  Ca2+  Ca8  1  0.65859594  0.07444180  0.83743832  1
  Ca2+  Ca9  1  0.66197932  0.57626142  0.17017294  1
  Ca2+  Ca10  1  0.66945993  0.57441896  0.50532585  1
  Ca2+  Ca11  1  0.67376241  0.58887170  0.84034057  1
  Ca2+  Ca12  1  0.07511629  0.32457506  0.15546112  1
  Ca2+  Ca13  1  0.08426893  0.33745656  0.50044270  1
  Ca2+  Ca14  1  0.08253871  0.33326740  0.83212893  1
  Ca2+  Ca15  1  0.07807080  0.83222970  0.15836517  1
  Ca2+  Ca16  1  0.09523793  0.83084593  0.49786780  1
  Ca2+  Ca17  1  0.08118446  0.82627424  0.82721564  1
  Ca2+  Ca18  1  0.58240221  0.32167772  0.16076619  1
  Ca2+  Ca19  1  0.58597384  0.32123270  0.49251990  1
  Ca2+  Ca20  1  0.57784124  0.32068913  0.83026557  1
  Ca2+  Ca21  1  0.57978970  0.83690313  0.16287346  1
  Ca2+  Ca22  1  0.57874922  0.83682406  0.49327789  1
  Ca2+  Ca23  1  0.58968097  0.83196694  0.83010365  1
  Ca2+  Ca24  1  0.33987120  0.42223318  0.16943485  1
  Ca2+  Ca25  1  0.33071338  0.42979946  0.50774818  1
  Ca2+  Ca26  1  0.33260798  0.41737416  0.83548436  1
  Ca2+  Ca27  1  0.32796960  0.92178890  0.17823142  1
  Ca2+  Ca28  1  0.33061664  0.92207724  0.50098389  1
  Ca2+  Ca29  1  0.32850056  0.92127638  0.83001135  1
  Ca2+  Ca30  1  0.82866720  0.41444136  0.17106357  1
  Ca2+  Ca31  1  0.82608252  0.41987087  0.50352284  1
  Ca2+  Ca32  1  0.83818761  0.42222820  0.83531182  1
  Ca2+  Ca33  1  0.82419325  0.91936480  0.17092091  1
  Ca2+  Ca34  1  0.82145659  0.92151647  0.50133408  1
  Ca2+  Ca35  1  0.82309855  0.91143497  0.84001832  1
  Ca2+  Ca36  1  0.42667150  0.16613288  0.16164598  1
  Ca2+  Ca37  1  0.42356703  0.15593970  0.49610245  1
  Ca2+  Ca38  1  0.42477230  0.16307766  0.82840972  1
  Ca2+  Ca39  1  0.42004594  0.67261017  0.16529768  1
  Ca2+  Ca40  1  0.40808339  0.67233604  0.49315238  1
  Ca2+  Ca41  1  0.42236212  0.66598297  0.82973485  1
  Ca2+  Ca42  1  0.91920858  0.16743915  0.16006850  1
  Ca2+  Ca43  1  0.91620724  0.16357370  0.49402256  1
  Ca2+  Ca44  1  0.92045277  0.17105557  0.83371416  1
  Ca2+  Ca45  1  0.92413791  0.67621389  0.15498398  1
  Ca2+  Ca46  1  0.92132168  0.66402331  0.50210228  1
  Ca2+  Ca47  1  0.92418904  0.66973819  0.82817573  1
  Al0+  Al48  1  -0.00145960  0.00007344  -0.00818368  1
  Al0+  Al49  1  -0.00135154  -0.00195907  0.33979909  1
  Al0+  Al50  1  -0.00266609  0.00012281  0.66750314  1
  Al0+  Al51  1  0.00149459  0.50042568  -0.00291887  1
  Al0+  Al52  1  0.00002781  0.50010441  0.33047808  1
  Al0+  Al53  1  -0.00069892  0.50159431  0.66770849  1
  Al0+  Al54  1  0.49784891  -0.00084412  0.00155781  1
  Al0+  Al55  1  0.49912595  -0.00132448  0.32903312  1
  Al0+  Al56  1  0.50008153  -0.00183100  0.67048679  1
  Al0+  Al57  1  0.50071437  0.50133660  -0.00699212  1
  Al0+  Al58  1  0.50063901  0.49942257  0.34329585  1
  Al0+  Al59  1  0.50070804  0.49780322  0.66977595  1
  Al0+  Al60  1  0.24998064  0.25244553  -0.00265654  1
  Al0+  Al61  1  0.24970457  0.25124133  0.33598981  1
  Al0+  Al62  1  0.25057318  0.25142204  0.67150188  1
  Al0+  Al63  1  0.25127933  0.75028667  -0.00196568  1
  Al0+  Al64  1  0.25149091  0.74842259  0.33257812  1
  Al0+  Al65  1  0.25074963  0.75013991  0.67116830  1
  Al0+  Al66  1  0.74980733  0.25006079  -0.00888815  1
  Al0+  Al67  1  0.75033218  0.25100962  0.33569162  1
  Al0+  Al68  1  0.74983820  0.24904269  0.66183506  1
  Al0+  Al69  1  0.74950839  0.75034954  0.00106114  1
  Al0+  Al70  1  0.75223325  0.74872928  0.33565907  1
  Al0+  Al71  1  0.75100622  0.74940534  0.67063034  1
  Al0+  Al72  1  0.81854274  0.56926412  0.68090084  1
  Al0+  Al73  1  0.57002515  0.17626562  0.98454096  1
  Al0+  Al74  1  0.56855274  0.17838618  0.65003357  1
  Al0+  Al75  1  0.07357435  0.67970044  0.98464805  1
  Al0+  Al76  1  0.07009598  0.68142230  0.65056877  1
  Al0+  Al77  1  0.68048194  0.93071108  0.68086279  1
  Al0+  Al78  1  0.32025268  0.56929892  0.34476911  1
  Al0+  Al79  1  0.57031668  0.17936401  0.31914362  1
  Al0+  Al80  1  0.92743266  0.32200872  0.98460991  1
  Al0+  Al81  1  0.17696366  0.92878779  0.68365268  1
  Al0+  Al82  1  0.32119324  0.07027141  0.68310175  1
  Al0+  Al83  1  0.07164604  0.17819949  0.98585586  1
  Al0+  Al84  1  0.42945302  0.32286038  0.98543650  1
  Al0+  Al85  1  0.82093974  0.07198826  0.34683447  1
  Al0+  Al86  1  0.32331439  0.57227736  0.68522557  1
  Al0+  Al87  1  0.67772037  0.92773793  0.34736369  1
  Al0+  Al88  1  0.67852449  0.92898838  0.01584950  1
  Al0+  Al89  1  0.42966038  0.81951986  0.31989315  1
  Al0+  Al90  1  0.67971041  0.42932265  0.34555826  1
  Al0+  Al91  1  0.17860414  0.43006525  0.68324833  1
  Al0+  Al92  1  0.32158935  0.07343050  0.34596257  1
  Al0+  Al93  1  0.92788051  0.82142172  0.98476033  1
  Al0+  Al94  1  0.56966176  0.68067528  0.98826650  1
  Al0+  Al95  1  0.17793011  0.92795737  0.34593786  1
  Si0+  Si96  1  0.07089217  0.17811434  0.32215490  1
  Si0+  Si97  1  0.17820719  0.92924434  0.01369389  1
  Si0+  Si98  1  0.93027678  0.32090713  0.64889785  1
  Si0+  Si99  1  0.92753143  0.82135720  0.31901521  1
  Si0+  Si100  1  0.82214294  0.07370297  0.01427961  1
  Si0+  Si101  1  0.92966270  0.32165968  0.31931333  1
  Si0+  Si102  1  0.82511231  0.57184594  0.34866258  1
  Si0+  Si103  1  0.42722001  0.32479150  0.31939570  1
  Si0+  Si104  1  0.31929452  0.07262741  0.01618459  1
  Si0+  Si105  1  0.67885998  0.42920445  0.01259534  1
  Si0+  Si106  1  0.42714422  0.82289212  0.98206365  1
  Si0+  Si107  1  0.17873495  0.42934609  0.01733562  1
  Si0+  Si108  1  0.07239051  0.17815413  0.64977526  1
  Si0+  Si109  1  0.17499804  0.42835070  0.34782784  1
  Si0+  Si110  1  0.92557529  0.82278682  0.64681449  1
  Si0+  Si111  1  0.32290623  0.57124188  0.01609370  1
  Si0+  Si112  1  0.43124588  0.81799878  0.65229889  1
  Si0+  Si113  1  0.07085555  0.67929082  0.31851047  1
  Si0+  Si114  1  0.42658642  0.32275201  0.64736774  1
  Si0+  Si115  1  0.57422796  0.67582995  0.32012752  1
  Si0+  Si116  1  0.67884837  0.42499577  0.68549264  1
  Si0+  Si117  1  0.82224009  0.57033409  0.01625423  1
  Si0+  Si118  1  0.82230030  0.07467496  0.68504857  1
  Si0+  Si119  1  0.57394676  0.67698126  0.65162093  1
  O2-  O120  1  0.24641395  0.00237826  0.05713315  1
  O2-  O121  1  0.24868399  0.00164258  0.39439301  1
  O2-  O122  1  0.24348643  0.00517818  0.73477458  1
  O2-  O123  1  0.25036986  0.50091720  0.05831133  1
  O2-  O124  1  0.24599341  0.49433682  0.39091849  1
  O2-  O125  1  0.25210176  0.49952556  0.73498099  1
  O2-  O126  1  0.75246235  0.00644939  0.05927408  1
  O2-  O127  1  0.74639768  0.00299595  0.39727107  1
  O2-  O128  1  0.75509949  0.00490290  0.72863331  1
  O2-  O129  1  0.75209221  0.49762828  0.05734994  1
  O2-  O130  1  0.75342091  0.50579793  0.39146270  1
  O2-  O131  1  0.74265259  0.49744688  0.73052754  1
  O2-  O132  1  0.00018454  0.24941621  0.27887826  1
  O2-  O133  1  0.00091368  0.24914980  0.60665929  1
  O2-  O134  1  0.00002062  0.25048732  0.93526461  1
  O2-  O135  1  0.00012685  0.75090283  0.27742283  1
  O2-  O136  1  -0.00061405  0.75950397  0.60164651  1
  O2-  O137  1  0.00162454  0.75139354  0.93497343  1
  O2-  O138  1  0.49285285  0.25339885  0.27489783  1
  O2-  O139  1  0.49412699  0.25348185  0.60255644  1
  O2-  O140  1  0.49671428  0.24719385  0.93493610  1
  O2-  O141  1  0.50870525  0.74722691  0.27558388  1
  O2-  O142  1  0.49956715  0.74381063  0.60952706  1
  O2-  O143  1  0.49865457  0.75689474  0.93868907  1
  O2-  O144  1  0.07130529  0.17896820  0.10047014  1
  O2-  O145  1  0.07011522  0.18076204  0.42714042  1
  O2-  O146  1  0.07009705  0.17900021  0.75465334  1
  O2-  O147  1  0.07307700  0.68093765  0.09938334  1
  O2-  O148  1  0.06976789  0.67656597  0.42332664  1
  O2-  O149  1  0.06708564  0.68128639  0.76312070  1
  O2-  O150  1  0.57062815  0.17790989  0.09842064  1
  O2-  O151  1  0.57024894  0.18051430  0.43221019  1
  O2-  O152  1  0.56808445  0.17933455  0.76289821  1
  O2-  O153  1  0.56644325  0.67637131  0.10148076  1
  O2-  O154  1  0.57397875  0.67493911  0.42579180  1
  O2-  O155  1  0.57512045  0.67989403  0.75680347  1
  O2-  O156  1  0.17097736  0.43018435  0.24226809  1
  O2-  O157  1  0.17884252  0.43259429  0.56876777  1
  O2-  O158  1  0.17774389  0.42922313  0.91285706  1
  O2-  O159  1  0.17637028  0.92987769  0.23156452  1
  O2-  O160  1  0.18179756  0.92894215  0.57008801  1
  O2-  O161  1  0.18125059  0.92863054  0.90911399  1
  O2-  O162  1  0.68098012  0.42978556  0.23188207  1
  O2-  O163  1  0.68194257  0.42553603  0.57947514  1
  O2-  O164  1  0.67952782  0.43245806  0.90777597  1
  O2-  O165  1  0.68094640  0.92696821  0.23385293  1
  O2-  O166  1  0.67953795  0.93012202  0.56792485  1
  O2-  O167  1  0.67980877  0.92856894  0.90274231  1
  O2-  O168  1  0.43282033  0.32426638  0.09968300  1
  O2-  O169  1  0.42865885  0.32751928  0.42454751  1
  O2-  O170  1  0.42933935  0.32334047  0.75284631  1
  O2-  O171  1  0.42477553  0.82068038  0.08777600  1
  O2-  O172  1  0.42785146  0.81685776  0.43311861  1
  O2-  O173  1  0.43369066  0.81812847  0.75762215  1
  O2-  O174  1  0.92851051  0.32169870  0.09902537  1
  O2-  O175  1  0.93205630  0.32583985  0.42431894  1
  O2-  O176  1  0.92969472  0.32012993  0.75366524  1
  O2-  O177  1  0.92994553  0.82014307  0.09933186  1
  O2-  O178  1  0.92460911  0.81927966  0.42365562  1
  O2-  O179  1  0.92330169  0.81872099  0.75211571  1
  O2-  O180  1  0.31789135  0.07393370  0.23178617  1
  O2-  O181  1  0.32229746  0.06657213  0.56960872  1
  O2-  O182  1  0.31983558  0.07096489  0.91127951  1
  O2-  O183  1  0.31950330  0.56890097  0.23114276  1
  O2-  O184  1  0.32147281  0.57239895  0.57120058  1
  O2-  O185  1  0.32355347  0.57104671  0.91159595  1
  O2-  O186  1  0.82390946  0.07100439  0.23312671  1
  O2-  O187  1  0.82207546  0.07505302  0.57937928  1
  O2-  O188  1  0.82194677  0.07352961  0.90884002  1
  O2-  O189  1  0.82874032  0.56995479  0.24308170  1
  O2-  O190  1  0.81690217  0.56658517  0.56720659  1
  O2-  O191  1  0.82122681  0.57018743  0.91128735  1
  O2-  O192  1  0.04282148  0.08579546  0.27591479  1
  O2-  O193  1  0.04382635  0.08598357  0.60291461  1
  O2-  O194  1  0.04529952  0.08162118  0.92934250  1
  O2-  O195  1  0.04222270  0.58774364  0.26939820  1
  O2-  O196  1  0.03477632  0.58531102  0.59698170  1
  O2-  O197  1  0.04576751  0.58141793  0.93347698  1
  O2-  O198  1  0.54158282  0.08308128  0.26409814  1
  O2-  O199  1  0.53596148  0.08053794  0.59921529  1
  O2-  O200  1  0.53872684  0.07833790  0.93254407  1
  O2-  O201  1  0.54432939  0.58265369  0.27488660  1
  O2-  O202  1  0.55133877  0.58185423  0.60774661  1
  O2-  O203  1  0.53948313  0.58677484  0.92948919  1
  O2-  O204  1  0.16266274  0.20552118  0.27355832  1
  O2-  O205  1  0.16485053  0.20677608  0.60414150  1
  O2-  O206  1  0.16874303  0.20863375  0.93267255  1
  O2-  O207  1  0.16224181  0.70558946  0.27015507  1
  O2-  O208  1  0.16942790  0.70995921  0.59970585  1
  O2-  O209  1  0.17201911  0.70664379  0.93225752  1
  O2-  O210  1  0.66724767  0.21369533  0.26691955  1
  O2-  O211  1  0.66620798  0.20931675  0.59693306  1
  O2-  O212  1  0.66719458  0.20410841  0.93011836  1
  O2-  O213  1  0.67004236  0.69520505  0.27506458  1
  O2-  O214  1  0.66479662  0.70695054  0.60380537  1
  O2-  O215  1  0.66684963  0.70864612  0.93481827  1
  O2-  O216  1  0.08670676  0.45761016  0.06533853  1
  O2-  O217  1  0.08250703  0.45634958  0.39549193  1
  O2-  O218  1  0.08038955  0.45973140  0.73479271  1
  O2-  O219  1  0.08387176  0.95399558  0.05774938  1
  O2-  O220  1  0.08039300  0.95178872  0.40154527  1
  O2-  O221  1  0.07479352  0.94999472  0.73136545  1
  O2-  O222  1  0.58813830  0.46129277  0.05984278  1
  O2-  O223  1  0.58593419  0.45811000  0.40552175  1
  O2-  O224  1  0.58346856  0.44484373  0.72863772  1
  O2-  O225  1  0.57981421  0.95701900  0.06780014  1
  O2-  O226  1  0.57829213  0.95346569  0.39769768  1
  O2-  O227  1  0.58489237  0.96005616  0.73643264  1
  O2-  O228  1  0.20598736  0.33754776  0.06599207  1
  O2-  O229  1  0.19626803  0.33428731  0.39418557  1
  O2-  O230  1  0.20290395  0.33097616  0.73613596  1
  O2-  O231  1  0.20825087  0.83768874  0.06145466  1
  O2-  O232  1  0.20924402  0.83031718  0.39746369  1
  O2-  O233  1  0.21076230  0.83312784  0.73757959  1
  O2-  O234  1  0.70548539  0.33588195  0.05796564  1
  O2-  O235  1  0.71421335  0.33607439  0.40287061  1
  O2-  O236  1  0.71019762  0.33286384  0.73023532  1
  O2-  O237  1  0.71002386  0.83220031  0.07008239  1
  O2-  O238  1  0.70757431  0.82915765  0.40018930  1
  O2-  O239  1  0.71129892  0.83391211  0.73442125  1
  O2-  O240  1  0.45673282  0.41796120  0.27356210  1
  O2-  O241  1  0.45384970  0.41724752  0.60234460  1
  O2-  O242  1  0.46048215  0.41834807  0.92891897  1
  O2-  O243  1  0.45642717  0.91521846  0.26236385  1
  O2-  O244  1  0.46266337  0.90850675  0.60519481  1
  O2-  O245  1  0.44940634  0.91699909  0.93718078  1
  O2-  O246  1  0.95766934  0.41269735  0.26893666  1
  O2-  O247  1  0.95895095  0.41228194  0.60109408  1
  O2-  O248  1  0.95741683  0.41966997  0.93206613  1
  O2-  O249  1  0.95498077  0.91350337  0.27212509  1
  O2-  O250  1  0.94341198  0.91965276  0.60422313  1
  O2-  O251  1  0.95071187  0.91933398  0.92987213  1
  O2-  O252  1  0.33115263  0.30481192  0.27435107  1
  O2-  O253  1  0.33094360  0.30102449  0.60386669  1
  O2-  O254  1  0.32923884  0.30121368  0.93487487  1
  O2-  O255  1  0.33485185  0.78443642  0.26298947  1
  O2-  O256  1  0.33861664  0.79212965  0.60601738  1
  O2-  O257  1  0.33569443  0.79394236  0.93431171  1
  O2-  O258  1  0.83799181  0.29554314  0.27162759  1
  O2-  O259  1  0.83845191  0.29347233  0.60047769  1
  O2-  O260  1  0.83070144  0.29700134  0.92750042  1
  O2-  O261  1  0.83700962  0.79155673  0.26920089  1
  O2-  O262  1  0.83426187  0.78894486  0.60002196  1
  O2-  O263  1  0.83099264  0.78875014  0.93275882  1
  O2-  O264  1  0.41005959  0.04244588  0.06410367  1
  O2-  O265  1  0.41869300  0.04137008  0.39716700  1
  O2-  O266  1  0.41576627  0.03371318  0.73816490  1
  O2-  O267  1  0.41460873  0.54085219  0.06274098  1
  O2-  O268  1  0.41528773  0.54272699  0.40331026  1
  O2-  O269  1  0.42327521  0.54484129  0.73627053  1
  O2-  O270  1  0.91676967  0.04780113  0.05924854  1
  O2-  O271  1  0.91673756  0.04121913  0.40412054  1
  O2-  O272  1  0.91676162  0.05239260  0.73024243  1
  O2-  O273  1  0.91478740  0.54340420  0.06342736  1
  O2-  O274  1  0.91689072  0.54154080  0.39658755  1
  O2-  O275  1  0.91365827  0.53630326  0.73481173  1
  O2-  O276  1  0.29353404  0.16573633  0.06210214  1
  O2-  O277  1  0.29610920  0.17207185  0.40032230  1
  O2-  O278  1  0.29910504  0.17071402  0.73376704  1
  O2-  O279  1  0.29552058  0.66394577  0.06292840  1
  O2-  O280  1  0.28696561  0.66394443  0.39971877  1
  O2-  O281  1  0.29540120  0.66984394  0.73814450  1
  O2-  O282  1  0.79883975  0.16927911  0.05838307  1
  O2-  O283  1  0.79916532  0.17173568  0.39952304  1
  O2-  O284  1  0.79628454  0.16883987  0.72925443  1
  O2-  O285  1  0.79241831  0.66085894  0.06476315  1
  O2-  O286  1  0.80400672  0.66550446  0.39552927  1
  O2-  O287  1  0.78965756  0.66520104  0.73625121  1
