# generated using pymatgen
data_Ca2Al2SiO7
_symmetry_space_group_name_H-M   'P 1'
_cell_length_a   15.46149715
_cell_length_b   15.46034770
_cell_length_c   15.28617465
_cell_angle_alpha   90.00406177
_cell_angle_beta   90.00459751
_cell_angle_gamma   89.98640981
_symmetry_Int_Tables_number   1
_chemical_formula_structural   Ca2Al2SiO7
_chemical_formula_sum   'Ca48 Al48 Si24 O168'
_cell_volume   3654.00892540
_cell_formula_units_Z   24
loop_
 _symmetry_equiv_pos_site_id
 _symmetry_equiv_pos_as_xyz
  1  'x, y, z'
loop_
 _atom_type_symbol
 _atom_type_oxidation_number
  Ca2+  2.0
  Al0+  0.0
  Si0+  0.0
  O2-  -2.0
loop_
 _atom_site_type_symbol
 _atom_site_label
 _atom_site_symmetry_multiplicity
 _atom_site_fract_x
 _atom_site_fract_y
 _atom_site_fract_z
 _atom_site_occupancy
  Ca2+  Ca0  1  0.16683404  0.07900861  0.17712095  1
  Ca2+  Ca1  1  0.16695538  0.08027539  0.50089183  1
  Ca2+  Ca2  1  0.17697865  0.08499598  0.83492822  1
  Ca2+  Ca3  1  0.16025628  0.58043537  0.17151486  1
  Ca2+  Ca4  1  0.16224820  0.57896785  0.50645089  1
  Ca2+  Ca5  1  0.16445177  0.57115710  0.83828533  1
  Ca2+  Ca6  1  0.67658827  0.07190197  0.17449342  1
  Ca2+  Ca7  1  0.66636543  0.08307745  0.49932114  1
  Ca2+  Ca8  1  0.66977755  0.07818566  0.84221739  1
  Ca2+  Ca9  1  0.66961493  0.58660510  0.17613250  1
  Ca2+  Ca10  1  0.67740886  0.59235081  0.50202955  1
  Ca2+  Ca11  1  0.66809616  0.58984071  0.83401781  1
  Ca2+  Ca12  1  0.07215513  0.32909390  0.16453694  1
  Ca2+  Ca13  1  0.07575940  0.33118791  0.49412747  1
  Ca2+  Ca14  1  0.07565905  0.33999685  0.82981667  1
  Ca2+  Ca15  1  0.07077393  0.83894521  0.16773086  1
  Ca2+  Ca16  1  0.07796325  0.82768193  0.48561795  1
  Ca2+  Ca17  1  0.07367505  0.83578258  0.83247182  1
  Ca2+  Ca18  1  0.59010526  0.32373428  0.16651678  1
  Ca2+  Ca19  1  0.58599191  0.31983079  0.49538479  1
  Ca2+  Ca20  1  0.58304324  0.32386551  0.82632355  1
  Ca2+  Ca21  1  0.59170332  0.82665230  0.16149516  1
  Ca2+  Ca22  1  0.58205633  0.82740610  0.49591052  1
  Ca2+  Ca23  1  0.58013203  0.82914261  0.83020780  1
  Ca2+  Ca24  1  0.32605149  0.41770182  0.17022147  1
  Ca2+  Ca25  1  0.32434309  0.41748787  0.50754408  1
  Ca2+  Ca26  1  0.31905549  0.41328971  0.83998025  1
  Ca2+  Ca27  1  0.32670516  0.90967350  0.17105272  1
  Ca2+  Ca28  1  0.32862741  0.91714944  0.50468363  1
  Ca2+  Ca29  1  0.34284131  0.91699802  0.83374089  1
  Ca2+  Ca30  1  0.83932005  0.42112250  0.17208599  1
  Ca2+  Ca31  1  0.84322027  0.42656948  0.50349521  1
  Ca2+  Ca32  1  0.83839857  0.42082509  0.83428881  1
  Ca2+  Ca33  1  0.82869536  0.91826731  0.17549718  1
  Ca2+  Ca34  1  0.82971575  0.91768591  0.49667400  1
  Ca2+  Ca35  1  0.82553226  0.92325617  0.84739411  1
  Ca2+  Ca36  1  0.42421778  0.16265758  0.16847336  1
  Ca2+  Ca37  1  0.42581562  0.15862209  0.49994332  1
  Ca2+  Ca38  1  0.42339054  0.16193508  0.82344554  1
  Ca2+  Ca39  1  0.42939211  0.67416841  0.15812179  1
  Ca2+  Ca40  1  0.42812987  0.66777223  0.49443193  1
  Ca2+  Ca41  1  0.42814524  0.67738683  0.82706116  1
  Ca2+  Ca42  1  0.90967315  0.17103208  0.16412341  1
  Ca2+  Ca43  1  0.91738223  0.17916151  0.48785639  1
  Ca2+  Ca44  1  0.91034909  0.17882594  0.83015438  1
  Ca2+  Ca45  1  0.91336192  0.67814634  0.17088925  1
  Ca2+  Ca46  1  0.91740986  0.66792641  0.48997746  1
  Ca2+  Ca47  1  0.91104131  0.67279715  0.83135957  1
  Al0+  Al48  1  0.00344062  0.00266598  -0.00357370  1
  Al0+  Al49  1  0.00070640  0.00098792  0.33707160  1
  Al0+  Al50  1  -0.00064711  0.00171498  0.66883311  1
  Al0+  Al51  1  -0.00018368  0.49758321  0.00157479  1
  Al0+  Al52  1  0.00001143  0.49923735  0.33017689  1
  Al0+  Al53  1  -0.00171055  0.50172749  0.67303973  1
  Al0+  Al54  1  0.50123250  -0.00117548  0.00277074  1
  Al0+  Al55  1  0.49922377  0.00017068  0.33195496  1
  Al0+  Al56  1  0.49914027  -0.00145843  0.66266141  1
  Al0+  Al57  1  0.49949392  0.49859143  -0.00430397  1
  Al0+  Al58  1  0.49849865  0.50022893  0.33092673  1
  Al0+  Al59  1  0.50107501  0.49935876  0.66375301  1
  Al0+  Al60  1  0.24892288  0.24976524  0.00738149  1
  Al0+  Al61  1  0.24945786  0.25071566  0.33151483  1
  Al0+  Al62  1  0.24915643  0.24783995  0.67603626  1
  Al0+  Al63  1  0.25215607  0.74910821  -0.00491159  1
  Al0+  Al64  1  0.25067602  0.74796573  0.33523384  1
  Al0+  Al65  1  0.24863828  0.74968912  0.66673069  1
  Al0+  Al66  1  0.75124949  0.25239718  -0.00191480  1
  Al0+  Al67  1  0.74755117  0.25017210  0.32778253  1
  Al0+  Al68  1  0.75057818  0.25245410  0.65820792  1
  Al0+  Al69  1  0.75224885  0.74934677  -0.00455201  1
  Al0+  Al70  1  0.74967908  0.74960073  0.33542695  1
  Al0+  Al71  1  0.75031118  0.75105182  0.66857372  1
  Al0+  Al72  1  0.17893405  0.92793073  0.34602256  1
  Al0+  Al73  1  0.68035819  0.92791133  0.01488929  1
  Al0+  Al74  1  0.07218852  0.17856046  0.31956017  1
  Al0+  Al75  1  0.93003976  0.31994247  0.98347262  1
  Al0+  Al76  1  0.57341824  0.67681331  0.98376588  1
  Al0+  Al77  1  0.57067853  0.17918197  0.65379778  1
  Al0+  Al78  1  0.82140951  0.07337636  0.34978965  1
  Al0+  Al79  1  0.67815391  0.92827209  0.35063357  1
  Al0+  Al80  1  0.42789948  0.82080739  0.64855718  1
  Al0+  Al81  1  0.92823642  0.32095542  0.31721202  1
  Al0+  Al82  1  0.07324503  0.67756385  0.31972003  1
  Al0+  Al83  1  0.32041684  0.06678482  0.67976038  1
  Al0+  Al84  1  0.81995430  0.56807117  0.34539224  1
  Al0+  Al85  1  0.17803554  0.42935990  0.01871950  1
  Al0+  Al86  1  0.93164102  0.32206005  0.65228114  1
  Al0+  Al87  1  0.82262734  0.07378177  0.01351632  1
  Al0+  Al88  1  0.92881652  0.82172333  0.32117004  1
  Al0+  Al89  1  0.56999526  0.17754092  0.31722769  1
  Al0+  Al90  1  0.93063157  0.82285883  0.98620136  1
  Al0+  Al91  1  0.57067156  0.68003205  0.31939231  1
  Al0+  Al92  1  0.17990344  0.43035580  0.68054025  1
  Al0+  Al93  1  0.57300362  0.67817732  0.64871509  1
  Al0+  Al94  1  0.81877886  0.57129179  0.68203862  1
  Al0+  Al95  1  0.42835891  0.82203452  0.98437968  1
  Si0+  Si96  1  0.68053032  0.93115348  0.68159004  1
  Si0+  Si97  1  0.56937147  0.18085156  0.98600928  1
  Si0+  Si98  1  0.81992324  0.57025750  0.01501957  1
  Si0+  Si99  1  0.06841620  0.68003819  0.65536624  1
  Si0+  Si100  1  0.32267889  0.57063695  0.34894194  1
  Si0+  Si101  1  0.92911544  0.82390817  0.65272392  1
  Si0+  Si102  1  0.18009610  0.42987754  0.34892170  1
  Si0+  Si103  1  0.67765776  0.42534554  0.68220729  1
  Si0+  Si104  1  0.42715183  0.32270086  0.31652340  1
  Si0+  Si105  1  0.67659677  0.42883903  0.01335727  1
  Si0+  Si106  1  0.07358289  0.17726618  0.65137914  1
  Si0+  Si107  1  0.32458749  0.57312264  0.68396764  1
  Si0+  Si108  1  0.42732148  0.82166022  0.31697269  1
  Si0+  Si109  1  0.32215100  0.57071999  0.01643511  1
  Si0+  Si110  1  0.42463286  0.32095220  0.65287514  1
  Si0+  Si111  1  0.67409867  0.42772841  0.34942502  1
  Si0+  Si112  1  0.42636352  0.31985363  0.98567272  1
  Si0+  Si113  1  0.82111210  0.07449732  0.68067717  1
  Si0+  Si114  1  0.07148866  0.67750183  0.98308944  1
  Si0+  Si115  1  0.17542842  0.92569670  0.68511896  1
  Si0+  Si116  1  0.32109890  0.07358750  0.35026730  1
  Si0+  Si117  1  0.32251771  0.07072225  0.01668382  1
  Si0+  Si118  1  0.17990446  0.92767545  0.01335040  1
  Si0+  Si119  1  0.07592348  0.17820589  0.98103004  1
  O2-  O120  1  0.25204257  -0.00203242  0.05573883  1
  O2-  O121  1  0.25237963  0.00425499  0.39271674  1
  O2-  O122  1  0.24667384  -0.00784718  0.72913284  1
  O2-  O123  1  0.25219997  0.50530792  0.06434439  1
  O2-  O124  1  0.24958263  0.50189345  0.39189952  1
  O2-  O125  1  0.25793364  0.50209722  0.72823158  1
  O2-  O126  1  0.75595476  -0.00293949  0.06322084  1
  O2-  O127  1  0.74900084  0.00188894  0.40107793  1
  O2-  O128  1  0.75130269  0.00285078  0.72375837  1
  O2-  O129  1  0.74332320  0.50387200  0.05477516  1
  O2-  O130  1  0.74510798  0.49368349  0.39346155  1
  O2-  O131  1  0.74160975  0.49785522  0.72768743  1
  O2-  O132  1  -0.00439251  0.24410316  0.26768935  1
  O2-  O133  1  0.00477317  0.24532972  0.60752406  1
  O2-  O134  1  0.00414359  0.24401431  0.93727525  1
  O2-  O135  1  0.00393293  0.75237288  0.27098925  1
  O2-  O136  1  0.00379877  0.75603092  0.61272877  1
  O2-  O137  1  0.00471653  0.74755762  0.93789900  1
  O2-  O138  1  0.49642939  0.25480946  0.27182849  1
  O2-  O139  1  0.49554235  0.25518463  0.60839248  1
  O2-  O140  1  0.49645399  0.24904810  0.94194780  1
  O2-  O141  1  0.49938693  0.75730687  0.27229904  1
  O2-  O142  1  0.49724371  0.74634486  0.59909314  1
  O2-  O143  1  0.50247289  0.75128693  0.93624881  1
  O2-  O144  1  0.08039377  0.17929545  0.08600270  1
  O2-  O145  1  0.07716663  0.18523460  0.43330197  1
  O2-  O146  1  0.07330544  0.17626089  0.75712054  1
  O2-  O147  1  0.07131993  0.67821252  0.08817423  1
  O2-  O148  1  0.07197827  0.67658251  0.43405832  1
  O2-  O149  1  0.06655558  0.68001660  0.76063461  1
  O2-  O150  1  0.56746554  0.18352963  0.09069659  1
  O2-  O151  1  0.56683333  0.17880033  0.43045284  1
  O2-  O152  1  0.56982763  0.17995232  0.76765288  1
  O2-  O153  1  0.57122651  0.67461361  0.09739898  1
  O2-  O154  1  0.56831258  0.67843131  0.43208492  1
  O2-  O155  1  0.57316084  0.68153375  0.76214702  1
  O2-  O156  1  0.18268533  0.43002772  0.24399668  1
  O2-  O157  1  0.18036237  0.43240042  0.56720448  1
  O2-  O158  1  0.17956540  0.43029151  0.90526469  1
  O2-  O159  1  0.18271093  0.92733479  0.23237111  1
  O2-  O160  1  0.17310835  0.92641183  0.58004152  1
  O2-  O161  1  0.17918654  0.92961369  0.90817337  1
  O2-  O162  1  0.67136659  0.43079053  0.24330416  1
  O2-  O163  1  0.67945815  0.42116341  0.57719668  1
  O2-  O164  1  0.67672475  0.42493359  0.90837984  1
  O2-  O165  1  0.67916171  0.92774456  0.23720715  1
  O2-  O166  1  0.68192649  0.93056844  0.57692365  1
  O2-  O167  1  0.67859968  0.93252610  0.90039778  1
  O2-  O168  1  0.42716617  0.31964594  0.09059299  1
  O2-  O169  1  0.42531850  0.32327518  0.42213461  1
  O2-  O170  1  0.42491671  0.31824511  0.75890334  1
  O2-  O171  1  0.42337135  0.81909340  0.09759315  1
  O2-  O172  1  0.42550899  0.81853607  0.42233740  1
  O2-  O173  1  0.43204799  0.82163961  0.76204440  1
  O2-  O174  1  0.93009992  0.32146384  0.09577929  1
  O2-  O175  1  0.93385826  0.32456914  0.43092394  1
  O2-  O176  1  0.93158496  0.32097677  0.76568938  1
  O2-  O177  1  0.93082705  0.82268796  0.09856188  1
  O2-  O178  1  0.92979992  0.81807946  0.43533988  1
  O2-  O179  1  0.92985522  0.82419020  0.75811535  1
  O2-  O180  1  0.32078654  0.07447568  0.24423243  1
  O2-  O181  1  0.31812769  0.06768059  0.56712356  1
  O2-  O182  1  0.32301720  0.07357435  0.91163681  1
  O2-  O183  1  0.32461326  0.56798086  0.24407342  1
  O2-  O184  1  0.32198754  0.57180326  0.57809008  1
  O2-  O185  1  0.32061704  0.56636980  0.91089953  1
  O2-  O186  1  0.81890187  0.07277658  0.23628733  1
  O2-  O187  1  0.82198441  0.07343664  0.57633117  1
  O2-  O188  1  0.81643283  0.07507252  0.89887231  1
  O2-  O189  1  0.81856006  0.56806819  0.23196513  1
  O2-  O190  1  0.82219425  0.57083058  0.56932188  1
  O2-  O191  1  0.82125258  0.56868969  0.90968380  1
  O2-  O192  1  0.05290148  0.07729967  0.27039729  1
  O2-  O193  1  0.04916237  0.08277311  0.60628677  1
  O2-  O194  1  0.05680224  0.08394248  0.93361478  1
  O2-  O195  1  0.04242835  0.58145117  0.26499487  1
  O2-  O196  1  0.03609756  0.59020500  0.60772785  1
  O2-  O197  1  0.04228821  0.58446169  0.93768073  1
  O2-  O198  1  0.53579952  0.08277831  0.26170598  1
  O2-  O199  1  0.53763862  0.08473239  0.59878867  1
  O2-  O200  1  0.54267992  0.08828750  0.94023674  1
  O2-  O201  1  0.53797544  0.58347126  0.26590711  1
  O2-  O202  1  0.55074045  0.57660353  0.59872781  1
  O2-  O203  1  0.54325474  0.57834989  0.92987376  1
  O2-  O204  1  0.16915181  0.21060618  0.26418314  1
  O2-  O205  1  0.16793861  0.20300516  0.60785565  1
  O2-  O206  1  0.16916542  0.20863861  0.93535088  1
  O2-  O207  1  0.17349033  0.70023924  0.26800478  1
  O2-  O208  1  0.16269858  0.69923889  0.60905363  1
  O2-  O209  1  0.16586142  0.69964203  0.93661842  1
  O2-  O210  1  0.66431627  0.20900434  0.26034286  1
  O2-  O211  1  0.66495573  0.21080651  0.59681916  1
  O2-  O212  1  0.65951115  0.21230135  0.93782468  1
  O2-  O213  1  0.66758169  0.70841573  0.26659674  1
  O2-  O214  1  0.67096834  0.71234537  0.59822517  1
  O2-  O215  1  0.67187741  0.70292508  0.93077860  1
  O2-  O216  1  0.08165249  0.46085030  0.07163116  1
  O2-  O217  1  0.08834939  0.45759125  0.39537653  1
  O2-  O218  1  0.08632822  0.46669881  0.73697355  1
  O2-  O219  1  0.08888205  0.95689870  0.06089129  1
  O2-  O220  1  0.08354692  0.95547771  0.40348153  1
  O2-  O221  1  0.08292661  0.95538246  0.73312527  1
  O2-  O222  1  0.58262954  0.44995722  0.06011783  1
  O2-  O223  1  0.58048918  0.45306103  0.39600426  1
  O2-  O224  1  0.58115762  0.44442355  0.72657424  1
  O2-  O225  1  0.58251923  0.95747215  0.06838291  1
  O2-  O226  1  0.57800858  0.95687418  0.40067901  1
  O2-  O227  1  0.58822638  0.95936520  0.72710148  1
  O2-  O228  1  0.21151423  0.33382668  0.07302466  1
  O2-  O229  1  0.21085908  0.33890928  0.39656159  1
  O2-  O230  1  0.20746455  0.33398211  0.73737312  1
  O2-  O231  1  0.20681959  0.83478113  0.05884446  1
  O2-  O232  1  0.21070306  0.83144580  0.40149291  1
  O2-  O233  1  0.19683736  0.83083398  0.73092726  1
  O2-  O234  1  0.70912402  0.33935776  0.06263612  1
  O2-  O235  1  0.69626126  0.33229308  0.39179980  1
  O2-  O236  1  0.70803115  0.33333825  0.73049757  1
  O2-  O237  1  0.70794144  0.82770114  0.06372279  1
  O2-  O238  1  0.70869800  0.83104327  0.40471374  1
  O2-  O239  1  0.70995101  0.84052023  0.73012522  1
  O2-  O240  1  0.45098883  0.41579059  0.26868228  1
  O2-  O241  1  0.44488159  0.41578143  0.60743937  1
  O2-  O242  1  0.45246786  0.41080968  0.93620934  1
  O2-  O243  1  0.44550184  0.91731595  0.27302843  1
  O2-  O244  1  0.45722355  0.91799122  0.59501207  1
  O2-  O245  1  0.45601395  0.92214272  0.93341420  1
  O2-  O246  1  0.96325525  0.41617548  0.26257693  1
  O2-  O247  1  0.96548088  0.41922087  0.60180578  1
  O2-  O248  1  0.96389271  0.41640441  0.93008377  1
  O2-  O249  1  0.95589728  0.92040165  0.26967049  1
  O2-  O250  1  0.95340777  0.91723247  0.60677431  1
  O2-  O251  1  0.96286485  0.91882107  0.92993111  1
  O2-  O252  1  0.33496361  0.29520679  0.26843236  1
  O2-  O253  1  0.33150794  0.29246020  0.60765599  1
  O2-  O254  1  0.33396151  0.29106963  0.94005994  1
  O2-  O255  1  0.33569862  0.79053197  0.27025414  1
  O2-  O256  1  0.32591746  0.79682308  0.60027537  1
  O2-  O257  1  0.33092199  0.79337873  0.92782230  1
  O2-  O258  1  0.82768331  0.30072381  0.26585301  1
  O2-  O259  1  0.83547558  0.29476002  0.59714120  1
  O2-  O260  1  0.83251310  0.29150076  0.92840136  1
  O2-  O261  1  0.83277191  0.78843414  0.26754154  1
  O2-  O262  1  0.83853525  0.79312606  0.60667798  1
  O2-  O263  1  0.83592947  0.79100087  0.92925546  1
  O2-  O264  1  0.41407718  0.04458714  0.06510961  1
  O2-  O265  1  0.41446464  0.04739755  0.39543752  1
  O2-  O266  1  0.41768238  0.03688383  0.73453636  1
  O2-  O267  1  0.41530314  0.54132293  0.06206402  1
  O2-  O268  1  0.41262583  0.53905523  0.39865144  1
  O2-  O269  1  0.41962434  0.55017394  0.72811211  1
  O2-  O270  1  0.92570098  0.05408804  0.05918410  1
  O2-  O271  1  0.92051749  0.04887647  0.40303185  1
  O2-  O272  1  0.91369312  0.04926361  0.72895653  1
  O2-  O273  1  0.90971810  0.53702666  0.06194218  1
  O2-  O274  1  0.91736353  0.53714373  0.39928667  1
  O2-  O275  1  0.91322158  0.53882243  0.73954077  1
  O2-  O276  1  0.29412809  0.16136474  0.06616457  1
  O2-  O277  1  0.29590411  0.16756223  0.39623526  1
  O2-  O278  1  0.29125337  0.16235767  0.73872409  1
  O2-  O279  1  0.29929540  0.66600207  0.05989346  1
  O2-  O280  1  0.29787559  0.66205714  0.39795050  1
  O2-  O281  1  0.29615264  0.66595622  0.73023730  1
  O2-  O282  1  0.78908563  0.17101366  0.06541138  1
  O2-  O283  1  0.79029054  0.17319142  0.39982255  1
  O2-  O284  1  0.79126261  0.16680662  0.72611602  1
  O2-  O285  1  0.79731558  0.66368333  0.06056677  1
  O2-  O286  1  0.78971669  0.66385479  0.40085673  1
  O2-  O287  1  0.78945761  0.66858275  0.73703896  1
