# generated using pymatgen
data_Ca2Al2SiO7
_symmetry_space_group_name_H-M   'P 1'
_cell_length_a   15.45684631
_cell_length_b   15.45710582
_cell_length_c   15.28327756
_cell_angle_alpha   90.00168602
_cell_angle_beta   90.00350675
_cell_angle_gamma   90.00916507
_symmetry_Int_Tables_number   1
_chemical_formula_structural   Ca2Al2SiO7
_chemical_formula_sum   'Ca48 Al48 Si24 O168'
_cell_volume   3651.45171788
_cell_formula_units_Z   24
loop_
 _symmetry_equiv_pos_site_id
 _symmetry_equiv_pos_as_xyz
  1  'x, y, z'
loop_
 _atom_type_symbol
 _atom_type_oxidation_number
  Ca2+  2.0
  Al0+  0.0
  Si0+  0.0
  O2-  -2.0
loop_
 _atom_site_type_symbol
 _atom_site_label
 _atom_site_symmetry_multiplicity
 _atom_site_fract_x
 _atom_site_fract_y
 _atom_site_fract_z
 _atom_site_occupancy
  Ca2+  Ca0  1  0.16830413  0.07093308  0.17946587  1
  Ca2+  Ca1  1  0.16541373  0.08372734  0.49544996  1
  Ca2+  Ca2  1  0.16765047  0.07396558  0.84100534  1
  Ca2+  Ca3  1  0.16794368  0.58399039  0.17212197  1
  Ca2+  Ca4  1  0.17743041  0.58637770  0.50332641  1
  Ca2+  Ca5  1  0.16201085  0.57372895  0.83685070  1
  Ca2+  Ca6  1  0.66289927  0.07749633  0.17052250  1
  Ca2+  Ca7  1  0.66155820  0.08622043  0.50244503  1
  Ca2+  Ca8  1  0.66746419  0.07979712  0.83781533  1
  Ca2+  Ca9  1  0.67630442  0.58503763  0.17826634  1
  Ca2+  Ca10  1  0.67140787  0.57426859  0.50192836  1
  Ca2+  Ca11  1  0.68086598  0.58195677  0.83453950  1
  Ca2+  Ca12  1  0.09103113  0.32786233  0.16291398  1
  Ca2+  Ca13  1  0.08046642  0.33651546  0.49665962  1
  Ca2+  Ca14  1  0.08083813  0.33972207  0.82707886  1
  Ca2+  Ca15  1  0.08853072  0.82232516  0.16462600  1
  Ca2+  Ca16  1  0.07295628  0.82756976  0.48876718  1
  Ca2+  Ca17  1  0.08057442  0.82559408  0.82993746  1
  Ca2+  Ca18  1  0.57866288  0.33668814  0.17175227  1
  Ca2+  Ca19  1  0.58493966  0.33048691  0.48921012  1
  Ca2+  Ca20  1  0.58815442  0.32692063  0.82267108  1
  Ca2+  Ca21  1  0.57876461  0.82887030  0.16193685  1
  Ca2+  Ca22  1  0.58006091  0.82142399  0.49138014  1
  Ca2+  Ca23  1  0.57886706  0.83658067  0.83339500  1
  Ca2+  Ca24  1  0.32963990  0.41944273  0.17580609  1
  Ca2+  Ca25  1  0.33275566  0.42499054  0.50303665  1
  Ca2+  Ca26  1  0.32308819  0.42223783  0.83426472  1
  Ca2+  Ca27  1  0.32412978  0.91522893  0.17373795  1
  Ca2+  Ca28  1  0.32613821  0.92006558  0.49740050  1
  Ca2+  Ca29  1  0.32932390  0.91686346  0.84398168  1
  Ca2+  Ca30  1  0.82796793  0.43072389  0.17422359  1
  Ca2+  Ca31  1  0.82827449  0.42536994  0.50684072  1
  Ca2+  Ca32  1  0.83544140  0.42384235  0.83365127  1
  Ca2+  Ca33  1  0.82867234  0.91156065  0.17189304  1
  Ca2+  Ca34  1  0.83839545  0.91406626  0.50234604  1
  Ca2+  Ca35  1  0.82878646  0.91382758  0.83653987  1
  Ca2+  Ca36  1  0.41410369  0.16869003  0.17114380  1
  Ca2+  Ca37  1  0.42443715  0.17511429  0.48845251  1
  Ca2+  Ca38  1  0.42453684  0.16893253  0.82620521  1
  Ca2+  Ca39  1  0.42213565  0.66479688  0.16495415  1
  Ca2+  Ca40  1  0.42023133  0.65704434  0.49095705  1
  Ca2+  Ca41  1  0.41141419  0.67286200  0.83130522  1
  Ca2+  Ca42  1  0.92302821  0.16759186  0.16907018  1
  Ca2+  Ca43  1  0.92126815  0.17750174  0.49413246  1
  Ca2+  Ca44  1  0.91916979  0.17589500  0.82398172  1
  Ca2+  Ca45  1  0.92318685  0.66408861  0.16568427  1
  Ca2+  Ca46  1  0.91389983  0.67252053  0.49188047  1
  Ca2+  Ca47  1  0.91877016  0.66319686  0.82922628  1
  Al0+  Al48  1  0.00024246  0.00002403  0.00286976  1
  Al0+  Al49  1  -0.00349816  0.00072821  0.32997243  1
  Al0+  Al50  1  -0.00049644  -0.00112532  0.66508971  1
  Al0+  Al51  1  0.00051780  0.49916589  0.00536920  1
  Al0+  Al52  1  -0.00147630  0.50229519  0.33359606  1
  Al0+  Al53  1  0.00163988  0.50048396  0.66633602  1
  Al0+  Al54  1  0.50139284  0.00034562  -0.00051997  1
  Al0+  Al55  1  0.49903000  0.00104341  0.33472216  1
  Al0+  Al56  1  0.49916951  -0.00001314  0.66220874  1
  Al0+  Al57  1  0.50088760  0.49919260  -0.00523260  1
  Al0+  Al58  1  0.49982796  0.49864887  0.33021945  1
  Al0+  Al59  1  0.49946865  0.50045295  0.67804567  1
  Al0+  Al60  1  0.25146695  0.25025787  -0.00067132  1
  Al0+  Al61  1  0.25025315  0.24872492  0.32984641  1
  Al0+  Al62  1  0.25253659  0.24787544  0.67103173  1
  Al0+  Al63  1  0.24998948  0.74927575  -0.00623938  1
  Al0+  Al64  1  0.24751756  0.75034928  0.34035711  1
  Al0+  Al65  1  0.24975934  0.75288750  0.66913012  1
  Al0+  Al66  1  0.75059719  0.25072047  0.00017838  1
  Al0+  Al67  1  0.74934134  0.24775554  0.32926066  1
  Al0+  Al68  1  0.75294466  0.24842277  0.66180698  1
  Al0+  Al69  1  0.75028656  0.75075262  0.00709639  1
  Al0+  Al70  1  0.74855401  0.75084679  0.32973185  1
  Al0+  Al71  1  0.74781677  0.75072054  0.66722783  1
  Al0+  Al72  1  0.67937353  0.93092034  0.01371951  1
  Al0+  Al73  1  0.82063132  0.57321822  0.68130341  1
  Al0+  Al74  1  0.07030400  0.18124907  0.31983115  1
  Al0+  Al75  1  0.06977417  0.67807617  0.98461487  1
  Al0+  Al76  1  0.17985034  0.42800785  0.67998963  1
  Al0+  Al77  1  0.92742962  0.82134979  0.31601248  1
  Al0+  Al78  1  0.43081770  0.81989677  0.98762694  1
  Al0+  Al79  1  0.31997457  0.57039306  0.34363373  1
  Al0+  Al80  1  0.32096211  0.07187073  0.34946852  1
  Al0+  Al81  1  0.17593245  0.92849071  0.35020508  1
  Al0+  Al82  1  0.82048758  0.56993128  0.01527489  1
  Al0+  Al83  1  0.57251420  0.17716858  0.31522404  1
  Al0+  Al84  1  0.68034355  0.42562206  0.68178849  1
  Al0+  Al85  1  0.32240716  0.57430408  0.68436938  1
  Al0+  Al86  1  0.56922553  0.67799110  0.32101391  1
  Al0+  Al87  1  0.93190750  0.32261810  0.65293806  1
  Al0+  Al88  1  0.17906924  0.92760458  0.01323554  1
  Al0+  Al89  1  0.42887154  0.32159800  0.31845967  1
  Al0+  Al90  1  0.07245499  0.67847566  0.31897608  1
  Al0+  Al91  1  0.57120053  0.17976663  0.65283798  1
  Al0+  Al92  1  0.82177766  0.57357061  0.35011352  1
  Al0+  Al93  1  0.92790830  0.81978038  0.65443740  1
  Al0+  Al94  1  0.67974344  0.42836735  0.34654876  1
  Al0+  Al95  1  0.18041081  0.42917981  0.01543416  1
  Si0+  Si96  1  0.32277148  0.57178825  0.01614859  1
  Si0+  Si97  1  0.32284051  0.06872663  0.68297146  1
  Si0+  Si98  1  0.42816759  0.32264093  0.65216258  1
  Si0+  Si99  1  0.82233291  0.06975575  0.68017018  1
  Si0+  Si100  1  0.42754903  0.32227626  0.98126916  1
  Si0+  Si101  1  0.17697832  0.42641109  0.34809564  1
  Si0+  Si102  1  0.17746593  0.93133456  0.68313121  1
  Si0+  Si103  1  0.92681131  0.82292748  0.98322127  1
  Si0+  Si104  1  0.82212345  0.07464721  0.01678571  1
  Si0+  Si105  1  0.67667615  0.42589730  0.01669156  1
  Si0+  Si106  1  0.82023945  0.07085438  0.34920951  1
  Si0+  Si107  1  0.56882625  0.67953581  0.65405401  1
  Si0+  Si108  1  0.07201665  0.17731895  0.98460177  1
  Si0+  Si109  1  0.57080830  0.18044978  0.98390642  1
  Si0+  Si110  1  0.07396569  0.17621511  0.65198878  1
  Si0+  Si111  1  0.42720318  0.82203437  0.31955500  1
  Si0+  Si112  1  0.67728252  0.92980687  0.68013034  1
  Si0+  Si113  1  0.92733776  0.32325221  0.31534292  1
  Si0+  Si114  1  0.67788566  0.92945119  0.34947036  1
  Si0+  Si115  1  0.32254857  0.07165890  0.01581837  1
  Si0+  Si116  1  0.42725570  0.82216360  0.65024876  1
  Si0+  Si117  1  0.07297176  0.67856790  0.64986054  1
  Si0+  Si118  1  0.93053334  0.31931168  0.98603660  1
  Si0+  Si119  1  0.57489842  0.67745448  0.98167190  1
  O2-  O120  1  0.25290305  0.00382341  0.05851629  1
  O2-  O121  1  0.24748911  0.00166784  0.40038594  1
  O2-  O122  1  0.25001514  0.00052007  0.72647061  1
  O2-  O123  1  0.25643711  0.50215754  0.06148346  1
  O2-  O124  1  0.24369367  0.49724312  0.39096998  1
  O2-  O125  1  0.24878411  0.50237562  0.73180535  1
  O2-  O126  1  0.75614339  0.00339230  0.06043649  1
  O2-  O127  1  0.74862293  0.00051019  0.39191355  1
  O2-  O128  1  0.74958717  0.00011644  0.72210398  1
  O2-  O129  1  0.74043287  0.49904962  0.05921926  1
  O2-  O130  1  0.75238140  0.49819101  0.39796905  1
  O2-  O131  1  0.75223650  0.49764323  0.73238111  1
  O2-  O132  1  0.00071176  0.25949814  0.27031928  1
  O2-  O133  1  0.01097495  0.25035189  0.60911774  1
  O2-  O134  1  0.00122093  0.24796504  0.94203177  1
  O2-  O135  1  0.00058423  0.75019370  0.26751535  1
  O2-  O136  1  0.00023195  0.74377866  0.60756259  1
  O2-  O137  1  -0.00530502  0.75397941  0.93844144  1
  O2-  O138  1  0.50009458  0.24898061  0.26637305  1
  O2-  O139  1  0.50168318  0.25948475  0.60805033  1
  O2-  O140  1  0.50189213  0.25302798  0.94080889  1
  O2-  O141  1  0.49340680  0.75191314  0.27454406  1
  O2-  O142  1  0.49291223  0.74547749  0.61061612  1
  O2-  O143  1  0.50459183  0.74515405  0.93758694  1
  O2-  O144  1  0.07150615  0.17736550  0.08929140  1
  O2-  O145  1  0.06701916  0.18232981  0.43328124  1
  O2-  O146  1  0.07029548  0.17188254  0.75804277  1
  O2-  O147  1  0.07127805  0.67839395  0.09693031  1
  O2-  O148  1  0.07410917  0.68053204  0.43266827  1
  O2-  O149  1  0.07349085  0.68102343  0.75594065  1
  O2-  O150  1  0.57084077  0.17925823  0.08815465  1
  O2-  O151  1  0.57151923  0.17757409  0.42887807  1
  O2-  O152  1  0.56837734  0.17611831  0.76685582  1
  O2-  O153  1  0.57326500  0.67740151  0.08709856  1
  O2-  O154  1  0.56854534  0.67942933  0.43479929  1
  O2-  O155  1  0.57132832  0.68563710  0.75920176  1
  O2-  O156  1  0.17981527  0.42554929  0.24224158  1
  O2-  O157  1  0.18255019  0.42585739  0.56676931  1
  O2-  O158  1  0.18055749  0.42805677  0.90242233  1
  O2-  O159  1  0.17944438  0.92799645  0.23643909  1
  O2-  O160  1  0.17717439  0.93270816  0.57873375  1
  O2-  O161  1  0.17971830  0.93129921  0.89916060  1
  O2-  O162  1  0.68160367  0.43110914  0.23242396  1
  O2-  O163  1  0.67982938  0.42634257  0.56887474  1
  O2-  O164  1  0.67949338  0.42133161  0.91122897  1
  O2-  O165  1  0.67769679  0.93073857  0.24426316  1
  O2-  O166  1  0.67573311  0.92963779  0.57532327  1
  O2-  O167  1  0.67894931  0.93452781  0.89978492  1
  O2-  O168  1  0.42564331  0.32253499  0.08571150  1
  O2-  O169  1  0.42951844  0.32200410  0.43221648  1
  O2-  O170  1  0.42686216  0.31628698  0.75830556  1
  O2-  O171  1  0.43233753  0.81966074  0.10026964  1
  O2-  O172  1  0.43129854  0.82235522  0.42571049  1
  O2-  O173  1  0.42964880  0.82664558  0.75553154  1
  O2-  O174  1  0.92984164  0.31577030  0.09069159  1
  O2-  O175  1  0.92676409  0.31966736  0.42099120  1
  O2-  O176  1  0.93129060  0.31826985  0.76685927  1
  O2-  O177  1  0.92703622  0.82388438  0.08803025  1
  O2-  O178  1  0.92740682  0.82092233  0.43019751  1
  O2-  O179  1  0.93024879  0.82340488  0.76770837  1
  O2-  O180  1  0.31993660  0.06842690  0.23549991  1
  O2-  O181  1  0.32413640  0.06770853  0.57873079  1
  O2-  O182  1  0.32210774  0.07098014  0.90927382  1
  O2-  O183  1  0.32049940  0.57003570  0.23042135  1
  O2-  O184  1  0.32308612  0.57378013  0.57085472  1
  O2-  O185  1  0.32144541  0.56997163  0.91057295  1
  O2-  O186  1  0.82013316  0.07099753  0.24388373  1
  O2-  O187  1  0.82437299  0.06834711  0.57545620  1
  O2-  O188  1  0.82046371  0.07768254  0.91076537  1
  O2-  O189  1  0.82047595  0.57209792  0.23623661  1
  O2-  O190  1  0.81616201  0.57547688  0.56872136  1
  O2-  O191  1  0.82086679  0.56773632  0.90187679  1
  O2-  O192  1  0.03389927  0.08713519  0.26446643  1
  O2-  O193  1  0.04207831  0.08575502  0.60373258  1
  O2-  O194  1  0.04351370  0.08561196  0.93611328  1
  O2-  O195  1  0.04630028  0.57916335  0.26590303  1
  O2-  O196  1  0.05474799  0.58334710  0.60598595  1
  O2-  O197  1  0.03669833  0.58052915  0.93258498  1
  O2-  O198  1  0.54219275  0.07818234  0.26370885  1
  O2-  O199  1  0.53677531  0.08433933  0.59845885  1
  O2-  O200  1  0.54191879  0.08933076  0.93502656  1
  O2-  O201  1  0.53963726  0.58361605  0.26359121  1
  O2-  O202  1  0.54456936  0.58492589  0.61127113  1
  O2-  O203  1  0.55259884  0.58277325  0.93532268  1
  O2-  O204  1  0.16706663  0.20571334  0.26374702  1
  O2-  O205  1  0.17067241  0.19506059  0.61006675  1
  O2-  O206  1  0.16475677  0.20337808  0.93734790  1
  O2-  O207  1  0.17126240  0.70897438  0.26667289  1
  O2-  O208  1  0.16556839  0.71041837  0.60498129  1
  O2-  O209  1  0.16544498  0.70862291  0.92824359  1
  O2-  O210  1  0.67116719  0.20214756  0.26073965  1
  O2-  O211  1  0.66996219  0.20156292  0.60027320  1
  O2-  O212  1  0.66411561  0.20662907  0.93683092  1
  O2-  O213  1  0.66276502  0.71306664  0.26486155  1
  O2-  O214  1  0.65761510  0.71309381  0.60474257  1
  O2-  O215  1  0.66777098  0.70783980  0.93678793  1
  O2-  O216  1  0.08420607  0.45660662  0.07001428  1
  O2-  O217  1  0.08189225  0.44842611  0.39185883  1
  O2-  O218  1  0.08123234  0.45501943  0.73399704  1
  O2-  O219  1  0.08238221  0.95768344  0.06660738  1
  O2-  O220  1  0.07690414  0.96030414  0.39997456  1
  O2-  O221  1  0.08650188  0.96129500  0.73181730  1
  O2-  O222  1  0.57993898  0.44678112  0.05814150  1
  O2-  O223  1  0.58131938  0.45684035  0.39808617  1
  O2-  O224  1  0.58233197  0.45148380  0.73722778  1
  O2-  O225  1  0.58420238  0.96469329  0.06833062  1
  O2-  O226  1  0.58639657  0.95620982  0.39802576  1
  O2-  O227  1  0.58590027  0.96006997  0.72816460  1
  O2-  O228  1  0.21137753  0.33096710  0.06674315  1
  O2-  O229  1  0.20281359  0.33308729  0.39364895  1
  O2-  O230  1  0.20777036  0.32887900  0.73524161  1
  O2-  O231  1  0.21260946  0.83105294  0.06407348  1
  O2-  O232  1  0.20599656  0.83291896  0.40738538  1
  O2-  O233  1  0.20468638  0.83965427  0.73063592  1
  O2-  O234  1  0.70580970  0.33361012  0.06379957  1
  O2-  O235  1  0.70559044  0.32742651  0.39533831  1
  O2-  O236  1  0.71097571  0.32623630  0.73348936  1
  O2-  O237  1  0.70559700  0.83464329  0.06925904  1
  O2-  O238  1  0.70582773  0.83791813  0.39666663  1
  O2-  O239  1  0.70428916  0.83935745  0.73009044  1
  O2-  O240  1  0.45904515  0.41721724  0.26059982  1
  O2-  O241  1  0.44713457  0.42013583  0.61299013  1
  O2-  O242  1  0.45218229  0.41467093  0.93282308  1
  O2-  O243  1  0.45495375  0.91443007  0.27307934  1
  O2-  O244  1  0.46056655  0.91086555  0.60051133  1
  O2-  O245  1  0.46302467  0.91682077  0.93171037  1
  O2-  O246  1  0.94737653  0.41857245  0.27184461  1
  O2-  O247  1  0.95953059  0.41917859  0.59775346  1
  O2-  O248  1  0.95986851  0.41044907  0.93946030  1
  O2-  O249  1  0.94996947  0.92144926  0.26427279  1
  O2-  O250  1  0.95989952  0.91628055  0.60006239  1
  O2-  O251  1  0.95116983  0.91835449  0.93812369  1
  O2-  O252  1  0.33156980  0.29209561  0.26315385  1
  O2-  O253  1  0.33647375  0.29100659  0.60584743  1
  O2-  O254  1  0.33745131  0.29012496  0.93205443  1
  O2-  O255  1  0.33214208  0.79918046  0.27736291  1
  O2-  O256  1  0.33292503  0.80131318  0.60514976  1
  O2-  O257  1  0.33575309  0.79052800  0.92895209  1
  O2-  O258  1  0.83723717  0.29005750  0.26693534  1
  O2-  O259  1  0.83874297  0.28574108  0.59696398  1
  O2-  O260  1  0.83849767  0.29111429  0.93752112  1
  O2-  O261  1  0.82899514  0.79397996  0.26307565  1
  O2-  O262  1  0.82906746  0.79476854  0.60171413  1
  O2-  O263  1  0.83153403  0.79850236  0.93912569  1
  O2-  O264  1  0.41627271  0.04669282  0.06026135  1
  O2-  O265  1  0.41906881  0.04259860  0.40324770  1
  O2-  O266  1  0.41364305  0.03701082  0.73139822  1
  O2-  O267  1  0.41916266  0.54788358  0.05788490  1
  O2-  O268  1  0.41558448  0.53743095  0.39796359  1
  O2-  O269  1  0.41912635  0.54809090  0.74206797  1
  O2-  O270  1  0.91669071  0.05218447  0.06175051  1
  O2-  O271  1  0.91094265  0.04349275  0.39841254  1
  O2-  O272  1  0.91300922  0.04089195  0.73054918  1
  O2-  O273  1  0.91408475  0.53397757  0.07037232  1
  O2-  O274  1  0.92132028  0.54820370  0.40206751  1
  O2-  O275  1  0.92090910  0.54745793  0.73123622  1
  O2-  O276  1  0.29823798  0.16577992  0.06002129  1
  O2-  O277  1  0.29236027  0.17060195  0.40166488  1
  O2-  O278  1  0.29901598  0.16064278  0.73267384  1
  O2-  O279  1  0.29726600  0.66589289  0.05917859  1
  O2-  O280  1  0.29352013  0.66616586  0.40179144  1
  O2-  O281  1  0.29539417  0.67468189  0.73534055  1
  O2-  O282  1  0.79351324  0.16655728  0.06469035  1
  O2-  O283  1  0.79291271  0.16277317  0.39643528  1
  O2-  O284  1  0.79558122  0.16100690  0.72888378  1
  O2-  O285  1  0.79384325  0.66733292  0.06855854  1
  O2-  O286  1  0.78882900  0.67181476  0.40005081  1
  O2-  O287  1  0.78697419  0.67009395  0.73656990  1
