# generated using pymatgen
data_Ca2Al2SiO7
_symmetry_space_group_name_H-M   'P 1'
_cell_length_a   15.46304309
_cell_length_b   15.46197237
_cell_length_c   15.28792323
_cell_angle_alpha   90.00355696
_cell_angle_beta   89.98958315
_cell_angle_gamma   89.99950942
_symmetry_Int_Tables_number   1
_chemical_formula_structural   Ca2Al2SiO7
_chemical_formula_sum   'Ca48 Al48 Si24 O168'
_cell_volume   3655.17642803
_cell_formula_units_Z   24
loop_
 _symmetry_equiv_pos_site_id
 _symmetry_equiv_pos_as_xyz
  1  'x, y, z'
loop_
 _atom_type_symbol
 _atom_type_oxidation_number
  Ca2+  2.0
  Al0+  0.0
  Si0+  0.0
  O2-  -2.0
loop_
 _atom_site_type_symbol
 _atom_site_label
 _atom_site_symmetry_multiplicity
 _atom_site_fract_x
 _atom_site_fract_y
 _atom_site_fract_z
 _atom_site_occupancy
  Ca2+  Ca0  1  0.17287463  0.09202005  0.17009535  1
  Ca2+  Ca1  1  0.16775477  0.07957178  0.50691829  1
  Ca2+  Ca2  1  0.17639585  0.08109804  0.83231145  1
  Ca2+  Ca3  1  0.16677341  0.57388933  0.17035449  1
  Ca2+  Ca4  1  0.16038163  0.57707539  0.50881878  1
  Ca2+  Ca5  1  0.17362929  0.57522997  0.83197361  1
  Ca2+  Ca6  1  0.68051280  0.08071548  0.17550755  1
  Ca2+  Ca7  1  0.67306118  0.07656535  0.50584245  1
  Ca2+  Ca8  1  0.66800149  0.08263012  0.83218385  1
  Ca2+  Ca9  1  0.66771617  0.57959521  0.17119789  1
  Ca2+  Ca10  1  0.67785152  0.58177047  0.50752431  1
  Ca2+  Ca11  1  0.67477899  0.58627059  0.83133429  1
  Ca2+  Ca12  1  0.08432106  0.33398510  0.17037735  1
  Ca2+  Ca13  1  0.07836439  0.33570058  0.49433519  1
  Ca2+  Ca14  1  0.08314798  0.33751584  0.82665522  1
  Ca2+  Ca15  1  0.07983284  0.83055469  0.16656568  1
  Ca2+  Ca16  1  0.08145695  0.82375837  0.49539183  1
  Ca2+  Ca17  1  0.08033860  0.82680493  0.81845273  1
  Ca2+  Ca18  1  0.57464666  0.33130695  0.15735973  1
  Ca2+  Ca19  1  0.57734825  0.32768931  0.50354058  1
  Ca2+  Ca20  1  0.56826027  0.32566532  0.82265539  1
  Ca2+  Ca21  1  0.58710766  0.83461896  0.16844762  1
  Ca2+  Ca22  1  0.58099829  0.84174570  0.50170810  1
  Ca2+  Ca23  1  0.57752316  0.83471257  0.82266334  1
  Ca2+  Ca24  1  0.32212529  0.41391831  0.16864929  1
  Ca2+  Ca25  1  0.31943448  0.42122519  0.51155428  1
  Ca2+  Ca26  1  0.32669183  0.41715420  0.83899011  1
  Ca2+  Ca27  1  0.33321173  0.92479481  0.16852552  1
  Ca2+  Ca28  1  0.32587254  0.92084744  0.51479558  1
  Ca2+  Ca29  1  0.33338777  0.92418680  0.82935172  1
  Ca2+  Ca30  1  0.83416952  0.41526967  0.17377847  1
  Ca2+  Ca31  1  0.84309401  0.41949119  0.50874962  1
  Ca2+  Ca32  1  0.83833616  0.42093733  0.82950577  1
  Ca2+  Ca33  1  0.83256217  0.92655393  0.17839192  1
  Ca2+  Ca34  1  0.82776080  0.90937934  0.50537330  1
  Ca2+  Ca35  1  0.82985308  0.91869143  0.83469491  1
  Ca2+  Ca36  1  0.41596634  0.17235029  0.15713202  1
  Ca2+  Ca37  1  0.41813310  0.16445382  0.50397144  1
  Ca2+  Ca38  1  0.41395394  0.17133514  0.82335581  1
  Ca2+  Ca39  1  0.41595319  0.66619015  0.16003066  1
  Ca2+  Ca40  1  0.40671956  0.67370378  0.50295947  1
  Ca2+  Ca41  1  0.41114351  0.66857545  0.82397132  1
  Ca2+  Ca42  1  0.91992290  0.16288145  0.16685606  1
  Ca2+  Ca43  1  0.92315277  0.17586682  0.49096283  1
  Ca2+  Ca44  1  0.91648427  0.17231815  0.82697007  1
  Ca2+  Ca45  1  0.92305182  0.67048323  0.16953119  1
  Ca2+  Ca46  1  0.92624499  0.67238531  0.50044325  1
  Ca2+  Ca47  1  0.92428241  0.67058015  0.81866656  1
  Al0+  Al48  1  -0.00133201  0.00026559  0.00150620  1
  Al0+  Al49  1  0.00261393  0.00210806  0.32904454  1
  Al0+  Al50  1  -0.00293361  0.00063014  0.66761845  1
  Al0+  Al51  1  0.00011880  0.50055869  0.00386958  1
  Al0+  Al52  1  -0.00002775  0.50033378  0.32773418  1
  Al0+  Al53  1  -0.00012387  0.50124692  0.66939012  1
  Al0+  Al54  1  0.50041719  -0.00199808  0.00463173  1
  Al0+  Al55  1  0.50185436  0.00099345  0.33381605  1
  Al0+  Al56  1  0.50220658  -0.00108698  0.66642535  1
  Al0+  Al57  1  0.50114638  0.50077666  -0.00276570  1
  Al0+  Al58  1  0.49963947  0.50186163  0.33359849  1
  Al0+  Al59  1  0.50150662  0.49901281  0.66389804  1
  Al0+  Al60  1  0.24806738  0.24938621  0.00328719  1
  Al0+  Al61  1  0.24967313  0.25330851  0.33594580  1
  Al0+  Al62  1  0.24917243  0.24985132  0.66928829  1
  Al0+  Al63  1  0.24969746  0.74891228  0.00251926  1
  Al0+  Al64  1  0.25211142  0.75138897  0.32522230  1
  Al0+  Al65  1  0.24970100  0.74864407  0.66518143  1
  Al0+  Al66  1  0.75051713  0.24943826  0.00271948  1
  Al0+  Al67  1  0.74767455  0.24954307  0.33377936  1
  Al0+  Al68  1  0.74892781  0.25014562  0.65932533  1
  Al0+  Al69  1  0.74999246  0.74960599  0.00104429  1
  Al0+  Al70  1  0.74787882  0.74893006  0.33186867  1
  Al0+  Al71  1  0.74953867  0.75000463  0.67329674  1
  Al0+  Al72  1  0.07295046  0.67875579  0.31539115  1
  Al0+  Al73  1  0.93105931  0.32042692  0.65576222  1
  Al0+  Al74  1  0.92623212  0.82316163  0.65399607  1
  Al0+  Al75  1  0.32132507  0.07008914  0.67983091  1
  Al0+  Al76  1  0.82002719  0.56970808  0.67944677  1
  Al0+  Al77  1  0.17795673  0.42870905  0.68157422  1
  Al0+  Al78  1  0.68066124  0.92964627  0.68208775  1
  Al0+  Al79  1  0.57046269  0.17734667  0.65059402  1
  Al0+  Al80  1  0.82073501  0.07147938  0.01397934  1
  Al0+  Al81  1  0.17786465  0.42859548  0.01797190  1
  Al0+  Al82  1  0.17517405  0.92753798  0.67901566  1
  Al0+  Al83  1  0.32339302  0.57104037  0.67948539  1
  Al0+  Al84  1  0.42996167  0.81899772  0.65431171  1
  Al0+  Al85  1  0.42803601  0.31970605  0.98650502  1
  Al0+  Al86  1  0.68049773  0.92854407  0.35030400  1
  Al0+  Al87  1  0.82460188  0.07238261  0.35132872  1
  Al0+  Al88  1  0.42527496  0.32245544  0.65031778  1
  Al0+  Al89  1  0.32306009  0.57161090  0.01570321  1
  Al0+  Al90  1  0.32054736  0.06946160  0.01377152  1
  Al0+  Al91  1  0.17938141  0.43203676  0.34930442  1
  Al0+  Al92  1  0.07330893  0.17963289  0.31816431  1
  Al0+  Al93  1  0.92717383  0.32066161  0.31718316  1
  Al0+  Al94  1  0.92715191  0.82083272  0.31804013  1
  Al0+  Al95  1  0.07182571  0.67999307  0.65335906  1
  Si0+  Si96  1  0.67786645  0.42527595  0.68323044  1
  Si0+  Si97  1  0.57290026  0.67904634  0.98398812  1
  Si0+  Si98  1  0.81908318  0.56851647  0.34667484  1
  Si0+  Si99  1  0.92763895  0.32182575  0.98488346  1
  Si0+  Si100  1  0.56916158  0.17817716  0.31597058  1
  Si0+  Si101  1  0.17735071  0.92754036  0.01723427  1
  Si0+  Si102  1  0.57277969  0.17727770  0.98504177  1
  Si0+  Si103  1  0.57406107  0.67718984  0.65007130  1
  Si0+  Si104  1  0.07234501  0.17631875  0.65236255  1
  Si0+  Si105  1  0.32136238  0.07207702  0.34772818  1
  Si0+  Si106  1  0.67873558  0.92650825  0.01817183  1
  Si0+  Si107  1  0.07000265  0.17829101  0.98385868  1
  Si0+  Si108  1  0.18119998  0.92769424  0.34585007  1
  Si0+  Si109  1  0.32354096  0.57399833  0.34958571  1
  Si0+  Si110  1  0.82134568  0.07529531  0.68281740  1
  Si0+  Si111  1  0.92895258  0.82110661  0.98483038  1
  Si0+  Si112  1  0.43064302  0.32192517  0.31833517  1
  Si0+  Si113  1  0.56988418  0.67806896  0.31771595  1
  Si0+  Si114  1  0.68014631  0.42995593  0.01333914  1
  Si0+  Si115  1  0.82080080  0.57185023  0.01686702  1
  Si0+  Si116  1  0.67523185  0.42812944  0.34800007  1
  Si0+  Si117  1  0.43002091  0.82323304  0.31658864  1
  Si0+  Si118  1  0.06999450  0.67888974  0.98380545  1
  Si0+  Si119  1  0.42914863  0.82087362  0.98544642  1
  O2-  O120  1  0.24584041  -0.00400803  0.06287201  1
  O2-  O121  1  0.25000545  0.00095176  0.38774721  1
  O2-  O122  1  0.24764417  -0.00085796  0.72940322  1
  O2-  O123  1  0.25265414  0.49921204  0.06678309  1
  O2-  O124  1  0.25139662  0.51020387  0.39342286  1
  O2-  O125  1  0.25618853  0.49518501  0.72999240  1
  O2-  O126  1  0.74653602  -0.00387328  0.06070496  1
  O2-  O127  1  0.75659565  -0.00416361  0.40007674  1
  O2-  O128  1  0.75577160  0.00389615  0.72814224  1
  O2-  O129  1  0.75105169  0.49954103  0.05879786  1
  O2-  O130  1  0.75258733  0.49270615  0.38845669  1
  O2-  O131  1  0.74551514  0.49491219  0.72787132  1
  O2-  O132  1  -0.00285862  0.24708189  0.26619931  1
  O2-  O133  1  0.00521272  0.24648859  0.60890560  1
  O2-  O134  1  -0.00069158  0.25112895  0.94350244  1
  O2-  O135  1  0.00152494  0.75225205  0.26545885  1
  O2-  O136  1  0.00351634  0.75674140  0.60513197  1
  O2-  O137  1  0.00038053  0.75144032  0.94199570  1
  O2-  O138  1  0.49996746  0.25055498  0.27311373  1
  O2-  O139  1  0.49614147  0.24815887  0.60115319  1
  O2-  O140  1  0.50052840  0.24177464  0.94124923  1
  O2-  O141  1  0.49965082  0.74999940  0.27528042  1
  O2-  O142  1  0.50151543  0.74153880  0.60581311  1
  O2-  O143  1  0.49951004  0.74836365  0.94419671  1
  O2-  O144  1  0.06934913  0.17686711  0.08864092  1
  O2-  O145  1  0.07709951  0.18238212  0.43130415  1
  O2-  O146  1  0.07011943  0.17519416  0.75851327  1
  O2-  O147  1  0.06765345  0.67995083  0.08888558  1
  O2-  O148  1  0.07271130  0.67948065  0.42824459  1
  O2-  O149  1  0.06888194  0.67881507  0.76767255  1
  O2-  O150  1  0.57331699  0.18093846  0.09111526  1
  O2-  O151  1  0.56696205  0.17669654  0.42029435  1
  O2-  O152  1  0.57181007  0.18002457  0.76487475  1
  O2-  O153  1  0.57617649  0.67958080  0.08942251  1
  O2-  O154  1  0.57049184  0.67371613  0.42176739  1
  O2-  O155  1  0.57590279  0.68016411  0.75612948  1
  O2-  O156  1  0.18315969  0.43043822  0.23620701  1
  O2-  O157  1  0.17543828  0.43133895  0.56801837  1
  O2-  O158  1  0.17466951  0.43046922  0.90510391  1
  O2-  O159  1  0.18607664  0.92597347  0.24033355  1
  O2-  O160  1  0.17752706  0.92895571  0.56486990  1
  O2-  O161  1  0.17751384  0.92741791  0.91212884  1
  O2-  O162  1  0.67136713  0.43233335  0.24219057  1
  O2-  O163  1  0.67850776  0.42681425  0.57736097  1
  O2-  O164  1  0.68208532  0.43110720  0.90885950  1
  O2-  O165  1  0.67814518  0.93163890  0.23602243  1
  O2-  O166  1  0.68098465  0.92891936  0.56951778  1
  O2-  O167  1  0.67841819  0.92400830  0.91300359  1
  O2-  O168  1  0.43227725  0.31861633  0.10059632  1
  O2-  O169  1  0.43332347  0.32189388  0.42260530  1
  O2-  O170  1  0.42774679  0.32138759  0.76429380  1
  O2-  O171  1  0.43171604  0.82168925  0.09104409  1
  O2-  O172  1  0.42820052  0.82387528  0.42104160  1
  O2-  O173  1  0.43269555  0.81959433  0.76785723  1
  O2-  O174  1  0.92489724  0.32172668  0.08948429  1
  O2-  O175  1  0.92947929  0.32271643  0.43038763  1
  O2-  O176  1  0.93023879  0.31876598  0.76979670  1
  O2-  O177  1  0.92861250  0.81925388  0.08977704  1
  O2-  O178  1  0.92559361  0.81562218  0.43073874  1
  O2-  O179  1  0.92604328  0.81927095  0.76861900  1
  O2-  O180  1  0.32271230  0.07071469  0.24204921  1
  O2-  O181  1  0.32016542  0.06769724  0.56568966  1
  O2-  O182  1  0.32129635  0.06763732  0.90165665  1
  O2-  O183  1  0.32793837  0.57050375  0.24396359  1
  O2-  O184  1  0.32098241  0.57114715  0.56571589  1
  O2-  O185  1  0.32245436  0.57314258  0.90307522  1
  O2-  O186  1  0.81905376  0.07212243  0.23693851  1
  O2-  O187  1  0.81977347  0.07771124  0.57803209  1
  O2-  O188  1  0.81961658  0.07230557  0.90112143  1
  O2-  O189  1  0.81438401  0.56857953  0.24068371  1
  O2-  O190  1  0.81879338  0.56849960  0.56612187  1
  O2-  O191  1  0.82011220  0.57327686  0.91214712  1
  O2-  O192  1  0.05324492  0.08010290  0.26268723  1
  O2-  O193  1  0.04544702  0.08393507  0.60476636  1
  O2-  O194  1  0.04096978  0.08649887  0.93660082  1
  O2-  O195  1  0.03933358  0.58317508  0.25995142  1
  O2-  O196  1  0.03491340  0.58469244  0.60053815  1
  O2-  O197  1  0.03866802  0.58730722  0.93863169  1
  O2-  O198  1  0.54011536  0.08729080  0.26648622  1
  O2-  O199  1  0.54338055  0.07959342  0.59681904  1
  O2-  O200  1  0.55159320  0.08065958  0.94391428  1
  O2-  O201  1  0.54089915  0.58722293  0.26651163  1
  O2-  O202  1  0.55724172  0.58164803  0.60487782  1
  O2-  O203  1  0.55061410  0.58657532  0.93610375  1
  O2-  O204  1  0.17099304  0.21403004  0.26398831  1
  O2-  O205  1  0.16667609  0.19795401  0.60746442  1
  O2-  O206  1  0.16198250  0.20524167  0.93742258  1
  O2-  O207  1  0.17140705  0.70709634  0.26041303  1
  O2-  O208  1  0.16975597  0.70305857  0.59841140  1
  O2-  O209  1  0.16335928  0.70522809  0.93947944  1
  O2-  O210  1  0.66095365  0.20597434  0.26859728  1
  O2-  O211  1  0.66594123  0.20987459  0.59402934  1
  O2-  O212  1  0.66519857  0.20682711  0.93883347  1
  O2-  O213  1  0.66026400  0.70534383  0.26638373  1
  O2-  O214  1  0.66559400  0.70842347  0.60389872  1
  O2-  O215  1  0.66432719  0.70908174  0.93598395  1
  O2-  O216  1  0.07983265  0.46012524  0.07158468  1
  O2-  O217  1  0.08002252  0.46051314  0.39786635  1
  O2-  O218  1  0.08269473  0.46269142  0.73736382  1
  O2-  O219  1  0.08355074  0.95308620  0.06278328  1
  O2-  O220  1  0.08816104  0.95158262  0.39041075  1
  O2-  O221  1  0.07699080  0.95476980  0.73391471  1
  O2-  O222  1  0.58952280  0.45967086  0.06247320  1
  O2-  O223  1  0.58698018  0.46343774  0.39733894  1
  O2-  O224  1  0.58444200  0.45051283  0.72927154  1
  O2-  O225  1  0.58489513  0.94932417  0.06516597  1
  O2-  O226  1  0.58189487  0.96083864  0.40100361  1
  O2-  O227  1  0.58516558  0.96134506  0.73738552  1
  O2-  O228  1  0.20471474  0.32977848  0.07069468  1
  O2-  O229  1  0.21342268  0.33663087  0.40321765  1
  O2-  O230  1  0.20009779  0.32880674  0.73391202  1
  O2-  O231  1  0.20397897  0.83460654  0.06435844  1
  O2-  O232  1  0.21268866  0.83646562  0.39208785  1
  O2-  O233  1  0.20525255  0.83011209  0.73193948  1
  O2-  O234  1  0.70613884  0.33830700  0.06262463  1
  O2-  O235  1  0.69427278  0.33407694  0.39275391  1
  O2-  O236  1  0.70538172  0.33257255  0.72943677  1
  O2-  O237  1  0.70535427  0.83278299  0.06493908  1
  O2-  O238  1  0.70083598  0.82644928  0.39898724  1
  O2-  O239  1  0.70914969  0.83394433  0.73956874  1
  O2-  O240  1  0.46035487  0.41374670  0.27081449  1
  O2-  O241  1  0.45802230  0.41935538  0.59597713  1
  O2-  O242  1  0.46252546  0.41562958  0.93384806  1
  O2-  O243  1  0.46125173  0.91402840  0.26768711  1
  O2-  O244  1  0.46356849  0.91361723  0.59909288  1
  O2-  O245  1  0.45897332  0.91248934  0.93879712  1
  O2-  O246  1  0.95544855  0.41838564  0.26223838  1
  O2-  O247  1  0.96078879  0.41708092  0.60277960  1
  O2-  O248  1  0.95440845  0.41536570  0.93987856  1
  O2-  O249  1  0.95476669  0.91993993  0.26586283  1
  O2-  O250  1  0.94441486  0.92431468  0.60385046  1
  O2-  O251  1  0.95376114  0.91416043  0.93881367  1
  O2-  O252  1  0.33890843  0.29347055  0.27202882  1
  O2-  O253  1  0.32658301  0.29441971  0.59845691  1
  O2-  O254  1  0.33002391  0.29051714  0.93619779  1
  O2-  O255  1  0.33986962  0.79792022  0.26447909  1
  O2-  O256  1  0.33392197  0.79071980  0.59801985  1
  O2-  O257  1  0.33602615  0.79532797  0.94034642  1
  O2-  O258  1  0.82531005  0.29743490  0.26654759  1
  O2-  O259  1  0.83421102  0.29485102  0.60044825  1
  O2-  O260  1  0.83554004  0.29360121  0.93768183  1
  O2-  O261  1  0.82932367  0.78843911  0.26341785  1
  O2-  O262  1  0.82975795  0.78705091  0.60295982  1
  O2-  O263  1  0.83618229  0.79204925  0.93965017  1
  O2-  O264  1  0.41712111  0.03857924  0.07020260  1
  O2-  O265  1  0.41308065  0.04281902  0.39318916  1
  O2-  O266  1  0.41866780  0.03947505  0.73280498  1
  O2-  O267  1  0.42470720  0.54774761  0.06606205  1
  O2-  O268  1  0.41651362  0.54694569  0.39615272  1
  O2-  O269  1  0.42572215  0.55094557  0.72888981  1
  O2-  O270  1  0.91712971  0.04050522  0.06837609  1
  O2-  O271  1  0.92746413  0.05317376  0.39710437  1
  O2-  O272  1  0.91517486  0.05360750  0.73002697  1
  O2-  O273  1  0.91177777  0.54467489  0.06518543  1
  O2-  O274  1  0.91236468  0.54511683  0.39097688  1
  O2-  O275  1  0.91363550  0.53739648  0.73761954  1
  O2-  O276  1  0.28929436  0.16498450  0.06948984  1
  O2-  O277  1  0.29523631  0.16394473  0.39423835  1
  O2-  O278  1  0.29382675  0.16774254  0.73399920  1
  O2-  O279  1  0.29457906  0.67037147  0.06978373  1
  O2-  O280  1  0.30290583  0.67140122  0.38919734  1
  O2-  O281  1  0.29326216  0.66834407  0.73325034  1
  O2-  O282  1  0.78996451  0.16773456  0.06966197  1
  O2-  O283  1  0.78995640  0.17024476  0.40164831  1
  O2-  O284  1  0.79063966  0.16770487  0.72972575  1
  O2-  O285  1  0.78966627  0.66255217  0.06531807  1
  O2-  O286  1  0.78455039  0.65777316  0.39323731  1
  O2-  O287  1  0.78635718  0.66302523  0.73842148  1
