# generated using pymatgen
data_Ca2Al2SiO7
_symmetry_space_group_name_H-M   'P 1'
_cell_length_a   15.45273482
_cell_length_b   15.45199966
_cell_length_c   15.27919023
_cell_angle_alpha   89.99926535
_cell_angle_beta   89.99793365
_cell_angle_gamma   89.99641517
_symmetry_Int_Tables_number   1
_chemical_formula_structural   Ca2Al2SiO7
_chemical_formula_sum   'Ca48 Al48 Si24 O168'
_cell_volume   3648.29861685
_cell_formula_units_Z   24
loop_
 _symmetry_equiv_pos_site_id
 _symmetry_equiv_pos_as_xyz
  1  'x, y, z'
loop_
 _atom_type_symbol
 _atom_type_oxidation_number
  Ca2+  2.0
  Al0+  0.0
  Si0+  0.0
  O2-  -2.0
loop_
 _atom_site_type_symbol
 _atom_site_label
 _atom_site_symmetry_multiplicity
 _atom_site_fract_x
 _atom_site_fract_y
 _atom_site_fract_z
 _atom_site_occupancy
  Ca2+  Ca0  1  0.17777773  0.08095506  0.16904751  1
  Ca2+  Ca1  1  0.16913113  0.08717649  0.50078658  1
  Ca2+  Ca2  1  0.16878252  0.08192170  0.84164476  1
  Ca2+  Ca3  1  0.16597122  0.57477092  0.16744065  1
  Ca2+  Ca4  1  0.17450554  0.58460861  0.50938323  1
  Ca2+  Ca5  1  0.17114688  0.57982522  0.83809539  1
  Ca2+  Ca6  1  0.67420535  0.08491514  0.17492649  1
  Ca2+  Ca7  1  0.66966853  0.06993276  0.50179918  1
  Ca2+  Ca8  1  0.66823542  0.07958762  0.84027839  1
  Ca2+  Ca9  1  0.66518238  0.58165333  0.17019982  1
  Ca2+  Ca10  1  0.65869500  0.58020928  0.50197904  1
  Ca2+  Ca11  1  0.67027229  0.58336114  0.83902071  1
  Ca2+  Ca12  1  0.07260388  0.33378239  0.16049801  1
  Ca2+  Ca13  1  0.07117944  0.32872290  0.49729832  1
  Ca2+  Ca14  1  0.07577968  0.33193371  0.82837005  1
  Ca2+  Ca15  1  0.07929374  0.83780704  0.16525644  1
  Ca2+  Ca16  1  0.07965038  0.82731843  0.49483376  1
  Ca2+  Ca17  1  0.08346659  0.83116221  0.82842191  1
  Ca2+  Ca18  1  0.58016742  0.32982452  0.16422802  1
  Ca2+  Ca19  1  0.57235833  0.33816811  0.49239170  1
  Ca2+  Ca20  1  0.57947646  0.32340481  0.83046291  1
  Ca2+  Ca21  1  0.58650140  0.82931615  0.16552612  1
  Ca2+  Ca22  1  0.58891908  0.82470709  0.49223135  1
  Ca2+  Ca23  1  0.58844895  0.82277871  0.82837029  1
  Ca2+  Ca24  1  0.32665717  0.41018050  0.17180465  1
  Ca2+  Ca25  1  0.33971497  0.42223569  0.50864633  1
  Ca2+  Ca26  1  0.32992209  0.41839619  0.83424633  1
  Ca2+  Ca27  1  0.33652559  0.92554502  0.17156494  1
  Ca2+  Ca28  1  0.34378847  0.92367865  0.50021651  1
  Ca2+  Ca29  1  0.32315349  0.92324658  0.84405931  1
  Ca2+  Ca30  1  0.82992574  0.41929812  0.17268952  1
  Ca2+  Ca31  1  0.82807457  0.40874238  0.49905929  1
  Ca2+  Ca32  1  0.84096703  0.42149584  0.84137209  1
  Ca2+  Ca33  1  0.83033828  0.92937833  0.17790220  1
  Ca2+  Ca34  1  0.82601970  0.91276136  0.49927277  1
  Ca2+  Ca35  1  0.82805410  0.92398678  0.83945599  1
  Ca2+  Ca36  1  0.41975827  0.16368150  0.16316436  1
  Ca2+  Ca37  1  0.41281060  0.17835508  0.49227242  1
  Ca2+  Ca38  1  0.41683957  0.16859919  0.83205587  1
  Ca2+  Ca39  1  0.43034290  0.67165654  0.16536771  1
  Ca2+  Ca40  1  0.42563730  0.67141756  0.49210713  1
  Ca2+  Ca41  1  0.42720164  0.66244479  0.82611990  1
  Ca2+  Ca42  1  0.90343965  0.17643296  0.16095218  1
  Ca2+  Ca43  1  0.91800312  0.17029818  0.49562287  1
  Ca2+  Ca44  1  0.91831045  0.17701059  0.82816114  1
  Ca2+  Ca45  1  0.90810245  0.67487030  0.16335367  1
  Ca2+  Ca46  1  0.92370492  0.67097522  0.49550425  1
  Ca2+  Ca47  1  0.92352265  0.66388092  0.82901197  1
  Al0+  Al48  1  -0.00123584  0.00142011  0.00722362  1
  Al0+  Al49  1  0.00310092  -0.00052607  0.33420335  1
  Al0+  Al50  1  -0.00016105  0.00151090  0.66357931  1
  Al0+  Al51  1  -0.00047090  0.50218082  0.00580863  1
  Al0+  Al52  1  0.00079539  0.49757609  0.33143842  1
  Al0+  Al53  1  -0.00007334  0.50009432  0.65689061  1
  Al0+  Al54  1  0.49910442  -0.00110377  -0.00268143  1
  Al0+  Al55  1  0.50002167  0.00002649  0.34015216  1
  Al0+  Al56  1  0.50082960  -0.00098975  0.67519716  1
  Al0+  Al57  1  0.49982624  0.50084311  -0.00518912  1
  Al0+  Al58  1  0.49895491  0.49958281  0.32685675  1
  Al0+  Al59  1  0.50117801  0.49985715  0.66696829  1
  Al0+  Al60  1  0.24820288  0.25098366  0.00749610  1
  Al0+  Al61  1  0.24764233  0.24955721  0.33410001  1
  Al0+  Al62  1  0.24881261  0.25106242  0.66048447  1
  Al0+  Al63  1  0.24923734  0.74925775  0.00507029  1
  Al0+  Al64  1  0.25156442  0.74885506  0.32797160  1
  Al0+  Al65  1  0.25182268  0.75063173  0.66830535  1
  Al0+  Al66  1  0.74685910  0.25153370  -0.00796999  1
  Al0+  Al67  1  0.74994006  0.25197061  0.34057765  1
  Al0+  Al68  1  0.74812278  0.24876475  0.66411535  1
  Al0+  Al69  1  0.75066616  0.74961125  -0.00267364  1
  Al0+  Al70  1  0.75432348  0.74851182  0.32871196  1
  Al0+  Al71  1  0.74977746  0.74870915  0.66819273  1
  Al0+  Al72  1  0.93145672  0.82060042  0.31936673  1
  Al0+  Al73  1  0.17695351  0.92672256  0.01621936  1
  Al0+  Al74  1  0.42914869  0.82382688  0.31800375  1
  Al0+  Al75  1  0.57121928  0.68001034  0.98308230  1
  Al0+  Al76  1  0.92906687  0.32234247  0.98729716  1
  Al0+  Al77  1  0.43139206  0.31873852  0.65464978  1
  Al0+  Al78  1  0.32229636  0.57161951  0.67980599  1
  Al0+  Al79  1  0.57131803  0.68009875  0.65282805  1
  Al0+  Al80  1  0.81789475  0.07333056  0.01145742  1
  Al0+  Al81  1  0.56981605  0.17805996  0.98736938  1
  Al0+  Al82  1  0.82339773  0.07325757  0.35044021  1
  Al0+  Al83  1  0.32226064  0.07098778  0.01489620  1
  Al0+  Al84  1  0.57255550  0.67874773  0.31726253  1
  Al0+  Al85  1  0.32064786  0.07048446  0.34955081  1
  Al0+  Al86  1  0.17921964  0.43068750  0.01296824  1
  Al0+  Al87  1  0.07348093  0.67993128  0.65508294  1
  Al0+  Al88  1  0.82062983  0.57110212  0.01291097  1
  Al0+  Al89  1  0.68021195  0.92731587  0.68320022  1
  Al0+  Al90  1  0.92679508  0.32211803  0.65002227  1
  Al0+  Al91  1  0.42718782  0.32098086  0.31879548  1
  Al0+  Al92  1  0.07128102  0.17733802  0.65179659  1
  Al0+  Al93  1  0.67796653  0.43172235  0.34616498  1
  Al0+  Al94  1  0.92778102  0.31832019  0.31714380  1
  Al0+  Al95  1  0.68029165  0.92692540  0.34714956  1
  Si0+  Si96  1  0.82242598  0.07249175  0.68467182  1
  Si0+  Si97  1  0.31950936  0.07350186  0.68170284  1
  Si0+  Si98  1  0.17781529  0.92920739  0.67986809  1
  Si0+  Si99  1  0.17748344  0.42882956  0.35120839  1
  Si0+  Si100  1  0.07367027  0.67658998  0.31452474  1
  Si0+  Si101  1  0.82414411  0.57148250  0.35121708  1
  Si0+  Si102  1  0.67891911  0.92725415  0.01571184  1
  Si0+  Si103  1  0.67652995  0.42851562  0.01412962  1
  Si0+  Si104  1  0.82202813  0.56907374  0.67974089  1
  Si0+  Si105  1  0.42614595  0.82130841  0.98181994  1
  Si0+  Si106  1  0.67810766  0.42803639  0.68257964  1
  Si0+  Si107  1  0.07199192  0.17852252  0.98601784  1
  Si0+  Si108  1  0.42805605  0.82323565  0.65273944  1
  Si0+  Si109  1  0.07092723  0.67935533  0.98632268  1
  Si0+  Si110  1  0.57073942  0.17898852  0.32097010  1
  Si0+  Si111  1  0.92851089  0.82186251  0.65208329  1
  Si0+  Si112  1  0.42467352  0.32168653  0.98333668  1
  Si0+  Si113  1  0.17719626  0.42914087  0.68129132  1
  Si0+  Si114  1  0.07198896  0.17759691  0.31351374  1
  Si0+  Si115  1  0.57145592  0.17406326  0.64865594  1
  Si0+  Si116  1  0.17958928  0.92556758  0.35221165  1
  Si0+  Si117  1  0.31968899  0.56953403  0.34691744  1
  Si0+  Si118  1  0.32457524  0.57164120  0.01823932  1
  Si0+  Si119  1  0.93007925  0.82324370  0.98478965  1
  O2-  O120  1  0.25163330  -0.00299884  0.06407626  1
  O2-  O121  1  0.24925963  -0.00743599  0.39767940  1
  O2-  O122  1  0.24764350  0.00188681  0.72198506  1
  O2-  O123  1  0.25759007  0.50102837  0.06189879  1
  O2-  O124  1  0.24931769  0.49937183  0.39224609  1
  O2-  O125  1  0.24531941  0.49837748  0.72611240  1
  O2-  O126  1  0.74307005  -0.00032746  0.05952072  1
  O2-  O127  1  0.75297762  -0.00173784  0.39840576  1
  O2-  O128  1  0.75346018  0.00409841  0.72919712  1
  O2-  O129  1  0.74487459  0.49729865  0.05829850  1
  O2-  O130  1  0.75252409  0.50605799  0.39550326  1
  O2-  O131  1  0.75411253  0.49513102  0.72289940  1
  O2-  O132  1  -0.00209038  0.24013628  0.26914995  1
  O2-  O133  1  -0.00314545  0.24705754  0.60226439  1
  O2-  O134  1  0.00271082  0.24620797  0.94105040  1
  O2-  O135  1  0.00497601  0.74521611  0.27077591  1
  O2-  O136  1  -0.00026312  0.75523644  0.60861240  1
  O2-  O137  1  0.00350077  0.75378371  0.94313619  1
  O2-  O138  1  0.50116727  0.24538439  0.27399050  1
  O2-  O139  1  0.50335096  0.24316590  0.60500069  1
  O2-  O140  1  0.49223058  0.25100623  0.94073424  1
  O2-  O141  1  0.50489044  0.75564076  0.26828143  1
  O2-  O142  1  0.49735071  0.75585420  0.60798841  1
  O2-  O143  1  0.49471631  0.75318867  0.93621763  1
  O2-  O144  1  0.07298640  0.18035325  0.09121378  1
  O2-  O145  1  0.07395304  0.18168430  0.41925621  1
  O2-  O146  1  0.07196979  0.17724315  0.76582692  1
  O2-  O147  1  0.06911328  0.67809705  0.09109997  1
  O2-  O148  1  0.07469020  0.67733124  0.42052072  1
  O2-  O149  1  0.07134678  0.67993211  0.76859871  1
  O2-  O150  1  0.57148937  0.18095718  0.10044116  1
  O2-  O151  1  0.56767741  0.18118435  0.42670117  1
  O2-  O152  1  0.57022970  0.17541854  0.75470221  1
  O2-  O153  1  0.57132562  0.68037298  0.09560998  1
  O2-  O154  1  0.56844648  0.67728774  0.43111512  1
  O2-  O155  1  0.57158118  0.67989293  0.76605457  1
  O2-  O156  1  0.17680701  0.43058849  0.24583611  1
  O2-  O157  1  0.17863198  0.43099080  0.57568775  1
  O2-  O158  1  0.17890842  0.43307380  0.89952416  1
  O2-  O159  1  0.17946855  0.92747893  0.24688072  1
  O2-  O160  1  0.17831887  0.92702384  0.57522461  1
  O2-  O161  1  0.17707370  0.92690529  0.90155042  1
  O2-  O162  1  0.67853919  0.43127358  0.23292331  1
  O2-  O163  1  0.67532028  0.43068403  0.57762139  1
  O2-  O164  1  0.67662505  0.42962267  0.90809183  1
  O2-  O165  1  0.68149112  0.92958372  0.23333000  1
  O2-  O166  1  0.68200895  0.92570393  0.57052029  1
  O2-  O167  1  0.68320336  0.92645495  0.90968270  1
  O2-  O168  1  0.42596813  0.32329554  0.08875026  1
  O2-  O169  1  0.42827094  0.32284462  0.43216178  1
  O2-  O170  1  0.43106768  0.31663392  0.76801063  1
  O2-  O171  1  0.42778171  0.82086401  0.08705060  1
  O2-  O172  1  0.42609861  0.81911958  0.43192497  1
  O2-  O173  1  0.42686357  0.82198419  0.75835907  1
  O2-  O174  1  0.92882457  0.32211204  0.10013872  1
  O2-  O175  1  0.93107839  0.31957802  0.43000071  1
  O2-  O176  1  0.93042305  0.32435594  0.76409359  1
  O2-  O177  1  0.92916447  0.82178965  0.08954492  1
  O2-  O178  1  0.93386198  0.81670121  0.43303760  1
  O2-  O179  1  0.93019020  0.82191449  0.75816121  1
  O2-  O180  1  0.31897976  0.07139083  0.23683897  1
  O2-  O181  1  0.32056700  0.07291283  0.57680438  1
  O2-  O182  1  0.31847129  0.07104405  0.90039101  1
  O2-  O183  1  0.31705802  0.56771938  0.24176804  1
  O2-  O184  1  0.32165188  0.57090373  0.56644453  1
  O2-  O185  1  0.32307281  0.57174614  0.91229713  1
  O2-  O186  1  0.81883473  0.07464696  0.23647138  1
  O2-  O187  1  0.82223991  0.07112690  0.57952796  1
  O2-  O188  1  0.81886390  0.07017015  0.89806154  1
  O2-  O189  1  0.82521332  0.56951715  0.24551844  1
  O2-  O190  1  0.82132136  0.57185761  0.57502223  1
  O2-  O191  1  0.82316470  0.57009208  0.89905977  1
  O2-  O192  1  0.05621705  0.08065877  0.27198227  1
  O2-  O193  1  0.04611170  0.07874903  0.59638489  1
  O2-  O194  1  0.04748868  0.08360206  0.94161524  1
  O2-  O195  1  0.04779599  0.58254033  0.26999931  1
  O2-  O196  1  0.04302440  0.58605703  0.59652213  1
  O2-  O197  1  0.03867083  0.58965711  0.93771910  1
  O2-  O198  1  0.54730869  0.08471619  0.27638225  1
  O2-  O199  1  0.54522605  0.07942814  0.60603015  1
  O2-  O200  1  0.54228110  0.08093728  0.93110827  1
  O2-  O201  1  0.53681820  0.58403483  0.26145333  1
  O2-  O202  1  0.53972489  0.58357516  0.60048831  1
  O2-  O203  1  0.54180942  0.58250940  0.92849014  1
  O2-  O204  1  0.16284532  0.21056896  0.26654181  1
  O2-  O205  1  0.16761334  0.20754231  0.59557874  1
  O2-  O206  1  0.16549277  0.20596732  0.93988439  1
  O2-  O207  1  0.16647410  0.70099620  0.26661634  1
  O2-  O208  1  0.16961835  0.71093235  0.60009993  1
  O2-  O209  1  0.16483655  0.70262629  0.93994281  1
  O2-  O210  1  0.66405165  0.20725557  0.27666100  1
  O2-  O211  1  0.66546702  0.19756003  0.60388276  1
  O2-  O212  1  0.66190052  0.21257015  0.92584630  1
  O2-  O213  1  0.67314017  0.69991772  0.26654220  1
  O2-  O214  1  0.66866321  0.70901479  0.59962882  1
  O2-  O215  1  0.66808137  0.71180408  0.92856735  1
  O2-  O216  1  0.08637514  0.46696625  0.07087554  1
  O2-  O217  1  0.08633370  0.45843567  0.39907210  1
  O2-  O218  1  0.08283862  0.45602057  0.72524979  1
  O2-  O219  1  0.08005742  0.95610799  0.07099493  1
  O2-  O220  1  0.08688085  0.95217899  0.39967534  1
  O2-  O221  1  0.08509544  0.95497945  0.72753786  1
  O2-  O222  1  0.58225893  0.45398052  0.05917714  1
  O2-  O223  1  0.58028561  0.46332000  0.39923993  1
  O2-  O224  1  0.58931502  0.46004763  0.73304372  1
  O2-  O225  1  0.58242251  0.94657214  0.05654677  1
  O2-  O226  1  0.58271635  0.95363623  0.40298501  1
  O2-  O227  1  0.58356430  0.95611676  0.73972588  1
  O2-  O228  1  0.20522594  0.33489873  0.07076550  1
  O2-  O229  1  0.20355073  0.33666048  0.39727962  1
  O2-  O230  1  0.20418066  0.33541315  0.72665438  1
  O2-  O231  1  0.20072052  0.82724322  0.06947825  1
  O2-  O232  1  0.20251030  0.82938522  0.39486833  1
  O2-  O233  1  0.20669934  0.83865517  0.72993520  1
  O2-  O234  1  0.70194624  0.33501302  0.05886368  1
  O2-  O235  1  0.70753592  0.33699460  0.40448152  1
  O2-  O236  1  0.70020685  0.33325782  0.72761797  1
  O2-  O237  1  0.70873646  0.83514359  0.06113561  1
  O2-  O238  1  0.71236942  0.82798303  0.39842991  1
  O2-  O239  1  0.71382956  0.83136164  0.73800672  1
  O2-  O240  1  0.45745178  0.41547990  0.26184474  1
  O2-  O241  1  0.46492021  0.41449364  0.60097501  1
  O2-  O242  1  0.45122381  0.41473353  0.93605554  1
  O2-  O243  1  0.45418679  0.92438801  0.26839342  1
  O2-  O244  1  0.45326899  0.91823392  0.60952169  1
  O2-  O245  1  0.44888995  0.91527168  0.93496253  1
  O2-  O246  1  0.96234292  0.41498318  0.26476147  1
  O2-  O247  1  0.95607857  0.41830555  0.59333576  1
  O2-  O248  1  0.96362497  0.41937888  0.93557984  1
  O2-  O249  1  0.96262057  0.91752643  0.26589589  1
  O2-  O250  1  0.95138003  0.91536456  0.60556207  1
  O2-  O251  1  0.95698851  0.91577935  0.93781038  1
  O2-  O252  1  0.32959360  0.29064903  0.26709062  1
  O2-  O253  1  0.33435827  0.29312500  0.59939132  1
  O2-  O254  1  0.33011602  0.29679834  0.93859706  1
  O2-  O255  1  0.33221936  0.79231678  0.26297248  1
  O2-  O256  1  0.33489188  0.79901456  0.60565380  1
  O2-  O257  1  0.33101194  0.79507465  0.93800576  1
  O2-  O258  1  0.82822589  0.29237087  0.26683843  1
  O2-  O259  1  0.82678856  0.29551279  0.59956152  1
  O2-  O260  1  0.83292296  0.29483064  0.93084200  1
  O2-  O261  1  0.83690580  0.79045540  0.26160394  1
  O2-  O262  1  0.83705941  0.79092468  0.60599813  1
  O2-  O263  1  0.83996222  0.79276119  0.93545742  1
  O2-  O264  1  0.42141539  0.04284735  0.06677304  1
  O2-  O265  1  0.41690150  0.04402145  0.40660582  1
  O2-  O266  1  0.41086016  0.04641108  0.73083142  1
  O2-  O267  1  0.41910997  0.54725001  0.06233562  1
  O2-  O268  1  0.41150207  0.54092078  0.39297045  1
  O2-  O269  1  0.41694352  0.53626424  0.73549920  1
  O2-  O270  1  0.91369999  0.04508250  0.06723857  1
  O2-  O271  1  0.92365011  0.04553164  0.40007747  1
  O2-  O272  1  0.91685032  0.04668422  0.72989376  1
  O2-  O273  1  0.91538168  0.54281608  0.07047988  1
  O2-  O274  1  0.91774287  0.54297128  0.39686119  1
  O2-  O275  1  0.91564491  0.54270794  0.72571187  1
  O2-  O276  1  0.29474749  0.16872622  0.06890323  1
  O2-  O277  1  0.28486097  0.16661956  0.40306586  1
  O2-  O278  1  0.29074480  0.16547302  0.72827567  1
  O2-  O279  1  0.29678937  0.66386486  0.06513881  1
  O2-  O280  1  0.29228294  0.66211181  0.39354858  1
  O2-  O281  1  0.29310781  0.66826748  0.73537488  1
  O2-  O282  1  0.78491788  0.17053166  0.06255588  1
  O2-  O283  1  0.79342638  0.16971140  0.40571868  1
  O2-  O284  1  0.79586466  0.16682969  0.72967412  1
  O2-  O285  1  0.78962596  0.66814530  0.06580846  1
  O2-  O286  1  0.80392763  0.66665460  0.39539002  1
  O2-  O287  1  0.79363895  0.65976983  0.72943774  1
