# generated using pymatgen
data_Ca2Al2SiO7
_symmetry_space_group_name_H-M   'P 1'
_cell_length_a   15.45855983
_cell_length_b   15.46023087
_cell_length_c   15.28487950
_cell_angle_alpha   90.01214164
_cell_angle_beta   90.01213473
_cell_angle_gamma   90.00163395
_symmetry_Int_Tables_number   1
_chemical_formula_structural   Ca2Al2SiO7
_chemical_formula_sum   'Ca48 Al48 Si24 O168'
_cell_volume   3652.97757162
_cell_formula_units_Z   24
loop_
 _symmetry_equiv_pos_site_id
 _symmetry_equiv_pos_as_xyz
  1  'x, y, z'
loop_
 _atom_type_symbol
 _atom_type_oxidation_number
  Ca2+  2.0
  Al0+  0.0
  Si0+  0.0
  O2-  -2.0
loop_
 _atom_site_type_symbol
 _atom_site_label
 _atom_site_symmetry_multiplicity
 _atom_site_fract_x
 _atom_site_fract_y
 _atom_site_fract_z
 _atom_site_occupancy
  Ca2+  Ca0  1  0.16657747  0.08191902  0.17871207  1
  Ca2+  Ca1  1  0.16349589  0.08104475  0.49421518  1
  Ca2+  Ca2  1  0.16601185  0.08545956  0.83847517  1
  Ca2+  Ca3  1  0.16450950  0.57562546  0.17281471  1
  Ca2+  Ca4  1  0.16649607  0.57486199  0.50534572  1
  Ca2+  Ca5  1  0.17690850  0.57295605  0.83922074  1
  Ca2+  Ca6  1  0.66572459  0.07686171  0.17248372  1
  Ca2+  Ca7  1  0.66449136  0.08437439  0.50006516  1
  Ca2+  Ca8  1  0.66958267  0.07651132  0.84214947  1
  Ca2+  Ca9  1  0.67204544  0.57424041  0.17549303  1
  Ca2+  Ca10  1  0.66739062  0.57989383  0.50168305  1
  Ca2+  Ca11  1  0.66190668  0.57299854  0.83541485  1
  Ca2+  Ca12  1  0.08780713  0.32772823  0.15930769  1
  Ca2+  Ca13  1  0.08109069  0.33784177  0.49296191  1
  Ca2+  Ca14  1  0.07780838  0.34166542  0.83136918  1
  Ca2+  Ca15  1  0.07659995  0.83162089  0.16520123  1
  Ca2+  Ca16  1  0.07978298  0.82553985  0.48592039  1
  Ca2+  Ca17  1  0.07760119  0.83203121  0.83249740  1
  Ca2+  Ca18  1  0.59006876  0.33139149  0.16521442  1
  Ca2+  Ca19  1  0.57751006  0.33907927  0.49468952  1
  Ca2+  Ca20  1  0.57971474  0.34171941  0.82495944  1
  Ca2+  Ca21  1  0.57912674  0.82683858  0.15972766  1
  Ca2+  Ca22  1  0.58288220  0.81659345  0.49269898  1
  Ca2+  Ca23  1  0.57846307  0.82707089  0.83111445  1
  Ca2+  Ca24  1  0.32229197  0.42077322  0.16836535  1
  Ca2+  Ca25  1  0.32152786  0.41758348  0.50774525  1
  Ca2+  Ca26  1  0.33151251  0.42553182  0.83761893  1
  Ca2+  Ca27  1  0.32904664  0.92201198  0.17481221  1
  Ca2+  Ca28  1  0.33136994  0.92213166  0.49637965  1
  Ca2+  Ca29  1  0.33531919  0.91811386  0.84112167  1
  Ca2+  Ca30  1  0.82679472  0.41635125  0.17297683  1
  Ca2+  Ca31  1  0.82526091  0.41902502  0.50331085  1
  Ca2+  Ca32  1  0.82584734  0.40909440  0.83851005  1
  Ca2+  Ca33  1  0.83330090  0.90989433  0.17009042  1
  Ca2+  Ca34  1  0.83765254  0.91782190  0.50017709  1
  Ca2+  Ca35  1  0.82708110  0.91615416  0.84345819  1
  Ca2+  Ca36  1  0.41946805  0.16396068  0.16814087  1
  Ca2+  Ca37  1  0.41943400  0.17330689  0.49212310  1
  Ca2+  Ca38  1  0.41978338  0.17771220  0.82764101  1
  Ca2+  Ca39  1  0.42020937  0.66622998  0.16092166  1
  Ca2+  Ca40  1  0.42691360  0.65351570  0.49849134  1
  Ca2+  Ca41  1  0.41636347  0.66291557  0.82912596  1
  Ca2+  Ca42  1  0.93049781  0.17342372  0.15998474  1
  Ca2+  Ca43  1  0.92194681  0.17664775  0.49489069  1
  Ca2+  Ca44  1  0.92208796  0.18003283  0.83420000  1
  Ca2+  Ca45  1  0.91748301  0.67011323  0.16962698  1
  Ca2+  Ca46  1  0.92042402  0.67017925  0.48673158  1
  Ca2+  Ca47  1  0.91438044  0.67062467  0.83379145  1
  Al0+  Al48  1  0.00052005  0.00037848  -0.00925924  1
  Al0+  Al49  1  -0.00121102  0.00183537  0.33148979  1
  Al0+  Al50  1  -0.00057499  0.00169128  0.66869289  1
  Al0+  Al51  1  -0.00032187  0.50022511  -0.00129965  1
  Al0+  Al52  1  -0.00283987  0.50265255  0.33626751  1
  Al0+  Al53  1  -0.00196912  0.50185863  0.66649351  1
  Al0+  Al54  1  0.50113632  -0.00236200  -0.00051517  1
  Al0+  Al55  1  0.50020915  0.00175946  0.33562418  1
  Al0+  Al56  1  0.49899469  -0.00138809  0.66747169  1
  Al0+  Al57  1  0.50135987  0.49880868  0.00916514  1
  Al0+  Al58  1  0.49870469  0.49865748  0.32854562  1
  Al0+  Al59  1  0.50024940  0.49992905  0.66440276  1
  Al0+  Al60  1  0.25415865  0.24937707  -0.00134091  1
  Al0+  Al61  1  0.25115675  0.25117346  0.33792658  1
  Al0+  Al62  1  0.24942790  0.24696463  0.66626684  1
  Al0+  Al63  1  0.25186967  0.75212344  -0.00150021  1
  Al0+  Al64  1  0.24986128  0.75035463  0.33417621  1
  Al0+  Al65  1  0.24906525  0.75262741  0.66971454  1
  Al0+  Al66  1  0.75301567  0.24659765  0.00128992  1
  Al0+  Al67  1  0.74746708  0.24789505  0.33346758  1
  Al0+  Al68  1  0.75311140  0.24839316  0.66688600  1
  Al0+  Al69  1  0.74873772  0.74860458  -0.00094956  1
  Al0+  Al70  1  0.74783712  0.74901670  0.32928029  1
  Al0+  Al71  1  0.74838406  0.75111011  0.66351317  1
  Al0+  Al72  1  0.17667115  0.92860041  0.34709953  1
  Al0+  Al73  1  0.57084938  0.17896134  0.31942470  1
  Al0+  Al74  1  0.17828792  0.43019203  0.34649085  1
  Al0+  Al75  1  0.32218252  0.07158276  0.34945851  1
  Al0+  Al76  1  0.32139804  0.57321631  0.01682170  1
  Al0+  Al77  1  0.17614303  0.42670341  0.68223891  1
  Al0+  Al78  1  0.68097392  0.42662626  0.01405913  1
  Al0+  Al79  1  0.56917426  0.67701616  0.31693126  1
  Al0+  Al80  1  0.07137073  0.18278410  0.32167180  1
  Al0+  Al81  1  0.81876049  0.57235145  0.34885543  1
  Al0+  Al82  1  0.92928276  0.32235696  0.65103389  1
  Al0+  Al83  1  0.67812341  0.42665430  0.34967782  1
  Al0+  Al84  1  0.17873858  0.42866100  0.01499409  1
  Al0+  Al85  1  0.68150553  0.42960091  0.67920061  1
  Al0+  Al86  1  0.56901139  0.68002693  0.65324576  1
  Al0+  Al87  1  0.42919710  0.82081516  0.98683243  1
  Al0+  Al88  1  0.92900407  0.32277664  0.98595918  1
  Al0+  Al89  1  0.92867662  0.82237585  0.31884854  1
  Al0+  Al90  1  0.67937383  0.92838803  0.01404081  1
  Al0+  Al91  1  0.92861457  0.81921202  0.98492425  1
  Al0+  Al92  1  0.42924135  0.32047152  0.65360053  1
  Al0+  Al93  1  0.07536222  0.18000657  0.98418932  1
  Al0+  Al94  1  0.32114951  0.57104863  0.68048243  1
  Al0+  Al95  1  0.07316119  0.67687106  0.31865788  1
  Si0+  Si96  1  0.82197799  0.07003655  0.68357192  1
  Si0+  Si97  1  0.92671203  0.32269348  0.31823038  1
  Si0+  Si98  1  0.42556886  0.82458824  0.64795234  1
  Si0+  Si99  1  0.07100657  0.68162012  0.65335086  1
  Si0+  Si100  1  0.57252522  0.17573550  0.65214140  1
  Si0+  Si101  1  0.07139158  0.17633251  0.64792071  1
  Si0+  Si102  1  0.82141996  0.57558902  0.68411907  1
  Si0+  Si103  1  0.32223039  0.57326248  0.34897988  1
  Si0+  Si104  1  0.07385893  0.67793829  0.98178714  1
  Si0+  Si105  1  0.32265647  0.07051024  0.01372372  1
  Si0+  Si106  1  0.82330484  0.06910656  0.01792150  1
  Si0+  Si107  1  0.82249691  0.57327098  0.01593646  1
  Si0+  Si108  1  0.43263742  0.32082798  0.98598536  1
  Si0+  Si109  1  0.67912122  0.92843054  0.68098553  1
  Si0+  Si110  1  0.67833360  0.92881053  0.34902791  1
  Si0+  Si111  1  0.17772226  0.93079274  0.01318601  1
  Si0+  Si112  1  0.57029972  0.67609265  0.98295878  1
  Si0+  Si113  1  0.17771871  0.93061773  0.68340500  1
  Si0+  Si114  1  0.32253466  0.06969225  0.68384343  1
  Si0+  Si115  1  0.42904280  0.82328967  0.31785993  1
  Si0+  Si116  1  0.42744482  0.32153046  0.31413185  1
  Si0+  Si117  1  0.82082703  0.07062228  0.34853741  1
  Si0+  Si118  1  0.92885699  0.82210809  0.65218569  1
  Si0+  Si119  1  0.57202256  0.17707354  0.98570765  1
  O2-  O120  1  0.24771732  0.00316027  0.05433556  1
  O2-  O121  1  0.24889018  0.00002617  0.39884540  1
  O2-  O122  1  0.25049569  -0.00032170  0.72626903  1
  O2-  O123  1  0.24567508  0.50492834  0.06581739  1
  O2-  O124  1  0.24997608  0.50820818  0.39260969  1
  O2-  O125  1  0.25079901  0.49727386  0.73054213  1
  O2-  O126  1  0.75631626  -0.00069416  0.06290019  1
  O2-  O127  1  0.75108407  -0.00194096  0.39183131  1
  O2-  O128  1  0.74843207  0.00049545  0.72433118  1
  O2-  O129  1  0.75835181  0.49933209  0.05823415  1
  O2-  O130  1  0.74859054  0.49940356  0.40027129  1
  O2-  O131  1  0.75619713  0.50348680  0.72814766  1
  O2-  O132  1  0.00057205  0.25990106  0.27388548  1
  O2-  O133  1  0.00901489  0.25165515  0.60565577  1
  O2-  O134  1  0.00652815  0.25590546  0.93556346  1
  O2-  O135  1  0.00262497  0.75165884  0.27022836  1
  O2-  O136  1  -0.00155599  0.75094534  0.61046661  1
  O2-  O137  1  0.00295355  0.74497579  0.93656375  1
  O2-  O138  1  0.49852208  0.25427000  0.27062808  1
  O2-  O139  1  0.50594109  0.24618411  0.60845899  1
  O2-  O140  1  0.50688651  0.25268639  0.94272742  1
  O2-  O141  1  0.49284294  0.75108205  0.27237856  1
  O2-  O142  1  0.49158366  0.75270116  0.60569514  1
  O2-  O143  1  0.49995698  0.74328953  0.93861572  1
  O2-  O144  1  0.07419863  0.17763537  0.09771776  1
  O2-  O145  1  0.06692156  0.18177023  0.43489860  1
  O2-  O146  1  0.06753210  0.16977605  0.75311798  1
  O2-  O147  1  0.07472777  0.68010153  0.08684087  1
  O2-  O148  1  0.07172335  0.67835268  0.43305431  1
  O2-  O149  1  0.07049346  0.68568206  0.75858139  1
  O2-  O150  1  0.56909092  0.17462437  0.09042129  1
  O2-  O151  1  0.56948519  0.17714868  0.43268157  1
  O2-  O152  1  0.57017641  0.17199065  0.75819310  1
  O2-  O153  1  0.57019097  0.67835331  0.08829613  1
  O2-  O154  1  0.56869114  0.67878833  0.43048993  1
  O2-  O155  1  0.57147267  0.68378680  0.76629813  1
  O2-  O156  1  0.18095580  0.42783768  0.23362303  1
  O2-  O157  1  0.17654479  0.42969163  0.56851425  1
  O2-  O158  1  0.18237081  0.42888798  0.90149928  1
  O2-  O159  1  0.17709358  0.93126171  0.23321363  1
  O2-  O160  1  0.17511530  0.93112850  0.57902150  1
  O2-  O161  1  0.17909355  0.93163971  0.90726075  1
  O2-  O162  1  0.68248744  0.42570143  0.23595742  1
  O2-  O163  1  0.68157505  0.43016794  0.56687599  1
  O2-  O164  1  0.67822254  0.42852892  0.90048490  1
  O2-  O165  1  0.67717170  0.93100115  0.24406218  1
  O2-  O166  1  0.68046410  0.92855804  0.57595791  1
  O2-  O167  1  0.67960895  0.93167123  0.90007854  1
  O2-  O168  1  0.43089223  0.31746504  0.09056308  1
  O2-  O169  1  0.42791761  0.32062928  0.41998886  1
  O2-  O170  1  0.43193775  0.31865772  0.76742071  1
  O2-  O171  1  0.43229516  0.82479242  0.09937024  1
  O2-  O172  1  0.43329003  0.82544450  0.42370356  1
  O2-  O173  1  0.42868954  0.82944397  0.75352715  1
  O2-  O174  1  0.92540261  0.31779576  0.09923100  1
  O2-  O175  1  0.92586377  0.31858153  0.42414302  1
  O2-  O176  1  0.92588918  0.31796082  0.76379045  1
  O2-  O177  1  0.93041901  0.81997653  0.09703897  1
  O2-  O178  1  0.92953012  0.82245056  0.43337609  1
  O2-  O179  1  0.92865629  0.82228701  0.75745129  1
  O2-  O180  1  0.32336534  0.06847753  0.23543029  1
  O2-  O181  1  0.32590640  0.06786305  0.57959018  1
  O2-  O182  1  0.32472954  0.06885175  0.90805195  1
  O2-  O183  1  0.32274195  0.57166246  0.24349726  1
  O2-  O184  1  0.31829824  0.57095452  0.56700409  1
  O2-  O185  1  0.32290618  0.57004960  0.90309694  1
  O2-  O186  1  0.81945907  0.07094238  0.24382899  1
  O2-  O187  1  0.82398173  0.06787930  0.57840186  1
  O2-  O188  1  0.81935748  0.06866940  0.91169602  1
  O2-  O189  1  0.81766608  0.57205688  0.23515290  1
  O2-  O190  1  0.81986565  0.57922250  0.57914196  1
  O2-  O191  1  0.81894815  0.57667442  0.90995269  1
  O2-  O192  1  0.03796918  0.08732814  0.26753751  1
  O2-  O193  1  0.03691864  0.08511489  0.60052467  1
  O2-  O194  1  0.04281096  0.08391406  0.92749235  1
  O2-  O195  1  0.04013483  0.58026434  0.26452280  1
  O2-  O196  1  0.04511604  0.58947800  0.60682210  1
  O2-  O197  1  0.04929842  0.58440589  0.93532528  1
  O2-  O198  1  0.53879903  0.08242563  0.26502893  1
  O2-  O199  1  0.54464081  0.08257553  0.60538877  1
  O2-  O200  1  0.53924743  0.08781776  0.93571591  1
  O2-  O201  1  0.54020152  0.58079250  0.26181210  1
  O2-  O202  1  0.54042325  0.58415998  0.59767023  1
  O2-  O203  1  0.54428096  0.58128406  0.93934457  1
  O2-  O204  1  0.17023064  0.20793947  0.27013332  1
  O2-  O205  1  0.16823122  0.19128104  0.60590722  1
  O2-  O206  1  0.17607398  0.20170151  0.93203089  1
  O2-  O207  1  0.17250867  0.70291004  0.26642575  1
  O2-  O208  1  0.16201760  0.71212854  0.60614273  1
  O2-  O209  1  0.16581235  0.70808596  0.93449141  1
  O2-  O210  1  0.66796146  0.20530013  0.26374796  1
  O2-  O211  1  0.66795705  0.19619574  0.60890723  1
  O2-  O212  1  0.66628274  0.19758999  0.94028098  1
  O2-  O213  1  0.66370348  0.71104020  0.26244972  1
  O2-  O214  1  0.66417140  0.71528556  0.59762711  1
  O2-  O215  1  0.66281734  0.70337343  0.93600691  1
  O2-  O216  1  0.07751216  0.45117084  0.06457554  1
  O2-  O217  1  0.08056535  0.45757012  0.39944158  1
  O2-  O218  1  0.07804824  0.45923051  0.73400768  1
  O2-  O219  1  0.08481692  0.95753856  0.05773729  1
  O2-  O220  1  0.07888802  0.95972434  0.40124421  1
  O2-  O221  1  0.08637923  0.96051552  0.73218831  1
  O2-  O222  1  0.58625699  0.45671595  0.07079747  1
  O2-  O223  1  0.57728447  0.45469134  0.39694657  1
  O2-  O224  1  0.58506440  0.46199467  0.73254128  1
  O2-  O225  1  0.58444064  0.96305303  0.06836787  1
  O2-  O226  1  0.58887827  0.95966673  0.39873532  1
  O2-  O227  1  0.58633730  0.95441610  0.72808742  1
  O2-  O228  1  0.21391359  0.33072450  0.06575566  1
  O2-  O229  1  0.21153760  0.33576931  0.40295203  1
  O2-  O230  1  0.19937550  0.32488075  0.73042855  1
  O2-  O231  1  0.20566648  0.83934255  0.05960590  1
  O2-  O232  1  0.20493750  0.83046410  0.40170682  1
  O2-  O233  1  0.20337077  0.83921921  0.73275091  1
  O2-  O234  1  0.70856760  0.32795508  0.06584642  1
  O2-  O235  1  0.70440144  0.32702796  0.40162031  1
  O2-  O236  1  0.70932832  0.33071714  0.73185586  1
  O2-  O237  1  0.70662916  0.83047308  0.06588219  1
  O2-  O238  1  0.70530100  0.83682296  0.39578642  1
  O2-  O239  1  0.70907058  0.83797729  0.72970847  1
  O2-  O240  1  0.45052558  0.41441577  0.26643077  1
  O2-  O241  1  0.45900264  0.41577204  0.59806223  1
  O2-  O242  1  0.46015655  0.41365299  0.94065101  1
  O2-  O243  1  0.45906258  0.91541987  0.27174878  1
  O2-  O244  1  0.45515801  0.91688813  0.60090229  1
  O2-  O245  1  0.46454422  0.91565654  0.92956201  1
  O2-  O246  1  0.94465487  0.41862144  0.27624167  1
  O2-  O247  1  0.95290844  0.42176607  0.59919198  1
  O2-  O248  1  0.94886970  0.42320466  0.93254512  1
  O2-  O249  1  0.95384176  0.92123837  0.26585294  1
  O2-  O250  1  0.95759912  0.91459399  0.60669074  1
  O2-  O251  1  0.95903717  0.91479453  0.92758952  1
  O2-  O252  1  0.33538095  0.29138783  0.26819712  1
  O2-  O253  1  0.33310232  0.28673305  0.60012513  1
  O2-  O254  1  0.34340839  0.28956897  0.93560361  1
  O2-  O255  1  0.33317216  0.80409987  0.27474890  1
  O2-  O256  1  0.32957133  0.80413043  0.60535945  1
  O2-  O257  1  0.33159361  0.79712421  0.93032837  1
  O2-  O258  1  0.83544057  0.28963674  0.27251508  1
  O2-  O259  1  0.83494409  0.28394430  0.59627708  1
  O2-  O260  1  0.83282455  0.28513012  0.93098667  1
  O2-  O261  1  0.83050305  0.79379612  0.26614736  1
  O2-  O262  1  0.83616429  0.79805427  0.60518954  1
  O2-  O263  1  0.83134156  0.78867175  0.93019897  1
  O2-  O264  1  0.41261100  0.03822271  0.06156968  1
  O2-  O265  1  0.41941666  0.04074716  0.40484977  1
  O2-  O266  1  0.41399522  0.04094522  0.73324666  1
  O2-  O267  1  0.41770252  0.54117965  0.07135341  1
  O2-  O268  1  0.41455195  0.54196854  0.39424479  1
  O2-  O269  1  0.41991131  0.54336908  0.73292453  1
  O2-  O270  1  0.91847653  0.04366947  0.05957078  1
  O2-  O271  1  0.91142405  0.04349408  0.39870160  1
  O2-  O272  1  0.91189314  0.03905006  0.73306464  1
  O2-  O273  1  0.91834668  0.55480688  0.05923043  1
  O2-  O274  1  0.91717454  0.54761523  0.40329399  1
  O2-  O275  1  0.91613109  0.55455751  0.72926539  1
  O2-  O276  1  0.30131529  0.16336709  0.06084579  1
  O2-  O277  1  0.29499876  0.16910247  0.40372345  1
  O2-  O278  1  0.29553488  0.16122112  0.73215242  1
  O2-  O279  1  0.29895521  0.67482402  0.06558674  1
  O2-  O280  1  0.30486818  0.66868531  0.39422836  1
  O2-  O281  1  0.29375536  0.67114278  0.73276076  1
  O2-  O282  1  0.79669247  0.16116377  0.06530690  1
  O2-  O283  1  0.78978390  0.16033148  0.39843102  1
  O2-  O284  1  0.79497331  0.16102362  0.73233737  1
  O2-  O285  1  0.79177420  0.66435274  0.06364312  1
  O2-  O286  1  0.78867305  0.67126061  0.40132629  1
  O2-  O287  1  0.79233071  0.66888243  0.73072699  1
