# generated using pymatgen
data_Ca2Al2SiO7
_symmetry_space_group_name_H-M   'P 1'
_cell_length_a   15.45686672
_cell_length_b   15.45513341
_cell_length_c   15.28221898
_cell_angle_alpha   90.00202010
_cell_angle_beta   89.99536905
_cell_angle_gamma   90.00016854
_symmetry_Int_Tables_number   1
_chemical_formula_structural   Ca2Al2SiO7
_chemical_formula_sum   'Ca48 Al48 Si24 O168'
_cell_volume   3650.73775562
_cell_formula_units_Z   24
loop_
 _symmetry_equiv_pos_site_id
 _symmetry_equiv_pos_as_xyz
  1  'x, y, z'
loop_
 _atom_type_symbol
 _atom_type_oxidation_number
  Ca2+  2.0
  Al0+  0.0
  Si0+  0.0
  O2-  -2.0
loop_
 _atom_site_type_symbol
 _atom_site_label
 _atom_site_symmetry_multiplicity
 _atom_site_fract_x
 _atom_site_fract_y
 _atom_site_fract_z
 _atom_site_occupancy
  Ca2+  Ca0  1  0.16296424  0.07757372  0.17004948  1
  Ca2+  Ca1  1  0.15941074  0.08169160  0.50734651  1
  Ca2+  Ca2  1  0.15837485  0.07081369  0.83485924  1
  Ca2+  Ca3  1  0.16650803  0.58071198  0.16824337  1
  Ca2+  Ca4  1  0.17556793  0.58606785  0.50057100  1
  Ca2+  Ca5  1  0.16178303  0.57729095  0.84286759  1
  Ca2+  Ca6  1  0.67137001  0.07812997  0.16312408  1
  Ca2+  Ca7  1  0.67218404  0.08202107  0.50934928  1
  Ca2+  Ca8  1  0.67788279  0.08410084  0.83872983  1
  Ca2+  Ca9  1  0.67677698  0.58242081  0.16940028  1
  Ca2+  Ca10  1  0.67552028  0.57836384  0.50961132  1
  Ca2+  Ca11  1  0.67552226  0.57897036  0.83436949  1
  Ca2+  Ca12  1  0.08059465  0.33241485  0.16365952  1
  Ca2+  Ca13  1  0.07247400  0.32322043  0.49477891  1
  Ca2+  Ca14  1  0.07539049  0.32782614  0.82456446  1
  Ca2+  Ca15  1  0.07876374  0.82545879  0.15983679  1
  Ca2+  Ca16  1  0.07118878  0.83832787  0.49951921  1
  Ca2+  Ca17  1  0.08206439  0.83003220  0.82916246  1
  Ca2+  Ca18  1  0.57912571  0.34053118  0.16368524  1
  Ca2+  Ca19  1  0.58680560  0.32979196  0.49986093  1
  Ca2+  Ca20  1  0.59068705  0.33292412  0.82596656  1
  Ca2+  Ca21  1  0.57252370  0.83683583  0.15819118  1
  Ca2+  Ca22  1  0.58237034  0.82302118  0.49448302  1
  Ca2+  Ca23  1  0.58388802  0.83213001  0.83017221  1
  Ca2+  Ca24  1  0.32769217  0.42051443  0.17563283  1
  Ca2+  Ca25  1  0.33792542  0.41821987  0.49937735  1
  Ca2+  Ca26  1  0.32454888  0.41823248  0.83998591  1
  Ca2+  Ca27  1  0.32875588  0.90768297  0.16957838  1
  Ca2+  Ca28  1  0.32525617  0.91452984  0.50429451  1
  Ca2+  Ca29  1  0.32325769  0.91371682  0.83922343  1
  Ca2+  Ca30  1  0.83453043  0.42788956  0.17104851  1
  Ca2+  Ca31  1  0.83760075  0.42384939  0.50782345  1
  Ca2+  Ca32  1  0.82567718  0.42087846  0.83864467  1
  Ca2+  Ca33  1  0.83238687  0.91736500  0.16858218  1
  Ca2+  Ca34  1  0.84108660  0.92107154  0.50878183  1
  Ca2+  Ca35  1  0.83530247  0.92841493  0.83734753  1
  Ca2+  Ca36  1  0.41646975  0.17337498  0.16471233  1
  Ca2+  Ca37  1  0.42500247  0.17157499  0.49558987  1
  Ca2+  Ca38  1  0.42705324  0.16858801  0.82744601  1
  Ca2+  Ca39  1  0.41092718  0.67514195  0.16224069  1
  Ca2+  Ca40  1  0.42342971  0.66709280  0.49411788  1
  Ca2+  Ca41  1  0.42480892  0.67266651  0.82911346  1
  Ca2+  Ca42  1  0.91689531  0.17112199  0.16660622  1
  Ca2+  Ca43  1  0.91958493  0.17530806  0.49855126  1
  Ca2+  Ca44  1  0.91377246  0.17067420  0.82176084  1
  Ca2+  Ca45  1  0.91457118  0.66675736  0.16155681  1
  Ca2+  Ca46  1  0.90741329  0.67564009  0.49654087  1
  Ca2+  Ca47  1  0.91509375  0.66760872  0.82884348  1
  Al0+  Al48  1  0.00190964  0.00010905  0.00961938  1
  Al0+  Al49  1  -0.00099772  -0.00180672  0.32535104  1
  Al0+  Al50  1  0.00067378  -0.00189646  0.66959966  1
  Al0+  Al51  1  0.00052980  0.49893855  0.00335477  1
  Al0+  Al52  1  0.00085437  0.49906716  0.33730000  1
  Al0+  Al53  1  0.00307915  0.50202530  0.66510499  1
  Al0+  Al54  1  0.49929819  0.00295720  -0.00260258  1
  Al0+  Al55  1  0.49884531  -0.00159048  0.33094678  1
  Al0+  Al56  1  0.49727960  0.00169982  0.66155205  1
  Al0+  Al57  1  0.49925254  0.50222427  0.00079835  1
  Al0+  Al58  1  0.50102351  0.49858157  0.33345813  1
  Al0+  Al59  1  0.50033640  0.50237848  0.66720258  1
  Al0+  Al60  1  0.24915320  0.24976966  0.00151734  1
  Al0+  Al61  1  0.25207163  0.24722530  0.32754112  1
  Al0+  Al62  1  0.25137383  0.24990950  0.66432970  1
  Al0+  Al63  1  0.24867108  0.75044224  -0.00613436  1
  Al0+  Al64  1  0.24968895  0.74912442  0.33673845  1
  Al0+  Al65  1  0.24988950  0.75025083  0.67087783  1
  Al0+  Al66  1  0.74914723  0.25079590  0.00938801  1
  Al0+  Al67  1  0.75149766  0.24747929  0.32853869  1
  Al0+  Al68  1  0.74909584  0.25045294  0.66358034  1
  Al0+  Al69  1  0.74840716  0.75207851  0.00554919  1
  Al0+  Al70  1  0.74901460  0.74944022  0.33193221  1
  Al0+  Al71  1  0.74884139  0.74973700  0.66212379  1
  Al0+  Al72  1  0.32083117  0.57060618  0.34688562  1
  Al0+  Al73  1  0.42889767  0.82243938  0.98400647  1
  Al0+  Al74  1  0.67920181  0.42963013  0.68004879  1
  Al0+  Al75  1  0.92874740  0.32301393  0.31598371  1
  Al0+  Al76  1  0.07112497  0.17771325  0.65454826  1
  Al0+  Al77  1  0.06798946  0.67832651  0.98677350  1
  Al0+  Al78  1  0.07105726  0.17819706  0.31618973  1
  Al0+  Al79  1  0.18101355  0.92762579  0.01588121  1
  Al0+  Al80  1  0.82367797  0.57390350  0.68146019  1
  Al0+  Al81  1  0.82173236  0.57111405  0.34969525  1
  Al0+  Al82  1  0.17925724  0.42754752  0.01335720  1
  Al0+  Al83  1  0.17973575  0.93033844  0.68025998  1
  Al0+  Al84  1  0.57180946  0.17894759  0.65396185  1
  Al0+  Al85  1  0.57037984  0.68010520  0.65278014  1
  Al0+  Al86  1  0.67682139  0.42901772  0.01665795  1
  Al0+  Al87  1  0.93039148  0.81883523  0.65675071  1
  Al0+  Al88  1  0.42865202  0.81893957  0.32059717  1
  Al0+  Al89  1  0.67704159  0.92986125  0.01351829  1
  Al0+  Al90  1  0.92767599  0.81930286  0.31808503  1
  Al0+  Al91  1  0.81972618  0.06962656  0.67684049  1
  Al0+  Al92  1  0.43176999  0.32070910  0.31929919  1
  Al0+  Al93  1  0.92770957  0.32353428  0.65366112  1
  Al0+  Al94  1  0.82159773  0.57138326  0.01491860  1
  Al0+  Al95  1  0.82319131  0.07197306  0.01734642  1
  Si0+  Si96  1  0.67890374  0.42617029  0.35070541  1
  Si0+  Si97  1  0.32074749  0.57190626  0.01479374  1
  Si0+  Si98  1  0.07180267  0.17802776  0.98440529  1
  Si0+  Si99  1  0.17959090  0.42453723  0.35207003  1
  Si0+  Si100  1  0.57157356  0.67736473  0.31481222  1
  Si0+  Si101  1  0.67658752  0.92975656  0.34892539  1
  Si0+  Si102  1  0.07298290  0.67850308  0.31918977  1
  Si0+  Si103  1  0.42758345  0.32333427  0.65146773  1
  Si0+  Si104  1  0.17887696  0.92983886  0.34872614  1
  Si0+  Si105  1  0.92879024  0.31919534  0.98585213  1
  Si0+  Si106  1  0.32212149  0.07223266  0.01705808  1
  Si0+  Si107  1  0.07541297  0.67696915  0.64903677  1
  Si0+  Si108  1  0.32358405  0.07433000  0.68312495  1
  Si0+  Si109  1  0.57336150  0.67832723  0.98284001  1
  Si0+  Si110  1  0.32230875  0.07130551  0.34879707  1
  Si0+  Si111  1  0.18074609  0.42818895  0.68014095  1
  Si0+  Si112  1  0.57116155  0.18209903  0.98524676  1
  Si0+  Si113  1  0.67447660  0.92758637  0.67942672  1
  Si0+  Si114  1  0.82115074  0.06843117  0.34949053  1
  Si0+  Si115  1  0.92683650  0.82357265  0.98392068  1
  Si0+  Si116  1  0.42571332  0.82174802  0.64937216  1
  Si0+  Si117  1  0.32157279  0.57132036  0.68336044  1
  Si0+  Si118  1  0.42756329  0.32272189  0.98506995  1
  Si0+  Si119  1  0.57276019  0.17569171  0.31405403  1
  O2-  O120  1  0.25653808  0.00157427  0.06285232  1
  O2-  O121  1  0.24862847  0.00280853  0.39060889  1
  O2-  O122  1  0.25451046  0.00603820  0.72659125  1
  O2-  O123  1  0.25482999  0.50135975  0.05976008  1
  O2-  O124  1  0.24841974  0.49417761  0.39581752  1
  O2-  O125  1  0.24974072  0.50069654  0.72421879  1
  O2-  O126  1  0.75322154  -0.00372399  0.06562293  1
  O2-  O127  1  0.74897001  -0.00137641  0.39206495  1
  O2-  O128  1  0.74225776  -0.00292897  0.72306599  1
  O2-  O129  1  0.74828371  0.50105670  0.06609104  1
  O2-  O130  1  0.74988581  0.49225084  0.39445167  1
  O2-  O131  1  0.75433598  0.49838265  0.72990321  1
  O2-  O132  1  0.00245253  0.25273190  0.26510892  1
  O2-  O133  1  0.00003538  0.25033570  0.60514885  1
  O2-  O134  1  -0.00241533  0.24579252  0.94281304  1
  O2-  O135  1  -0.00060669  0.74080839  0.27392880  1
  O2-  O136  1  0.00251671  0.74202524  0.60726264  1
  O2-  O137  1  -0.00758346  0.75205385  0.93969512  1
  O2-  O138  1  0.50740741  0.24812209  0.27041444  1
  O2-  O139  1  0.49713139  0.25477240  0.60875612  1
  O2-  O140  1  0.50242579  0.25608713  0.94284145  1
  O2-  O141  1  0.50119984  0.74442117  0.27076109  1
  O2-  O142  1  0.49722879  0.75668563  0.60533694  1
  O2-  O143  1  0.50647958  0.74990373  0.93908807  1
  O2-  O144  1  0.07451898  0.18100701  0.08924971  1
  O2-  O145  1  0.06887683  0.17702499  0.42980509  1
  O2-  O146  1  0.07078249  0.17943714  0.76855935  1
  O2-  O147  1  0.07023686  0.67996476  0.10007633  1
  O2-  O148  1  0.07704682  0.68340002  0.42470258  1
  O2-  O149  1  0.07917964  0.67742881  0.75451173  1
  O2-  O150  1  0.56742010  0.18057152  0.09033226  1
  O2-  O151  1  0.57113969  0.17383328  0.41974328  1
  O2-  O152  1  0.56977171  0.17825057  0.76719233  1
  O2-  O153  1  0.57026943  0.67640534  0.08836960  1
  O2-  O154  1  0.57059916  0.67952484  0.42067698  1
  O2-  O155  1  0.56745024  0.68079981  0.76584487  1
  O2-  O156  1  0.18106299  0.42562471  0.24626059  1
  O2-  O157  1  0.18423500  0.42772614  0.57527427  1
  O2-  O158  1  0.18119332  0.42667165  0.89970635  1
  O2-  O159  1  0.18176219  0.92826266  0.24372723  1
  O2-  O160  1  0.18136801  0.93001389  0.56660975  1
  O2-  O161  1  0.18040175  0.92948610  0.90274045  1
  O2-  O162  1  0.67682468  0.42976016  0.24524705  1
  O2-  O163  1  0.67575124  0.43171823  0.56655821  1
  O2-  O164  1  0.67822823  0.42706595  0.90337641  1
  O2-  O165  1  0.67449475  0.93262797  0.24410475  1
  O2-  O166  1  0.67416844  0.92910409  0.57338775  1
  O2-  O167  1  0.67609577  0.93346912  0.89972068  1
  O2-  O168  1  0.42643593  0.32042488  0.09006087  1
  O2-  O169  1  0.43260827  0.31809635  0.43254699  1
  O2-  O170  1  0.42426078  0.32208338  0.75728811  1
  O2-  O171  1  0.42812047  0.81897215  0.09739904  1
  O2-  O172  1  0.43027391  0.81863791  0.43370582  1
  O2-  O173  1  0.42473077  0.82018443  0.75491406  1
  O2-  O174  1  0.93171168  0.31904783  0.09078890  1
  O2-  O175  1  0.92869569  0.32099941  0.42942612  1
  O2-  O176  1  0.92931321  0.32238229  0.76794584  1
  O2-  O177  1  0.92957563  0.82219312  0.08978416  1
  O2-  O178  1  0.93016487  0.82312014  0.43129099  1
  O2-  O179  1  0.93273298  0.82091645  0.76961167  1
  O2-  O180  1  0.32418956  0.07024982  0.24376060  1
  O2-  O181  1  0.32556281  0.07422880  0.57746210  1
  O2-  O182  1  0.32130309  0.07405512  0.91153159  1
  O2-  O183  1  0.31692821  0.57126891  0.23388079  1
  O2-  O184  1  0.32152566  0.57163297  0.57810133  1
  O2-  O185  1  0.32106833  0.56881761  0.90882034  1
  O2-  O186  1  0.81939271  0.06729335  0.24449646  1
  O2-  O187  1  0.81962014  0.06765168  0.56336960  1
  O2-  O188  1  0.82193404  0.07428025  0.90337108  1
  O2-  O189  1  0.81890720  0.57248747  0.23672597  1
  O2-  O190  1  0.81997579  0.57423090  0.56779106  1
  O2-  O191  1  0.82170475  0.56957283  0.90155797  1
  O2-  O192  1  0.04015633  0.08142666  0.26144823  1
  O2-  O193  1  0.04302683  0.07959052  0.60227299  1
  O2-  O194  1  0.04687646  0.08343271  0.94169363  1
  O2-  O195  1  0.05528072  0.58164126  0.27770502  1
  O2-  O196  1  0.05786758  0.58229310  0.60238256  1
  O2-  O197  1  0.04044947  0.58016132  0.93307184  1
  O2-  O198  1  0.54072734  0.08442044  0.26716419  1
  O2-  O199  1  0.53935776  0.08390244  0.59587829  1
  O2-  O200  1  0.54066756  0.09236784  0.93539833  1
  O2-  O201  1  0.54818018  0.58287725  0.27089159  1
  O2-  O202  1  0.53527976  0.58521817  0.59752274  1
  O2-  O203  1  0.54371462  0.58593232  0.93546989  1
  O2-  O204  1  0.17145177  0.20061849  0.26423871  1
  O2-  O205  1  0.17056829  0.20433366  0.60146029  1
  O2-  O206  1  0.16327499  0.20759541  0.93670262  1
  O2-  O207  1  0.16390078  0.70995773  0.27084894  1
  O2-  O208  1  0.16808427  0.70761214  0.60259700  1
  O2-  O209  1  0.16373335  0.70893432  0.93032366  1
  O2-  O210  1  0.66725015  0.19632839  0.26868723  1
  O2-  O211  1  0.66593295  0.20835717  0.59542495  1
  O2-  O212  1  0.66454625  0.20825990  0.94054121  1
  O2-  O213  1  0.66344718  0.70605157  0.26825401  1
  O2-  O214  1  0.66509429  0.70957500  0.59494016  1
  O2-  O215  1  0.66753941  0.70327854  0.93788172  1
  O2-  O216  1  0.08489536  0.45892490  0.06960168  1
  O2-  O217  1  0.08657506  0.44959974  0.39863789  1
  O2-  O218  1  0.08918224  0.45478818  0.72810614  1
  O2-  O219  1  0.08635108  0.95787874  0.07287100  1
  O2-  O220  1  0.08577190  0.95810153  0.39311810  1
  O2-  O221  1  0.08513556  0.96055083  0.73771732  1
  O2-  O222  1  0.57684791  0.45697058  0.06799872  1
  O2-  O223  1  0.58536679  0.45215590  0.39697751  1
  O2-  O224  1  0.58047992  0.45914634  0.73364626  1
  O2-  O225  1  0.57994840  0.96462091  0.06725529  1
  O2-  O226  1  0.58509911  0.95870832  0.39730186  1
  O2-  O227  1  0.57930469  0.95159343  0.72355034  1
  O2-  O228  1  0.21131678  0.33208411  0.06873502  1
  O2-  O229  1  0.20888111  0.33079404  0.39562668  1
  O2-  O230  1  0.21013847  0.33687572  0.72882271  1
  O2-  O231  1  0.21314170  0.83055717  0.06795311  1
  O2-  O232  1  0.20871771  0.83949106  0.39770268  1
  O2-  O233  1  0.21156722  0.83416892  0.73542052  1
  O2-  O234  1  0.70165091  0.33144066  0.07205153  1
  O2-  O235  1  0.70073089  0.32906554  0.39177955  1
  O2-  O236  1  0.70367079  0.32974848  0.73142912  1
  O2-  O237  1  0.69690748  0.83079643  0.06850649  1
  O2-  O238  1  0.70175970  0.83626385  0.39366103  1
  O2-  O239  1  0.69938182  0.83418014  0.72447728  1
  O2-  O240  1  0.45924699  0.41792489  0.26435588  1
  O2-  O241  1  0.45198183  0.41715003  0.60599066  1
  O2-  O242  1  0.44923667  0.41670455  0.93906801  1
  O2-  O243  1  0.45783538  0.91575491  0.26594466  1
  O2-  O244  1  0.44441817  0.91730582  0.60463212  1
  O2-  O245  1  0.45576437  0.92099388  0.93136254  1
  O2-  O246  1  0.95756878  0.42264987  0.26542990  1
  O2-  O247  1  0.95955963  0.42096773  0.60026919  1
  O2-  O248  1  0.95942323  0.41007743  0.93922547  1
  O2-  O249  1  0.96118023  0.91293232  0.26117746  1
  O2-  O250  1  0.96564775  0.91338468  0.60063934  1
  O2-  O251  1  0.95738317  0.91766076  0.94156835  1
  O2-  O252  1  0.33657694  0.28860287  0.26338316  1
  O2-  O253  1  0.33575223  0.29686757  0.60206667  1
  O2-  O254  1  0.33724253  0.29026183  0.93650740  1
  O2-  O255  1  0.33144900  0.78765592  0.26781182  1
  O2-  O256  1  0.33349180  0.79101865  0.60314817  1
  O2-  O257  1  0.33443568  0.78827658  0.92813987  1
  O2-  O258  1  0.83101295  0.29198252  0.26244543  1
  O2-  O259  1  0.83077345  0.29558137  0.59882565  1
  O2-  O260  1  0.83480306  0.29254867  0.94237717  1
  O2-  O261  1  0.82967081  0.79254766  0.26494295  1
  O2-  O262  1  0.83332154  0.79451486  0.60000967  1
  O2-  O263  1  0.83037994  0.80410530  0.94162094  1
  O2-  O264  1  0.41668249  0.05112675  0.06250591  1
  O2-  O265  1  0.41326595  0.04050861  0.39713240  1
  O2-  O266  1  0.41690002  0.04761195  0.73035408  1
  O2-  O267  1  0.41466543  0.55032177  0.06134413  1
  O2-  O268  1  0.41826575  0.54029803  0.40051876  1
  O2-  O269  1  0.41207489  0.54288647  0.73224841  1
  O2-  O270  1  0.92096276  0.04684913  0.07242135  1
  O2-  O271  1  0.91328229  0.03758693  0.39390589  1
  O2-  O272  1  0.91413898  0.03697050  0.73342738  1
  O2-  O273  1  0.91836745  0.54020282  0.06933234  1
  O2-  O274  1  0.92069373  0.54628957  0.40241102  1
  O2-  O275  1  0.92599119  0.55287710  0.72970413  1
  O2-  O276  1  0.29348108  0.16466590  0.06447648  1
  O2-  O277  1  0.29837216  0.16428177  0.39574734  1
  O2-  O278  1  0.30112837  0.16886272  0.72937315  1
  O2-  O279  1  0.29168216  0.66475138  0.05909110  1
  O2-  O280  1  0.28800991  0.66553617  0.40461166  1
  O2-  O281  1  0.29488167  0.66299535  0.73127555  1
  O2-  O282  1  0.78928209  0.16688438  0.07363528  1
  O2-  O283  1  0.79442058  0.16182983  0.39454672  1
  O2-  O284  1  0.78970963  0.16629533  0.73022076  1
  O2-  O285  1  0.79566510  0.67061893  0.06751907  1
  O2-  O286  1  0.78702603  0.66823357  0.40152247  1
  O2-  O287  1  0.79019070  0.67148009  0.73350783  1
