# generated using pymatgen
data_Ca2Al2SiO7
_symmetry_space_group_name_H-M   'P 1'
_cell_length_a   15.46153888
_cell_length_b   15.46124128
_cell_length_c   15.28602537
_cell_angle_alpha   90.01220440
_cell_angle_beta   90.00599110
_cell_angle_gamma   90.03090960
_symmetry_Int_Tables_number   1
_chemical_formula_structural   Ca2Al2SiO7
_chemical_formula_sum   'Ca48 Al48 Si24 O168'
_cell_volume   3654.19378913
_cell_formula_units_Z   24
loop_
 _symmetry_equiv_pos_site_id
 _symmetry_equiv_pos_as_xyz
  1  'x, y, z'
loop_
 _atom_type_symbol
 _atom_type_oxidation_number
  Ca2+  2.0
  Al0+  0.0
  Si0+  0.0
  O2-  -2.0
loop_
 _atom_site_type_symbol
 _atom_site_label
 _atom_site_symmetry_multiplicity
 _atom_site_fract_x
 _atom_site_fract_y
 _atom_site_fract_z
 _atom_site_occupancy
  Ca2+  Ca0  1  0.16661302  0.07499735  0.16576647  1
  Ca2+  Ca1  1  0.17034781  0.07699260  0.50688902  1
  Ca2+  Ca2  1  0.16367312  0.07035319  0.83669994  1
  Ca2+  Ca3  1  0.17597929  0.58747139  0.17508659  1
  Ca2+  Ca4  1  0.16742152  0.57871326  0.49748535  1
  Ca2+  Ca5  1  0.17182314  0.57897505  0.83650382  1
  Ca2+  Ca6  1  0.66721948  0.07467455  0.16966553  1
  Ca2+  Ca7  1  0.66597185  0.07477080  0.50260440  1
  Ca2+  Ca8  1  0.67790006  0.07495433  0.83621589  1
  Ca2+  Ca9  1  0.67140600  0.57464374  0.16952536  1
  Ca2+  Ca10  1  0.67058883  0.57438068  0.51054231  1
  Ca2+  Ca11  1  0.67238726  0.57912529  0.83617964  1
  Ca2+  Ca12  1  0.07811499  0.33826856  0.16689623  1
  Ca2+  Ca13  1  0.07253536  0.34491898  0.49519095  1
  Ca2+  Ca14  1  0.07617081  0.33188616  0.82161082  1
  Ca2+  Ca15  1  0.07981909  0.82705635  0.15763684  1
  Ca2+  Ca16  1  0.08236545  0.82774673  0.49370245  1
  Ca2+  Ca17  1  0.07864638  0.83763336  0.83222229  1
  Ca2+  Ca18  1  0.59571853  0.32979563  0.16519299  1
  Ca2+  Ca19  1  0.59400108  0.32760027  0.49248078  1
  Ca2+  Ca20  1  0.58833228  0.33890858  0.82884973  1
  Ca2+  Ca21  1  0.57443909  0.83934850  0.16032760  1
  Ca2+  Ca22  1  0.58498805  0.82934088  0.49376137  1
  Ca2+  Ca23  1  0.58280212  0.83295948  0.82722230  1
  Ca2+  Ca24  1  0.32882465  0.43295862  0.17550695  1
  Ca2+  Ca25  1  0.32270710  0.42066661  0.50300246  1
  Ca2+  Ca26  1  0.32801734  0.42279459  0.83929562  1
  Ca2+  Ca27  1  0.33171742  0.90599300  0.16947063  1
  Ca2+  Ca28  1  0.33004951  0.91177152  0.50104822  1
  Ca2+  Ca29  1  0.32229688  0.90703952  0.83783099  1
  Ca2+  Ca30  1  0.82812104  0.41800239  0.17013007  1
  Ca2+  Ca31  1  0.82933819  0.41752255  0.50679136  1
  Ca2+  Ca32  1  0.82734078  0.42582186  0.83513738  1
  Ca2+  Ca33  1  0.82550879  0.91608256  0.16678411  1
  Ca2+  Ca34  1  0.82061986  0.92218573  0.50977253  1
  Ca2+  Ca35  1  0.82433381  0.92071121  0.84376082  1
  Ca2+  Ca36  1  0.42589095  0.16823735  0.16477616  1
  Ca2+  Ca37  1  0.42509220  0.17022937  0.49099826  1
  Ca2+  Ca38  1  0.42021314  0.17003804  0.82922763  1
  Ca2+  Ca39  1  0.41218444  0.67250894  0.16140495  1
  Ca2+  Ca40  1  0.42274229  0.67026047  0.49489844  1
  Ca2+  Ca41  1  0.42436378  0.66654835  0.83224777  1
  Ca2+  Ca42  1  0.91088186  0.17184952  0.16322258  1
  Ca2+  Ca43  1  0.90744018  0.17883568  0.49887790  1
  Ca2+  Ca44  1  0.90755853  0.17019837  0.82635267  1
  Ca2+  Ca45  1  0.92262734  0.66720935  0.16024833  1
  Ca2+  Ca46  1  0.92318755  0.66102429  0.49565555  1
  Ca2+  Ca47  1  0.90551964  0.67008740  0.83152498  1
  Al0+  Al48  1  0.00117503  -0.00096999  0.00494269  1
  Al0+  Al49  1  -0.00037848  0.00260804  0.33453679  1
  Al0+  Al50  1  0.00176389  0.00115328  0.67029455  1
  Al0+  Al51  1  -0.00028916  0.49811483  -0.00041563  1
  Al0+  Al52  1  0.00110407  0.50083401  0.32462411  1
  Al0+  Al53  1  0.00102675  0.50064777  0.67056261  1
  Al0+  Al54  1  0.49844017  0.00191683  -0.00624909  1
  Al0+  Al55  1  0.50038660  0.00070124  0.32921812  1
  Al0+  Al56  1  0.49779081  0.00192954  0.66840587  1
  Al0+  Al57  1  0.49791119  0.49900409  0.00746156  1
  Al0+  Al58  1  0.50028296  0.50039518  0.34191257  1
  Al0+  Al59  1  0.49881240  0.50157725  0.66375793  1
  Al0+  Al60  1  0.25007905  0.24818916  -0.00207130  1
  Al0+  Al61  1  0.24919298  0.24903883  0.33512705  1
  Al0+  Al62  1  0.24962364  0.25002901  0.66909342  1
  Al0+  Al63  1  0.24997470  0.74888402  0.00118326  1
  Al0+  Al64  1  0.25016412  0.74937779  0.33182972  1
  Al0+  Al65  1  0.24973543  0.75008793  0.66908241  1
  Al0+  Al66  1  0.75084709  0.24813748  0.00289208  1
  Al0+  Al67  1  0.75157390  0.24990968  0.32643485  1
  Al0+  Al68  1  0.74875867  0.24977076  0.66795448  1
  Al0+  Al69  1  0.75002754  0.74840547  0.00486607  1
  Al0+  Al70  1  0.74973743  0.75024598  0.33638649  1
  Al0+  Al71  1  0.74855087  0.74977885  0.66597475  1
  Al0+  Al72  1  0.82213947  0.06996760  0.01697548  1
  Al0+  Al73  1  0.92875917  0.81989990  0.98689011  1
  Al0+  Al74  1  0.42883580  0.82095034  0.98404449  1
  Al0+  Al75  1  0.31887380  0.56954132  0.01309775  1
  Al0+  Al76  1  0.92988575  0.32036570  0.65383279  1
  Al0+  Al77  1  0.67737249  0.42877895  0.68002675  1
  Al0+  Al78  1  0.57026623  0.18102515  0.31856427  1
  Al0+  Al79  1  0.32153471  0.57437731  0.35168457  1
  Al0+  Al80  1  0.67577359  0.92814532  0.01494623  1
  Al0+  Al81  1  0.43192006  0.81889876  0.32052136  1
  Al0+  Al82  1  0.57211916  0.67945857  0.65277354  1
  Al0+  Al83  1  0.82321821  0.57192989  0.01717103  1
  Al0+  Al84  1  0.17913449  0.42920453  0.68068818  1
  Al0+  Al85  1  0.67788646  0.92950595  0.34709016  1
  Al0+  Al86  1  0.17785843  0.42850047  0.34722041  1
  Al0+  Al87  1  0.93147310  0.31957119  0.31806282  1
  Al0+  Al88  1  0.67652507  0.92786882  0.68102310  1
  Al0+  Al89  1  0.82296379  0.57179615  0.67984031  1
  Al0+  Al90  1  0.18137661  0.92942380  0.01507614  1
  Al0+  Al91  1  0.67914599  0.42917077  0.01559251  1
  Al0+  Al92  1  0.68171365  0.42837954  0.34793591  1
  Al0+  Al93  1  0.82039083  0.07086181  0.67943527  1
  Al0+  Al94  1  0.18021992  0.92819303  0.67913816  1
  Al0+  Al95  1  0.06906274  0.68162299  0.31967384  1
  Si0+  Si96  1  0.07380420  0.17693458  0.64928224  1
  Si0+  Si97  1  0.92879760  0.31939147  0.98231475  1
  Si0+  Si98  1  0.07549893  0.17461029  0.31537150  1
  Si0+  Si99  1  0.07190982  0.67703934  0.98105724  1
  Si0+  Si100  1  0.92915659  0.82318710  0.65262861  1
  Si0+  Si101  1  0.42851422  0.32112321  0.98558326  1
  Si0+  Si102  1  0.42563401  0.32313294  0.31754214  1
  Si0+  Si103  1  0.82236395  0.07222653  0.35036007  1
  Si0+  Si104  1  0.17875312  0.92949730  0.34719154  1
  Si0+  Si105  1  0.57097619  0.67549791  0.98570771  1
  Si0+  Si106  1  0.32199271  0.07344723  0.68352983  1
  Si0+  Si107  1  0.07230146  0.68022486  0.65237596  1
  Si0+  Si108  1  0.92633016  0.82541461  0.31847709  1
  Si0+  Si109  1  0.56893927  0.18058714  0.65167015  1
  Si0+  Si110  1  0.57423961  0.67536706  0.31633969  1
  Si0+  Si111  1  0.32172581  0.57202098  0.68404007  1
  Si0+  Si112  1  0.57197136  0.18034526  0.98170020  1
  Si0+  Si113  1  0.32176046  0.07081506  0.34690347  1
  Si0+  Si114  1  0.07232604  0.17854612  0.98404612  1
  Si0+  Si115  1  0.82313243  0.57216375  0.34905184  1
  Si0+  Si116  1  0.42721794  0.82192226  0.65033147  1
  Si0+  Si117  1  0.17790469  0.42472375  0.01556131  1
  Si0+  Si118  1  0.32217235  0.07447897  0.01680508  1
  Si0+  Si119  1  0.42607469  0.32224757  0.65122736  1
  O2-  O120  1  0.25888216  0.00142904  0.06178303  1
  O2-  O121  1  0.24871801  0.00169848  0.38920317  1
  O2-  O122  1  0.25436509  0.00337723  0.72615471  1
  O2-  O123  1  0.24294562  0.49604073  0.05937029  1
  O2-  O124  1  0.25147661  0.49832618  0.39823653  1
  O2-  O125  1  0.25489251  0.50167084  0.72827198  1
  O2-  O126  1  0.74979609  -0.00219213  0.06562680  1
  O2-  O127  1  0.75659704  0.00049128  0.39322103  1
  O2-  O128  1  0.75339797  -0.00510733  0.73004547  1
  O2-  O129  1  0.75125833  0.50004902  0.06658721  1
  O2-  O130  1  0.75277925  0.50618575  0.39420283  1
  O2-  O131  1  0.74848309  0.50161738  0.72871063  1
  O2-  O132  1  0.00794319  0.24491742  0.27242603  1
  O2-  O133  1  0.00514149  0.24551876  0.60579032  1
  O2-  O134  1  0.00130492  0.24897793  0.94122680  1
  O2-  O135  1  -0.00547159  0.75668923  0.27398397  1
  O2-  O136  1  -0.00075802  0.75030519  0.61082700  1
  O2-  O137  1  0.00012423  0.74250102  0.93693379  1
  O2-  O138  1  0.49811584  0.25916998  0.27179732  1
  O2-  O139  1  0.49940375  0.25348347  0.60928390  1
  O2-  O140  1  0.50158595  0.25337374  0.94091371  1
  O2-  O141  1  0.50598535  0.74439419  0.27215632  1
  O2-  O142  1  0.49977093  0.75792807  0.60663148  1
  O2-  O143  1  0.50780540  0.74947167  0.94000571  1
  O2-  O144  1  0.07570127  0.18130852  0.08909177  1
  O2-  O145  1  0.07673323  0.16873366  0.42037384  1
  O2-  O146  1  0.07623313  0.17775268  0.75499805  1
  O2-  O147  1  0.07329051  0.67949695  0.08675334  1
  O2-  O148  1  0.06852378  0.68310281  0.43357871  1
  O2-  O149  1  0.07676540  0.68170200  0.75711840  1
  O2-  O150  1  0.56981941  0.17976523  0.08685550  1
  O2-  O151  1  0.56762171  0.18018350  0.43212145  1
  O2-  O152  1  0.56591380  0.18015524  0.75677099  1
  O2-  O153  1  0.56651625  0.67299333  0.09121746  1
  O2-  O154  1  0.57422961  0.67778421  0.42201388  1
  O2-  O155  1  0.56821327  0.67701163  0.76596433  1
  O2-  O156  1  0.18029580  0.42943820  0.23348408  1
  O2-  O157  1  0.17950300  0.43104994  0.56802512  1
  O2-  O158  1  0.18066844  0.42341637  0.90970161  1
  O2-  O159  1  0.17929248  0.93037465  0.24230512  1
  O2-  O160  1  0.18219743  0.92823796  0.56539971  1
  O2-  O161  1  0.18127867  0.93146303  0.90188015  1
  O2-  O162  1  0.68452411  0.42848527  0.23513565  1
  O2-  O163  1  0.68021414  0.42740159  0.56649298  1
  O2-  O164  1  0.67885992  0.43015492  0.90211068  1
  O2-  O165  1  0.67650660  0.93191186  0.23446761  1
  O2-  O166  1  0.67549270  0.93138114  0.56707475  1
  O2-  O167  1  0.67629380  0.93115060  0.90138815  1
  O2-  O168  1  0.42476489  0.31758628  0.09017792  1
  O2-  O169  1  0.42267219  0.31716223  0.42317964  1
  O2-  O170  1  0.42430481  0.32011107  0.75668376  1
  O2-  O171  1  0.42787445  0.81896186  0.09714120  1
  O2-  O172  1  0.43151662  0.82003800  0.43391615  1
  O2-  O173  1  0.42447579  0.81918744  0.75572059  1
  O2-  O174  1  0.93037977  0.31913143  0.08753580  1
  O2-  O175  1  0.93084309  0.31894351  0.43133940  1
  O2-  O176  1  0.93177945  0.31862187  0.76702612  1
  O2-  O177  1  0.93364510  0.82026403  0.10013595  1
  O2-  O178  1  0.92935524  0.82665898  0.42441794  1
  O2-  O179  1  0.93110930  0.82378807  0.75760586  1
  O2-  O180  1  0.32146768  0.07141491  0.24188682  1
  O2-  O181  1  0.32268337  0.07481462  0.57769249  1
  O2-  O182  1  0.31813714  0.07957991  0.91146213  1
  O2-  O183  1  0.31855825  0.57520028  0.23799212  1
  O2-  O184  1  0.31987931  0.57316479  0.57885869  1
  O2-  O185  1  0.31915410  0.56617312  0.89962638  1
  O2-  O186  1  0.82308995  0.07122807  0.24497553  1
  O2-  O187  1  0.81718188  0.07079994  0.56561809  1
  O2-  O188  1  0.81992291  0.07152025  0.90345604  1
  O2-  O189  1  0.82242870  0.57165598  0.24362899  1
  O2-  O190  1  0.82518635  0.56922680  0.56602040  1
  O2-  O191  1  0.82296502  0.56922109  0.90378124  1
  O2-  O192  1  0.04767249  0.08186183  0.26699042  1
  O2-  O193  1  0.05050196  0.08237332  0.60332339  1
  O2-  O194  1  0.04571798  0.08568120  0.93888852  1
  O2-  O195  1  0.04129053  0.58677736  0.26140510  1
  O2-  O196  1  0.04473010  0.58832773  0.60540905  1
  O2-  O197  1  0.05125608  0.58076525  0.93751365  1
  O2-  O198  1  0.53389602  0.08749097  0.26235335  1
  O2-  O199  1  0.53805059  0.08941648  0.60334736  1
  O2-  O200  1  0.54119645  0.09104202  0.93119452  1
  O2-  O201  1  0.54861290  0.58038492  0.27322337  1
  O2-  O202  1  0.53813835  0.58414901  0.59645133  1
  O2-  O203  1  0.53740382  0.58381821  0.93895694  1
  O2-  O204  1  0.16974298  0.19794151  0.26867042  1
  O2-  O205  1  0.16846141  0.20157158  0.60377627  1
  O2-  O206  1  0.16389237  0.20551885  0.93422216  1
  O2-  O207  1  0.16458563  0.71449834  0.26525709  1
  O2-  O208  1  0.16309576  0.71057615  0.60330693  1
  O2-  O209  1  0.16413721  0.70649341  0.93460808  1
  O2-  O210  1  0.66608951  0.20919781  0.26250440  1
  O2-  O211  1  0.66039307  0.20689833  0.60364291  1
  O2-  O212  1  0.66425610  0.20782894  0.93552672  1
  O2-  O213  1  0.66905237  0.69965803  0.27188295  1
  O2-  O214  1  0.66890813  0.70653101  0.59624042  1
  O2-  O215  1  0.66712754  0.69458273  0.94317200  1
  O2-  O216  1  0.08287719  0.44640175  0.05871060  1
  O2-  O217  1  0.07991556  0.46241023  0.39770120  1
  O2-  O218  1  0.08522999  0.46149025  0.73741535  1
  O2-  O219  1  0.08759644  0.96310332  0.07147565  1
  O2-  O220  1  0.08650982  0.95594074  0.39501464  1
  O2-  O221  1  0.08509336  0.95919676  0.73524631  1
  O2-  O222  1  0.58023441  0.45329265  0.06929421  1
  O2-  O223  1  0.58288743  0.45070211  0.40110280  1
  O2-  O224  1  0.57704188  0.45491440  0.73037564  1
  O2-  O225  1  0.57682916  0.96169747  0.06435683  1
  O2-  O226  1  0.58246921  0.96557032  0.40033208  1
  O2-  O227  1  0.57842448  0.95895695  0.73273012  1
  O2-  O228  1  0.20565144  0.33170718  0.06114754  1
  O2-  O229  1  0.20164309  0.32810854  0.39950826  1
  O2-  O230  1  0.20816335  0.33189285  0.73457687  1
  O2-  O231  1  0.21016667  0.83253875  0.06807083  1
  O2-  O232  1  0.20887813  0.83929980  0.39518359  1
  O2-  O233  1  0.21132349  0.83302066  0.73552466  1
  O2-  O234  1  0.70915890  0.33073491  0.06663168  1
  O2-  O235  1  0.71551650  0.33086285  0.39835962  1
  O2-  O236  1  0.70456940  0.33088859  0.73314660  1
  O2-  O237  1  0.69940171  0.82886215  0.06690923  1
  O2-  O238  1  0.70536798  0.83173145  0.40104638  1
  O2-  O239  1  0.70050800  0.82847942  0.73150048  1
  O2-  O240  1  0.44727528  0.41970090  0.27694390  1
  O2-  O241  1  0.44836651  0.41504770  0.60437602  1
  O2-  O242  1  0.45396822  0.41385658  0.93893911  1
  O2-  O243  1  0.45948783  0.91586393  0.26550516  1
  O2-  O244  1  0.44580339  0.91888765  0.60755416  1
  O2-  O245  1  0.45134071  0.92012915  0.93004000  1
  O2-  O246  1  0.96205933  0.41453364  0.26065499  1
  O2-  O247  1  0.96281346  0.41749369  0.60137670  1
  O2-  O248  1  0.95583347  0.41179973  0.93549636  1
  O2-  O249  1  0.95190703  0.91942815  0.27315861  1
  O2-  O250  1  0.95991858  0.91426758  0.60468916  1
  O2-  O251  1  0.96417521  0.91650185  0.93442379  1
  O2-  O252  1  0.33379735  0.29294240  0.26979262  1
  O2-  O253  1  0.33550810  0.29042335  0.60282574  1
  O2-  O254  1  0.33796827  0.29021874  0.93526996  1
  O2-  O255  1  0.33456902  0.78931492  0.26713410  1
  O2-  O256  1  0.33466667  0.79184865  0.60320853  1
  O2-  O257  1  0.33266008  0.78558786  0.93091909  1
  O2-  O258  1  0.83755343  0.28607664  0.26071011  1
  O2-  O259  1  0.83294293  0.28798715  0.60011671  1
  O2-  O260  1  0.83715638  0.28926915  0.93636209  1
  O2-  O261  1  0.83212816  0.80036160  0.27374529  1
  O2-  O262  1  0.83677352  0.79831034  0.60525484  1
  O2-  O263  1  0.83018096  0.79207913  0.93431177  1
  O2-  O264  1  0.41787912  0.05402913  0.05881833  1
  O2-  O265  1  0.41179376  0.04073745  0.39568335  1
  O2-  O266  1  0.41493734  0.05011595  0.73136327  1
  O2-  O267  1  0.41246314  0.53761500  0.07102344  1
  O2-  O268  1  0.41999129  0.54883460  0.40506742  1
  O2-  O269  1  0.41494376  0.54614902  0.72956104  1
  O2-  O270  1  0.92075621  0.04494819  0.07016985  1
  O2-  O271  1  0.91771178  0.05249273  0.39648539  1
  O2-  O272  1  0.92143841  0.05142425  0.72994058  1
  O2-  O273  1  0.92266996  0.54218464  0.06815083  1
  O2-  O274  1  0.91695938  0.54381971  0.39201968  1
  O2-  O275  1  0.91992871  0.54477705  0.73550472  1
  O2-  O276  1  0.29170415  0.16570789  0.06582531  1
  O2-  O277  1  0.29606876  0.16221180  0.39657241  1
  O2-  O278  1  0.29640471  0.16602401  0.73164139  1
  O2-  O279  1  0.28785345  0.66509184  0.06755609  1
  O2-  O280  1  0.28747497  0.67093441  0.40525253  1
  O2-  O281  1  0.29348507  0.66431539  0.73088704  1
  O2-  O282  1  0.79172644  0.16740090  0.06992696  1
  O2-  O283  1  0.79170899  0.16474640  0.39436605  1
  O2-  O284  1  0.78646560  0.16626694  0.73435823  1
  O2-  O285  1  0.79838687  0.66992339  0.07146689  1
  O2-  O286  1  0.80292712  0.66719333  0.39490781  1
  O2-  O287  1  0.79511248  0.67046623  0.73138709  1
