# generated using pymatgen
data_Ca2Al2SiO7
_symmetry_space_group_name_H-M   'P 1'
_cell_length_a   15.46002443
_cell_length_b   15.45970581
_cell_length_c   15.28516686
_cell_angle_alpha   89.99891917
_cell_angle_beta   90.00609542
_cell_angle_gamma   89.99383241
_symmetry_Int_Tables_number   1
_chemical_formula_structural   Ca2Al2SiO7
_chemical_formula_sum   'Ca48 Al48 Si24 O168'
_cell_volume   3653.26839609
_cell_formula_units_Z   24
loop_
 _symmetry_equiv_pos_site_id
 _symmetry_equiv_pos_as_xyz
  1  'x, y, z'
loop_
 _atom_type_symbol
 _atom_type_oxidation_number
  Ca2+  2.0
  Al0+  0.0
  Si0+  0.0
  O2-  -2.0
loop_
 _atom_site_type_symbol
 _atom_site_label
 _atom_site_symmetry_multiplicity
 _atom_site_fract_x
 _atom_site_fract_y
 _atom_site_fract_z
 _atom_site_occupancy
  Ca2+  Ca0  1  0.16926191  0.08039195  0.16710036  1
  Ca2+  Ca1  1  0.17540495  0.08162797  0.50559279  1
  Ca2+  Ca2  1  0.16413921  0.07576170  0.84120633  1
  Ca2+  Ca3  1  0.16982040  0.58121270  0.16577340  1
  Ca2+  Ca4  1  0.16769047  0.58436034  0.50417606  1
  Ca2+  Ca5  1  0.17591847  0.57455658  0.84510776  1
  Ca2+  Ca6  1  0.66719626  0.08314526  0.17119181  1
  Ca2+  Ca7  1  0.66297987  0.07667089  0.50800232  1
  Ca2+  Ca8  1  0.67458237  0.09306118  0.83641622  1
  Ca2+  Ca9  1  0.66514161  0.58420805  0.16742402  1
  Ca2+  Ca10  1  0.67161521  0.57688463  0.51492563  1
  Ca2+  Ca11  1  0.66081422  0.57858108  0.83345655  1
  Ca2+  Ca12  1  0.07858535  0.32629862  0.15472135  1
  Ca2+  Ca13  1  0.07382439  0.33513674  0.49895145  1
  Ca2+  Ca14  1  0.07698857  0.33262964  0.83303618  1
  Ca2+  Ca15  1  0.08166732  0.83124394  0.15683876  1
  Ca2+  Ca16  1  0.08416263  0.82892023  0.49774926  1
  Ca2+  Ca17  1  0.07809195  0.84406947  0.83205371  1
  Ca2+  Ca18  1  0.57845375  0.32070503  0.16261181  1
  Ca2+  Ca19  1  0.57978905  0.32395148  0.49966612  1
  Ca2+  Ca20  1  0.58331896  0.32450790  0.82401806  1
  Ca2+  Ca21  1  0.57775334  0.83201887  0.15621353  1
  Ca2+  Ca22  1  0.59600356  0.83083531  0.49930159  1
  Ca2+  Ca23  1  0.58377236  0.82409725  0.82969757  1
  Ca2+  Ca24  1  0.33231464  0.41692891  0.16768487  1
  Ca2+  Ca25  1  0.33848879  0.41197913  0.50442987  1
  Ca2+  Ca26  1  0.33400741  0.41982502  0.84264153  1
  Ca2+  Ca27  1  0.33285280  0.91990646  0.16755000  1
  Ca2+  Ca28  1  0.32903869  0.92403552  0.50321652  1
  Ca2+  Ca29  1  0.32205022  0.90953089  0.83954112  1
  Ca2+  Ca30  1  0.83403329  0.41440709  0.16595895  1
  Ca2+  Ca31  1  0.82707884  0.42151772  0.51357083  1
  Ca2+  Ca32  1  0.83380968  0.41610610  0.83366860  1
  Ca2+  Ca33  1  0.83013071  0.92116291  0.16630105  1
  Ca2+  Ca34  1  0.82099273  0.92419929  0.50928914  1
  Ca2+  Ca35  1  0.82944393  0.92848648  0.83780592  1
  Ca2+  Ca36  1  0.42610604  0.15988961  0.16468544  1
  Ca2+  Ca37  1  0.42401432  0.17284726  0.49315849  1
  Ca2+  Ca38  1  0.42868698  0.17056420  0.82582425  1
  Ca2+  Ca39  1  0.42152711  0.67309016  0.15430266  1
  Ca2+  Ca40  1  0.42514695  0.66842063  0.50106365  1
  Ca2+  Ca41  1  0.42323985  0.66631720  0.83466052  1
  Ca2+  Ca42  1  0.92104953  0.16930635  0.15095383  1
  Ca2+  Ca43  1  0.90805794  0.17012600  0.50556074  1
  Ca2+  Ca44  1  0.91540948  0.17124290  0.83169307  1
  Ca2+  Ca45  1  0.92312274  0.67572078  0.16043150  1
  Ca2+  Ca46  1  0.92075899  0.66511944  0.49598079  1
  Ca2+  Ca47  1  0.91242803  0.67395859  0.82936330  1
  Al0+  Al48  1  -0.00036485  0.00015919  0.00242581  1
  Al0+  Al49  1  -0.00188490  -0.00016583  0.33599160  1
  Al0+  Al50  1  -0.00021101  -0.00021551  0.66908337  1
  Al0+  Al51  1  -0.00065475  0.50049822  0.00235396  1
  Al0+  Al52  1  0.00189259  0.50100515  0.32805766  1
  Al0+  Al53  1  0.00135823  0.50039458  0.66649170  1
  Al0+  Al54  1  0.49925419  -0.00206988  -0.01153206  1
  Al0+  Al55  1  0.49948083  -0.00104358  0.33946054  1
  Al0+  Al56  1  0.49700026  -0.00201013  0.66753602  1
  Al0+  Al57  1  0.50142010  0.49990497  0.00423732  1
  Al0+  Al58  1  0.49903510  0.49985724  0.33079647  1
  Al0+  Al59  1  0.50048890  0.50253969  0.66259149  1
  Al0+  Al60  1  0.24968448  0.24855382  0.00125803  1
  Al0+  Al61  1  0.24763786  0.25190712  0.33541769  1
  Al0+  Al62  1  0.24884350  0.24959225  0.66384042  1
  Al0+  Al63  1  0.25063596  0.74888815  0.00589445  1
  Al0+  Al64  1  0.25059593  0.74687387  0.33044359  1
  Al0+  Al65  1  0.25007884  0.74926801  0.66953466  1
  Al0+  Al66  1  0.75066948  0.25124719  -0.00058896  1
  Al0+  Al67  1  0.74881958  0.25153890  0.33057530  1
  Al0+  Al68  1  0.75012845  0.25108104  0.66409029  1
  Al0+  Al69  1  0.75110562  0.74928647  -0.00653357  1
  Al0+  Al70  1  0.75278493  0.75013252  0.33583311  1
  Al0+  Al71  1  0.75148325  0.75188823  0.66783641  1
  Al0+  Al72  1  0.57165184  0.68258317  0.65161730  1
  Al0+  Al73  1  0.07281621  0.17799825  0.98541407  1
  Al0+  Al74  1  0.92891303  0.32292742  0.98452883  1
  Al0+  Al75  1  0.57094537  0.17836887  0.98587566  1
  Al0+  Al76  1  0.17775937  0.42683051  0.01618310  1
  Al0+  Al77  1  0.67505300  0.92789576  0.68483193  1
  Al0+  Al78  1  0.42689316  0.32202906  0.31589153  1
  Al0+  Al79  1  0.67801031  0.43046276  0.68124679  1
  Al0+  Al80  1  0.93050100  0.82149569  0.98566988  1
  Al0+  Al81  1  0.68001402  0.92925433  0.34490651  1
  Al0+  Al82  1  0.17871511  0.93003554  0.01521239  1
  Al0+  Al83  1  0.18118161  0.92914689  0.67933020  1
  Al0+  Al84  1  0.57235682  0.67712772  0.98514518  1
  Al0+  Al85  1  0.31928391  0.07130058  0.34678860  1
  Al0+  Al86  1  0.81895966  0.07182537  0.68223170  1
  Al0+  Al87  1  0.42755341  0.32176263  0.65303439  1
  Al0+  Al88  1  0.82419939  0.57143750  0.68196271  1
  Al0+  Al89  1  0.42679395  0.82099929  0.98429893  1
  Al0+  Al90  1  0.57000962  0.17682147  0.31756614  1
  Al0+  Al91  1  0.32282005  0.56937456  0.01733118  1
  Al0+  Al92  1  0.81821865  0.07159663  0.01459906  1
  Al0+  Al93  1  0.07180034  0.67949432  0.31812507  1
  Al0+  Al94  1  0.57188752  0.17680518  0.65048398  1
  Al0+  Al95  1  0.93076801  0.32181318  0.65239522  1
  Si0+  Si96  1  0.17850182  0.42817754  0.67973307  1
  Si0+  Si97  1  0.92791170  0.82178194  0.31741689  1
  Si0+  Si98  1  0.42927589  0.81980135  0.32030465  1
  Si0+  Si99  1  0.82193529  0.56923217  0.34654348  1
  Si0+  Si100  1  0.93003549  0.82279566  0.65035843  1
  Si0+  Si101  1  0.82120695  0.57376996  0.01667918  1
  Si0+  Si102  1  0.07019121  0.17813236  0.32055596  1
  Si0+  Si103  1  0.68000176  0.42906915  0.01715714  1
  Si0+  Si104  1  0.32169686  0.57121127  0.35088335  1
  Si0+  Si105  1  0.57321223  0.67943319  0.32002903  1
  Si0+  Si106  1  0.07212586  0.67834336  0.98292939  1
  Si0+  Si107  1  0.32483559  0.07143964  0.01471104  1
  Si0+  Si108  1  0.32079362  0.07432423  0.68430789  1
  Si0+  Si109  1  0.42846680  0.32149824  0.98607321  1
  Si0+  Si110  1  0.82304664  0.07504699  0.34971316  1
  Si0+  Si111  1  0.42377188  0.81976963  0.64838959  1
  Si0+  Si112  1  0.67769929  0.92679945  0.01420041  1
  Si0+  Si113  1  0.67820807  0.42971399  0.34770993  1
  Si0+  Si114  1  0.17696798  0.92565132  0.34924149  1
  Si0+  Si115  1  0.92940952  0.32097391  0.31858356  1
  Si0+  Si116  1  0.17796466  0.43082963  0.35044919  1
  Si0+  Si117  1  0.07173163  0.67980563  0.65360553  1
  Si0+  Si118  1  0.32050533  0.57018518  0.68021169  1
  Si0+  Si119  1  0.07113556  0.17603243  0.64811011  1
  O2-  O120  1  0.25502211  0.00392507  0.06024202  1
  O2-  O121  1  0.24263548  -0.00302460  0.39314771  1
  O2-  O122  1  0.25396299  0.00385981  0.72789887  1
  O2-  O123  1  0.25085013  0.49717001  0.06799297  1
  O2-  O124  1  0.25181150  0.49894255  0.39353837  1
  O2-  O125  1  0.25516788  0.49325293  0.72030286  1
  O2-  O126  1  0.74207883  -0.00199965  0.06131845  1
  O2-  O127  1  0.75241301  0.00701811  0.39088012  1
  O2-  O128  1  0.74243396  0.00500297  0.73296470  1
  O2-  O129  1  0.75064704  0.50190034  0.05896946  1
  O2-  O130  1  0.74990073  0.50048519  0.38953217  1
  O2-  O131  1  0.75072709  0.50154959  0.73247755  1
  O2-  O132  1  -0.00573830  0.24386845  0.27841931  1
  O2-  O133  1  0.00322989  0.24562706  0.60341857  1
  O2-  O134  1  0.00301034  0.25236756  0.93620028  1
  O2-  O135  1  0.00148483  0.75858398  0.27285875  1
  O2-  O136  1  -0.00039701  0.74889083  0.60964034  1
  O2-  O137  1  0.00608490  0.74805448  0.93717152  1
  O2-  O138  1  0.49667757  0.24760177  0.26689689  1
  O2-  O139  1  0.49773062  0.24836688  0.60248391  1
  O2-  O140  1  0.49413841  0.25156517  0.94094636  1
  O2-  O141  1  0.50351457  0.75153962  0.27867536  1
  O2-  O142  1  0.50009523  0.75999020  0.60277054  1
  O2-  O143  1  0.49989442  0.74906402  0.93656826  1
  O2-  O144  1  0.06992571  0.17785985  0.10018875  1
  O2-  O145  1  0.07103481  0.18005191  0.42566893  1
  O2-  O146  1  0.07285145  0.17600675  0.75301745  1
  O2-  O147  1  0.06852307  0.67949800  0.08903865  1
  O2-  O148  1  0.06989937  0.67849016  0.43191108  1
  O2-  O149  1  0.07360924  0.68013874  0.75800438  1
  O2-  O150  1  0.57035438  0.17791048  0.09926472  1
  O2-  O151  1  0.57100542  0.17836682  0.43048076  1
  O2-  O152  1  0.57073512  0.18113214  0.76408536  1
  O2-  O153  1  0.57327650  0.68005465  0.10002399  1
  O2-  O154  1  0.57293880  0.67900834  0.42496983  1
  O2-  O155  1  0.56705503  0.67927143  0.76375458  1
  O2-  O156  1  0.17513824  0.43260588  0.24611963  1
  O2-  O157  1  0.17558497  0.43221926  0.57413498  1
  O2-  O158  1  0.17911625  0.43009677  0.90207407  1
  O2-  O159  1  0.17701329  0.92550740  0.24409661  1
  O2-  O160  1  0.18303802  0.92806745  0.56544308  1
  O2-  O161  1  0.17914110  0.93094555  0.90218373  1
  O2-  O162  1  0.68012790  0.43041853  0.24238549  1
  O2-  O163  1  0.67963040  0.43307440  0.56666036  1
  O2-  O164  1  0.67850081  0.42924333  0.91262926  1
  O2-  O165  1  0.68191902  0.92586008  0.23183528  1
  O2-  O166  1  0.68198275  0.92680809  0.57044443  1
  O2-  O167  1  0.68130391  0.92590472  0.90939037  1
  O2-  O168  1  0.43127448  0.32130550  0.09169911  1
  O2-  O169  1  0.43026363  0.32315255  0.42915192  1
  O2-  O170  1  0.42554652  0.32108690  0.76665951  1
  O2-  O171  1  0.42988139  0.82219427  0.09908604  1
  O2-  O172  1  0.42512284  0.81621389  0.42527184  1
  O2-  O173  1  0.41657353  0.81173058  0.75280916  1
  O2-  O174  1  0.92861066  0.32045303  0.09932664  1
  O2-  O175  1  0.93127424  0.32474664  0.42357656  1
  O2-  O176  1  0.93588375  0.32505626  0.76428370  1
  O2-  O177  1  0.93022658  0.81850040  0.09952298  1
  O2-  O178  1  0.92705204  0.81863441  0.42299831  1
  O2-  O179  1  0.93231072  0.82392761  0.75510898  1
  O2-  O180  1  0.31863689  0.06763069  0.23376283  1
  O2-  O181  1  0.31715488  0.07436882  0.57818509  1
  O2-  O182  1  0.32364355  0.07184275  0.90945869  1
  O2-  O183  1  0.32148215  0.57281480  0.24660777  1
  O2-  O184  1  0.31718833  0.57392936  0.57455792  1
  O2-  O185  1  0.32233115  0.56684886  0.90314148  1
  O2-  O186  1  0.82663103  0.07454908  0.24435111  1
  O2-  O187  1  0.82147466  0.06750386  0.56779010  1
  O2-  O188  1  0.81815746  0.07270547  0.90229667  1
  O2-  O189  1  0.82089476  0.56948474  0.24139895  1
  O2-  O190  1  0.82534522  0.56880666  0.56705023  1
  O2-  O191  1  0.82259434  0.57455939  0.91226315  1
  O2-  O192  1  0.04838224  0.08338751  0.27561932  1
  O2-  O193  1  0.04435631  0.08300767  0.60072036  1
  O2-  O194  1  0.04187740  0.08070006  0.93386778  1
  O2-  O195  1  0.03726203  0.58523242  0.26191777  1
  O2-  O196  1  0.04572722  0.58843448  0.60368356  1
  O2-  O197  1  0.04535516  0.58489652  0.93856453  1
  O2-  O198  1  0.54131481  0.07686704  0.26732314  1
  O2-  O199  1  0.54345948  0.07644619  0.60047291  1
  O2-  O200  1  0.54457009  0.08274136  0.92946432  1
  O2-  O201  1  0.54406668  0.58854895  0.27205670  1
  O2-  O202  1  0.53746707  0.58796368  0.59466598  1
  O2-  O203  1  0.54286649  0.57817440  0.93437190  1
  O2-  O204  1  0.15956033  0.21024231  0.27226097  1
  O2-  O205  1  0.16413995  0.20293406  0.60074235  1
  O2-  O206  1  0.17232914  0.20243655  0.93278256  1
  O2-  O207  1  0.16939124  0.70546036  0.26412944  1
  O2-  O208  1  0.16233324  0.71002553  0.60357397  1
  O2-  O209  1  0.16759220  0.69988114  0.94109061  1
  O2-  O210  1  0.66880117  0.20777123  0.26489906  1
  O2-  O211  1  0.66967462  0.20567822  0.59678062  1
  O2-  O212  1  0.66555285  0.21509494  0.93395278  1
  O2-  O213  1  0.66667720  0.70422468  0.27425976  1
  O2-  O214  1  0.67010363  0.71003591  0.59775327  1
  O2-  O215  1  0.66996747  0.70271001  0.93118331  1
  O2-  O216  1  0.07967450  0.45771405  0.07016638  1
  O2-  O217  1  0.08702558  0.46424062  0.39804508  1
  O2-  O218  1  0.09063292  0.46243267  0.72921982  1
  O2-  O219  1  0.08351040  0.96117963  0.07180866  1
  O2-  O220  1  0.08166195  0.94725755  0.39467764  1
  O2-  O221  1  0.08438530  0.95851171  0.73201629  1
  O2-  O222  1  0.58950426  0.45681770  0.06753812  1
  O2-  O223  1  0.58651953  0.45891217  0.39382546  1
  O2-  O224  1  0.57985113  0.46195303  0.73313207  1
  O2-  O225  1  0.58115897  0.94904374  0.05558120  1
  O2-  O226  1  0.58324884  0.95318114  0.40154470  1
  O2-  O227  1  0.57161803  0.94296451  0.73134976  1
  O2-  O228  1  0.20363325  0.32742363  0.06928420  1
  O2-  O229  1  0.20042265  0.33841407  0.39908127  1
  O2-  O230  1  0.19887102  0.33383006  0.72443287  1
  O2-  O231  1  0.20751260  0.83313224  0.06986702  1
  O2-  O232  1  0.20616735  0.83216504  0.39442261  1
  O2-  O233  1  0.21146976  0.83280292  0.73430625  1
  O2-  O234  1  0.71114482  0.33944562  0.06713553  1
  O2-  O235  1  0.70622165  0.33775241  0.39447801  1
  O2-  O236  1  0.70571786  0.33183858  0.73156102  1
  O2-  O237  1  0.70678354  0.83347764  0.06016726  1
  O2-  O238  1  0.71501779  0.83360777  0.40105160  1
  O2-  O239  1  0.70937760  0.83122464  0.73616866  1
  O2-  O240  1  0.45723027  0.42060122  0.26326171  1
  O2-  O241  1  0.45438471  0.42049633  0.59938517  1
  O2-  O242  1  0.45610130  0.41495668  0.94180439  1
  O2-  O243  1  0.45471336  0.91223639  0.27458755  1
  O2-  O244  1  0.43898380  0.91715240  0.60723168  1
  O2-  O245  1  0.45058128  0.91731389  0.92654719  1
  O2-  O246  1  0.96249455  0.41031755  0.26950132  1
  O2-  O247  1  0.96588427  0.41740553  0.59613695  1
  O2-  O248  1  0.95445857  0.42295286  0.93427077  1
  O2-  O249  1  0.94729043  0.91810461  0.27421128  1
  O2-  O250  1  0.96200590  0.91226619  0.60048489  1
  O2-  O251  1  0.96191427  0.91718880  0.93242147  1
  O2-  O252  1  0.32498818  0.29892246  0.26819991  1
  O2-  O253  1  0.32791406  0.29559508  0.59867383  1
  O2-  O254  1  0.33327751  0.30102989  0.94213602  1
  O2-  O255  1  0.33910945  0.78935006  0.27111819  1
  O2-  O256  1  0.33414967  0.78448092  0.59811063  1
  O2-  O257  1  0.32827260  0.78922656  0.93385252  1
  O2-  O258  1  0.83558801  0.30047312  0.27216707  1
  O2-  O259  1  0.83452827  0.29358102  0.59638138  1
  O2-  O260  1  0.83133019  0.29411721  0.93263252  1
  O2-  O261  1  0.83734700  0.78945571  0.26869591  1
  O2-  O262  1  0.83875319  0.79591599  0.60197956  1
  O2-  O263  1  0.83608639  0.78909944  0.93013478  1
  O2-  O264  1  0.41812733  0.04158100  0.06013136  1
  O2-  O265  1  0.41338721  0.03827894  0.40394198  1
  O2-  O266  1  0.41500517  0.05136337  0.72834837  1
  O2-  O267  1  0.42134574  0.54270273  0.07223781  1
  O2-  O268  1  0.41470168  0.54488433  0.39766358  1
  O2-  O269  1  0.41346596  0.54769041  0.72588586  1
  O2-  O270  1  0.91374402  0.03803045  0.06944577  1
  O2-  O271  1  0.91597790  0.04910777  0.39836718  1
  O2-  O272  1  0.91677390  0.03930515  0.73366995  1
  O2-  O273  1  0.91254230  0.54661762  0.06613089  1
  O2-  O274  1  0.91411054  0.53959440  0.39249106  1
  O2-  O275  1  0.92259143  0.54309244  0.73459065  1
  O2-  O276  1  0.30179454  0.16501539  0.06219574  1
  O2-  O277  1  0.28679151  0.16763622  0.40130577  1
  O2-  O278  1  0.29325889  0.16742186  0.73009095  1
  O2-  O279  1  0.29330685  0.66672134  0.07215878  1
  O2-  O280  1  0.29118920  0.66221653  0.39939556  1
  O2-  O281  1  0.28577933  0.65811835  0.72983926  1
  O2-  O282  1  0.78927406  0.16886676  0.06931149  1
  O2-  O283  1  0.79922731  0.17018958  0.39384274  1
  O2-  O284  1  0.79793622  0.17280238  0.73158648  1
  O2-  O285  1  0.79170911  0.66492588  0.06558848  1
  O2-  O286  1  0.79808700  0.66175727  0.39449714  1
  O2-  O287  1  0.80010431  0.67154986  0.73064594  1
