# generated using pymatgen
data_Ca2Al2SiO7
_symmetry_space_group_name_H-M   'P 1'
_cell_length_a   15.46549598
_cell_length_b   15.46635188
_cell_length_c   15.28884291
_cell_angle_alpha   90.00377596
_cell_angle_beta   90.00700460
_cell_angle_gamma   89.99435586
_symmetry_Int_Tables_number   1
_chemical_formula_structural   Ca2Al2SiO7
_chemical_formula_sum   'Ca48 Al48 Si24 O168'
_cell_volume   3657.01171291
_cell_formula_units_Z   24
loop_
 _symmetry_equiv_pos_site_id
 _symmetry_equiv_pos_as_xyz
  1  'x, y, z'
loop_
 _atom_type_symbol
 _atom_type_oxidation_number
  Ca2+  2.0
  Al0+  0.0
  Si0+  0.0
  O2-  -2.0
loop_
 _atom_site_type_symbol
 _atom_site_label
 _atom_site_symmetry_multiplicity
 _atom_site_fract_x
 _atom_site_fract_y
 _atom_site_fract_z
 _atom_site_occupancy
  Ca2+  Ca0  1  0.16932572  0.07617827  0.16289304  1
  Ca2+  Ca1  1  0.16650538  0.06960372  0.50403584  1
  Ca2+  Ca2  1  0.16869177  0.07394285  0.84590373  1
  Ca2+  Ca3  1  0.17119083  0.57859618  0.17457633  1
  Ca2+  Ca4  1  0.17299090  0.59066987  0.50205301  1
  Ca2+  Ca5  1  0.16541562  0.57754225  0.83803554  1
  Ca2+  Ca6  1  0.66716854  0.08255305  0.16813006  1
  Ca2+  Ca7  1  0.66366858  0.08590006  0.50028175  1
  Ca2+  Ca8  1  0.67329597  0.07475493  0.84689757  1
  Ca2+  Ca9  1  0.66876382  0.58153641  0.17649675  1
  Ca2+  Ca10  1  0.67127010  0.58588385  0.50289613  1
  Ca2+  Ca11  1  0.66876040  0.59136442  0.83635203  1
  Ca2+  Ca12  1  0.07803819  0.33022527  0.15168390  1
  Ca2+  Ca13  1  0.07969080  0.33277245  0.49565044  1
  Ca2+  Ca14  1  0.08462823  0.32851620  0.83895440  1
  Ca2+  Ca15  1  0.08297596  0.83209498  0.16227374  1
  Ca2+  Ca16  1  0.08756313  0.82529182  0.49422527  1
  Ca2+  Ca17  1  0.08102739  0.83719701  0.83012667  1
  Ca2+  Ca18  1  0.57556801  0.33386482  0.16549024  1
  Ca2+  Ca19  1  0.57545219  0.33301830  0.48883832  1
  Ca2+  Ca20  1  0.56974981  0.33125332  0.83003127  1
  Ca2+  Ca21  1  0.58210415  0.82188806  0.15510520  1
  Ca2+  Ca22  1  0.58425984  0.82048191  0.49501908  1
  Ca2+  Ca23  1  0.58369228  0.82852148  0.83555084  1
  Ca2+  Ca24  1  0.33320448  0.41728727  0.16921293  1
  Ca2+  Ca25  1  0.34353674  0.42095398  0.49819989  1
  Ca2+  Ca26  1  0.33135394  0.41479859  0.84190813  1
  Ca2+  Ca27  1  0.32481470  0.91053958  0.16881853  1
  Ca2+  Ca28  1  0.32078696  0.91073140  0.50373298  1
  Ca2+  Ca29  1  0.32413485  0.91901169  0.84677229  1
  Ca2+  Ca30  1  0.82781489  0.42091998  0.17488286  1
  Ca2+  Ca31  1  0.82576285  0.42850010  0.50040610  1
  Ca2+  Ca32  1  0.83587797  0.42436692  0.83925824  1
  Ca2+  Ca33  1  0.83258973  0.91668548  0.16047948  1
  Ca2+  Ca34  1  0.83099989  0.91715446  0.50172718  1
  Ca2+  Ca35  1  0.83000707  0.91878713  0.84736466  1
  Ca2+  Ca36  1  0.41315491  0.17617729  0.16024931  1
  Ca2+  Ca37  1  0.42031291  0.17971710  0.49172684  1
  Ca2+  Ca38  1  0.40107413  0.17691456  0.83477655  1
  Ca2+  Ca39  1  0.42591786  0.66657200  0.16252957  1
  Ca2+  Ca40  1  0.42719931  0.66153129  0.49188254  1
  Ca2+  Ca41  1  0.42792647  0.67123324  0.83437876  1
  Ca2+  Ca42  1  0.92171627  0.17210064  0.15333497  1
  Ca2+  Ca43  1  0.91812709  0.16844056  0.49393195  1
  Ca2+  Ca44  1  0.91830838  0.16575988  0.83895102  1
  Ca2+  Ca45  1  0.92238053  0.66703211  0.16207761  1
  Ca2+  Ca46  1  0.92597800  0.65710161  0.49676432  1
  Ca2+  Ca47  1  0.92179877  0.67264636  0.82871446  1
  Al0+  Al48  1  0.00007767  -0.00028433  0.00043062  1
  Al0+  Al49  1  -0.00069262  -0.00056303  0.33854726  1
  Al0+  Al50  1  -0.00087029  0.00067778  0.66883794  1
  Al0+  Al51  1  0.00013028  0.49915057  0.00026984  1
  Al0+  Al52  1  0.00013847  0.49999657  0.33256445  1
  Al0+  Al53  1  -0.00100487  0.50057703  0.66713412  1
  Al0+  Al54  1  0.49980375  -0.00063734  0.00475910  1
  Al0+  Al55  1  0.49957604  0.00113720  0.33361661  1
  Al0+  Al56  1  0.49875512  0.00201441  0.66699882  1
  Al0+  Al57  1  0.50200655  0.49872034  -0.00911795  1
  Al0+  Al58  1  0.49899359  0.49909575  0.33227688  1
  Al0+  Al59  1  0.50017280  0.49998329  0.66084738  1
  Al0+  Al60  1  0.24710235  0.24961488  0.00033700  1
  Al0+  Al61  1  0.24894198  0.24771471  0.33153021  1
  Al0+  Al62  1  0.24806319  0.25048132  0.65841696  1
  Al0+  Al63  1  0.25362334  0.74742515  0.00015284  1
  Al0+  Al64  1  0.24836652  0.74735606  0.33784503  1
  Al0+  Al65  1  0.24915173  0.74870241  0.67069757  1
  Al0+  Al66  1  0.74942864  0.25264795  -0.00195033  1
  Al0+  Al67  1  0.74993496  0.25030195  0.33534546  1
  Al0+  Al68  1  0.74962668  0.25197304  0.66722773  1
  Al0+  Al69  1  0.75432020  0.74965761  -0.00304893  1
  Al0+  Al70  1  0.75255286  0.75274621  0.33466237  1
  Al0+  Al71  1  0.75092133  0.75151282  0.66656016  1
  Al0+  Al72  1  0.67889130  0.42945958  0.34780438  1
  Al0+  Al73  1  0.93307847  0.81944826  0.98761815  1
  Al0+  Al74  1  0.32150410  0.07224022  0.01536206  1
  Al0+  Al75  1  0.17957242  0.92993173  0.34837546  1
  Al0+  Al76  1  0.06975720  0.17899855  0.98524380  1
  Al0+  Al77  1  0.57135672  0.68212223  0.65125657  1
  Al0+  Al78  1  0.57301080  0.17764945  0.31703908  1
  Al0+  Al79  1  0.07063341  0.67893857  0.31919679  1
  Al0+  Al80  1  0.31951685  0.56855477  0.34627429  1
  Al0+  Al81  1  0.42774260  0.31981882  0.65119545  1
  Al0+  Al82  1  0.82054584  0.57090498  0.68285958  1
  Al0+  Al83  1  0.67913059  0.92679724  0.01572836  1
  Al0+  Al84  1  0.17914407  0.92521407  0.01609003  1
  Al0+  Al85  1  0.92586691  0.32355071  0.98438202  1
  Al0+  Al86  1  0.82022225  0.07291078  0.01547441  1
  Al0+  Al87  1  0.17985358  0.92807966  0.68210795  1
  Al0+  Al88  1  0.57313073  0.67871987  0.98522975  1
  Al0+  Al89  1  0.57270799  0.68039630  0.32044101  1
  Al0+  Al90  1  0.82260207  0.57415424  0.34791725  1
  Al0+  Al91  1  0.17940722  0.43108987  0.01228973  1
  Al0+  Al92  1  0.07044080  0.67885675  0.65354087  1
  Al0+  Al93  1  0.42782211  0.82312097  0.98669066  1
  Al0+  Al94  1  0.42792758  0.32068942  0.31505199  1
  Al0+  Al95  1  0.42899382  0.31852558  0.98590199  1
  Si0+  Si96  1  0.32289196  0.56955119  0.68265426  1
  Si0+  Si97  1  0.42707615  0.82116775  0.32005186  1
  Si0+  Si98  1  0.32019449  0.07339804  0.68134581  1
  Si0+  Si99  1  0.57423047  0.17814099  0.65114102  1
  Si0+  Si100  1  0.92902909  0.82524797  0.31650967  1
  Si0+  Si101  1  0.81959016  0.07047962  0.34901460  1
  Si0+  Si102  1  0.32281887  0.07339561  0.35230897  1
  Si0+  Si103  1  0.32577301  0.56971393  0.01495256  1
  Si0+  Si104  1  0.82068115  0.07334344  0.68127969  1
  Si0+  Si105  1  0.07431512  0.67605123  0.98469521  1
  Si0+  Si106  1  0.92902485  0.82390265  0.64904650  1
  Si0+  Si107  1  0.17831472  0.42802093  0.68026744  1
  Si0+  Si108  1  0.57292276  0.17712331  0.98360189  1
  Si0+  Si109  1  0.67836263  0.93042540  0.68052066  1
  Si0+  Si110  1  0.67674808  0.92851658  0.34951745  1
  Si0+  Si111  1  0.42722107  0.82344143  0.65090249  1
  Si0+  Si112  1  0.06823821  0.17865530  0.64950974  1
  Si0+  Si113  1  0.82141203  0.57062583  0.01448558  1
  Si0+  Si114  1  0.17687407  0.42524298  0.35002974  1
  Si0+  Si115  1  0.92756346  0.32184443  0.64987829  1
  Si0+  Si116  1  0.06925585  0.17642628  0.31945538  1
  Si0+  Si117  1  0.93065903  0.32018311  0.31994427  1
  Si0+  Si118  1  0.67750592  0.43020435  0.01304157  1
  Si0+  Si119  1  0.67679414  0.42886003  0.68522106  1
  O2-  O120  1  0.25501173  -0.00566740  0.06480697  1
  O2-  O121  1  0.25617605  0.00248641  0.39656756  1
  O2-  O122  1  0.25644879  0.00129102  0.72650920  1
  O2-  O123  1  0.25354516  0.50510332  0.05941829  1
  O2-  O124  1  0.24627030  0.49230899  0.39525778  1
  O2-  O125  1  0.25103798  0.49761726  0.72236942  1
  O2-  O126  1  0.74690605  0.00291460  0.06643357  1
  O2-  O127  1  0.74603605  0.00222449  0.39187986  1
  O2-  O128  1  0.74742724  0.00416157  0.72105711  1
  O2-  O129  1  0.74973418  0.50005865  0.05508292  1
  O2-  O130  1  0.74659983  0.50595821  0.39802262  1
  O2-  O131  1  0.74418847  0.49818206  0.73064058  1
  O2-  O132  1  0.00448905  0.25278435  0.27793986  1
  O2-  O133  1  -0.00341084  0.24897990  0.60668038  1
  O2-  O134  1  -0.00358041  0.24993652  0.93441426  1
  O2-  O135  1  -0.00592226  0.75223170  0.27451145  1
  O2-  O136  1  -0.00211953  0.75553748  0.60545601  1
  O2-  O137  1  0.01176041  0.74980257  0.93988346  1
  O2-  O138  1  0.49929171  0.24709622  0.26681709  1
  O2-  O139  1  0.50486767  0.24601017  0.60757451  1
  O2-  O140  1  0.49951234  0.24005357  0.93796473  1
  O2-  O141  1  0.49987115  0.75735835  0.27557456  1
  O2-  O142  1  0.49602466  0.75631888  0.60451276  1
  O2-  O143  1  0.50246323  0.75341624  0.93690240  1
  O2-  O144  1  0.06854163  0.18157547  0.09924972  1
  O2-  O145  1  0.06504625  0.17617082  0.42546588  1
  O2-  O146  1  0.06901721  0.17856360  0.75377441  1
  O2-  O147  1  0.07041431  0.67329204  0.09019330  1
  O2-  O148  1  0.07102353  0.68067698  0.43264210  1
  O2-  O149  1  0.06841086  0.67706906  0.76634506  1
  O2-  O150  1  0.57624508  0.18302584  0.08865198  1
  O2-  O151  1  0.57203048  0.17922832  0.43153813  1
  O2-  O152  1  0.57809036  0.17806755  0.75613887  1
  O2-  O153  1  0.57227803  0.67635708  0.09879579  1
  O2-  O154  1  0.57183980  0.68259574  0.43399225  1
  O2-  O155  1  0.57124410  0.68392324  0.76387479  1
  O2-  O156  1  0.17494739  0.42638797  0.24479967  1
  O2-  O157  1  0.17641676  0.42733236  0.57518235  1
  O2-  O158  1  0.18011857  0.43250650  0.89833582  1
  O2-  O159  1  0.17814310  0.93120454  0.23617134  1
  O2-  O160  1  0.17924194  0.92995583  0.56854522  1
  O2-  O161  1  0.17864215  0.92780278  0.90221213  1
  O2-  O162  1  0.68267572  0.42834688  0.23400604  1
  O2-  O163  1  0.67938295  0.42743545  0.57986736  1
  O2-  O164  1  0.67685213  0.43113652  0.90773177  1
  O2-  O165  1  0.67814116  0.92615195  0.24533023  1
  O2-  O166  1  0.67956201  0.93119965  0.57498206  1
  O2-  O167  1  0.68333239  0.92759102  0.90126294  1
  O2-  O168  1  0.43122843  0.32174809  0.09810433  1
  O2-  O169  1  0.42869952  0.31842039  0.42916612  1
  O2-  O170  1  0.42571834  0.31814765  0.76425658  1
  O2-  O171  1  0.42634217  0.81744525  0.10042728  1
  O2-  O172  1  0.42822993  0.81923198  0.42633274  1
  O2-  O173  1  0.42939117  0.82345991  0.75592167  1
  O2-  O174  1  0.92794596  0.32485021  0.09832914  1
  O2-  O175  1  0.93160878  0.31757141  0.42584234  1
  O2-  O176  1  0.92743786  0.32145357  0.75429491  1
  O2-  O177  1  0.93083828  0.81510857  0.10061291  1
  O2-  O178  1  0.93084987  0.83049616  0.42231821  1
  O2-  O179  1  0.92916479  0.82515482  0.75439725  1
  O2-  O180  1  0.32119621  0.07520476  0.24749984  1
  O2-  O181  1  0.31782023  0.07329411  0.57567878  1
  O2-  O182  1  0.31561765  0.07363932  0.90107230  1
  O2-  O183  1  0.31757480  0.56958210  0.23347921  1
  O2-  O184  1  0.32288101  0.56995212  0.57749038  1
  O2-  O185  1  0.32579954  0.56712011  0.90880866  1
  O2-  O186  1  0.82277004  0.07040957  0.24487425  1
  O2-  O187  1  0.82205079  0.07341214  0.57564787  1
  O2-  O188  1  0.81790125  0.07101058  0.90102346  1
  O2-  O189  1  0.82410968  0.57047409  0.23425644  1
  O2-  O190  1  0.82153829  0.56783397  0.57010105  1
  O2-  O191  1  0.82225826  0.57004949  0.90910625  1
  O2-  O192  1  0.03460212  0.08713429  0.27320646  1
  O2-  O193  1  0.03793898  0.08732242  0.60144430  1
  O2-  O194  1  0.04111544  0.08145389  0.93132896  1
  O2-  O195  1  0.04212770  0.58130927  0.26568284  1
  O2-  O196  1  0.03827957  0.58248324  0.59897248  1
  O2-  O197  1  0.04173199  0.58556523  0.93647251  1
  O2-  O198  1  0.55007270  0.07655364  0.26759615  1
  O2-  O199  1  0.54958705  0.08392868  0.60459254  1
  O2-  O200  1  0.55534343  0.08044543  0.94169427  1
  O2-  O201  1  0.54110959  0.58416314  0.26839071  1
  O2-  O202  1  0.54152680  0.58496735  0.59844631  1
  O2-  O203  1  0.54234177  0.58319667  0.92744271  1
  O2-  O204  1  0.16317540  0.19646597  0.27494673  1
  O2-  O205  1  0.15815603  0.20743003  0.59882448  1
  O2-  O206  1  0.16528974  0.21150326  0.92931581  1
  O2-  O207  1  0.16712560  0.71034199  0.26644769  1
  O2-  O208  1  0.16891093  0.70745618  0.60137462  1
  O2-  O209  1  0.17059687  0.69255214  0.94153699  1
  O2-  O210  1  0.67244655  0.20609846  0.26656858  1
  O2-  O211  1  0.66801781  0.20335325  0.60359592  1
  O2-  O212  1  0.66378898  0.20798179  0.93430297  1
  O2-  O213  1  0.67080662  0.70983204  0.26912263  1
  O2-  O214  1  0.66800479  0.71493973  0.59780896  1
  O2-  O215  1  0.67125584  0.70748573  0.93218516  1
  O2-  O216  1  0.08279038  0.46062106  0.06751293  1
  O2-  O217  1  0.08349891  0.45147544  0.39663419  1
  O2-  O218  1  0.08744737  0.45680235  0.72833918  1
  O2-  O219  1  0.08155183  0.95652988  0.06788799  1
  O2-  O220  1  0.08418180  0.96410403  0.40470307  1
  O2-  O221  1  0.08245459  0.96145997  0.73301826  1
  O2-  O222  1  0.58636496  0.45975386  0.06015001  1
  O2-  O223  1  0.57950938  0.45376440  0.39938791  1
  O2-  O224  1  0.58189180  0.45371843  0.72855539  1
  O2-  O225  1  0.57944871  0.94765470  0.06778805  1
  O2-  O226  1  0.58468819  0.95350937  0.39885234  1
  O2-  O227  1  0.58536234  0.95559974  0.72726121  1
  O2-  O228  1  0.20709199  0.33454290  0.06592982  1
  O2-  O229  1  0.19889264  0.32993658  0.39554977  1
  O2-  O230  1  0.20554665  0.33474600  0.72516522  1
  O2-  O231  1  0.20521664  0.82488724  0.06725709  1
  O2-  O232  1  0.21028526  0.83357763  0.40331856  1
  O2-  O233  1  0.20655199  0.83075758  0.73593373  1
  O2-  O234  1  0.70373470  0.33857825  0.06047182  1
  O2-  O235  1  0.71250442  0.33283948  0.40348423  1
  O2-  O236  1  0.70327598  0.33484425  0.73069005  1
  O2-  O237  1  0.71582473  0.83021279  0.06766495  1
  O2-  O238  1  0.70929751  0.83961296  0.40063580  1
  O2-  O239  1  0.70869276  0.84017421  0.72820519  1
  O2-  O240  1  0.45586730  0.41896339  0.26344316  1
  O2-  O241  1  0.45857220  0.41604004  0.59728620  1
  O2-  O242  1  0.46317630  0.41216159  0.92793748  1
  O2-  O243  1  0.44587535  0.91731174  0.27776116  1
  O2-  O244  1  0.44969281  0.91856902  0.60520889  1
  O2-  O245  1  0.45193376  0.92312007  0.93443576  1
  O2-  O246  1  0.95486671  0.41230413  0.27271989  1
  O2-  O247  1  0.95942248  0.41169921  0.60177449  1
  O2-  O248  1  0.95922178  0.42016178  0.93002037  1
  O2-  O249  1  0.95936944  0.91720817  0.26989658  1
  O2-  O250  1  0.95310559  0.91844021  0.60282152  1
  O2-  O251  1  0.95713464  0.91714993  0.93300952  1
  O2-  O252  1  0.32742338  0.29302737  0.26546363  1
  O2-  O253  1  0.33209692  0.28970636  0.59409582  1
  O2-  O254  1  0.33143956  0.28991225  0.93258921  1
  O2-  O255  1  0.33506712  0.79050647  0.27524465  1
  O2-  O256  1  0.33348141  0.79535651  0.60674461  1
  O2-  O257  1  0.33120077  0.79136188  0.93033822  1
  O2-  O258  1  0.83984919  0.28964355  0.27405671  1
  O2-  O259  1  0.83532996  0.29456902  0.60225371  1
  O2-  O260  1  0.82781286  0.29790769  0.92921287  1
  O2-  O261  1  0.83389786  0.80497598  0.27262446  1
  O2-  O262  1  0.83527664  0.79902131  0.60314025  1
  O2-  O263  1  0.83939074  0.78570921  0.92955958  1
  O2-  O264  1  0.42271554  0.05535603  0.06589844  1
  O2-  O265  1  0.41766537  0.05136654  0.39829107  1
  O2-  O266  1  0.41649749  0.05577255  0.72546707  1
  O2-  O267  1  0.41834297  0.53880029  0.05952152  1
  O2-  O268  1  0.41560185  0.53816185  0.40196016  1
  O2-  O269  1  0.41462539  0.54051551  0.72905303  1
  O2-  O270  1  0.91795767  0.04323455  0.06765232  1
  O2-  O271  1  0.90908532  0.03946483  0.40071050  1
  O2-  O272  1  0.91152516  0.04439724  0.72901896  1
  O2-  O273  1  0.91259562  0.54191026  0.06216871  1
  O2-  O274  1  0.91927023  0.53853101  0.40175806  1
  O2-  O275  1  0.91644850  0.53679982  0.73658646  1
  O2-  O276  1  0.28510039  0.16751300  0.06958946  1
  O2-  O277  1  0.29274656  0.16568720  0.40005949  1
  O2-  O278  1  0.28823066  0.16640578  0.72519412  1
  O2-  O279  1  0.30560055  0.66411531  0.06024112  1
  O2-  O280  1  0.28767832  0.66306869  0.40461994  1
  O2-  O281  1  0.29485325  0.66055935  0.73098788  1
  O2-  O282  1  0.79460082  0.17344498  0.06547924  1
  O2-  O283  1  0.79452417  0.16211099  0.39904661  1
  O2-  O284  1  0.79636060  0.16632888  0.72771495  1
  O2-  O285  1  0.79538006  0.66205642  0.06177305  1
  O2-  O286  1  0.80106758  0.67455855  0.40047716  1
  O2-  O287  1  0.79227025  0.66976192  0.73401492  1
