# generated using pymatgen
data_Ca2Al2SiO7
_symmetry_space_group_name_H-M   'P 1'
_cell_length_a   15.45718783
_cell_length_b   15.45638781
_cell_length_c   15.28214192
_cell_angle_alpha   90.00007498
_cell_angle_beta   90.00715303
_cell_angle_gamma   90.01278723
_symmetry_Int_Tables_number   1
_chemical_formula_structural   Ca2Al2SiO7
_chemical_formula_sum   'Ca48 Al48 Si24 O168'
_cell_volume   3651.09139472
_cell_formula_units_Z   24
loop_
 _symmetry_equiv_pos_site_id
 _symmetry_equiv_pos_as_xyz
  1  'x, y, z'
loop_
 _atom_type_symbol
 _atom_type_oxidation_number
  Ca2+  2.0
  Al0+  0.0
  Si0+  0.0
  O2-  -2.0
loop_
 _atom_site_type_symbol
 _atom_site_label
 _atom_site_symmetry_multiplicity
 _atom_site_fract_x
 _atom_site_fract_y
 _atom_site_fract_z
 _atom_site_occupancy
  Ca2+  Ca0  1  0.17408349  0.07701342  0.17186004  1
  Ca2+  Ca1  1  0.17220074  0.07780811  0.50801607  1
  Ca2+  Ca2  1  0.18022443  0.09076962  0.83625227  1
  Ca2+  Ca3  1  0.17090408  0.57645226  0.16783713  1
  Ca2+  Ca4  1  0.16060669  0.57263847  0.50577999  1
  Ca2+  Ca5  1  0.16781217  0.57670965  0.83681053  1
  Ca2+  Ca6  1  0.65755751  0.08025053  0.16755993  1
  Ca2+  Ca7  1  0.65948601  0.08096496  0.50658871  1
  Ca2+  Ca8  1  0.65532755  0.07351013  0.83646961  1
  Ca2+  Ca9  1  0.67485039  0.57698057  0.17622183  1
  Ca2+  Ca10  1  0.67580135  0.58838969  0.50142899  1
  Ca2+  Ca11  1  0.67724005  0.57951390  0.84331330  1
  Ca2+  Ca12  1  0.07965704  0.34574858  0.16673905  1
  Ca2+  Ca13  1  0.08271471  0.33367594  0.49595755  1
  Ca2+  Ca14  1  0.08779879  0.33409425  0.82602476  1
  Ca2+  Ca15  1  0.07688158  0.83435830  0.15955109  1
  Ca2+  Ca16  1  0.08769883  0.82520947  0.49438159  1
  Ca2+  Ca17  1  0.07413980  0.82515266  0.82682952  1
  Ca2+  Ca18  1  0.59533851  0.32509470  0.16104757  1
  Ca2+  Ca19  1  0.58936697  0.32225630  0.49153169  1
  Ca2+  Ca20  1  0.58746521  0.32306106  0.83105730  1
  Ca2+  Ca21  1  0.58310801  0.82691663  0.16548338  1
  Ca2+  Ca22  1  0.57389640  0.83309105  0.49539360  1
  Ca2+  Ca23  1  0.58093551  0.83698170  0.82668775  1
  Ca2+  Ca24  1  0.32479957  0.41895284  0.16804193  1
  Ca2+  Ca25  1  0.32250561  0.41290997  0.50399732  1
  Ca2+  Ca26  1  0.32106629  0.41984242  0.84133781  1
  Ca2+  Ca27  1  0.33376938  0.92128824  0.17195752  1
  Ca2+  Ca28  1  0.33605365  0.91704867  0.50395111  1
  Ca2+  Ca29  1  0.33947555  0.92748808  0.83506475  1
  Ca2+  Ca30  1  0.82689697  0.42387434  0.17396116  1
  Ca2+  Ca31  1  0.83236360  0.42339844  0.49837112  1
  Ca2+  Ca32  1  0.83035810  0.42761861  0.83877212  1
  Ca2+  Ca33  1  0.82896691  0.91417820  0.16568017  1
  Ca2+  Ca34  1  0.82277352  0.91949460  0.50680385  1
  Ca2+  Ca35  1  0.82109794  0.91389406  0.83999605  1
  Ca2+  Ca36  1  0.42553135  0.16712164  0.16105777  1
  Ca2+  Ca37  1  0.42466694  0.16353419  0.49957156  1
  Ca2+  Ca38  1  0.42228527  0.16108582  0.82859270  1
  Ca2+  Ca39  1  0.41754074  0.66786375  0.16400135  1
  Ca2+  Ca40  1  0.42137635  0.67956810  0.49006302  1
  Ca2+  Ca41  1  0.41360031  0.67332911  0.82647069  1
  Ca2+  Ca42  1  0.91708081  0.17679755  0.16411944  1
  Ca2+  Ca43  1  0.92321482  0.17478058  0.49294571  1
  Ca2+  Ca44  1  0.92742502  0.17090174  0.82560711  1
  Ca2+  Ca45  1  0.91196517  0.66736358  0.16090352  1
  Ca2+  Ca46  1  0.91793564  0.65854434  0.50028625  1
  Ca2+  Ca47  1  0.91538434  0.66458529  0.83040033  1
  Al0+  Al48  1  -0.00151495  -0.00004591  -0.00757789  1
  Al0+  Al49  1  0.00162928  -0.00061172  0.33752233  1
  Al0+  Al50  1  -0.00083530  -0.00024185  0.66230220  1
  Al0+  Al51  1  -0.00045265  0.50100537  0.00463082  1
  Al0+  Al52  1  0.00047265  0.50027251  0.33569691  1
  Al0+  Al53  1  -0.00138959  0.50088770  0.67164231  1
  Al0+  Al54  1  0.49989401  -0.00042941  0.00599252  1
  Al0+  Al55  1  0.49940856  0.00063593  0.32581809  1
  Al0+  Al56  1  0.49893907  -0.00024680  0.66555600  1
  Al0+  Al57  1  0.49887649  0.49807190  0.00435149  1
  Al0+  Al58  1  0.50023671  0.49843026  0.33450995  1
  Al0+  Al59  1  0.49982400  0.49924954  0.66557904  1
  Al0+  Al60  1  0.25107176  0.24931243  0.01025844  1
  Al0+  Al61  1  0.25231807  0.24784354  0.33684388  1
  Al0+  Al62  1  0.25019419  0.24862504  0.66942090  1
  Al0+  Al63  1  0.24884200  0.74978774  0.00045218  1
  Al0+  Al64  1  0.24894823  0.75127937  0.33082633  1
  Al0+  Al65  1  0.24772120  0.74994066  0.65798658  1
  Al0+  Al66  1  0.75288116  0.24770903  -0.00670302  1
  Al0+  Al67  1  0.75354445  0.25051361  0.32779859  1
  Al0+  Al68  1  0.75145516  0.24991861  0.66294745  1
  Al0+  Al69  1  0.74865597  0.75223805  0.00285790  1
  Al0+  Al70  1  0.75013190  0.75154633  0.33521856  1
  Al0+  Al71  1  0.74983979  0.75053166  0.67463967  1
  Al0+  Al72  1  0.67781892  0.42590696  0.34921380  1
  Al0+  Al73  1  0.56978582  0.18089707  0.65352868  1
  Al0+  Al74  1  0.81908496  0.57169641  0.01637365  1
  Al0+  Al75  1  0.18076357  0.43014919  0.67979815  1
  Al0+  Al76  1  0.67909162  0.93130088  0.01606978  1
  Al0+  Al77  1  0.31887705  0.06775895  0.67953241  1
  Al0+  Al78  1  0.32235737  0.57456627  0.01396478  1
  Al0+  Al79  1  0.93311065  0.32125666  0.31876955  1
  Al0+  Al80  1  0.42794352  0.82033986  0.31464778  1
  Al0+  Al81  1  0.07321199  0.17864649  0.65284898  1
  Al0+  Al82  1  0.56993332  0.17917445  0.98415398  1
  Al0+  Al83  1  0.81977861  0.57292534  0.35056126  1
  Al0+  Al84  1  0.43006212  0.81994118  0.65442253  1
  Al0+  Al85  1  0.67943409  0.42500875  0.01304798  1
  Al0+  Al86  1  0.17877224  0.42862423  0.01609513  1
  Al0+  Al87  1  0.32117977  0.06931034  0.01571071  1
  Al0+  Al88  1  0.67977259  0.93257889  0.67885701  1
  Al0+  Al89  1  0.92716144  0.82111946  0.98524354  1
  Al0+  Al90  1  0.57101695  0.18155651  0.31838566  1
  Al0+  Al91  1  0.81848370  0.56930697  0.68243856  1
  Al0+  Al92  1  0.57285376  0.67810400  0.31832314  1
  Al0+  Al93  1  0.17815200  0.92860421  0.34714473  1
  Al0+  Al94  1  0.06824491  0.67919420  0.65263737  1
  Al0+  Al95  1  0.18108091  0.43008032  0.34903811  1
  Si0+  Si96  1  0.92512995  0.82159925  0.64865092  1
  Si0+  Si97  1  0.42509169  0.32201281  0.98339045  1
  Si0+  Si98  1  0.32290286  0.57375851  0.35114885  1
  Si0+  Si99  1  0.42498048  0.32248378  0.31636603  1
  Si0+  Si100  1  0.06956515  0.67895330  0.31723942  1
  Si0+  Si101  1  0.57038069  0.67783659  0.98559597  1
  Si0+  Si102  1  0.32333221  0.06951746  0.35193760  1
  Si0+  Si103  1  0.92941633  0.32247604  0.64982632  1
  Si0+  Si104  1  0.82572749  0.07150314  0.01557426  1
  Si0+  Si105  1  0.57396020  0.67616562  0.65298892  1
  Si0+  Si106  1  0.67581604  0.42452963  0.68278855  1
  Si0+  Si107  1  0.93119406  0.32227521  0.98341656  1
  Si0+  Si108  1  0.32309582  0.57444197  0.67962242  1
  Si0+  Si109  1  0.42845984  0.82013202  0.98480831  1
  Si0+  Si110  1  0.82444844  0.07433327  0.68262738  1
  Si0+  Si111  1  0.17575295  0.92864879  0.01271523  1
  Si0+  Si112  1  0.07272860  0.17901530  0.98631099  1
  Si0+  Si113  1  0.17500333  0.92484732  0.68362811  1
  Si0+  Si114  1  0.07169847  0.67764169  0.98325656  1
  Si0+  Si115  1  0.92918030  0.82336927  0.31976198  1
  Si0+  Si116  1  0.07375957  0.17616705  0.31629758  1
  Si0+  Si117  1  0.42696381  0.32345440  0.65106500  1
  Si0+  Si118  1  0.82295402  0.07178907  0.34729036  1
  Si0+  Si119  1  0.67896644  0.93187923  0.34809126  1
  O2-  O120  1  0.24524487  -0.00549346  0.05956696  1
  O2-  O121  1  0.25368386  0.00136782  0.39507290  1
  O2-  O122  1  0.24184325  -0.00476287  0.72786922  1
  O2-  O123  1  0.25149614  0.50127169  0.06352415  1
  O2-  O124  1  0.25695391  0.50296861  0.39665791  1
  O2-  O125  1  0.25716841  0.50381924  0.72497374  1
  O2-  O126  1  0.75444567  0.00638694  0.06129960  1
  O2-  O127  1  0.74869856  0.00429493  0.39002234  1
  O2-  O128  1  0.75506749  0.00659889  0.72672021  1
  O2-  O129  1  0.74699834  0.49967958  0.06508527  1
  O2-  O130  1  0.74484315  0.50277323  0.39940166  1
  O2-  O131  1  0.74041057  0.49695417  0.72677527  1
  O2-  O132  1  0.00961045  0.24804097  0.27045945  1
  O2-  O133  1  -0.00292281  0.25180271  0.60643467  1
  O2-  O134  1  0.00497156  0.25284838  0.94302492  1
  O2-  O135  1  -0.00132968  0.75116462  0.27683147  1
  O2-  O136  1  -0.00403293  0.75577998  0.60363174  1
  O2-  O137  1  0.00135009  0.74536718  0.93979174  1
  O2-  O138  1  0.49966705  0.25993866  0.27248251  1
  O2-  O139  1  0.50048133  0.26004514  0.60634828  1
  O2-  O140  1  0.49663264  0.25619770  0.93830619  1
  O2-  O141  1  0.49814931  0.74608453  0.26554525  1
  O2-  O142  1  0.50153162  0.74123198  0.60943970  1
  O2-  O143  1  0.49626760  0.74595487  0.94241263  1
  O2-  O144  1  0.06900375  0.17474541  0.09118360  1
  O2-  O145  1  0.07040388  0.17508613  0.42186443  1
  O2-  O146  1  0.07289176  0.18141380  0.76660991  1
  O2-  O147  1  0.07328432  0.67977313  0.08897377  1
  O2-  O148  1  0.06911223  0.67896653  0.42252154  1
  O2-  O149  1  0.06788445  0.68001752  0.76577008  1
  O2-  O150  1  0.56838738  0.17943645  0.09719397  1
  O2-  O151  1  0.56854404  0.17792031  0.43179998  1
  O2-  O152  1  0.56737446  0.17935050  0.76652820  1
  O2-  O153  1  0.57133155  0.68106157  0.09030951  1
  O2-  O154  1  0.57364642  0.68519763  0.43239291  1
  O2-  O155  1  0.57330268  0.67651098  0.75886820  1
  O2-  O156  1  0.18121562  0.43349924  0.23636821  1
  O2-  O157  1  0.18045696  0.43055462  0.56670001  1
  O2-  O158  1  0.17907173  0.42843970  0.90221440  1
  O2-  O159  1  0.17463421  0.93242274  0.23376582  1
  O2-  O160  1  0.17641791  0.92558211  0.57799813  1
  O2-  O161  1  0.17640092  0.92957046  0.90724973  1
  O2-  O162  1  0.68391142  0.42392466  0.23595717  1
  O2-  O163  1  0.67732949  0.42202266  0.57765641  1
  O2-  O164  1  0.68294332  0.42657595  0.89884575  1
  O2-  O165  1  0.68086997  0.93127717  0.24308966  1
  O2-  O166  1  0.68000587  0.93346386  0.56527583  1
  O2-  O167  1  0.67738033  0.93169841  0.90276869  1
  O2-  O168  1  0.42204507  0.31885147  0.08876318  1
  O2-  O169  1  0.42051226  0.31747387  0.42204861  1
  O2-  O170  1  0.42591721  0.32311168  0.75652249  1
  O2-  O171  1  0.42885278  0.82025416  0.08949906  1
  O2-  O172  1  0.43094367  0.82241336  0.42855118  1
  O2-  O173  1  0.43178018  0.82041724  0.76814219  1
  O2-  O174  1  0.93072495  0.32079471  0.08844721  1
  O2-  O175  1  0.93407539  0.31869940  0.43202372  1
  O2-  O176  1  0.92985181  0.32108222  0.75586052  1
  O2-  O177  1  0.93099441  0.82329214  0.09888431  1
  O2-  O178  1  0.92955872  0.82549994  0.42471546  1
  O2-  O179  1  0.92544626  0.82067129  0.75424060  1
  O2-  O180  1  0.32189714  0.06917262  0.24619545  1
  O2-  O181  1  0.31985335  0.06604229  0.56665413  1
  O2-  O182  1  0.32131656  0.06856139  0.90234955  1
  O2-  O183  1  0.31919427  0.57413945  0.24561008  1
  O2-  O184  1  0.32243902  0.57366598  0.57432738  1
  O2-  O185  1  0.31922628  0.57670071  0.89986932  1
  O2-  O186  1  0.82624107  0.06874508  0.24229334  1
  O2-  O187  1  0.82434269  0.07332820  0.57668709  1
  O2-  O188  1  0.82873455  0.06959340  0.91004924  1
  O2-  O189  1  0.82078077  0.57345357  0.23741033  1
  O2-  O190  1  0.81880139  0.56877197  0.56966126  1
  O2-  O191  1  0.81950975  0.56976106  0.90245945  1
  O2-  O192  1  0.04302903  0.08370522  0.27023799  1
  O2-  O193  1  0.04488302  0.08109012  0.59842494  1
  O2-  O194  1  0.04350198  0.08957357  0.93475356  1
  O2-  O195  1  0.04115353  0.58801586  0.26966394  1
  O2-  O196  1  0.03383523  0.58300327  0.59967293  1
  O2-  O197  1  0.04578091  0.58363524  0.93803310  1
  O2-  O198  1  0.53721362  0.08671083  0.26277821  1
  O2-  O199  1  0.53412391  0.08625257  0.59899536  1
  O2-  O200  1  0.53433929  0.08162369  0.93389783  1
  O2-  O201  1  0.55027257  0.57657566  0.26917404  1
  O2-  O202  1  0.55463520  0.58088053  0.60691725  1
  O2-  O203  1  0.54745797  0.58378275  0.93980765  1
  O2-  O204  1  0.16989263  0.19684163  0.27401043  1
  O2-  O205  1  0.16919992  0.20964262  0.59846193  1
  O2-  O206  1  0.16635534  0.20606643  0.94235856  1
  O2-  O207  1  0.16085463  0.70689765  0.26926703  1
  O2-  O208  1  0.16386209  0.70667548  0.59461050  1
  O2-  O209  1  0.16459357  0.70453307  0.93560639  1
  O2-  O210  1  0.66954069  0.20577585  0.26493821  1
  O2-  O211  1  0.66900537  0.20453372  0.60006276  1
  O2-  O212  1  0.66873776  0.20364132  0.92996837  1
  O2-  O213  1  0.67000181  0.71275438  0.26539865  1
  O2-  O214  1  0.66623791  0.70748574  0.60799740  1
  O2-  O215  1  0.66058189  0.71049801  0.93775600  1
  O2-  O216  1  0.08173304  0.45937079  0.06938788  1
  O2-  O217  1  0.08535190  0.46294426  0.40280328  1
  O2-  O218  1  0.08511530  0.46144934  0.73451060  1
  O2-  O219  1  0.08249193  0.95694652  0.05825465  1
  O2-  O220  1  0.08282192  0.95886070  0.40464938  1
  O2-  O221  1  0.07920142  0.94770522  0.72651871  1
  O2-  O222  1  0.57823620  0.44386398  0.06265449  1
  O2-  O223  1  0.57567184  0.44368261  0.39924672  1
  O2-  O224  1  0.57978834  0.44453991  0.72697722  1
  O2-  O225  1  0.58448885  0.96222535  0.07252833  1
  O2-  O226  1  0.58617711  0.96051160  0.39268672  1
  O2-  O227  1  0.58430514  0.96478100  0.73361953  1
  O2-  O228  1  0.20493465  0.33141894  0.07218304  1
  O2-  O229  1  0.20873924  0.33081448  0.40054893  1
  O2-  O230  1  0.21082823  0.33383246  0.73418044  1
  O2-  O231  1  0.19782685  0.83439774  0.05856352  1
  O2-  O232  1  0.20679193  0.83099762  0.40009053  1
  O2-  O233  1  0.20151380  0.83080979  0.72780781  1
  O2-  O234  1  0.71278703  0.32661787  0.06281307  1
  O2-  O235  1  0.71426905  0.32851767  0.40094414  1
  O2-  O236  1  0.70619966  0.33203412  0.72935412  1
  O2-  O237  1  0.71141479  0.83618079  0.07094657  1
  O2-  O238  1  0.70881995  0.84175398  0.39684399  1
  O2-  O239  1  0.70871177  0.83687640  0.73559409  1
  O2-  O240  1  0.44124774  0.41918737  0.27404710  1
  O2-  O241  1  0.44506576  0.41902549  0.60466547  1
  O2-  O242  1  0.44525824  0.41772048  0.93856095  1
  O2-  O243  1  0.45886359  0.91755889  0.26130151  1
  O2-  O244  1  0.46521665  0.91373255  0.59839146  1
  O2-  O245  1  0.46103009  0.91129412  0.93917723  1
  O2-  O246  1  0.96412715  0.41791894  0.26503947  1
  O2-  O247  1  0.95793585  0.41507719  0.60498657  1
  O2-  O248  1  0.95837834  0.41493747  0.93717054  1
  O2-  O249  1  0.95889901  0.91452844  0.27136135  1
  O2-  O250  1  0.94569089  0.91682071  0.60340635  1
  O2-  O251  1  0.95747416  0.91655716  0.92763051  1
  O2-  O252  1  0.33402726  0.28971676  0.26761882  1
  O2-  O253  1  0.33600936  0.29098046  0.60369783  1
  O2-  O254  1  0.33166447  0.29188844  0.93820609  1
  O2-  O255  1  0.32794946  0.79526914  0.26267639  1
  O2-  O256  1  0.33311128  0.79443505  0.59847075  1
  O2-  O257  1  0.33485623  0.79698096  0.93772948  1
  O2-  O258  1  0.83939653  0.28706245  0.26153258  1
  O2-  O259  1  0.83617062  0.29793717  0.60246162  1
  O2-  O260  1  0.84227873  0.29174834  0.93195338  1
  O2-  O261  1  0.83693644  0.79744604  0.27265270  1
  O2-  O262  1  0.83170513  0.79296761  0.60374742  1
  O2-  O263  1  0.82964418  0.79172176  0.93211657  1
  O2-  O264  1  0.41479667  0.03579972  0.07216787  1
  O2-  O265  1  0.41700229  0.04106455  0.39617902  1
  O2-  O266  1  0.41385447  0.03379416  0.73453576  1
  O2-  O267  1  0.42020438  0.54826851  0.06822666  1
  O2-  O268  1  0.41802737  0.55321204  0.39577138  1
  O2-  O269  1  0.41838101  0.55366305  0.72546363  1
  O2-  O270  1  0.91797087  0.04290481  0.06315049  1
  O2-  O271  1  0.91264019  0.04146049  0.39789412  1
  O2-  O272  1  0.91845549  0.04852620  0.72849690  1
  O2-  O273  1  0.91805406  0.54545887  0.06781503  1
  O2-  O274  1  0.91758313  0.54037159  0.40236888  1
  O2-  O275  1  0.91321470  0.53606847  0.73837263  1
  O2-  O276  1  0.29113752  0.16372571  0.07293200  1
  O2-  O277  1  0.29933219  0.16297146  0.39852901  1
  O2-  O278  1  0.29004082  0.16416105  0.73518042  1
  O2-  O279  1  0.29219275  0.67199545  0.06912964  1
  O2-  O280  1  0.29428541  0.66724071  0.39551358  1
  O2-  O281  1  0.29374911  0.66753095  0.72490874  1
  O2-  O282  1  0.80288994  0.16653421  0.05877994  1
  O2-  O283  1  0.79848799  0.16436703  0.39343111  1
  O2-  O284  1  0.80178496  0.16904975  0.72758710  1
  O2-  O285  1  0.79192065  0.67046886  0.06753794  1
  O2-  O286  1  0.79404943  0.67275445  0.40387668  1
  O2-  O287  1  0.79122055  0.66623431  0.73764455  1
