# generated using pymatgen
data_Ca2Al2SiO7
_symmetry_space_group_name_H-M   'P 1'
_cell_length_a   15.46718831
_cell_length_b   15.47064866
_cell_length_c   15.29064390
_cell_angle_alpha   89.98110077
_cell_angle_beta   90.00714070
_cell_angle_gamma   89.99946408
_symmetry_Int_Tables_number   1
_chemical_formula_structural   Ca2Al2SiO7
_chemical_formula_sum   'Ca48 Al48 Si24 O168'
_cell_volume   3658.85874731
_cell_formula_units_Z   24
loop_
 _symmetry_equiv_pos_site_id
 _symmetry_equiv_pos_as_xyz
  1  'x, y, z'
loop_
 _atom_type_symbol
 _atom_type_oxidation_number
  Ca2+  2.0
  Al0+  0.0
  Si0+  0.0
  O2-  -2.0
loop_
 _atom_site_type_symbol
 _atom_site_label
 _atom_site_symmetry_multiplicity
 _atom_site_fract_x
 _atom_site_fract_y
 _atom_site_fract_z
 _atom_site_occupancy
  Ca2+  Ca0  1  0.16818028  0.08631253  0.17413174  1
  Ca2+  Ca1  1  0.17083324  0.08621282  0.49973055  1
  Ca2+  Ca2  1  0.16683901  0.08172464  0.84069590  1
  Ca2+  Ca3  1  0.17086930  0.59456476  0.16812608  1
  Ca2+  Ca4  1  0.16618485  0.58122324  0.51213736  1
  Ca2+  Ca5  1  0.17362304  0.59462746  0.83642710  1
  Ca2+  Ca6  1  0.66322131  0.06937149  0.17397893  1
  Ca2+  Ca7  1  0.66514687  0.07394309  0.50504564  1
  Ca2+  Ca8  1  0.67178536  0.07058161  0.83471127  1
  Ca2+  Ca9  1  0.67741829  0.58824312  0.17434393  1
  Ca2+  Ca10  1  0.67795509  0.58960476  0.49933674  1
  Ca2+  Ca11  1  0.67697641  0.58998740  0.84158042  1
  Ca2+  Ca12  1  0.07731410  0.32375990  0.15999696  1
  Ca2+  Ca13  1  0.08313551  0.33155016  0.49411811  1
  Ca2+  Ca14  1  0.08206153  0.33308323  0.83380542  1
  Ca2+  Ca15  1  0.07301071  0.82410440  0.15969956  1
  Ca2+  Ca16  1  0.07962767  0.81942852  0.49618915  1
  Ca2+  Ca17  1  0.07653346  0.82199887  0.83317391  1
  Ca2+  Ca18  1  0.59442164  0.32645666  0.16651333  1
  Ca2+  Ca19  1  0.58581262  0.32775966  0.48900869  1
  Ca2+  Ca20  1  0.58324722  0.33266374  0.82875847  1
  Ca2+  Ca21  1  0.58544900  0.82554911  0.16044572  1
  Ca2+  Ca22  1  0.58283515  0.83406004  0.49685218  1
  Ca2+  Ca23  1  0.57805908  0.83410146  0.83437394  1
  Ca2+  Ca24  1  0.33236649  0.42439240  0.16679676  1
  Ca2+  Ca25  1  0.32450718  0.42621723  0.50911627  1
  Ca2+  Ca26  1  0.32632647  0.43198393  0.83582332  1
  Ca2+  Ca27  1  0.33455064  0.91960883  0.16991054  1
  Ca2+  Ca28  1  0.33681506  0.92082476  0.50337178  1
  Ca2+  Ca29  1  0.33579408  0.91055635  0.83880554  1
  Ca2+  Ca30  1  0.83467644  0.42598480  0.16942944  1
  Ca2+  Ca31  1  0.82872042  0.42525038  0.49980876  1
  Ca2+  Ca32  1  0.83856358  0.42730993  0.83797356  1
  Ca2+  Ca33  1  0.82282772  0.90662064  0.16828808  1
  Ca2+  Ca34  1  0.81925634  0.92088489  0.50752411  1
  Ca2+  Ca35  1  0.82433864  0.91179044  0.84043481  1
  Ca2+  Ca36  1  0.41997921  0.16487950  0.16852596  1
  Ca2+  Ca37  1  0.42138948  0.16898513  0.48944121  1
  Ca2+  Ca38  1  0.41879984  0.16947991  0.83025198  1
  Ca2+  Ca39  1  0.43005260  0.66960537  0.15619740  1
  Ca2+  Ca40  1  0.42099241  0.67117140  0.49665969  1
  Ca2+  Ca41  1  0.41550373  0.67405441  0.82900948  1
  Ca2+  Ca42  1  0.92621984  0.17115871  0.15620687  1
  Ca2+  Ca43  1  0.91861889  0.16603194  0.49368939  1
  Ca2+  Ca44  1  0.91410639  0.17144809  0.83064656  1
  Ca2+  Ca45  1  0.92248094  0.66299575  0.15848329  1
  Ca2+  Ca46  1  0.92355032  0.65500774  0.49673739  1
  Ca2+  Ca47  1  0.91885244  0.66384097  0.83141949  1
  Al0+  Al48  1  0.00128426  -0.00115180  -0.00634883  1
  Al0+  Al49  1  0.00130123  -0.00173273  0.33047798  1
  Al0+  Al50  1  0.00119242  0.00118680  0.66758378  1
  Al0+  Al51  1  0.00215750  0.49602508  -0.00260704  1
  Al0+  Al52  1  0.00207608  0.49908686  0.33124793  1
  Al0+  Al53  1  -0.00204310  0.49532215  0.66883155  1
  Al0+  Al54  1  0.50085986  0.00057958  0.00115291  1
  Al0+  Al55  1  0.49849516  0.00340881  0.33757209  1
  Al0+  Al56  1  0.49982601  0.00032022  0.66743791  1
  Al0+  Al57  1  0.49994697  0.49760558  0.00063016  1
  Al0+  Al58  1  0.49854441  0.50038238  0.33321580  1
  Al0+  Al59  1  0.49813209  0.50049762  0.66742107  1
  Al0+  Al60  1  0.25211114  0.25043585  -0.00264335  1
  Al0+  Al61  1  0.25044256  0.25072838  0.33355012  1
  Al0+  Al62  1  0.25047823  0.25078145  0.66980353  1
  Al0+  Al63  1  0.25076754  0.75260045  0.00180545  1
  Al0+  Al64  1  0.24892278  0.75288696  0.33134326  1
  Al0+  Al65  1  0.24985980  0.75272100  0.66012769  1
  Al0+  Al66  1  0.75183589  0.24785332  -0.00592324  1
  Al0+  Al67  1  0.74988547  0.25093630  0.33012862  1
  Al0+  Al68  1  0.75058673  0.24850796  0.66750150  1
  Al0+  Al69  1  0.74950386  0.74881598  0.00243426  1
  Al0+  Al70  1  0.74942832  0.75127537  0.34170706  1
  Al0+  Al71  1  0.74827235  0.75063771  0.67396077  1
  Al0+  Al72  1  0.57175909  0.67610308  0.98560974  1
  Al0+  Al73  1  0.57140598  0.17975592  0.31956886  1
  Al0+  Al74  1  0.31821777  0.07123266  0.34708568  1
  Al0+  Al75  1  0.82121183  0.56869361  0.01375188  1
  Al0+  Al76  1  0.81948378  0.56916122  0.68123255  1
  Al0+  Al77  1  0.92853760  0.31954513  0.98246922  1
  Al0+  Al78  1  0.17778376  0.42739503  0.68233746  1
  Al0+  Al79  1  0.07196388  0.67784909  0.98567613  1
  Al0+  Al80  1  0.82313071  0.07173031  0.68139907  1
  Al0+  Al81  1  0.67708007  0.42750618  0.34668414  1
  Al0+  Al82  1  0.06704593  0.67890771  0.65354610  1
  Al0+  Al83  1  0.57086457  0.67961750  0.32163927  1
  Al0+  Al84  1  0.92674812  0.81924707  0.98570137  1
  Al0+  Al85  1  0.42971593  0.82162669  0.65112131  1
  Al0+  Al86  1  0.07072724  0.67746145  0.31999424  1
  Al0+  Al87  1  0.31953048  0.57458740  0.68072857  1
  Al0+  Al88  1  0.32050555  0.57324647  0.01544229  1
  Al0+  Al89  1  0.43083820  0.82167632  0.98722099  1
  Al0+  Al90  1  0.67953915  0.93027240  0.01606453  1
  Al0+  Al91  1  0.67871089  0.93012259  0.34796954  1
  Al0+  Al92  1  0.67731286  0.92937646  0.68475303  1
  Al0+  Al93  1  0.07315174  0.17834039  0.98320557  1
  Al0+  Al94  1  0.07112858  0.17867766  0.32124562  1
  Al0+  Al95  1  0.82257596  0.57059056  0.34826362  1
  Si0+  Si96  1  0.17918778  0.92972627  0.68154441  1
  Si0+  Si97  1  0.32105082  0.07254837  0.01517399  1
  Si0+  Si98  1  0.67680615  0.42657539  0.68172392  1
  Si0+  Si99  1  0.92836855  0.32160989  0.31639065  1
  Si0+  Si100  1  0.42858518  0.82390494  0.31752831  1
  Si0+  Si101  1  0.18160748  0.43035673  0.34637016  1
  Si0+  Si102  1  0.67696984  0.42416035  0.01491217  1
  Si0+  Si103  1  0.82343020  0.07167807  0.01683629  1
  Si0+  Si104  1  0.32119356  0.57462466  0.34769262  1
  Si0+  Si105  1  0.18071785  0.42628235  0.01884619  1
  Si0+  Si106  1  0.17654853  0.92728724  0.35214442  1
  Si0+  Si107  1  0.92562523  0.82341735  0.64993541  1
  Si0+  Si108  1  0.32051819  0.07100726  0.68243274  1
  Si0+  Si109  1  0.57297206  0.67657813  0.64972964  1
  Si0+  Si110  1  0.42699216  0.32260724  0.31611516  1
  Si0+  Si111  1  0.42883553  0.32087772  0.98338602  1
  Si0+  Si112  1  0.17817569  0.93009785  0.01579660  1
  Si0+  Si113  1  0.57080648  0.17852969  0.98392044  1
  Si0+  Si114  1  0.07363362  0.17840539  0.64997930  1
  Si0+  Si115  1  0.92802941  0.31858585  0.64845346  1
  Si0+  Si116  1  0.56943953  0.18131048  0.65178131  1
  Si0+  Si117  1  0.42782839  0.32159807  0.65111306  1
  Si0+  Si118  1  0.92755187  0.82175020  0.31966748  1
  Si0+  Si119  1  0.82420755  0.07223184  0.34582009  1
  O2-  O120  1  0.24847718  0.00324774  0.05667336  1
  O2-  O121  1  0.24492177  -0.00325697  0.39623131  1
  O2-  O122  1  0.24991137  0.00089552  0.72511558  1
  O2-  O123  1  0.24360675  0.50039502  0.06340858  1
  O2-  O124  1  0.24743093  0.50590655  0.38910486  1
  O2-  O125  1  0.24433317  0.50539432  0.73058911  1
  O2-  O126  1  0.75708409  0.00248794  0.06306367  1
  O2-  O127  1  0.75374393  0.00655155  0.39159940  1
  O2-  O128  1  0.75606769  -0.00414083  0.73210987  1
  O2-  O129  1  0.74367832  0.49484026  0.05802997  1
  O2-  O130  1  0.74679428  0.50104745  0.39723923  1
  O2-  O131  1  0.74039247  0.49836283  0.72705608  1
  O2-  O132  1  -0.00713033  0.24803914  0.27391404  1
  O2-  O133  1  0.00067012  0.24754762  0.60779717  1
  O2-  O134  1  -0.00004897  0.24705501  0.93128569  1
  O2-  O135  1  -0.00680748  0.74980010  0.27608722  1
  O2-  O136  1  -0.01025278  0.75063485  0.60484407  1
  O2-  O137  1  -0.00438790  0.74452923  0.93515754  1
  O2-  O138  1  0.50064819  0.25852766  0.27230747  1
  O2-  O139  1  0.50137502  0.25423823  0.60801243  1
  O2-  O140  1  0.50349836  0.25314467  0.94144390  1
  O2-  O141  1  0.49578017  0.75399474  0.27443552  1
  O2-  O142  1  0.50399843  0.74590315  0.60611794  1
  O2-  O143  1  0.49796057  0.74643687  0.93560269  1
  O2-  O144  1  0.07437431  0.18057000  0.09713018  1
  O2-  O145  1  0.07162109  0.18232515  0.43470549  1
  O2-  O146  1  0.07710274  0.17904069  0.75442857  1
  O2-  O147  1  0.07184367  0.68264978  0.09950971  1
  O2-  O148  1  0.07152606  0.67707865  0.43343865  1
  O2-  O149  1  0.06878375  0.68289897  0.76586508  1
  O2-  O150  1  0.56869526  0.17821316  0.08893370  1
  O2-  O151  1  0.56787880  0.17979593  0.43298694  1
  O2-  O152  1  0.56636273  0.18286935  0.75721630  1
  O2-  O153  1  0.57142079  0.67837698  0.09959745  1
  O2-  O154  1  0.56854856  0.68125215  0.43493012  1
  O2-  O155  1  0.57183607  0.67419491  0.75484216  1
  O2-  O156  1  0.18394014  0.42736378  0.24163434  1
  O2-  O157  1  0.18136451  0.42479324  0.56782505  1
  O2-  O158  1  0.18636920  0.42133450  0.91385753  1
  O2-  O159  1  0.17713200  0.92695445  0.24671180  1
  O2-  O160  1  0.17910740  0.93238266  0.57638368  1
  O2-  O161  1  0.17999734  0.93060723  0.91045998  1
  O2-  O162  1  0.68070592  0.42575161  0.23345382  1
  O2-  O163  1  0.67891796  0.42281720  0.57646027  1
  O2-  O164  1  0.67653889  0.42247003  0.90909713  1
  O2-  O165  1  0.67840315  0.93001718  0.23498812  1
  O2-  O166  1  0.67558711  0.93361671  0.57082462  1
  O2-  O167  1  0.67644849  0.93494568  0.90348226  1
  O2-  O168  1  0.42525421  0.31875496  0.08827611  1
  O2-  O169  1  0.42396166  0.31934413  0.42187444  1
  O2-  O170  1  0.42851423  0.31866894  0.75632482  1
  O2-  O171  1  0.43230120  0.82417163  0.10090916  1
  O2-  O172  1  0.42790676  0.82296863  0.42332770  1
  O2-  O173  1  0.42972776  0.82337554  0.76371835  1
  O2-  O174  1  0.92915209  0.31684922  0.09645676  1
  O2-  O175  1  0.93067933  0.32227025  0.42232746  1
  O2-  O176  1  0.92610291  0.31706380  0.75293844  1
  O2-  O177  1  0.92926190  0.82014710  0.09968705  1
  O2-  O178  1  0.93118354  0.82567901  0.42522463  1
  O2-  O179  1  0.92900771  0.82467173  0.75509353  1
  O2-  O180  1  0.31758073  0.07093908  0.23387579  1
  O2-  O181  1  0.31973605  0.07283225  0.57746725  1
  O2-  O182  1  0.32177055  0.07350448  0.90972264  1
  O2-  O183  1  0.32118309  0.57310146  0.24267948  1
  O2-  O184  1  0.31962868  0.57095776  0.56642559  1
  O2-  O185  1  0.32001421  0.57190522  0.90262094  1
  O2-  O186  1  0.82478290  0.07025963  0.24050663  1
  O2-  O187  1  0.82061893  0.07297418  0.56717374  1
  O2-  O188  1  0.81944446  0.07257105  0.91141446  1
  O2-  O189  1  0.82456670  0.56876996  0.23496947  1
  O2-  O190  1  0.82076286  0.56592240  0.56816309  1
  O2-  O191  1  0.82009563  0.56682218  0.90056083  1
  O2-  O192  1  0.04731486  0.08022829  0.26768797  1
  O2-  O193  1  0.04895223  0.08568933  0.60240429  1
  O2-  O194  1  0.04967367  0.07925898  0.93067814  1
  O2-  O195  1  0.04565596  0.58007549  0.26537598  1
  O2-  O196  1  0.03918055  0.57938179  0.60257285  1
  O2-  O197  1  0.05390544  0.57639884  0.93685594  1
  O2-  O198  1  0.53393633  0.08540126  0.26529115  1
  O2-  O199  1  0.53789411  0.09077698  0.60510465  1
  O2-  O200  1  0.53621805  0.09011817  0.93509500  1
  O2-  O201  1  0.54120632  0.58249279  0.26816599  1
  O2-  O202  1  0.54745695  0.58250602  0.60346494  1
  O2-  O203  1  0.54827140  0.57540530  0.93520438  1
  O2-  O204  1  0.16641579  0.21342174  0.26740553  1
  O2-  O205  1  0.16565792  0.20866922  0.60308645  1
  O2-  O206  1  0.17199659  0.20802066  0.93094158  1
  O2-  O207  1  0.16670522  0.71179445  0.26647970  1
  O2-  O208  1  0.16242425  0.71288950  0.59815189  1
  O2-  O209  1  0.16817401  0.71451580  0.93405075  1
  O2-  O210  1  0.66844291  0.20591913  0.26371084  1
  O2-  O211  1  0.66218908  0.20618634  0.60523650  1
  O2-  O212  1  0.66270201  0.20218835  0.93532873  1
  O2-  O213  1  0.66904675  0.71081779  0.27139003  1
  O2-  O214  1  0.66699203  0.70424353  0.60518572  1
  O2-  O215  1  0.66858962  0.70762272  0.93365248  1
  O2-  O216  1  0.08468892  0.44363975  0.06171819  1
  O2-  O217  1  0.08871633  0.45327706  0.39363606  1
  O2-  O218  1  0.07718640  0.44559123  0.73203888  1
  O2-  O219  1  0.08608211  0.95719400  0.06306818  1
  O2-  O220  1  0.08329503  0.95324007  0.39867547  1
  O2-  O221  1  0.08809607  0.95736906  0.72978315  1
  O2-  O222  1  0.58164609  0.44217032  0.06035378  1
  O2-  O223  1  0.57587258  0.44924591  0.39789742  1
  O2-  O224  1  0.58068940  0.44582694  0.72546913  1
  O2-  O225  1  0.58429397  0.96691774  0.07011239  1
  O2-  O226  1  0.58317924  0.96388367  0.40204175  1
  O2-  O227  1  0.58141027  0.96674779  0.73742846  1
  O2-  O228  1  0.21464762  0.33490649  0.06633912  1
  O2-  O229  1  0.21343164  0.34084882  0.39627389  1
  O2-  O230  1  0.21322636  0.33175369  0.73719084  1
  O2-  O231  1  0.20802372  0.84081818  0.06639300  1
  O2-  O232  1  0.20465117  0.83467307  0.39974612  1
  O2-  O233  1  0.20898044  0.83889001  0.72797784  1
  O2-  O234  1  0.70538282  0.32994745  0.05939980  1
  O2-  O235  1  0.70685674  0.32872880  0.40050560  1
  O2-  O236  1  0.70469729  0.33399388  0.72886419  1
  O2-  O237  1  0.70883318  0.83332680  0.06947238  1
  O2-  O238  1  0.70897288  0.83615695  0.40667624  1
  O2-  O239  1  0.69861675  0.82986911  0.73687774  1
  O2-  O240  1  0.44573063  0.41777754  0.27130177  1
  O2-  O241  1  0.45043849  0.41470139  0.60393092  1
  O2-  O242  1  0.45385459  0.41240964  0.93487200  1
  O2-  O243  1  0.45337090  0.91833669  0.27401438  1
  O2-  O244  1  0.46040564  0.91964519  0.59792260  1
  O2-  O245  1  0.45990457  0.92029560  0.93360839  1
  O2-  O246  1  0.96131897  0.41173857  0.26842100  1
  O2-  O247  1  0.95590211  0.40937043  0.59963599  1
  O2-  O248  1  0.95973099  0.41603934  0.92836543  1
  O2-  O249  1  0.95582954  0.91293942  0.26980782  1
  O2-  O250  1  0.95616271  0.91607191  0.60361848  1
  O2-  O251  1  0.95703309  0.91638374  0.93126094  1
  O2-  O252  1  0.33693762  0.28945207  0.26744207  1
  O2-  O253  1  0.33740427  0.28919574  0.60341145  1
  O2-  O254  1  0.34064590  0.28745818  0.93292614  1
  O2-  O255  1  0.33368130  0.80181921  0.27251691  1
  O2-  O256  1  0.33330875  0.79480368  0.59405384  1
  O2-  O257  1  0.33099646  0.79783745  0.93602234  1
  O2-  O258  1  0.83398105  0.30193166  0.27069078  1
  O2-  O259  1  0.83656132  0.28899823  0.60033043  1
  O2-  O260  1  0.83066806  0.29141639  0.92678632  1
  O2-  O261  1  0.83241896  0.79891318  0.27715594  1
  O2-  O262  1  0.82914980  0.80224812  0.60824572  1
  O2-  O263  1  0.82839822  0.79335206  0.93352421  1
  O2-  O264  1  0.41200314  0.04349611  0.06322580  1
  O2-  O265  1  0.41382394  0.04263171  0.40380221  1
  O2-  O266  1  0.41210056  0.04440534  0.73026773  1
  O2-  O267  1  0.41639189  0.53639448  0.06864414  1
  O2-  O268  1  0.41128917  0.54463030  0.39652724  1
  O2-  O269  1  0.41727239  0.54259379  0.73332324  1
  O2-  O270  1  0.91964727  0.04936958  0.05859001  1
  O2-  O271  1  0.91756064  0.04588183  0.39319625  1
  O2-  O272  1  0.92459653  0.05229537  0.73150465  1
  O2-  O273  1  0.91900063  0.53599361  0.06538003  1
  O2-  O274  1  0.92052250  0.53643947  0.40037490  1
  O2-  O275  1  0.91375006  0.53312967  0.73505670  1
  O2-  O276  1  0.29525486  0.16483026  0.06257813  1
  O2-  O277  1  0.28712284  0.16765543  0.40261752  1
  O2-  O278  1  0.29360479  0.16256568  0.73090826  1
  O2-  O279  1  0.29182671  0.67012724  0.07036204  1
  O2-  O280  1  0.29606201  0.66790779  0.39323483  1
  O2-  O281  1  0.29239417  0.67437603  0.73055555  1
  O2-  O282  1  0.79609566  0.16558811  0.06148830  1
  O2-  O283  1  0.80204306  0.16739799  0.38981930  1
  O2-  O284  1  0.78881026  0.16794410  0.73574933  1
  O2-  O285  1  0.79225643  0.66507599  0.06844168  1
  O2-  O286  1  0.79645986  0.66838255  0.40374796  1
  O2-  O287  1  0.79455951  0.66710393  0.73440091  1
