# generated using pymatgen
data_Ca2Al2SiO7
_symmetry_space_group_name_H-M   'P 1'
_cell_length_a   15.46315310
_cell_length_b   15.46270344
_cell_length_c   15.28743629
_cell_angle_alpha   90.00548454
_cell_angle_beta   89.99901616
_cell_angle_gamma   90.00479164
_symmetry_Int_Tables_number   1
_chemical_formula_structural   Ca2Al2SiO7
_chemical_formula_sum   'Ca48 Al48 Si24 O168'
_cell_volume   3655.25886383
_cell_formula_units_Z   24
loop_
 _symmetry_equiv_pos_site_id
 _symmetry_equiv_pos_as_xyz
  1  'x, y, z'
loop_
 _atom_type_symbol
 _atom_type_oxidation_number
  Ca2+  2.0
  Al0+  0.0
  Si0+  0.0
  O2-  -2.0
loop_
 _atom_site_type_symbol
 _atom_site_label
 _atom_site_symmetry_multiplicity
 _atom_site_fract_x
 _atom_site_fract_y
 _atom_site_fract_z
 _atom_site_occupancy
  Ca2+  Ca0  1  0.17758198  0.07888836  0.17689465  1
  Ca2+  Ca1  1  0.16588334  0.07244427  0.49909889  1
  Ca2+  Ca2  1  0.17000639  0.07462724  0.83802740  1
  Ca2+  Ca3  1  0.16987070  0.57991185  0.16959442  1
  Ca2+  Ca4  1  0.16228861  0.58593125  0.49539104  1
  Ca2+  Ca5  1  0.16232781  0.58210397  0.84398894  1
  Ca2+  Ca6  1  0.66926559  0.07937940  0.17423833  1
  Ca2+  Ca7  1  0.67455444  0.07217246  0.49886412  1
  Ca2+  Ca8  1  0.66587213  0.07967854  0.83756720  1
  Ca2+  Ca9  1  0.67387177  0.58832185  0.17214235  1
  Ca2+  Ca10  1  0.66772850  0.58478643  0.50167406  1
  Ca2+  Ca11  1  0.67917401  0.57928705  0.84106686  1
  Ca2+  Ca12  1  0.07750032  0.34424761  0.16484611  1
  Ca2+  Ca13  1  0.07492536  0.33413291  0.49067107  1
  Ca2+  Ca14  1  0.07519794  0.33985026  0.83272374  1
  Ca2+  Ca15  1  0.09164340  0.82414552  0.16615512  1
  Ca2+  Ca16  1  0.08340421  0.82972334  0.49147828  1
  Ca2+  Ca17  1  0.08215370  0.82053941  0.82334215  1
  Ca2+  Ca18  1  0.57324108  0.32569531  0.16383243  1
  Ca2+  Ca19  1  0.57444933  0.33096361  0.48875665  1
  Ca2+  Ca20  1  0.58339462  0.32468574  0.83284258  1
  Ca2+  Ca21  1  0.58019039  0.83056044  0.16592659  1
  Ca2+  Ca22  1  0.58695762  0.83133926  0.49259027  1
  Ca2+  Ca23  1  0.57723310  0.83575000  0.83164401  1
  Ca2+  Ca24  1  0.32268116  0.42256678  0.17776645  1
  Ca2+  Ca25  1  0.32876401  0.41917898  0.49626431  1
  Ca2+  Ca26  1  0.32116261  0.42833979  0.84688104  1
  Ca2+  Ca27  1  0.33416481  0.92457297  0.17213336  1
  Ca2+  Ca28  1  0.31976441  0.91510551  0.49843531  1
  Ca2+  Ca29  1  0.32805872  0.91639170  0.84080338  1
  Ca2+  Ca30  1  0.83943639  0.42022439  0.16821483  1
  Ca2+  Ca31  1  0.83963315  0.41581394  0.50132951  1
  Ca2+  Ca32  1  0.84078599  0.41961473  0.84239592  1
  Ca2+  Ca33  1  0.82850683  0.92137837  0.18217994  1
  Ca2+  Ca34  1  0.82755227  0.90689095  0.50296892  1
  Ca2+  Ca35  1  0.82745472  0.90679018  0.83306174  1
  Ca2+  Ca36  1  0.41397827  0.16600570  0.16096814  1
  Ca2+  Ca37  1  0.41415659  0.17091874  0.49033557  1
  Ca2+  Ca38  1  0.41934136  0.16003725  0.83601531  1
  Ca2+  Ca39  1  0.41429231  0.66810135  0.16367799  1
  Ca2+  Ca40  1  0.42429966  0.66458626  0.48738927  1
  Ca2+  Ca41  1  0.40869232  0.67353636  0.83536205  1
  Ca2+  Ca42  1  0.91285214  0.17560666  0.16474445  1
  Ca2+  Ca43  1  0.91134611  0.17577239  0.49231761  1
  Ca2+  Ca44  1  0.91690904  0.17954117  0.83029331  1
  Ca2+  Ca45  1  0.92755992  0.67011490  0.16481038  1
  Ca2+  Ca46  1  0.92907886  0.67929749  0.49425034  1
  Ca2+  Ca47  1  0.92813023  0.66520007  0.82922469  1
  Al0+  Al48  1  -0.00290050  0.00086090  -0.00124374  1
  Al0+  Al49  1  -0.00019429  0.00413612  0.33731015  1
  Al0+  Al50  1  -0.00099295  0.00194785  0.67092228  1
  Al0+  Al51  1  -0.00193811  0.50223953  0.00071820  1
  Al0+  Al52  1  -0.00021831  0.50163570  0.33066861  1
  Al0+  Al53  1  0.00098454  0.50056237  0.65856516  1
  Al0+  Al54  1  0.49923539  -0.00124203  -0.00475081  1
  Al0+  Al55  1  0.50290598  -0.00021319  0.34232130  1
  Al0+  Al56  1  0.50263648  -0.00038052  0.66843998  1
  Al0+  Al57  1  0.50150231  0.49915411  -0.00000611  1
  Al0+  Al58  1  0.50094409  0.49866586  0.32652957  1
  Al0+  Al59  1  0.50016171  0.49887719  0.67050890  1
  Al0+  Al60  1  0.24777591  0.24852022  0.00440140  1
  Al0+  Al61  1  0.24846016  0.25299318  0.33765843  1
  Al0+  Al62  1  0.25052463  0.25180539  0.66936816  1
  Al0+  Al63  1  0.24959834  0.74900438  -0.00522131  1
  Al0+  Al64  1  0.25299803  0.74963152  0.33574114  1
  Al0+  Al65  1  0.25218158  0.75078280  0.66556402  1
  Al0+  Al66  1  0.74848434  0.24885491  -0.00829982  1
  Al0+  Al67  1  0.74826862  0.25039791  0.33233730  1
  Al0+  Al68  1  0.74751260  0.24871093  0.66258562  1
  Al0+  Al69  1  0.74847699  0.74881424  0.00444364  1
  Al0+  Al70  1  0.75102262  0.74883932  0.33052345  1
  Al0+  Al71  1  0.74984543  0.74771584  0.67103628  1
  Al0+  Al72  1  0.17898189  0.92838837  0.34637688  1
  Al0+  Al73  1  0.92944517  0.82480615  0.31877898  1
  Al0+  Al74  1  0.32256843  0.57333398  0.01476509  1
  Al0+  Al75  1  0.92941407  0.31958100  0.65189419  1
  Al0+  Al76  1  0.92718485  0.82173461  0.65387057  1
  Al0+  Al77  1  0.68133078  0.92784171  0.68356177  1
  Al0+  Al78  1  0.06854561  0.68207633  0.98660644  1
  Al0+  Al79  1  0.82176569  0.07404711  0.34749864  1
  Al0+  Al80  1  0.92795126  0.32011022  0.31787978  1
  Al0+  Al81  1  0.56809211  0.17936011  0.98619537  1
  Al0+  Al82  1  0.17802431  0.92806618  0.68196626  1
  Al0+  Al83  1  0.43120934  0.81854162  0.98738905  1
  Al0+  Al84  1  0.81939551  0.57042593  0.01481662  1
  Al0+  Al85  1  0.93165304  0.31938421  0.98693139  1
  Al0+  Al86  1  0.07326612  0.68152558  0.31534316  1
  Al0+  Al87  1  0.32072355  0.06836934  0.01230310  1
  Al0+  Al88  1  0.32282396  0.07311583  0.34860042  1
  Al0+  Al89  1  0.17657685  0.43135141  0.35081221  1
  Al0+  Al90  1  0.32369696  0.57033844  0.34829400  1
  Al0+  Al91  1  0.57227501  0.67752934  0.31996887  1
  Al0+  Al92  1  0.07406838  0.68006928  0.64943072  1
  Al0+  Al93  1  0.68169289  0.92656697  0.34842021  1
  Al0+  Al94  1  0.17749312  0.42933389  0.01455877  1
  Al0+  Al95  1  0.42658545  0.32007935  0.31959625  1
  Si0+  Si96  1  0.43001149  0.32142854  0.65307231  1
  Si0+  Si97  1  0.67681190  0.42726885  0.68158752  1
  Si0+  Si98  1  0.17592227  0.92772102  0.01429156  1
  Si0+  Si99  1  0.82074527  0.56682233  0.68041339  1
  Si0+  Si100  1  0.67891553  0.92998599  0.01469137  1
  Si0+  Si101  1  0.57520599  0.67591124  0.98157450  1
  Si0+  Si102  1  0.81978557  0.07264249  0.01314648  1
  Si0+  Si103  1  0.42467125  0.32251481  0.98251567  1
  Si0+  Si104  1  0.67942826  0.42944665  0.34685751  1
  Si0+  Si105  1  0.82074141  0.07574538  0.68601391  1
  Si0+  Si106  1  0.56976246  0.17785053  0.31799964  1
  Si0+  Si107  1  0.07439150  0.17846696  0.65088435  1
  Si0+  Si108  1  0.67835270  0.42424562  0.01643002  1
  Si0+  Si109  1  0.32453143  0.57034429  0.68196591  1
  Si0+  Si110  1  0.32164810  0.07248868  0.68411684  1
  Si0+  Si111  1  0.43082271  0.82204708  0.65046621  1
  Si0+  Si112  1  0.43039972  0.82291569  0.31884713  1
  Si0+  Si113  1  0.17894585  0.43089065  0.68156099  1
  Si0+  Si114  1  0.82099990  0.57064862  0.34978356  1
  Si0+  Si115  1  0.07354189  0.17434445  0.98287137  1
  Si0+  Si116  1  0.92442976  0.82457768  0.98442657  1
  Si0+  Si117  1  0.56970195  0.67786667  0.65439485  1
  Si0+  Si118  1  0.07315056  0.17890182  0.31697852  1
  Si0+  Si119  1  0.56975082  0.17754899  0.64850819  1
  O2-  O120  1  0.24200083  -0.00140179  0.05842186  1
  O2-  O121  1  0.25063348  0.00110377  0.39747776  1
  O2-  O122  1  0.25291491  0.00388347  0.72799960  1
  O2-  O123  1  0.25623125  0.49531583  0.06225661  1
  O2-  O124  1  0.24940283  0.50265625  0.40145066  1
  O2-  O125  1  0.24809643  0.50431503  0.72280308  1
  O2-  O126  1  0.75471350  -0.00374063  0.05506799  1
  O2-  O127  1  0.75769555  -0.00501601  0.39820049  1
  O2-  O128  1  0.75762993  0.00138332  0.73065178  1
  O2-  O129  1  0.74228308  0.49694672  0.06062446  1
  O2-  O130  1  0.74990849  0.49918780  0.39201056  1
  O2-  O131  1  0.75286479  0.49243767  0.72368299  1
  O2-  O132  1  0.00260385  0.24558143  0.27191632  1
  O2-  O133  1  0.00258127  0.24359256  0.60590347  1
  O2-  O134  1  0.00737077  0.24631181  0.93919332  1
  O2-  O135  1  0.00444626  0.75762053  0.26667389  1
  O2-  O136  1  0.00631382  0.75829235  0.60345067  1
  O2-  O137  1  -0.00416618  0.75915447  0.94024269  1
  O2-  O138  1  0.49511178  0.23936328  0.27350108  1
  O2-  O139  1  0.49774322  0.24839363  0.60860886  1
  O2-  O140  1  0.49352186  0.25398616  0.93706979  1
  O2-  O141  1  0.49783991  0.75283770  0.27493917  1
  O2-  O142  1  0.50009914  0.74855544  0.60998618  1
  O2-  O143  1  0.50264438  0.74066389  0.93784101  1
  O2-  O144  1  0.07091698  0.16851244  0.08757167  1
  O2-  O145  1  0.07350258  0.18147987  0.42288603  1
  O2-  O146  1  0.07615511  0.18241700  0.75670992  1
  O2-  O147  1  0.06922081  0.68264708  0.09882295  1
  O2-  O148  1  0.06973044  0.68114025  0.42897730  1
  O2-  O149  1  0.07102217  0.67556646  0.76339604  1
  O2-  O150  1  0.56851198  0.17999263  0.09885327  1
  O2-  O151  1  0.57151595  0.18261945  0.42386189  1
  O2-  O152  1  0.57030053  0.17825037  0.75386520  1
  O2-  O153  1  0.57967122  0.67962670  0.08651461  1
  O2-  O154  1  0.57155635  0.67669225  0.43407703  1
  O2-  O155  1  0.56856154  0.67689105  0.75932137  1
  O2-  O156  1  0.17673614  0.43213851  0.23764505  1
  O2-  O157  1  0.18063426  0.42807234  0.57717889  1
  O2-  O158  1  0.17680996  0.43174833  0.89964798  1
  O2-  O159  1  0.18272801  0.92934108  0.23255755  1
  O2-  O160  1  0.18131184  0.92854389  0.56947631  1
  O2-  O161  1  0.17793949  0.92912830  0.90828401  1
  O2-  O162  1  0.68055044  0.42865376  0.24201852  1
  O2-  O163  1  0.67157024  0.43051962  0.57680462  1
  O2-  O164  1  0.68000428  0.42400289  0.90998251  1
  O2-  O165  1  0.67828738  0.92964727  0.23444860  1
  O2-  O166  1  0.67976194  0.92771142  0.57136427  1
  O2-  O167  1  0.67918108  0.93045567  0.90919131  1
  O2-  O168  1  0.42674846  0.32150806  0.08761201  1
  O2-  O169  1  0.43222317  0.32112491  0.43366890  1
  O2-  O170  1  0.43288566  0.32210659  0.75800791  1
  O2-  O171  1  0.43508219  0.82159920  0.09995507  1
  O2-  O172  1  0.43221339  0.82185666  0.42493925  1
  O2-  O173  1  0.43147685  0.82160297  0.75582228  1
  O2-  O174  1  0.92898315  0.31718223  0.09933445  1
  O2-  O175  1  0.92775233  0.31884391  0.43134663  1
  O2-  O176  1  0.93040177  0.32127740  0.76523254  1
  O2-  O177  1  0.92274523  0.82568291  0.08933349  1
  O2-  O178  1  0.92692640  0.81869223  0.43225560  1
  O2-  O179  1  0.92509982  0.81321864  0.76773749  1
  O2-  O180  1  0.32371445  0.07014067  0.23484462  1
  O2-  O181  1  0.32179755  0.07452580  0.57910243  1
  O2-  O182  1  0.32085785  0.06500521  0.89869908  1
  O2-  O183  1  0.32545096  0.56790432  0.23533342  1
  O2-  O184  1  0.33314653  0.56586619  0.57784761  1
  O2-  O185  1  0.31917207  0.57278500  0.89995520  1
  O2-  O186  1  0.81441075  0.07711239  0.23343394  1
  O2-  O187  1  0.81504603  0.08201265  0.58131258  1
  O2-  O188  1  0.81752249  0.07466223  0.90803263  1
  O2-  O189  1  0.81929133  0.56968457  0.24471557  1
  O2-  O190  1  0.81680267  0.56653873  0.57552767  1
  O2-  O191  1  0.81910441  0.56799333  0.90073425  1
  O2-  O192  1  0.05177222  0.08459168  0.27114570  1
  O2-  O193  1  0.05259127  0.08307495  0.60789141  1
  O2-  O194  1  0.04339158  0.08295497  0.93257822  1
  O2-  O195  1  0.03844044  0.58466655  0.26408149  1
  O2-  O196  1  0.04054374  0.58416180  0.59514480  1
  O2-  O197  1  0.03303321  0.58704329  0.93164825  1
  O2-  O198  1  0.55143878  0.08131889  0.27584498  1
  O2-  O199  1  0.54282204  0.08537168  0.60217946  1
  O2-  O200  1  0.53659841  0.08450853  0.92850555  1
  O2-  O201  1  0.54498719  0.58204597  0.26295460  1
  O2-  O202  1  0.54219049  0.58519649  0.60753586  1
  O2-  O203  1  0.55724988  0.57940753  0.93738031  1
  O2-  O204  1  0.16608073  0.20633656  0.27112479  1
  O2-  O205  1  0.16740440  0.20736934  0.60516700  1
  O2-  O206  1  0.16814132  0.19700214  0.93699130  1
  O2-  O207  1  0.17427317  0.70644808  0.26580738  1
  O2-  O208  1  0.17496542  0.70291405  0.59940511  1
  O2-  O209  1  0.16472229  0.70950301  0.92957668  1
  O2-  O210  1  0.65951930  0.21143525  0.26948187  1
  O2-  O211  1  0.66007942  0.20712095  0.60016685  1
  O2-  O212  1  0.66236947  0.21135201  0.92674919  1
  O2-  O213  1  0.66754938  0.70831330  0.26432918  1
  O2-  O214  1  0.66209394  0.70422428  0.60819911  1
  O2-  O215  1  0.66686117  0.70705364  0.93317325  1
  O2-  O216  1  0.08155661  0.46349806  0.06680128  1
  O2-  O217  1  0.07780919  0.46088506  0.40328047  1
  O2-  O218  1  0.08566214  0.45825067  0.72662623  1
  O2-  O219  1  0.08034386  0.94956046  0.05751992  1
  O2-  O220  1  0.08133251  0.95682139  0.40086198  1
  O2-  O221  1  0.08088087  0.95648794  0.73708232  1
  O2-  O222  1  0.58246080  0.44358857  0.05957142  1
  O2-  O223  1  0.58818310  0.45784798  0.39496791  1
  O2-  O224  1  0.58815150  0.45902417  0.73371182  1
  O2-  O225  1  0.58914935  0.96357519  0.06065334  1
  O2-  O226  1  0.58601360  0.95707848  0.40591743  1
  O2-  O227  1  0.58473651  0.96193006  0.73742822  1
  O2-  O228  1  0.19664964  0.32810818  0.06476677  1
  O2-  O229  1  0.20479320  0.33364586  0.40521200  1
  O2-  O230  1  0.20816662  0.33993819  0.73091854  1
  O2-  O231  1  0.20543721  0.83509980  0.05778598  1
  O2-  O232  1  0.21073797  0.83209511  0.40161838  1
  O2-  O233  1  0.21262696  0.83163892  0.73558823  1
  O2-  O234  1  0.70828546  0.33179405  0.06138281  1
  O2-  O235  1  0.70595041  0.33827088  0.39641517  1
  O2-  O236  1  0.69980162  0.33304947  0.72639208  1
  O2-  O237  1  0.70018344  0.83651625  0.06086706  1
  O2-  O238  1  0.70734054  0.82679790  0.40097534  1
  O2-  O239  1  0.70905316  0.83028476  0.73921186  1
  O2-  O240  1  0.46500538  0.41168911  0.26237251  1
  O2-  O241  1  0.46211605  0.41210495  0.60579481  1
  O2-  O242  1  0.45156276  0.41624303  0.93578770  1
  O2-  O243  1  0.45926220  0.91668988  0.27470949  1
  O2-  O244  1  0.46125943  0.91334876  0.60440774  1
  O2-  O245  1  0.46566822  0.91197480  0.92861960  1
  O2-  O246  1  0.95737037  0.41752038  0.26589328  1
  O2-  O247  1  0.95998786  0.41498949  0.59665521  1
  O2-  O248  1  0.96143658  0.41623230  0.93275592  1
  O2-  O249  1  0.94797392  0.92764626  0.27120847  1
  O2-  O250  1  0.94177580  0.92630621  0.60988430  1
  O2-  O251  1  0.94361618  0.91984899  0.93789191  1
  O2-  O252  1  0.32823375  0.29563191  0.26775580  1
  O2-  O253  1  0.33672181  0.29660532  0.60742287  1
  O2-  O254  1  0.33081448  0.29630101  0.93691293  1
  O2-  O255  1  0.33733578  0.79917582  0.27241599  1
  O2-  O256  1  0.33901930  0.79620629  0.60348863  1
  O2-  O257  1  0.33513721  0.79005150  0.92966605  1
  O2-  O258  1  0.83047457  0.29013174  0.26480752  1
  O2-  O259  1  0.83024699  0.29269278  0.60001941  1
  O2-  O260  1  0.83590629  0.28768718  0.93028700  1
  O2-  O261  1  0.83269241  0.79146255  0.26510403  1
  O2-  O262  1  0.83047724  0.78454832  0.60185678  1
  O2-  O263  1  0.83098967  0.79464786  0.93942642  1
  O2-  O264  1  0.41675759  0.03419485  0.06498085  1
  O2-  O265  1  0.42094595  0.04723452  0.40351853  1
  O2-  O266  1  0.41597315  0.04550698  0.72840305  1
  O2-  O267  1  0.42585533  0.55412280  0.06102998  1
  O2-  O268  1  0.42246666  0.53707482  0.40005384  1
  O2-  O269  1  0.41323854  0.53791644  0.73419189  1
  O2-  O270  1  0.91366879  0.05207537  0.05939386  1
  O2-  O271  1  0.92280672  0.06036879  0.39897243  1
  O2-  O272  1  0.91708065  0.06056025  0.72997103  1
  O2-  O273  1  0.91346667  0.53730495  0.06973851  1
  O2-  O274  1  0.91148466  0.54132600  0.39752113  1
  O2-  O275  1  0.91383218  0.53969245  0.72575262  1
  O2-  O276  1  0.29636123  0.16653587  0.06516706  1
  O2-  O277  1  0.29453834  0.17111624  0.40187781  1
  O2-  O278  1  0.29740203  0.16679978  0.73119986  1
  O2-  O279  1  0.29087692  0.67098250  0.06595248  1
  O2-  O280  1  0.30158986  0.66994624  0.40115657  1
  O2-  O281  1  0.30232440  0.66497973  0.72541657  1
  O2-  O282  1  0.78558724  0.16264219  0.05970916  1
  O2-  O283  1  0.78313553  0.16910086  0.40283897  1
  O2-  O284  1  0.78589314  0.16684369  0.73411733  1
  O2-  O285  1  0.78837769  0.66631368  0.07012406  1
  O2-  O286  1  0.79052575  0.66093845  0.39762670  1
  O2-  O287  1  0.78875345  0.65566442  0.73074679  1
