# generated using pymatgen
data_Ca2Al2SiO7
_symmetry_space_group_name_H-M   'P 1'
_cell_length_a   15.45346941
_cell_length_b   15.45352043
_cell_length_c   15.28013356
_cell_angle_alpha   89.98966501
_cell_angle_beta   89.99902979
_cell_angle_gamma   90.00231915
_symmetry_Int_Tables_number   1
_chemical_formula_structural   Ca2Al2SiO7
_chemical_formula_sum   'Ca48 Al48 Si24 O168'
_cell_volume   3649.05635213
_cell_formula_units_Z   24
loop_
 _symmetry_equiv_pos_site_id
 _symmetry_equiv_pos_as_xyz
  1  'x, y, z'
loop_
 _atom_type_symbol
 _atom_type_oxidation_number
  Ca2+  2.0
  Al0+  0.0
  Si0+  0.0
  O2-  -2.0
loop_
 _atom_site_type_symbol
 _atom_site_label
 _atom_site_symmetry_multiplicity
 _atom_site_fract_x
 _atom_site_fract_y
 _atom_site_fract_z
 _atom_site_occupancy
  Ca2+  Ca0  1  0.17047019  0.07939586  0.16518012  1
  Ca2+  Ca1  1  0.16052206  0.07689182  0.51014278  1
  Ca2+  Ca2  1  0.16740396  0.07396459  0.83835856  1
  Ca2+  Ca3  1  0.17763720  0.58190294  0.17831882  1
  Ca2+  Ca4  1  0.16055494  0.57262897  0.50317542  1
  Ca2+  Ca5  1  0.17068733  0.57851668  0.83599474  1
  Ca2+  Ca6  1  0.66990345  0.08670653  0.17176767  1
  Ca2+  Ca7  1  0.67761019  0.09149059  0.50113252  1
  Ca2+  Ca8  1  0.67506432  0.08141409  0.84445212  1
  Ca2+  Ca9  1  0.67006015  0.58313361  0.17310725  1
  Ca2+  Ca10  1  0.67918641  0.58723988  0.50616900  1
  Ca2+  Ca11  1  0.66714739  0.58859663  0.83499852  1
  Ca2+  Ca12  1  0.07735952  0.34133857  0.16989014  1
  Ca2+  Ca13  1  0.08357145  0.33192521  0.49522815  1
  Ca2+  Ca14  1  0.08528138  0.32499632  0.82388122  1
  Ca2+  Ca15  1  0.07970911  0.83341081  0.16693749  1
  Ca2+  Ca16  1  0.08060388  0.82246760  0.49391864  1
  Ca2+  Ca17  1  0.08789804  0.83152277  0.82549598  1
  Ca2+  Ca18  1  0.58149118  0.32224943  0.16507296  1
  Ca2+  Ca19  1  0.57079929  0.33200618  0.49255832  1
  Ca2+  Ca20  1  0.57434410  0.32697302  0.82875397  1
  Ca2+  Ca21  1  0.58526808  0.82769450  0.15760336  1
  Ca2+  Ca22  1  0.58470096  0.82798147  0.49941309  1
  Ca2+  Ca23  1  0.58825745  0.82607405  0.83271095  1
  Ca2+  Ca24  1  0.33189252  0.42645949  0.17619293  1
  Ca2+  Ca25  1  0.32755230  0.41480619  0.50176458  1
  Ca2+  Ca26  1  0.33079164  0.41640504  0.83413375  1
  Ca2+  Ca27  1  0.33161613  0.91983603  0.16549823  1
  Ca2+  Ca28  1  0.32533537  0.91904392  0.50523977  1
  Ca2+  Ca29  1  0.32055723  0.91840146  0.84091257  1
  Ca2+  Ca30  1  0.83225960  0.42027582  0.17770602  1
  Ca2+  Ca31  1  0.84306240  0.42766843  0.50033182  1
  Ca2+  Ca32  1  0.83421137  0.42547134  0.83284089  1
  Ca2+  Ca33  1  0.82908698  0.92536655  0.17120864  1
  Ca2+  Ca34  1  0.84180809  0.92696675  0.50188565  1
  Ca2+  Ca35  1  0.83001668  0.92892880  0.83916380  1
  Ca2+  Ca36  1  0.42378715  0.16860911  0.16053759  1
  Ca2+  Ca37  1  0.41863310  0.18062776  0.49129428  1
  Ca2+  Ca38  1  0.41835523  0.16509162  0.82870437  1
  Ca2+  Ca39  1  0.41779917  0.66238321  0.15912817  1
  Ca2+  Ca40  1  0.42067733  0.66306232  0.49697719  1
  Ca2+  Ca41  1  0.42671777  0.66078892  0.83091742  1
  Ca2+  Ca42  1  0.90916242  0.16966814  0.16574317  1
  Ca2+  Ca43  1  0.91968941  0.16730679  0.49395043  1
  Ca2+  Ca44  1  0.91867809  0.16264325  0.82758607  1
  Ca2+  Ca45  1  0.92094799  0.66809064  0.16855474  1
  Ca2+  Ca46  1  0.92499110  0.66536105  0.49055362  1
  Ca2+  Ca47  1  0.92313871  0.67162978  0.82181631  1
  Al0+  Al48  1  -0.00128042  0.00080402  0.00778559  1
  Al0+  Al49  1  -0.00108114  -0.00114484  0.33223473  1
  Al0+  Al50  1  -0.00025205  0.00021995  0.67208973  1
  Al0+  Al51  1  -0.00063473  0.50052093  -0.00279498  1
  Al0+  Al52  1  0.00154371  0.49910351  0.33089379  1
  Al0+  Al53  1  0.00094236  0.50001177  0.67483074  1
  Al0+  Al54  1  0.49936183  -0.00167103  -0.00014355  1
  Al0+  Al55  1  0.50021662  -0.00233983  0.33216494  1
  Al0+  Al56  1  0.50154762  -0.00112881  0.66457236  1
  Al0+  Al57  1  0.50050688  0.49914217  -0.00127608  1
  Al0+  Al58  1  0.49927464  0.49956681  0.33325731  1
  Al0+  Al59  1  0.50143722  0.49957791  0.65749505  1
  Al0+  Al60  1  0.24660321  0.25015520  0.00394690  1
  Al0+  Al61  1  0.25067579  0.25041247  0.33031026  1
  Al0+  Al62  1  0.24928999  0.24999270  0.66229042  1
  Al0+  Al63  1  0.24929919  0.74806408  0.00664511  1
  Al0+  Al64  1  0.25236003  0.75004177  0.33383072  1
  Al0+  Al65  1  0.25090347  0.74888772  0.66623076  1
  Al0+  Al66  1  0.74877793  0.25330853  -0.00374667  1
  Al0+  Al67  1  0.75056477  0.24931344  0.33188578  1
  Al0+  Al68  1  0.74996474  0.25310458  0.67203229  1
  Al0+  Al69  1  0.75245349  0.75162427  -0.00180628  1
  Al0+  Al70  1  0.75015150  0.75163564  0.33385963  1
  Al0+  Al71  1  0.75067974  0.75200808  0.66627837  1
  Al0+  Al72  1  0.32126462  0.56729020  0.01151642  1
  Al0+  Al73  1  0.57024074  0.17754532  0.98438650  1
  Al0+  Al74  1  0.17993864  0.42794406  0.68181884  1
  Al0+  Al75  1  0.57160754  0.67887415  0.98692330  1
  Al0+  Al76  1  0.81892565  0.07411534  0.01713852  1
  Al0+  Al77  1  0.06835797  0.17825079  0.65509715  1
  Al0+  Al78  1  0.42867704  0.31910356  0.65264150  1
  Al0+  Al79  1  0.81971923  0.07094686  0.34847141  1
  Al0+  Al80  1  0.07182244  0.67828491  0.31737945  1
  Al0+  Al81  1  0.17939333  0.42870827  0.34896810  1
  Al0+  Al82  1  0.57213685  0.68057150  0.65149069  1
  Al0+  Al83  1  0.18026637  0.92781824  0.67834686  1
  Al0+  Al84  1  0.81977641  0.57145189  0.34511093  1
  Al0+  Al85  1  0.32152549  0.07256374  0.01418040  1
  Al0+  Al86  1  0.92803992  0.82231738  0.31708895  1
  Al0+  Al87  1  0.17776651  0.92701038  0.01760191  1
  Al0+  Al88  1  0.42692618  0.32258743  0.31457339  1
  Al0+  Al89  1  0.81960775  0.07256958  0.68071600  1
  Al0+  Al90  1  0.93103831  0.31982721  0.32162897  1
  Al0+  Al91  1  0.32331802  0.57299416  0.35155719  1
  Al0+  Al92  1  0.82104184  0.57192328  0.68093798  1
  Al0+  Al93  1  0.07182074  0.67771921  0.65436687  1
  Al0+  Al94  1  0.67928376  0.92733993  0.01439398  1
  Al0+  Al95  1  0.57041222  0.17855357  0.31907618  1
  Si0+  Si96  1  0.42662866  0.32081539  0.98349761  1
  Si0+  Si97  1  0.17522680  0.42762598  0.01705161  1
  Si0+  Si98  1  0.57113392  0.67996942  0.31917502  1
  Si0+  Si99  1  0.67595531  0.92734554  0.35213444  1
  Si0+  Si100  1  0.67628311  0.92827016  0.68381003  1
  Si0+  Si101  1  0.57428117  0.17675519  0.65097721  1
  Si0+  Si102  1  0.92721010  0.32291144  0.65191394  1
  Si0+  Si103  1  0.06950760  0.17901231  0.98572096  1
  Si0+  Si104  1  0.82228180  0.57160100  0.01446865  1
  Si0+  Si105  1  0.67955861  0.43111097  0.01403429  1
  Si0+  Si106  1  0.42732755  0.82267671  0.64994101  1
  Si0+  Si107  1  0.93101892  0.82187171  0.98371660  1
  Si0+  Si108  1  0.42536423  0.82089257  0.98301362  1
  Si0+  Si109  1  0.92924393  0.82226444  0.65119833  1
  Si0+  Si110  1  0.32245514  0.07015822  0.34810654  1
  Si0+  Si111  1  0.92822961  0.32329036  0.98249158  1
  Si0+  Si112  1  0.17934695  0.93033508  0.34919646  1
  Si0+  Si113  1  0.07156991  0.67882928  0.98392456  1
  Si0+  Si114  1  0.67542799  0.43035007  0.68410625  1
  Si0+  Si115  1  0.42862304  0.82115515  0.31735996  1
  Si0+  Si116  1  0.32442768  0.57098899  0.68304283  1
  Si0+  Si117  1  0.32284881  0.07209363  0.67968392  1
  Si0+  Si118  1  0.07280059  0.17509328  0.31535614  1
  Si0+  Si119  1  0.67845695  0.42725065  0.34969813  1
  O2-  O120  1  0.25162749  -0.00130107  0.06545104  1
  O2-  O121  1  0.24753650  0.00401886  0.39188678  1
  O2-  O122  1  0.25635827  0.00161596  0.72419131  1
  O2-  O123  1  0.24596618  0.49435224  0.05930209  1
  O2-  O124  1  0.25072363  0.50104256  0.40015757  1
  O2-  O125  1  0.25484368  0.50326418  0.72771775  1
  O2-  O126  1  0.74410918  0.00453466  0.06630124  1
  O2-  O127  1  0.74465839  -0.00353952  0.39566943  1
  O2-  O128  1  0.74085972  0.00150650  0.72623779  1
  O2-  O129  1  0.74998691  0.50249704  0.05664036  1
  O2-  O130  1  0.74595797  0.49707499  0.39402490  1
  O2-  O131  1  0.74433019  0.49931088  0.72863765  1
  O2-  O132  1  0.00470640  0.24520086  0.27208667  1
  O2-  O133  1  -0.00688084  0.25186730  0.60798755  1
  O2-  O134  1  -0.00170186  0.25014425  0.94278866  1
  O2-  O135  1  -0.00036253  0.74997416  0.26626639  1
  O2-  O136  1  -0.00445782  0.75096779  0.60792645  1
  O2-  O137  1  0.00314708  0.75198683  0.94083076  1
  O2-  O138  1  0.49783891  0.24859874  0.26673102  1
  O2-  O139  1  0.50319704  0.24280947  0.60752131  1
  O2-  O140  1  0.49007625  0.24739893  0.93825497  1
  O2-  O141  1  0.49808284  0.74808873  0.27626880  1
  O2-  O142  1  0.49674181  0.75473985  0.60519292  1
  O2-  O143  1  0.49657307  0.75366803  0.93968672  1
  O2-  O144  1  0.07014934  0.18057365  0.09068463  1
  O2-  O145  1  0.07116985  0.17241277  0.42115822  1
  O2-  O146  1  0.06798610  0.17836408  0.76868975  1
  O2-  O147  1  0.06871433  0.67585975  0.08852215  1
  O2-  O148  1  0.06996958  0.67924606  0.43121939  1
  O2-  O149  1  0.07098965  0.67994508  0.76827524  1
  O2-  O150  1  0.57262769  0.18259541  0.09691372  1
  O2-  O151  1  0.56852178  0.18054054  0.43317627  1
  O2-  O152  1  0.57305330  0.17729859  0.75671527  1
  O2-  O153  1  0.57126732  0.67825298  0.10014431  1
  O2-  O154  1  0.57203682  0.68306933  0.42426696  1
  O2-  O155  1  0.57072973  0.68157835  0.76482771  1
  O2-  O156  1  0.17948222  0.43184685  0.23489592  1
  O2-  O157  1  0.17855821  0.42713937  0.56955933  1
  O2-  O158  1  0.17409246  0.42744020  0.91127421  1
  O2-  O159  1  0.18145371  0.93073523  0.24422777  1
  O2-  O160  1  0.18064088  0.92934194  0.56498324  1
  O2-  O161  1  0.17789572  0.92757266  0.90360558  1
  O2-  O162  1  0.68003347  0.42933978  0.24339808  1
  O2-  O163  1  0.67540679  0.42985652  0.57883030  1
  O2-  O164  1  0.68027686  0.43173385  0.90886886  1
  O2-  O165  1  0.67483097  0.92584245  0.24680768  1
  O2-  O166  1  0.67526357  0.92695831  0.57832136  1
  O2-  O167  1  0.68533078  0.92572588  0.90061041  1
  O2-  O168  1  0.43068471  0.32253734  0.08847268  1
  O2-  O169  1  0.42789985  0.32044751  0.42839532  1
  O2-  O170  1  0.43010448  0.31820056  0.76633376  1
  O2-  O171  1  0.42466879  0.81812706  0.08887544  1
  O2-  O172  1  0.42940182  0.82418364  0.42256149  1
  O2-  O173  1  0.42652250  0.82374311  0.75518187  1
  O2-  O174  1  0.92843038  0.32754335  0.08742548  1
  O2-  O175  1  0.93157492  0.31911667  0.43466282  1
  O2-  O176  1  0.92847587  0.32253998  0.75810638  1
  O2-  O177  1  0.93005210  0.81904131  0.08845024  1
  O2-  O178  1  0.93183496  0.82368281  0.43095073  1
  O2-  O179  1  0.93009278  0.82148708  0.75735547  1
  O2-  O180  1  0.32323036  0.06627347  0.24322550  1
  O2-  O181  1  0.32214660  0.07004129  0.57379196  1
  O2-  O182  1  0.31721150  0.07294120  0.90005456  1
  O2-  O183  1  0.32379594  0.57251113  0.23748252  1
  O2-  O184  1  0.32448961  0.57081725  0.57797840  1
  O2-  O185  1  0.32106860  0.56544061  0.89810902  1
  O2-  O186  1  0.81780786  0.07139188  0.23587728  1
  O2-  O187  1  0.82048859  0.07170946  0.56761813  1
  O2-  O188  1  0.82081049  0.07175177  0.90318292  1
  O2-  O189  1  0.81632728  0.57010262  0.23131778  1
  O2-  O190  1  0.82156434  0.57031239  0.56798818  1
  O2-  O191  1  0.82365845  0.56967475  0.90929967  1
  O2-  O192  1  0.04573317  0.08274982  0.26822552  1
  O2-  O193  1  0.03706688  0.08168336  0.60107388  1
  O2-  O194  1  0.04147216  0.08614788  0.94022350  1
  O2-  O195  1  0.04297318  0.58114246  0.26290051  1
  O2-  O196  1  0.03938184  0.58026798  0.60396605  1
  O2-  O197  1  0.04118753  0.58759847  0.93529925  1
  O2-  O198  1  0.54377278  0.07864496  0.26807478  1
  O2-  O199  1  0.55439141  0.08149966  0.60570108  1
  O2-  O200  1  0.54527083  0.07862459  0.93157717  1
  O2-  O201  1  0.54735077  0.58673643  0.27308284  1
  O2-  O202  1  0.54436053  0.58468972  0.59562577  1
  O2-  O203  1  0.54055406  0.58235281  0.93155121  1
  O2-  O204  1  0.16683719  0.19882173  0.26982172  1
  O2-  O205  1  0.16451316  0.20635790  0.59957852  1
  O2-  O206  1  0.16129445  0.20693993  0.93741884  1
  O2-  O207  1  0.17100618  0.70897599  0.26682356  1
  O2-  O208  1  0.16851940  0.70719514  0.60075319  1
  O2-  O209  1  0.16497683  0.70428474  0.93876120  1
  O2-  O210  1  0.66775824  0.20906459  0.26560568  1
  O2-  O211  1  0.66756881  0.20677081  0.60664570  1
  O2-  O212  1  0.66481718  0.21546638  0.92912918  1
  O2-  O213  1  0.66188938  0.70930623  0.27074709  1
  O2-  O214  1  0.66836991  0.71351123  0.59732648  1
  O2-  O215  1  0.66903356  0.70940785  0.93274920  1
  O2-  O216  1  0.08169719  0.45670054  0.06182878  1
  O2-  O217  1  0.08060292  0.45672917  0.40127277  1
  O2-  O218  1  0.08488308  0.45770916  0.73978200  1
  O2-  O219  1  0.08157194  0.95868483  0.07205562  1
  O2-  O220  1  0.08682265  0.95592852  0.39557797  1
  O2-  O221  1  0.08552176  0.95950291  0.73508447  1
  O2-  O222  1  0.58834036  0.45805234  0.06235511  1
  O2-  O223  1  0.58470455  0.45266266  0.39462510  1
  O2-  O224  1  0.58226703  0.45773481  0.73033763  1
  O2-  O225  1  0.57689843  0.94396864  0.06224650  1
  O2-  O226  1  0.58181463  0.95111835  0.39900826  1
  O2-  O227  1  0.58072036  0.94797075  0.72951902  1
  O2-  O228  1  0.19517020  0.33346900  0.06335383  1
  O2-  O229  1  0.20537579  0.32780282  0.39923006  1
  O2-  O230  1  0.21232270  0.33085247  0.73531527  1
  O2-  O231  1  0.20486092  0.82914017  0.07156525  1
  O2-  O232  1  0.21089548  0.83956364  0.39605339  1
  O2-  O233  1  0.21144360  0.83168897  0.73388934  1
  O2-  O234  1  0.70944177  0.34060216  0.06191222  1
  O2-  O235  1  0.70430136  0.33447796  0.39576685  1
  O2-  O236  1  0.70098796  0.33761351  0.73301014  1
  O2-  O237  1  0.71332749  0.83059336  0.06876610  1
  O2-  O238  1  0.70255090  0.83426729  0.39892360  1
  O2-  O239  1  0.70619935  0.83644782  0.73091426  1
  O2-  O240  1  0.45802615  0.42104333  0.26305392  1
  O2-  O241  1  0.46074620  0.41381117  0.59632562  1
  O2-  O242  1  0.45908513  0.41158110  0.93511764  1
  O2-  O243  1  0.45800402  0.91136770  0.26771963  1
  O2-  O244  1  0.45255515  0.91617413  0.60149460  1
  O2-  O245  1  0.44633013  0.91520638  0.93682612  1
  O2-  O246  1  0.96108679  0.41480359  0.26321868  1
  O2-  O247  1  0.95666050  0.41601063  0.60826475  1
  O2-  O248  1  0.95820390  0.41426505  0.93288358  1
  O2-  O249  1  0.95846884  0.91953390  0.26252351  1
  O2-  O250  1  0.95871696  0.91474112  0.60591549  1
  O2-  O251  1  0.95800252  0.91538235  0.93894214  1
  O2-  O252  1  0.32845411  0.29541200  0.26162260  1
  O2-  O253  1  0.33364191  0.28845439  0.59637477  1
  O2-  O254  1  0.32956226  0.30082316  0.94144226  1
  O2-  O255  1  0.33706633  0.79594506  0.26868506  1
  O2-  O256  1  0.33508256  0.79581476  0.60176291  1
  O2-  O257  1  0.33185881  0.79187540  0.93771353  1
  O2-  O258  1  0.83442757  0.29101916  0.26596919  1
  O2-  O259  1  0.83141349  0.30279517  0.60827086  1
  O2-  O260  1  0.83638279  0.29874404  0.93378001  1
  O2-  O261  1  0.82882019  0.79461139  0.26515551  1
  O2-  O262  1  0.83467439  0.80144756  0.60585377  1
  O2-  O263  1  0.84073536  0.79227753  0.93407895  1
  O2-  O264  1  0.42021191  0.04579945  0.06648242  1
  O2-  O265  1  0.41223414  0.03751402  0.39689605  1
  O2-  O266  1  0.41811314  0.04887920  0.72437019  1
  O2-  O267  1  0.41799407  0.53733388  0.06609226  1
  O2-  O268  1  0.42260734  0.54447152  0.40297003  1
  O2-  O269  1  0.41861827  0.54262110  0.72687857  1
  O2-  O270  1  0.91622405  0.04496101  0.07046617  1
  O2-  O271  1  0.91743369  0.03929859  0.40094947  1
  O2-  O272  1  0.91364932  0.03728071  0.73713023  1
  O2-  O273  1  0.91350868  0.54091183  0.06144235  1
  O2-  O274  1  0.91625923  0.53895725  0.39703482  1
  O2-  O275  1  0.91462222  0.53890560  0.73986719  1
  O2-  O276  1  0.29023613  0.16958096  0.06925755  1
  O2-  O277  1  0.29905314  0.16412746  0.39228707  1
  O2-  O278  1  0.29597995  0.16456821  0.72575389  1
  O2-  O279  1  0.29289197  0.66327241  0.06701314  1
  O2-  O280  1  0.29970589  0.67374253  0.40230534  1
  O2-  O281  1  0.30070709  0.66516778  0.72884674  1
  O2-  O282  1  0.79317236  0.17553357  0.06492091  1
  O2-  O283  1  0.78945851  0.16787619  0.40264379  1
  O2-  O284  1  0.79431698  0.17070620  0.73532090  1
  O2-  O285  1  0.79702851  0.66407614  0.06003901  1
  O2-  O286  1  0.78929218  0.66774629  0.39975773  1
  O2-  O287  1  0.79138880  0.66969136  0.73398749  1
