# generated using pymatgen
data_Ca2Al2SiO7
_symmetry_space_group_name_H-M   'P 1'
_cell_length_a   15.46344044
_cell_length_b   15.46336316
_cell_length_c   15.28702702
_cell_angle_alpha   90.01208440
_cell_angle_beta   90.01222685
_cell_angle_gamma   90.00161110
_symmetry_Int_Tables_number   1
_chemical_formula_structural   Ca2Al2SiO7
_chemical_formula_sum   'Ca48 Al48 Si24 O168'
_cell_volume   3655.38474410
_cell_formula_units_Z   24
loop_
 _symmetry_equiv_pos_site_id
 _symmetry_equiv_pos_as_xyz
  1  'x, y, z'
loop_
 _atom_type_symbol
 _atom_type_oxidation_number
  Ca2+  2.0
  Al0+  0.0
  Si0+  0.0
  O2-  -2.0
loop_
 _atom_site_type_symbol
 _atom_site_label
 _atom_site_symmetry_multiplicity
 _atom_site_fract_x
 _atom_site_fract_y
 _atom_site_fract_z
 _atom_site_occupancy
  Ca2+  Ca0  1  0.16584957  0.07659590  0.16549343  1
  Ca2+  Ca1  1  0.16753674  0.07590426  0.50668804  1
  Ca2+  Ca2  1  0.16639450  0.07173149  0.83851872  1
  Ca2+  Ca3  1  0.16663857  0.57778899  0.17344072  1
  Ca2+  Ca4  1  0.16753891  0.57595350  0.49956393  1
  Ca2+  Ca5  1  0.16631383  0.57261006  0.84183874  1
  Ca2+  Ca6  1  0.67422125  0.09003904  0.17025080  1
  Ca2+  Ca7  1  0.67533903  0.08302781  0.50410704  1
  Ca2+  Ca8  1  0.67312398  0.07813855  0.84472313  1
  Ca2+  Ca9  1  0.65669241  0.57185223  0.16812143  1
  Ca2+  Ca10  1  0.67159765  0.57775595  0.50327421  1
  Ca2+  Ca11  1  0.67078047  0.58181758  0.84043545  1
  Ca2+  Ca12  1  0.08535566  0.33645646  0.16152085  1
  Ca2+  Ca13  1  0.08417258  0.33748947  0.49660287  1
  Ca2+  Ca14  1  0.08643834  0.33500934  0.82835627  1
  Ca2+  Ca15  1  0.07562067  0.82423933  0.15805535  1
  Ca2+  Ca16  1  0.07656464  0.82786605  0.48754693  1
  Ca2+  Ca17  1  0.08100012  0.83467670  0.83352048  1
  Ca2+  Ca18  1  0.57842216  0.33159036  0.15771029  1
  Ca2+  Ca19  1  0.57423837  0.33131154  0.48859767  1
  Ca2+  Ca20  1  0.57568309  0.33371751  0.83319346  1
  Ca2+  Ca21  1  0.58578501  0.82566318  0.15592482  1
  Ca2+  Ca22  1  0.58659434  0.83414480  0.49911466  1
  Ca2+  Ca23  1  0.59690111  0.83133032  0.83311318  1
  Ca2+  Ca24  1  0.32867858  0.41766437  0.17365038  1
  Ca2+  Ca25  1  0.32878222  0.41453430  0.50016460  1
  Ca2+  Ca26  1  0.32780654  0.40821580  0.83842919  1
  Ca2+  Ca27  1  0.32620591  0.91131712  0.16783882  1
  Ca2+  Ca28  1  0.32564161  0.91816099  0.50699903  1
  Ca2+  Ca29  1  0.32101446  0.91269101  0.83883304  1
  Ca2+  Ca30  1  0.81740219  0.41341310  0.16987619  1
  Ca2+  Ca31  1  0.82659631  0.42216366  0.50289727  1
  Ca2+  Ca32  1  0.83006425  0.42597510  0.84026817  1
  Ca2+  Ca33  1  0.83609098  0.92168904  0.16632272  1
  Ca2+  Ca34  1  0.83261860  0.92549538  0.50566612  1
  Ca2+  Ca35  1  0.82734021  0.92609427  0.84104571  1
  Ca2+  Ca36  1  0.42932568  0.17802380  0.15982785  1
  Ca2+  Ca37  1  0.42291136  0.17809339  0.49077979  1
  Ca2+  Ca38  1  0.42077334  0.17591694  0.83092794  1
  Ca2+  Ca39  1  0.41900592  0.66269900  0.16279258  1
  Ca2+  Ca40  1  0.41337926  0.66724455  0.49514209  1
  Ca2+  Ca41  1  0.42437000  0.66589583  0.83575004  1
  Ca2+  Ca42  1  0.91266851  0.16364467  0.16359581  1
  Ca2+  Ca43  1  0.91608406  0.16064577  0.49595453  1
  Ca2+  Ca44  1  0.91228914  0.16297778  0.83353509  1
  Ca2+  Ca45  1  0.92539077  0.67598886  0.15891876  1
  Ca2+  Ca46  1  0.92058456  0.67185891  0.49007716  1
  Ca2+  Ca47  1  0.91785900  0.67088436  0.83122986  1
  Al0+  Al48  1  0.00091867  -0.00016798  0.00380682  1
  Al0+  Al49  1  -0.00188893  0.00057183  0.33318566  1
  Al0+  Al50  1  -0.00022871  -0.00025730  0.67243734  1
  Al0+  Al51  1  0.00078112  0.50020710  0.00070314  1
  Al0+  Al52  1  -0.00053644  0.49911051  0.33199572  1
  Al0+  Al53  1  0.00115280  0.49978591  0.67244306  1
  Al0+  Al54  1  0.49985058  0.00066581  -0.00122083  1
  Al0+  Al55  1  0.49985559  0.00015392  0.32989954  1
  Al0+  Al56  1  0.50003734  -0.00100427  0.66766717  1
  Al0+  Al57  1  0.49911824  0.50164687  -0.00664708  1
  Al0+  Al58  1  0.49709726  0.50099079  0.33999382  1
  Al0+  Al59  1  0.49906958  0.50128592  0.66051576  1
  Al0+  Al60  1  0.24909514  0.24926028  0.00055871  1
  Al0+  Al61  1  0.24953313  0.24870820  0.33289125  1
  Al0+  Al62  1  0.24986090  0.24910294  0.66389085  1
  Al0+  Al63  1  0.24978227  0.74787919  -0.00007605  1
  Al0+  Al64  1  0.24945007  0.74758220  0.33362735  1
  Al0+  Al65  1  0.25090516  0.74719785  0.66981067  1
  Al0+  Al66  1  0.75035966  0.25143639  0.00170911  1
  Al0+  Al67  1  0.75132752  0.24861573  0.34158281  1
  Al0+  Al68  1  0.75044376  0.25162809  0.66835556  1
  Al0+  Al69  1  0.75249611  0.75251301  -0.00465916  1
  Al0+  Al70  1  0.74895045  0.75147795  0.32807455  1
  Al0+  Al71  1  0.75260508  0.74986680  0.66957724  1
  Al0+  Al72  1  0.17877654  0.42783792  0.01411772  1
  Al0+  Al73  1  0.67877003  0.43251458  0.01111507  1
  Al0+  Al74  1  0.57106994  0.68054782  0.98670012  1
  Al0+  Al75  1  0.93096690  0.82289044  0.98088036  1
  Al0+  Al76  1  0.17974890  0.92710889  0.67883998  1
  Al0+  Al77  1  0.18073202  0.92779172  0.01565532  1
  Al0+  Al78  1  0.92752416  0.82319065  0.31755527  1
  Al0+  Al79  1  0.32026478  0.57174880  0.34948101  1
  Al0+  Al80  1  0.57339554  0.17935580  0.31868559  1
  Al0+  Al81  1  0.82144939  0.56982422  0.67915326  1
  Al0+  Al82  1  0.07211063  0.67722758  0.98190051  1
  Al0+  Al83  1  0.07115736  0.67738330  0.31821165  1
  Al0+  Al84  1  0.81981488  0.07156990  0.01771453  1
  Al0+  Al85  1  0.67815525  0.92928767  0.68098691  1
  Al0+  Al86  1  0.67742013  0.92779249  0.01719077  1
  Al0+  Al87  1  0.18205275  0.42929103  0.68093868  1
  Al0+  Al88  1  0.42805764  0.32129430  0.98423465  1
  Al0+  Al89  1  0.57376536  0.17883214  0.98330454  1
  Al0+  Al90  1  0.67822841  0.42905636  0.34726779  1
  Al0+  Al91  1  0.82093384  0.07322613  0.68312749  1
  Al0+  Al92  1  0.42827111  0.32269432  0.31681358  1
  Al0+  Al93  1  0.42845597  0.32016228  0.64949552  1
  Al0+  Al94  1  0.17707792  0.42662867  0.34905149  1
  Al0+  Al95  1  0.82030379  0.06900633  0.34909291  1
  Si0+  Si96  1  0.92898234  0.32127029  0.98587828  1
  Si0+  Si97  1  0.92913938  0.32072727  0.32028868  1
  Si0+  Si98  1  0.57029065  0.67977931  0.32067267  1
  Si0+  Si99  1  0.42750816  0.82179496  0.32003385  1
  Si0+  Si100  1  0.57284300  0.68104683  0.65011839  1
  Si0+  Si101  1  0.18002362  0.93004555  0.34704954  1
  Si0+  Si102  1  0.93133720  0.82063348  0.65088541  1
  Si0+  Si103  1  0.82049472  0.57328562  0.34642633  1
  Si0+  Si104  1  0.32418346  0.57244184  0.68614923  1
  Si0+  Si105  1  0.42671181  0.82313717  0.98351357  1
  Si0+  Si106  1  0.42690607  0.82046069  0.65202006  1
  Si0+  Si107  1  0.57320725  0.17699154  0.64963631  1
  Si0+  Si108  1  0.07195373  0.67711952  0.65112605  1
  Si0+  Si109  1  0.32202477  0.07284402  0.01717293  1
  Si0+  Si110  1  0.32137738  0.07155044  0.68203277  1
  Si0+  Si111  1  0.06887850  0.17823331  0.65230839  1
  Si0+  Si112  1  0.07104790  0.17935040  0.98531717  1
  Si0+  Si113  1  0.67586624  0.42982518  0.68273614  1
  Si0+  Si114  1  0.32200534  0.57065717  0.01527412  1
  Si0+  Si115  1  0.07118309  0.17793025  0.31908496  1
  Si0+  Si116  1  0.67521562  0.92556644  0.34924126  1
  Si0+  Si117  1  0.92930468  0.32344809  0.65241020  1
  Si0+  Si118  1  0.82304170  0.57341555  0.01741814  1
  Si0+  Si119  1  0.32229124  0.06986996  0.34759264  1
  O2-  O120  1  0.25827674  -0.00040876  0.06252157  1
  O2-  O121  1  0.25138906  -0.00079801  0.39156627  1
  O2-  O122  1  0.25623222  -0.00035387  0.72621806  1
  O2-  O123  1  0.25263756  0.50307482  0.05910767  1
  O2-  O124  1  0.24929700  0.49834520  0.39897631  1
  O2-  O125  1  0.25829606  0.50110795  0.72919172  1
  O2-  O126  1  0.74598747  0.00191430  0.06843192  1
  O2-  O127  1  0.74449472  -0.00599420  0.39283243  1
  O2-  O128  1  0.74447331  0.00579283  0.73113931  1
  O2-  O129  1  0.75110586  0.50810098  0.06124402  1
  O2-  O130  1  0.75230319  0.50534995  0.39291116  1
  O2-  O131  1  0.74623945  0.49639382  0.72683414  1
  O2-  O132  1  0.00289374  0.25212549  0.27854976  1
  O2-  O133  1  -0.00288135  0.24875631  0.60998051  1
  O2-  O134  1  0.00088511  0.25110486  0.94326320  1
  O2-  O135  1  -0.00134476  0.74932704  0.26983371  1
  O2-  O136  1  0.00319494  0.75031725  0.60817670  1
  O2-  O137  1  0.00158543  0.74942504  0.92987234  1
  O2-  O138  1  0.50444773  0.25431526  0.26877921  1
  O2-  O139  1  0.50600932  0.24697296  0.60470133  1
  O2-  O140  1  0.50052727  0.24984514  0.93366592  1
  O2-  O141  1  0.50023647  0.75227295  0.27943693  1
  O2-  O142  1  0.50099799  0.75256406  0.60898865  1
  O2-  O143  1  0.50094285  0.76015178  0.93940340  1
  O2-  O144  1  0.07206154  0.17985911  0.09070419  1
  O2-  O145  1  0.07051689  0.17396944  0.42454555  1
  O2-  O146  1  0.07047609  0.17830976  0.75726714  1
  O2-  O147  1  0.07083398  0.67756365  0.09529263  1
  O2-  O148  1  0.07023802  0.68029080  0.43294046  1
  O2-  O149  1  0.07092990  0.67698717  0.75566570  1
  O2-  O150  1  0.57393638  0.18278102  0.09677453  1
  O2-  O151  1  0.56999362  0.17838533  0.43288809  1
  O2-  O152  1  0.57147198  0.17742688  0.75474562  1
  O2-  O153  1  0.56599004  0.67776163  0.10009124  1
  O2-  O154  1  0.57235595  0.68243775  0.42616884  1
  O2-  O155  1  0.57216278  0.68007229  0.75487074  1
  O2-  O156  1  0.17749037  0.42671547  0.23589154  1
  O2-  O157  1  0.17948504  0.43082725  0.56831405  1
  O2-  O158  1  0.17996547  0.42701784  0.90071549  1
  O2-  O159  1  0.18207519  0.93159786  0.24228269  1
  O2-  O160  1  0.18044859  0.92929631  0.56504019  1
  O2-  O161  1  0.18194126  0.93058885  0.90225008  1
  O2-  O162  1  0.67867279  0.43054445  0.23416328  1
  O2-  O163  1  0.67742342  0.43209484  0.57682480  1
  O2-  O164  1  0.68191798  0.43439369  0.89778906  1
  O2-  O165  1  0.67286244  0.92318266  0.24462314  1
  O2-  O166  1  0.68028244  0.92781670  0.56683821  1
  O2-  O167  1  0.68084256  0.92924582  0.90361491  1
  O2-  O168  1  0.42789471  0.32151933  0.09741373  1
  O2-  O169  1  0.42838910  0.31844133  0.43089507  1
  O2-  O170  1  0.42764916  0.31805764  0.76225079  1
  O2-  O171  1  0.42369414  0.81916498  0.08936136  1
  O2-  O172  1  0.42644445  0.82282986  0.42555400  1
  O2-  O173  1  0.42248747  0.81801979  0.75634587  1
  O2-  O174  1  0.92909694  0.32106925  0.09119561  1
  O2-  O175  1  0.92951565  0.32071504  0.42584468  1
  O2-  O176  1  0.93160949  0.32532829  0.75738829  1
  O2-  O177  1  0.93355060  0.82205536  0.09441864  1
  O2-  O178  1  0.93009325  0.82297455  0.43234076  1
  O2-  O179  1  0.93239546  0.82013830  0.75530972  1
  O2-  O180  1  0.32078206  0.06724910  0.24293324  1
  O2-  O181  1  0.31856284  0.06987335  0.57585499  1
  O2-  O182  1  0.31687720  0.07356703  0.91130659  1
  O2-  O183  1  0.32119117  0.57425043  0.23630151  1
  O2-  O184  1  0.32218094  0.57641596  0.58087414  1
  O2-  O185  1  0.32231746  0.57090141  0.90947394  1
  O2-  O186  1  0.82310300  0.07037987  0.23712490  1
  O2-  O187  1  0.82384022  0.06935283  0.56939560  1
  O2-  O188  1  0.82045133  0.07165102  0.90429488  1
  O2-  O189  1  0.81878751  0.57182470  0.24134037  1
  O2-  O190  1  0.81997189  0.56931059  0.56550825  1
  O2-  O191  1  0.82323824  0.56910815  0.91130411  1
  O2-  O192  1  0.04032109  0.08815016  0.26975338  1
  O2-  O193  1  0.04091712  0.08606558  0.60413254  1
  O2-  O194  1  0.04268005  0.08803147  0.93784837  1
  O2-  O195  1  0.04395174  0.57855371  0.26617618  1
  O2-  O196  1  0.04071403  0.58583660  0.60457744  1
  O2-  O197  1  0.04213131  0.57820813  0.92992407  1
  O2-  O198  1  0.54300313  0.08120625  0.26598881  1
  O2-  O199  1  0.54744497  0.08260308  0.60396388  1
  O2-  O200  1  0.54558330  0.07940890  0.93152245  1
  O2-  O201  1  0.53978103  0.58848466  0.27501077  1
  O2-  O202  1  0.54490773  0.59004024  0.60082427  1
  O2-  O203  1  0.53648241  0.58784846  0.92715422  1
  O2-  O204  1  0.16326796  0.20131970  0.27067970  1
  O2-  O205  1  0.16028569  0.20472671  0.60294868  1
  O2-  O206  1  0.16207595  0.20576322  0.93598427  1
  O2-  O207  1  0.16946728  0.70704422  0.26636949  1
  O2-  O208  1  0.16559664  0.70270595  0.60589807  1
  O2-  O209  1  0.17181848  0.70400524  0.93068041  1
  O2-  O210  1  0.67426443  0.20557354  0.27128183  1
  O2-  O211  1  0.66839331  0.20155153  0.60527388  1
  O2-  O212  1  0.67170012  0.21016755  0.93095093  1
  O2-  O213  1  0.66111530  0.70412012  0.27032671  1
  O2-  O214  1  0.66455112  0.70946039  0.60217220  1
  O2-  O215  1  0.66861963  0.70621129  0.93205182  1
  O2-  O216  1  0.08123411  0.45643609  0.06719002  1
  O2-  O217  1  0.07745027  0.45474251  0.40150470  1
  O2-  O218  1  0.08609732  0.45997341  0.73570070  1
  O2-  O219  1  0.08727094  0.96404501  0.07053870  1
  O2-  O220  1  0.08910095  0.96041361  0.39430477  1
  O2-  O221  1  0.08612437  0.96123771  0.73459814  1
  O2-  O222  1  0.58166401  0.46429427  0.06323508  1
  O2-  O223  1  0.58344361  0.46096828  0.40321203  1
  O2-  O224  1  0.58266118  0.45883811  0.72671303  1
  O2-  O225  1  0.57440366  0.94703260  0.06476514  1
  O2-  O226  1  0.58080330  0.95060029  0.39555127  1
  O2-  O227  1  0.57587203  0.94654526  0.73098443  1
  O2-  O228  1  0.20665490  0.33028164  0.06723321  1
  O2-  O229  1  0.20333855  0.32644397  0.40112585  1
  O2-  O230  1  0.20899885  0.33007658  0.73190077  1
  O2-  O231  1  0.21151652  0.83086171  0.06869262  1
  O2-  O232  1  0.20737094  0.83821255  0.39400740  1
  O2-  O233  1  0.21031380  0.83105760  0.73326029  1
  O2-  O234  1  0.71278838  0.33806015  0.06615697  1
  O2-  O235  1  0.71245936  0.33560831  0.40481030  1
  O2-  O236  1  0.69862695  0.33528522  0.72653319  1
  O2-  O237  1  0.70775608  0.82838139  0.06735874  1
  O2-  O238  1  0.70053211  0.83145845  0.39571674  1
  O2-  O239  1  0.71057767  0.83214167  0.73296873  1
  O2-  O240  1  0.45248833  0.42420455  0.26982229  1
  O2-  O241  1  0.45583893  0.41877270  0.59692900  1
  O2-  O242  1  0.45561917  0.41882653  0.92918194  1
  O2-  O243  1  0.45111027  0.91337617  0.27090346  1
  O2-  O244  1  0.45015305  0.91375659  0.60405135  1
  O2-  O245  1  0.44238969  0.91906765  0.93914177  1
  O2-  O246  1  0.95227029  0.41235750  0.27090310  1
  O2-  O247  1  0.96149551  0.41349918  0.60359316  1
  O2-  O248  1  0.95624322  0.41286125  0.93778779  1
  O2-  O249  1  0.95962648  0.92034604  0.26533668  1
  O2-  O250  1  0.95999931  0.91338544  0.60515397  1
  O2-  O251  1  0.96417274  0.92124682  0.93016245  1
  O2-  O252  1  0.33006044  0.29023971  0.26623197  1
  O2-  O253  1  0.33238718  0.28589291  0.59536464  1
  O2-  O254  1  0.32987697  0.28813194  0.93192764  1
  O2-  O255  1  0.33695053  0.79202642  0.27155458  1
  O2-  O256  1  0.33654596  0.78897890  0.60189631  1
  O2-  O257  1  0.33615394  0.79055983  0.93479377  1
  O2-  O258  1  0.83830749  0.28920240  0.27401465  1
  O2-  O259  1  0.83540375  0.30120140  0.60557446  1
  O2-  O260  1  0.83863531  0.29355946  0.93618694  1
  O2-  O261  1  0.82867804  0.79762021  0.26474872  1
  O2-  O262  1  0.83967468  0.79124697  0.60374067  1
  O2-  O263  1  0.83262162  0.79614595  0.92758327  1
  O2-  O264  1  0.41723900  0.05301468  0.06094853  1
  O2-  O265  1  0.41333379  0.04129483  0.39649442  1
  O2-  O266  1  0.41583659  0.04981563  0.72661730  1
  O2-  O267  1  0.41538071  0.54462405  0.06079903  1
  O2-  O268  1  0.41780970  0.54733251  0.40664337  1
  O2-  O269  1  0.42002300  0.54973612  0.72845449  1
  O2-  O270  1  0.91910796  0.04336915  0.06903627  1
  O2-  O271  1  0.91766986  0.03817939  0.40410315  1
  O2-  O272  1  0.91816492  0.04246776  0.73642473  1
  O2-  O273  1  0.91482708  0.54354112  0.06366428  1
  O2-  O274  1  0.91356208  0.54673774  0.39315050  1
  O2-  O275  1  0.91566492  0.53778794  0.73609905  1
  O2-  O276  1  0.28888548  0.16272854  0.06569810  1
  O2-  O277  1  0.29249319  0.16042006  0.39592490  1
  O2-  O278  1  0.29044237  0.16268610  0.72853161  1
  O2-  O279  1  0.29925292  0.66464182  0.06155201  1
  O2-  O280  1  0.29113925  0.67038290  0.40498675  1
  O2-  O281  1  0.29757364  0.66471003  0.73403728  1
  O2-  O282  1  0.79481111  0.17163831  0.06928376  1
  O2-  O283  1  0.79286738  0.16483768  0.40696968  1
  O2-  O284  1  0.80094527  0.17512376  0.73258274  1
  O2-  O285  1  0.80166859  0.66877825  0.05888923  1
  O2-  O286  1  0.79418778  0.66714296  0.39276490  1
  O2-  O287  1  0.79150665  0.66540684  0.73398293  1
