# generated using pymatgen
data_Ca2Al2SiO7
_symmetry_space_group_name_H-M   'P 1'
_cell_length_a   15.46952073
_cell_length_b   15.47257734
_cell_length_c   15.29284603
_cell_angle_alpha   89.98279633
_cell_angle_beta   90.00155429
_cell_angle_gamma   90.01749739
_symmetry_Int_Tables_number   1
_chemical_formula_structural   Ca2Al2SiO7
_chemical_formula_sum   'Ca48 Al48 Si24 O168'
_cell_volume   3660.39368080
_cell_formula_units_Z   24
loop_
 _symmetry_equiv_pos_site_id
 _symmetry_equiv_pos_as_xyz
  1  'x, y, z'
loop_
 _atom_type_symbol
 _atom_type_oxidation_number
  Ca2+  2.0
  Al0+  0.0
  Si0+  0.0
  O2-  -2.0
loop_
 _atom_site_type_symbol
 _atom_site_label
 _atom_site_symmetry_multiplicity
 _atom_site_fract_x
 _atom_site_fract_y
 _atom_site_fract_z
 _atom_site_occupancy
  Ca2+  Ca0  1  0.17507462  0.08577143  0.17059192  1
  Ca2+  Ca1  1  0.16732530  0.07323771  0.50744633  1
  Ca2+  Ca2  1  0.16342022  0.07943308  0.83905991  1
  Ca2+  Ca3  1  0.17587089  0.59098529  0.17149739  1
  Ca2+  Ca4  1  0.17345393  0.59558795  0.50452948  1
  Ca2+  Ca5  1  0.17485361  0.59385488  0.83847874  1
  Ca2+  Ca6  1  0.66957618  0.07256193  0.16702568  1
  Ca2+  Ca7  1  0.67322598  0.07144359  0.50807451  1
  Ca2+  Ca8  1  0.67779688  0.07101372  0.83940514  1
  Ca2+  Ca9  1  0.66980839  0.58215996  0.15913274  1
  Ca2+  Ca10  1  0.66793278  0.58041043  0.50337604  1
  Ca2+  Ca11  1  0.67320754  0.58211037  0.84708734  1
  Ca2+  Ca12  1  0.07765764  0.32612082  0.15413334  1
  Ca2+  Ca13  1  0.08496232  0.32543883  0.50046811  1
  Ca2+  Ca14  1  0.07937545  0.31980620  0.83517905  1
  Ca2+  Ca15  1  0.09202512  0.82487745  0.16531964  1
  Ca2+  Ca16  1  0.08612122  0.83174341  0.50043080  1
  Ca2+  Ca17  1  0.08115436  0.82517028  0.82366887  1
  Ca2+  Ca18  1  0.57565708  0.33394420  0.15486256  1
  Ca2+  Ca19  1  0.58142972  0.32874381  0.49550628  1
  Ca2+  Ca20  1  0.57733024  0.34106435  0.83415683  1
  Ca2+  Ca21  1  0.58461811  0.83165993  0.15844980  1
  Ca2+  Ca22  1  0.57792447  0.84365487  0.49890739  1
  Ca2+  Ca23  1  0.58050223  0.83574320  0.82943868  1
  Ca2+  Ca24  1  0.33758602  0.42713390  0.16479319  1
  Ca2+  Ca25  1  0.33049522  0.43079772  0.50438977  1
  Ca2+  Ca26  1  0.33239848  0.42702057  0.84115339  1
  Ca2+  Ca27  1  0.32772347  0.92945976  0.17156059  1
  Ca2+  Ca28  1  0.32174300  0.91384230  0.50411169  1
  Ca2+  Ca29  1  0.32728822  0.91563764  0.83520380  1
  Ca2+  Ca30  1  0.83651752  0.41845396  0.16112684  1
  Ca2+  Ca31  1  0.83390098  0.41940288  0.50429931  1
  Ca2+  Ca32  1  0.82970869  0.42174550  0.84602330  1
  Ca2+  Ca33  1  0.82278746  0.91321947  0.16402360  1
  Ca2+  Ca34  1  0.82452613  0.91449469  0.51139263  1
  Ca2+  Ca35  1  0.83280695  0.92051037  0.83814113  1
  Ca2+  Ca36  1  0.41237273  0.16921744  0.15421862  1
  Ca2+  Ca37  1  0.41581103  0.16485282  0.49395238  1
  Ca2+  Ca38  1  0.41223646  0.17085373  0.83432956  1
  Ca2+  Ca39  1  0.42013334  0.66517807  0.15758563  1
  Ca2+  Ca40  1  0.40944426  0.67244979  0.50087363  1
  Ca2+  Ca41  1  0.42051306  0.66763401  0.82903020  1
  Ca2+  Ca42  1  0.92239606  0.16938382  0.15341351  1
  Ca2+  Ca43  1  0.92270397  0.15508903  0.50465716  1
  Ca2+  Ca44  1  0.91997237  0.16048248  0.83040104  1
  Ca2+  Ca45  1  0.92950845  0.66525194  0.15617642  1
  Ca2+  Ca46  1  0.92775106  0.67494268  0.49644578  1
  Ca2+  Ca47  1  0.92467399  0.66990826  0.82856496  1
  Al0+  Al48  1  -0.00050528  -0.00370559  0.00347111  1
  Al0+  Al49  1  -0.00129191  0.00005318  0.33243426  1
  Al0+  Al50  1  0.00057885  -0.00102956  0.66535370  1
  Al0+  Al51  1  0.00189850  0.49777707  -0.00550048  1
  Al0+  Al52  1  0.00058027  0.50028677  0.33064813  1
  Al0+  Al53  1  0.00163332  0.49666003  0.66289571  1
  Al0+  Al54  1  0.49709366  0.00064127  0.00584290  1
  Al0+  Al55  1  0.50204916  0.00133721  0.33740628  1
  Al0+  Al56  1  0.50019166  0.00150212  0.66492090  1
  Al0+  Al57  1  0.49982905  0.50110170  -0.00133574  1
  Al0+  Al58  1  0.50044234  0.50014812  0.33811411  1
  Al0+  Al59  1  0.49794318  0.50021695  0.66637878  1
  Al0+  Al60  1  0.25004903  0.25149999  -0.00583977  1
  Al0+  Al61  1  0.25020942  0.25462993  0.33587376  1
  Al0+  Al62  1  0.24919214  0.25306650  0.66054508  1
  Al0+  Al63  1  0.25209449  0.75103341  0.00120523  1
  Al0+  Al64  1  0.25236917  0.75251185  0.33512492  1
  Al0+  Al65  1  0.25423975  0.75162613  0.66882401  1
  Al0+  Al66  1  0.74802164  0.24872769  0.00409959  1
  Al0+  Al67  1  0.74837608  0.25029970  0.33249828  1
  Al0+  Al68  1  0.74835464  0.24960554  0.66854720  1
  Al0+  Al69  1  0.75043486  0.74708243  0.00435180  1
  Al0+  Al70  1  0.74963529  0.74853440  0.33715613  1
  Al0+  Al71  1  0.74883659  0.74621245  0.66576471  1
  Al0+  Al72  1  0.31981237  0.57190440  0.01335177  1
  Al0+  Al73  1  0.07286774  0.67845317  0.65191876  1
  Al0+  Al74  1  0.17891825  0.93052789  0.34882324  1
  Al0+  Al75  1  0.82375537  0.07050687  0.01635154  1
  Al0+  Al76  1  0.67660124  0.92588115  0.68277768  1
  Al0+  Al77  1  0.07032805  0.17595607  0.98631830  1
  Al0+  Al78  1  0.57054088  0.68057662  0.98778384  1
  Al0+  Al79  1  0.92744644  0.82046787  0.65245867  1
  Al0+  Al80  1  0.32093453  0.07511386  0.34830173  1
  Al0+  Al81  1  0.67768573  0.42826198  0.01410264  1
  Al0+  Al82  1  0.82495301  0.56991789  0.01449194  1
  Al0+  Al83  1  0.18077766  0.93027767  0.68168282  1
  Al0+  Al84  1  0.68106594  0.92746363  0.34853417  1
  Al0+  Al85  1  0.07086828  0.17838989  0.65198281  1
  Al0+  Al86  1  0.07403379  0.67927604  0.98680086  1
  Al0+  Al87  1  0.92564592  0.31988400  0.98495873  1
  Al0+  Al88  1  0.31717655  0.07251405  0.01027862  1
  Al0+  Al89  1  0.07159698  0.68188742  0.31861288  1
  Al0+  Al90  1  0.43032657  0.32130221  0.98541667  1
  Al0+  Al91  1  0.43210097  0.82235562  0.65274161  1
  Al0+  Al92  1  0.31843273  0.57040187  0.68243634  1
  Al0+  Al93  1  0.67793367  0.92767311  0.01468135  1
  Al0+  Al94  1  0.82114553  0.06972016  0.68168063  1
  Al0+  Al95  1  0.32147381  0.57052712  0.34768311  1
  Si0+  Si96  1  0.82016852  0.07475039  0.34984083  1
  Si0+  Si97  1  0.42990980  0.32283765  0.31858851  1
  Si0+  Si98  1  0.57070869  0.18118745  0.65107040  1
  Si0+  Si99  1  0.92525597  0.32026013  0.64893783  1
  Si0+  Si100  1  0.56999023  0.17996181  0.31735952  1
  Si0+  Si101  1  0.32192303  0.07594217  0.68237796  1
  Si0+  Si102  1  0.82276530  0.56874203  0.67950737  1
  Si0+  Si103  1  0.42920521  0.32302301  0.64824989  1
  Si0+  Si104  1  0.17501800  0.42988569  0.35077817  1
  Si0+  Si105  1  0.82319454  0.56924849  0.34902295  1
  Si0+  Si106  1  0.17947834  0.42789789  0.01542412  1
  Si0+  Si107  1  0.17702226  0.42533850  0.68515310  1
  Si0+  Si108  1  0.57124075  0.67502018  0.64853679  1
  Si0+  Si109  1  0.17762858  0.92649299  0.01637246  1
  Si0+  Si110  1  0.92772166  0.32169722  0.31856570  1
  Si0+  Si111  1  0.07085869  0.17963382  0.31909308  1
  Si0+  Si112  1  0.43152882  0.82178913  0.31763146  1
  Si0+  Si113  1  0.67875953  0.42918991  0.68002871  1
  Si0+  Si114  1  0.57089776  0.17494107  0.98311522  1
  Si0+  Si115  1  0.92468983  0.82226944  0.31515936  1
  Si0+  Si116  1  0.57191984  0.67681012  0.31825638  1
  Si0+  Si117  1  0.92717330  0.81901182  0.98520664  1
  Si0+  Si118  1  0.67958728  0.42893942  0.34903673  1
  Si0+  Si119  1  0.42895731  0.82423933  0.98450991  1
  O2-  O120  1  0.24064664  0.00137591  0.05857827  1
  O2-  O121  1  0.24839428  0.00518792  0.39940474  1
  O2-  O122  1  0.25291022  0.00848345  0.72673959  1
  O2-  O123  1  0.24281667  0.50054752  0.06156915  1
  O2-  O124  1  0.24190116  0.50075155  0.39421439  1
  O2-  O125  1  0.24028528  0.49915683  0.72830201  1
  O2-  O126  1  0.74977274  -0.00016246  0.06525176  1
  O2-  O127  1  0.75753242  0.00075918  0.39385462  1
  O2-  O128  1  0.75371222  -0.00692731  0.73050044  1
  O2-  O129  1  0.75360917  0.49619979  0.06461524  1
  O2-  O130  1  0.75167216  0.49823183  0.39183334  1
  O2-  O131  1  0.75022598  0.49906512  0.72088936  1
  O2-  O132  1  -0.00206580  0.24936250  0.27808636  1
  O2-  O133  1  -0.00651610  0.25120235  0.60446719  1
  O2-  O134  1  -0.00758891  0.24226754  0.93655216  1
  O2-  O135  1  -0.00289230  0.75693695  0.27158369  1
  O2-  O136  1  0.00050324  0.74972156  0.60112736  1
  O2-  O137  1  -0.00252472  0.75196779  0.94141501  1
  O2-  O138  1  0.49421333  0.24629235  0.27586509  1
  O2-  O139  1  0.49771680  0.24965565  0.60618414  1
  O2-  O140  1  0.50621565  0.24759755  0.93815885  1
  O2-  O141  1  0.50295454  0.75013427  0.27678707  1
  O2-  O142  1  0.50842533  0.74893073  0.60427690  1
  O2-  O143  1  0.49960245  0.75768006  0.94066094  1
  O2-  O144  1  0.07304702  0.18105210  0.10064793  1
  O2-  O145  1  0.07026332  0.18085471  0.42419127  1
  O2-  O146  1  0.07337174  0.18101937  0.76418982  1
  O2-  O147  1  0.07578798  0.68249356  0.10043009  1
  O2-  O148  1  0.06929149  0.68088931  0.43131961  1
  O2-  O149  1  0.07044915  0.67927149  0.76528969  1
  O2-  O150  1  0.56606266  0.17430596  0.08919893  1
  O2-  O151  1  0.57230889  0.18437486  0.42277853  1
  O2-  O152  1  0.57083085  0.18446439  0.75547152  1
  O2-  O153  1  0.56768981  0.68030922  0.10165245  1
  O2-  O154  1  0.57192066  0.67325795  0.42329998  1
  O2-  O155  1  0.56884125  0.66914685  0.75341798  1
  O2-  O156  1  0.17486317  0.42712218  0.24559837  1
  O2-  O157  1  0.18059044  0.42171635  0.57920978  1
  O2-  O158  1  0.18334191  0.42604984  0.91010307  1
  O2-  O159  1  0.18256223  0.93103546  0.23519959  1
  O2-  O160  1  0.18251689  0.93065105  0.56858803  1
  O2-  O161  1  0.17987945  0.92401551  0.91097486  1
  O2-  O162  1  0.67726334  0.42840264  0.24504635  1
  O2-  O163  1  0.67913657  0.42913699  0.57396930  1
  O2-  O164  1  0.67565764  0.43391365  0.90019756  1
  O2-  O165  1  0.68003993  0.92798742  0.23586150  1
  O2-  O166  1  0.67657947  0.93146001  0.56878802  1
  O2-  O167  1  0.67755810  0.92873418  0.90173177  1
  O2-  O168  1  0.43055347  0.32040037  0.09914145  1
  O2-  O169  1  0.43470833  0.32448884  0.42390503  1
  O2-  O170  1  0.43075305  0.32536357  0.75285485  1
  O2-  O171  1  0.42832207  0.82343481  0.09049572  1
  O2-  O172  1  0.43188483  0.82073427  0.42276304  1
  O2-  O173  1  0.43210745  0.82133286  0.76558269  1
  O2-  O174  1  0.93146060  0.32043595  0.09943259  1
  O2-  O175  1  0.92662559  0.32331337  0.42370665  1
  O2-  O176  1  0.92327157  0.32158431  0.75350150  1
  O2-  O177  1  0.92698956  0.81716537  0.09114897  1
  O2-  O178  1  0.92118486  0.81914165  0.42043727  1
  O2-  O179  1  0.92738496  0.81730626  0.76595074  1
  O2-  O180  1  0.31950947  0.07619375  0.23469931  1
  O2-  O181  1  0.32087771  0.07587942  0.57660026  1
  O2-  O182  1  0.31812691  0.07106231  0.89742992  1
  O2-  O183  1  0.32486679  0.56743188  0.23489359  1
  O2-  O184  1  0.32010537  0.56753946  0.56881068  1
  O2-  O185  1  0.31967307  0.57118329  0.90058528  1
  O2-  O186  1  0.81611261  0.07987807  0.24500184  1
  O2-  O187  1  0.81638867  0.07238729  0.56745382  1
  O2-  O188  1  0.82379582  0.06741820  0.90309037  1
  O2-  O189  1  0.82417361  0.56748428  0.24468540  1
  O2-  O190  1  0.82117016  0.56581170  0.57362530  1
  O2-  O191  1  0.82271954  0.57013200  0.90058181  1
  O2-  O192  1  0.04641674  0.08721331  0.27157884  1
  O2-  O193  1  0.04100403  0.08281368  0.59577060  1
  O2-  O194  1  0.04795180  0.07451454  0.93759458  1
  O2-  O195  1  0.04139064  0.58370026  0.26657262  1
  O2-  O196  1  0.04760636  0.57794818  0.59985049  1
  O2-  O197  1  0.04880296  0.58154722  0.93380465  1
  O2-  O198  1  0.54749268  0.08636235  0.27187503  1
  O2-  O199  1  0.54464161  0.08977831  0.60198245  1
  O2-  O200  1  0.53911375  0.08360333  0.93657636  1
  O2-  O201  1  0.54154743  0.58503396  0.27208086  1
  O2-  O202  1  0.53970823  0.58362154  0.59889364  1
  O2-  O203  1  0.53743518  0.58612425  0.93226663  1
  O2-  O204  1  0.16287199  0.21104442  0.27369951  1
  O2-  O205  1  0.16571660  0.21330687  0.59483156  1
  O2-  O206  1  0.16517629  0.21109021  0.93073741  1
  O2-  O207  1  0.16964051  0.71296618  0.26674422  1
  O2-  O208  1  0.17150766  0.70989603  0.60188275  1
  O2-  O209  1  0.16975694  0.71356801  0.93335891  1
  O2-  O210  1  0.65986031  0.21301034  0.26938599  1
  O2-  O211  1  0.66056238  0.21305687  0.60086285  1
  O2-  O212  1  0.66634099  0.19543351  0.94058048  1
  O2-  O213  1  0.66525589  0.70201035  0.27282028  1
  O2-  O214  1  0.66702904  0.69227990  0.60350736  1
  O2-  O215  1  0.66926364  0.70546308  0.93564622  1
  O2-  O216  1  0.08421386  0.44760041  0.05931033  1
  O2-  O217  1  0.08074979  0.45185123  0.39737270  1
  O2-  O218  1  0.08031734  0.44306149  0.72694522  1
  O2-  O219  1  0.08277500  0.94281045  0.06245329  1
  O2-  O220  1  0.07760867  0.95437865  0.39835979  1
  O2-  O221  1  0.08300665  0.95714958  0.73344606  1
  O2-  O222  1  0.58172224  0.46260058  0.06897604  1
  O2-  O223  1  0.58976144  0.45859535  0.40005016  1
  O2-  O224  1  0.58646174  0.45698982  0.72503909  1
  O2-  O225  1  0.58001945  0.95689751  0.06906313  1
  O2-  O226  1  0.58579485  0.96205153  0.40254061  1
  O2-  O227  1  0.57976112  0.96123162  0.73400229  1
  O2-  O228  1  0.21050101  0.33668319  0.06322851  1
  O2-  O229  1  0.20437357  0.33831571  0.39968320  1
  O2-  O230  1  0.20997684  0.33434974  0.73164229  1
  O2-  O231  1  0.21247839  0.83740102  0.06592641  1
  O2-  O232  1  0.21247857  0.83421239  0.40258512  1
  O2-  O233  1  0.21638790  0.83611535  0.73629030  1
  O2-  O234  1  0.69711362  0.32841132  0.06780135  1
  O2-  O235  1  0.70687305  0.33702186  0.39772801  1
  O2-  O236  1  0.70350072  0.33762428  0.72758725  1
  O2-  O237  1  0.70754524  0.83025250  0.06918278  1
  O2-  O238  1  0.70661326  0.82945946  0.40290656  1
  O2-  O239  1  0.69563241  0.82278290  0.72877430  1
  O2-  O240  1  0.46530943  0.41244917  0.27148373  1
  O2-  O241  1  0.46185855  0.41276319  0.59854937  1
  O2-  O242  1  0.46245652  0.41659914  0.92998979  1
  O2-  O243  1  0.46004507  0.91450926  0.27198204  1
  O2-  O244  1  0.45976472  0.91957920  0.59653257  1
  O2-  O245  1  0.45184648  0.91835639  0.93876588  1
  O2-  O246  1  0.95570143  0.41275143  0.27024422  1
  O2-  O247  1  0.95300917  0.41251228  0.59968332  1
  O2-  O248  1  0.95813344  0.41564520  0.92916049  1
  O2-  O249  1  0.94519959  0.91817396  0.27132396  1
  O2-  O250  1  0.95337664  0.91884218  0.59870488  1
  O2-  O251  1  0.95073906  0.91333731  0.94087470  1
  O2-  O252  1  0.33478991  0.30429042  0.27418235  1
  O2-  O253  1  0.33734117  0.29864619  0.59952030  1
  O2-  O254  1  0.33571711  0.29023944  0.92848787  1
  O2-  O255  1  0.34029159  0.79431124  0.26994263  1
  O2-  O256  1  0.33748351  0.78740184  0.59732987  1
  O2-  O257  1  0.33690891  0.79547997  0.93790800  1
  O2-  O258  1  0.83467173  0.29588823  0.27253645  1
  O2-  O259  1  0.83079684  0.29655750  0.60183847  1
  O2-  O260  1  0.82325184  0.30094261  0.93679597  1
  O2-  O261  1  0.83219166  0.79108528  0.26934285  1
  O2-  O262  1  0.82914296  0.78902739  0.59844676  1
  O2-  O263  1  0.83457224  0.79190729  0.93919201  1
  O2-  O264  1  0.41178009  0.04176164  0.06853395  1
  O2-  O265  1  0.42039707  0.04816050  0.39921183  1
  O2-  O266  1  0.41636683  0.05176177  0.72583600  1
  O2-  O267  1  0.41471238  0.53683063  0.06724185  1
  O2-  O268  1  0.41581202  0.53490015  0.40404733  1
  O2-  O269  1  0.41496851  0.53471008  0.73370516  1
  O2-  O270  1  0.92106568  0.04104496  0.07212736  1
  O2-  O271  1  0.91645297  0.05411121  0.39166607  1
  O2-  O272  1  0.92136648  0.04725570  0.73098667  1
  O2-  O273  1  0.92369619  0.54011369  0.06689576  1
  O2-  O274  1  0.91367227  0.53904248  0.39788129  1
  O2-  O275  1  0.91458530  0.53971902  0.72518775  1
  O2-  O276  1  0.28923784  0.17017536  0.06419136  1
  O2-  O277  1  0.29757213  0.17575050  0.39998841  1
  O2-  O278  1  0.29811383  0.17156888  0.72458661  1
  O2-  O279  1  0.29269171  0.66896401  0.06860607  1
  O2-  O280  1  0.29429234  0.66835771  0.39982249  1
  O2-  O281  1  0.29407900  0.66776751  0.73584693  1
  O2-  O282  1  0.79729643  0.16945315  0.06869395  1
  O2-  O283  1  0.78960573  0.16647766  0.39811452  1
  O2-  O284  1  0.78805298  0.16763736  0.73332892  1
  O2-  O285  1  0.79416120  0.66542044  0.07125886  1
  O2-  O286  1  0.79363530  0.65967216  0.39750510  1
  O2-  O287  1  0.79629901  0.65995570  0.72679718  1
