# generated using pymatgen
data_Ca2Al2SiO7
_symmetry_space_group_name_H-M   'P 1'
_cell_length_a   15.46221212
_cell_length_b   15.46270929
_cell_length_c   15.28713304
_cell_angle_alpha   89.99514989
_cell_angle_beta   89.99186697
_cell_angle_gamma   90.01162292
_symmetry_Int_Tables_number   1
_chemical_formula_structural   Ca2Al2SiO7
_chemical_formula_sum   'Ca48 Al48 Si24 O168'
_cell_volume   3654.96521615
_cell_formula_units_Z   24
loop_
 _symmetry_equiv_pos_site_id
 _symmetry_equiv_pos_as_xyz
  1  'x, y, z'
loop_
 _atom_type_symbol
 _atom_type_oxidation_number
  Ca2+  2.0
  Al0+  0.0
  Si0+  0.0
  O2-  -2.0
loop_
 _atom_site_type_symbol
 _atom_site_label
 _atom_site_symmetry_multiplicity
 _atom_site_fract_x
 _atom_site_fract_y
 _atom_site_fract_z
 _atom_site_occupancy
  Ca2+  Ca0  1  0.16390609  0.07443650  0.16621494  1
  Ca2+  Ca1  1  0.16699652  0.08105985  0.50086129  1
  Ca2+  Ca2  1  0.16534534  0.07529364  0.84265031  1
  Ca2+  Ca3  1  0.17500722  0.59455839  0.16636020  1
  Ca2+  Ca4  1  0.17391123  0.58598204  0.50521613  1
  Ca2+  Ca5  1  0.17209176  0.57436173  0.84121978  1
  Ca2+  Ca6  1  0.67599181  0.07436321  0.16747925  1
  Ca2+  Ca7  1  0.67058120  0.07857088  0.50535228  1
  Ca2+  Ca8  1  0.66727167  0.07651150  0.83886497  1
  Ca2+  Ca9  1  0.67586083  0.58345558  0.17445139  1
  Ca2+  Ca10  1  0.67631759  0.58277925  0.49800290  1
  Ca2+  Ca11  1  0.68122374  0.58575751  0.83726809  1
  Ca2+  Ca12  1  0.07931526  0.33592151  0.16259000  1
  Ca2+  Ca13  1  0.07297230  0.34082437  0.50003600  1
  Ca2+  Ca14  1  0.08199710  0.34044070  0.82889137  1
  Ca2+  Ca15  1  0.07437467  0.82243665  0.16066434  1
  Ca2+  Ca16  1  0.07429647  0.82434887  0.48824919  1
  Ca2+  Ca17  1  0.08100151  0.82805848  0.83767891  1
  Ca2+  Ca18  1  0.57945013  0.33941644  0.16063410  1
  Ca2+  Ca19  1  0.58997793  0.33071034  0.49363488  1
  Ca2+  Ca20  1  0.57795993  0.32877564  0.82915245  1
  Ca2+  Ca21  1  0.58005653  0.82780756  0.16064407  1
  Ca2+  Ca22  1  0.58381598  0.82613687  0.49644900  1
  Ca2+  Ca23  1  0.58267345  0.83928593  0.83256945  1
  Ca2+  Ca24  1  0.32987256  0.42447662  0.16861668  1
  Ca2+  Ca25  1  0.32535146  0.43069650  0.50732953  1
  Ca2+  Ca26  1  0.32584399  0.42304409  0.84348331  1
  Ca2+  Ca27  1  0.32529560  0.90134209  0.16252450  1
  Ca2+  Ca28  1  0.33110558  0.91612053  0.50354749  1
  Ca2+  Ca29  1  0.32928655  0.91633774  0.84448473  1
  Ca2+  Ca30  1  0.83172748  0.42843114  0.17448786  1
  Ca2+  Ca31  1  0.83962619  0.42566861  0.50108306  1
  Ca2+  Ca32  1  0.84047707  0.42691242  0.83506932  1
  Ca2+  Ca33  1  0.84587694  0.92446724  0.16868317  1
  Ca2+  Ca34  1  0.83043429  0.91752487  0.50255777  1
  Ca2+  Ca35  1  0.82208189  0.92035746  0.84663884  1
  Ca2+  Ca36  1  0.41914900  0.17692682  0.15684352  1
  Ca2+  Ca37  1  0.42610920  0.16822759  0.49754621  1
  Ca2+  Ca38  1  0.42040329  0.17374242  0.82928746  1
  Ca2+  Ca39  1  0.42308755  0.66014619  0.16068820  1
  Ca2+  Ca40  1  0.42105050  0.65952655  0.49223093  1
  Ca2+  Ca41  1  0.41035116  0.66822920  0.83491762  1
  Ca2+  Ca42  1  0.90573122  0.17148932  0.16547588  1
  Ca2+  Ca43  1  0.91006211  0.17976666  0.49327663  1
  Ca2+  Ca44  1  0.91392526  0.17286097  0.82970124  1
  Ca2+  Ca45  1  0.92081375  0.66882614  0.15758323  1
  Ca2+  Ca46  1  0.91946794  0.66708522  0.48780457  1
  Ca2+  Ca47  1  0.91778064  0.66383541  0.83331573  1
  Al0+  Al48  1  0.00051317  0.00064076  0.00330659  1
  Al0+  Al49  1  0.00144963  0.00097774  0.33751052  1
  Al0+  Al50  1  -0.00070932  0.00062355  0.66576872  1
  Al0+  Al51  1  0.00081090  0.49911443  0.00338198  1
  Al0+  Al52  1  0.00201559  0.49786886  0.32671742  1
  Al0+  Al53  1  0.00159495  0.50127548  0.66877331  1
  Al0+  Al54  1  0.50148387  0.00023741  0.00104909  1
  Al0+  Al55  1  0.49957626  0.00092246  0.33228430  1
  Al0+  Al56  1  0.49925733  0.00034287  0.66412498  1
  Al0+  Al57  1  0.49931333  0.49926441  -0.00645371  1
  Al0+  Al58  1  0.49904815  0.49942438  0.33771719  1
  Al0+  Al59  1  0.50103968  0.50211287  0.66940280  1
  Al0+  Al60  1  0.24916276  0.25077590  -0.00192112  1
  Al0+  Al61  1  0.25099750  0.24919809  0.33552163  1
  Al0+  Al62  1  0.24975264  0.24920386  0.66630949  1
  Al0+  Al63  1  0.25065812  0.74910441  -0.00160702  1
  Al0+  Al64  1  0.24853209  0.75088045  0.33715867  1
  Al0+  Al65  1  0.24946937  0.75145646  0.66859736  1
  Al0+  Al66  1  0.74962807  0.24857658  0.00027692  1
  Al0+  Al67  1  0.74985235  0.24665614  0.33403037  1
  Al0+  Al68  1  0.75013244  0.25045286  0.65807481  1
  Al0+  Al69  1  0.74900740  0.75038325  0.00348047  1
  Al0+  Al70  1  0.74757068  0.75206030  0.32846421  1
  Al0+  Al71  1  0.74816283  0.75146699  0.67402898  1
  Al0+  Al72  1  0.56899465  0.17963482  0.65165169  1
  Al0+  Al73  1  0.67909014  0.93065961  0.68008952  1
  Al0+  Al74  1  0.17964887  0.42961668  0.68098349  1
  Al0+  Al75  1  0.67877470  0.42890742  0.34692055  1
  Al0+  Al76  1  0.82147060  0.07134480  0.01462478  1
  Al0+  Al77  1  0.32149548  0.57052868  0.01623563  1
  Al0+  Al78  1  0.93159506  0.32162007  0.65335792  1
  Al0+  Al79  1  0.67662601  0.92811308  0.01751953  1
  Al0+  Al80  1  0.82311743  0.57263300  0.34616664  1
  Al0+  Al81  1  0.82155283  0.06879417  0.34998278  1
  Al0+  Al82  1  0.56912145  0.67786524  0.32096066  1
  Al0+  Al83  1  0.82102506  0.57029464  0.01376682  1
  Al0+  Al84  1  0.07036157  0.67763377  0.98219359  1
  Al0+  Al85  1  0.92879477  0.31929334  0.31773602  1
  Al0+  Al86  1  0.82046846  0.57060334  0.67942090  1
  Al0+  Al87  1  0.43092102  0.81989764  0.98690468  1
  Al0+  Al88  1  0.92792537  0.82253465  0.98345823  1
  Al0+  Al89  1  0.42788828  0.32188823  0.98541867  1
  Al0+  Al90  1  0.92748095  0.82200611  0.31983262  1
  Al0+  Al91  1  0.17969428  0.92829686  0.01374713  1
  Al0+  Al92  1  0.17859495  0.42692847  0.01778992  1
  Al0+  Al93  1  0.32347774  0.57354875  0.68385137  1
  Al0+  Al94  1  0.31885435  0.57104374  0.34732191  1
  Al0+  Al95  1  0.07202528  0.67725738  0.31869579  1
  Si0+  Si96  1  0.32260206  0.07343082  0.34900002  1
  Si0+  Si97  1  0.92807116  0.32017492  0.98541153  1
  Si0+  Si98  1  0.82182340  0.07365222  0.68212545  1
  Si0+  Si99  1  0.57112415  0.17701074  0.31574462  1
  Si0+  Si100  1  0.07005487  0.68193859  0.65216658  1
  Si0+  Si101  1  0.32097150  0.06966164  0.68061012  1
  Si0+  Si102  1  0.17879731  0.42350979  0.35086199  1
  Si0+  Si103  1  0.17743801  0.93007443  0.68132521  1
  Si0+  Si104  1  0.07454052  0.17811864  0.31653846  1
  Si0+  Si105  1  0.67825884  0.42745914  0.01222348  1
  Si0+  Si106  1  0.32210106  0.07222548  0.01546936  1
  Si0+  Si107  1  0.42967234  0.31927911  0.31985970  1
  Si0+  Si108  1  0.57306656  0.67961543  0.65245240  1
  Si0+  Si109  1  0.57315680  0.67650070  0.98068621  1
  Si0+  Si110  1  0.18093455  0.93034624  0.35015361  1
  Si0+  Si111  1  0.42701520  0.32359770  0.64835866  1
  Si0+  Si112  1  0.42806736  0.82043174  0.65165718  1
  Si0+  Si113  1  0.42762420  0.82353110  0.31845197  1
  Si0+  Si114  1  0.07117814  0.17902781  0.98563252  1
  Si0+  Si115  1  0.67395181  0.92879422  0.35132291  1
  Si0+  Si116  1  0.67846763  0.42515824  0.68273513  1
  Si0+  Si117  1  0.57208939  0.17906580  0.98332511  1
  Si0+  Si118  1  0.07344812  0.17422031  0.64923887  1
  Si0+  Si119  1  0.92660118  0.82197947  0.65336852  1
  O2-  O120  1  0.25719795  0.00091028  0.06107186  1
  O2-  O121  1  0.25339544  0.00082635  0.39181802  1
  O2-  O122  1  0.24594572  0.00371188  0.72291804  1
  O2-  O123  1  0.24879158  0.50028193  0.06764713  1
  O2-  O124  1  0.24133226  0.49880076  0.39322077  1
  O2-  O125  1  0.25583508  0.49655434  0.73116974  1
  O2-  O126  1  0.75480949  -0.00544578  0.06534488  1
  O2-  O127  1  0.74735247  -0.00722470  0.39531326  1
  O2-  O128  1  0.75431288  0.00479405  0.72651027  1
  O2-  O129  1  0.74425728  0.49682887  0.05768736  1
  O2-  O130  1  0.75295975  0.49875548  0.39746523  1
  O2-  O131  1  0.74688952  0.49397394  0.72637946  1
  O2-  O132  1  0.00553057  0.24535392  0.27166753  1
  O2-  O133  1  0.00595530  0.24485167  0.60723614  1
  O2-  O134  1  0.00025196  0.24983190  0.94363401  1
  O2-  O135  1  -0.00773891  0.74255921  0.27132400  1
  O2-  O136  1  -0.00244458  0.75162032  0.61021912  1
  O2-  O137  1  -0.00365549  0.74803222  0.93123280  1
  O2-  O138  1  0.50262690  0.25113009  0.27532730  1
  O2-  O139  1  0.49824973  0.25791108  0.60271142  1
  O2-  O140  1  0.50258286  0.24682973  0.93907029  1
  O2-  O141  1  0.49460054  0.75360942  0.27545357  1
  O2-  O142  1  0.49619110  0.74617689  0.61098661  1
  O2-  O143  1  0.50548422  0.74718739  0.93692300  1
  O2-  O144  1  0.07398394  0.17893299  0.09050048  1
  O2-  O145  1  0.07676674  0.17862734  0.42233837  1
  O2-  O146  1  0.07316374  0.16795128  0.75441690  1
  O2-  O147  1  0.07039781  0.68024777  0.09547184  1
  O2-  O148  1  0.07532665  0.68299688  0.43344179  1
  O2-  O149  1  0.07142759  0.68359515  0.75667511  1
  O2-  O150  1  0.57149097  0.18094764  0.08899611  1
  O2-  O151  1  0.56740496  0.17412667  0.42108999  1
  O2-  O152  1  0.56481500  0.17920585  0.76455759  1
  O2-  O153  1  0.57067809  0.67345914  0.08622244  1
  O2-  O154  1  0.56777606  0.67980866  0.43494045  1
  O2-  O155  1  0.57615934  0.68249849  0.75698573  1
  O2-  O156  1  0.18564054  0.41335479  0.24655347  1
  O2-  O157  1  0.17890612  0.43354782  0.56715116  1
  O2-  O158  1  0.18076564  0.42528914  0.90410177  1
  O2-  O159  1  0.18224742  0.93094111  0.24557959  1
  O2-  O160  1  0.17942470  0.93007819  0.57589948  1
  O2-  O161  1  0.18095127  0.93260233  0.89996539  1
  O2-  O162  1  0.67679846  0.43067896  0.23313909  1
  O2-  O163  1  0.67859350  0.42591324  0.57739675  1
  O2-  O164  1  0.68097408  0.42546885  0.90637159  1
  O2-  O165  1  0.66460143  0.93431704  0.24707626  1
  O2-  O166  1  0.68004138  0.92952698  0.56685656  1
  O2-  O167  1  0.67449412  0.93462539  0.90349105  1
  O2-  O168  1  0.43003793  0.32011462  0.09911211  1
  O2-  O169  1  0.42893097  0.31469451  0.42496266  1
  O2-  O170  1  0.42670039  0.31907075  0.75372197  1
  O2-  O171  1  0.43185689  0.81848001  0.10000078  1
  O2-  O172  1  0.42873378  0.82638340  0.42471547  1
  O2-  O173  1  0.42732368  0.82413210  0.75619226  1
  O2-  O174  1  0.92622255  0.31739646  0.09016579  1
  O2-  O175  1  0.93080295  0.31881724  0.43122554  1
  O2-  O176  1  0.93232086  0.31910579  0.76674745  1
  O2-  O177  1  0.93281964  0.82361053  0.09661980  1
  O2-  O178  1  0.93169072  0.82324198  0.43477321  1
  O2-  O179  1  0.92866330  0.82400122  0.75778584  1
  O2-  O180  1  0.32231302  0.07755915  0.24467155  1
  O2-  O181  1  0.32162380  0.06677010  0.57504863  1
  O2-  O182  1  0.31942664  0.07181168  0.90931455  1
  O2-  O183  1  0.32153389  0.57005574  0.23503464  1
  O2-  O184  1  0.32075574  0.57525411  0.56976935  1
  O2-  O185  1  0.32057704  0.56871172  0.90279930  1
  O2-  O186  1  0.81976821  0.06904530  0.23737021  1
  O2-  O187  1  0.82176737  0.07106325  0.57654801  1
  O2-  O188  1  0.81818557  0.07597935  0.90065233  1
  O2-  O189  1  0.82055945  0.57092985  0.23300024  1
  O2-  O190  1  0.82061963  0.57304074  0.56662207  1
  O2-  O191  1  0.82094888  0.56717159  0.90002763  1
  O2-  O192  1  0.05031918  0.08347461  0.27293253  1
  O2-  O193  1  0.04710479  0.08147656  0.59981865  1
  O2-  O194  1  0.04351445  0.08785142  0.93688022  1
  O2-  O195  1  0.05845562  0.57598232  0.26812631  1
  O2-  O196  1  0.04392834  0.58989132  0.60550155  1
  O2-  O197  1  0.04221209  0.57756833  0.93150428  1
  O2-  O198  1  0.53782637  0.08744727  0.26730098  1
  O2-  O199  1  0.53244826  0.08504225  0.59536439  1
  O2-  O200  1  0.54585371  0.08589167  0.93731968  1
  O2-  O201  1  0.53627552  0.58161199  0.26767206  1
  O2-  O202  1  0.55060767  0.58580389  0.60595466  1
  O2-  O203  1  0.54723980  0.58422948  0.93166093  1
  O2-  O204  1  0.16900788  0.20227030  0.27085022  1
  O2-  O205  1  0.16849745  0.19660090  0.60335592  1
  O2-  O206  1  0.16234141  0.20505411  0.93531420  1
  O2-  O207  1  0.16789131  0.71656615  0.26690617  1
  O2-  O208  1  0.16145012  0.71324394  0.60442966  1
  O2-  O209  1  0.16798698  0.70988130  0.92966448  1
  O2-  O210  1  0.66357267  0.20041339  0.26961726  1
  O2-  O211  1  0.66601170  0.20541975  0.59593423  1
  O2-  O212  1  0.66450927  0.20609409  0.93505091  1
  O2-  O213  1  0.66408591  0.70783845  0.26442848  1
  O2-  O214  1  0.66241662  0.71406525  0.60373712  1
  O2-  O215  1  0.66685837  0.70243074  0.93557042  1
  O2-  O216  1  0.07921379  0.45062271  0.06875154  1
  O2-  O217  1  0.08238783  0.44402380  0.39140919  1
  O2-  O218  1  0.08366964  0.46135348  0.73577710  1
  O2-  O219  1  0.08646745  0.96383175  0.06954011  1
  O2-  O220  1  0.09167979  0.96101740  0.40090752  1
  O2-  O221  1  0.08506137  0.95628026  0.72815557  1
  O2-  O222  1  0.58331093  0.45080036  0.05542015  1
  O2-  O223  1  0.58142953  0.45659489  0.40323361  1
  O2-  O224  1  0.58422485  0.44931365  0.72821889  1
  O2-  O225  1  0.58040648  0.96214694  0.07205681  1
  O2-  O226  1  0.58212444  0.96002400  0.40046325  1
  O2-  O227  1  0.58162754  0.96303984  0.73161164  1
  O2-  O228  1  0.20807436  0.32788704  0.06922322  1
  O2-  O229  1  0.21008384  0.33290612  0.40173474  1
  O2-  O230  1  0.20023598  0.32684627  0.72964879  1
  O2-  O231  1  0.21190571  0.83311604  0.06784893  1
  O2-  O232  1  0.20932096  0.84061269  0.40152195  1
  O2-  O233  1  0.20789418  0.84013311  0.72925523  1
  O2-  O234  1  0.70263160  0.33425859  0.05936017  1
  O2-  O235  1  0.70296402  0.32812716  0.39693239  1
  O2-  O236  1  0.70341193  0.33068875  0.72721837  1
  O2-  O237  1  0.69536641  0.82719630  0.06659530  1
  O2-  O238  1  0.69531999  0.83343915  0.39470050  1
  O2-  O239  1  0.70725249  0.83577904  0.73738428  1
  O2-  O240  1  0.45552740  0.41145598  0.27379742  1
  O2-  O241  1  0.44977681  0.41955621  0.60604103  1
  O2-  O242  1  0.45908617  0.41584440  0.92694827  1
  O2-  O243  1  0.45170730  0.91729179  0.27178207  1
  O2-  O244  1  0.45752278  0.91088466  0.60163579  1
  O2-  O245  1  0.45840093  0.91895451  0.93368796  1
  O2-  O246  1  0.95723659  0.41502393  0.26185962  1
  O2-  O247  1  0.96507232  0.41784620  0.59907617  1
  O2-  O248  1  0.95641789  0.41148389  0.93822477  1
  O2-  O249  1  0.96637181  0.91860667  0.26964181  1
  O2-  O250  1  0.95435874  0.91427011  0.60530330  1
  O2-  O251  1  0.95951038  0.92167187  0.93191879  1
  O2-  O252  1  0.33918994  0.28701461  0.27238378  1
  O2-  O253  1  0.33436497  0.29419766  0.60161910  1
  O2-  O254  1  0.33287127  0.28733835  0.93013720  1
  O2-  O255  1  0.33279524  0.79939981  0.27602735  1
  O2-  O256  1  0.33478180  0.79661938  0.60366766  1
  O2-  O257  1  0.33442291  0.79176362  0.93107979  1
  O2-  O258  1  0.83272311  0.28439944  0.26510421  1
  O2-  O259  1  0.83565427  0.29275741  0.59687701  1
  O2-  O260  1  0.83692813  0.29097259  0.93669742  1
  O2-  O261  1  0.82560397  0.80910098  0.27023770  1
  O2-  O262  1  0.83386139  0.79466896  0.60806830  1
  O2-  O263  1  0.82660732  0.79770347  0.93453162  1
  O2-  O264  1  0.41686701  0.05225583  0.06010640  1
  O2-  O265  1  0.41411657  0.04489159  0.39743906  1
  O2-  O266  1  0.41026482  0.03759940  0.72899698  1
  O2-  O267  1  0.42143657  0.53964761  0.06498902  1
  O2-  O268  1  0.41297638  0.53607183  0.40366361  1
  O2-  O269  1  0.42467379  0.55269550  0.73388462  1
  O2-  O270  1  0.92097349  0.04933133  0.06777370  1
  O2-  O271  1  0.91962656  0.04289186  0.40450577  1
  O2-  O272  1  0.91690436  0.05050660  0.72661562  1
  O2-  O273  1  0.91563763  0.53717254  0.06785848  1
  O2-  O274  1  0.92362756  0.54406693  0.39618206  1
  O2-  O275  1  0.91635991  0.53971466  0.73378194  1
  O2-  O276  1  0.29226456  0.16395862  0.06200925  1
  O2-  O277  1  0.29314558  0.16275220  0.40113466  1
  O2-  O278  1  0.29886346  0.16332090  0.72640485  1
  O2-  O279  1  0.29571322  0.66998938  0.06718754  1
  O2-  O280  1  0.29168766  0.66883185  0.40259074  1
  O2-  O281  1  0.29158111  0.67193185  0.73466556  1
  O2-  O282  1  0.78724181  0.16794789  0.06895830  1
  O2-  O283  1  0.78679909  0.16385636  0.40418109  1
  O2-  O284  1  0.79570757  0.16802953  0.72540043  1
  O2-  O285  1  0.79287922  0.66709133  0.06650612  1
  O2-  O286  1  0.79268914  0.67218101  0.39707223  1
  O2-  O287  1  0.78728019  0.66509916  0.73578599  1
