# generated using pymatgen
data_Ca2Al2SiO7
_symmetry_space_group_name_H-M   'P 1'
_cell_length_a   15.45649328
_cell_length_b   15.45613698
_cell_length_c   15.28265881
_cell_angle_alpha   90.00371628
_cell_angle_beta   89.99993618
_cell_angle_gamma   90.01131113
_symmetry_Int_Tables_number   1
_chemical_formula_structural   Ca2Al2SiO7
_chemical_formula_sum   'Ca48 Al48 Si24 O168'
_cell_volume   3650.99161732
_cell_formula_units_Z   24
loop_
 _symmetry_equiv_pos_site_id
 _symmetry_equiv_pos_as_xyz
  1  'x, y, z'
loop_
 _atom_type_symbol
 _atom_type_oxidation_number
  Ca2+  2.0
  Al0+  0.0
  Si0+  0.0
  O2-  -2.0
loop_
 _atom_site_type_symbol
 _atom_site_label
 _atom_site_symmetry_multiplicity
 _atom_site_fract_x
 _atom_site_fract_y
 _atom_site_fract_z
 _atom_site_occupancy
  Ca2+  Ca0  1  0.17770401  0.08859128  0.17062229  1
  Ca2+  Ca1  1  0.16858261  0.09168090  0.50042654  1
  Ca2+  Ca2  1  0.17034239  0.07901631  0.84027629  1
  Ca2+  Ca3  1  0.16538637  0.57613684  0.17056064  1
  Ca2+  Ca4  1  0.17332742  0.57478085  0.50648354  1
  Ca2+  Ca5  1  0.17428662  0.58648222  0.83895969  1
  Ca2+  Ca6  1  0.67630596  0.07527672  0.17090085  1
  Ca2+  Ca7  1  0.66837491  0.07159672  0.50323855  1
  Ca2+  Ca8  1  0.66723430  0.07296222  0.84229597  1
  Ca2+  Ca9  1  0.66397760  0.57345582  0.16936613  1
  Ca2+  Ca10  1  0.65741889  0.58210172  0.50232978  1
  Ca2+  Ca11  1  0.67065695  0.57877055  0.83989080  1
  Ca2+  Ca12  1  0.07853498  0.32908947  0.16145653  1
  Ca2+  Ca13  1  0.08070683  0.32469210  0.49542901  1
  Ca2+  Ca14  1  0.06813227  0.32509214  0.82586235  1
  Ca2+  Ca15  1  0.08590866  0.82658650  0.15665967  1
  Ca2+  Ca16  1  0.08064854  0.83276591  0.49603189  1
  Ca2+  Ca17  1  0.08800946  0.83050051  0.83569924  1
  Ca2+  Ca18  1  0.58140224  0.33520829  0.15847306  1
  Ca2+  Ca19  1  0.57558085  0.33934870  0.49586948  1
  Ca2+  Ca20  1  0.57618904  0.33566510  0.83202127  1
  Ca2+  Ca21  1  0.58491795  0.83507214  0.16237265  1
  Ca2+  Ca22  1  0.58883511  0.82575180  0.49624405  1
  Ca2+  Ca23  1  0.57688437  0.83634720  0.82604056  1
  Ca2+  Ca24  1  0.32727397  0.41393318  0.17257596  1
  Ca2+  Ca25  1  0.32939792  0.41931893  0.50643073  1
  Ca2+  Ca26  1  0.34154282  0.42166311  0.83520505  1
  Ca2+  Ca27  1  0.33378767  0.92535029  0.16405314  1
  Ca2+  Ca28  1  0.33784424  0.92247230  0.50363047  1
  Ca2+  Ca29  1  0.33429237  0.91996142  0.84456547  1
  Ca2+  Ca30  1  0.82546641  0.41644247  0.16573166  1
  Ca2+  Ca31  1  0.82809984  0.41423609  0.50159653  1
  Ca2+  Ca32  1  0.83035134  0.41580404  0.84478141  1
  Ca2+  Ca33  1  0.82622860  0.92478082  0.17102748  1
  Ca2+  Ca34  1  0.82404326  0.91885831  0.50213267  1
  Ca2+  Ca35  1  0.82043787  0.92190290  0.84225565  1
  Ca2+  Ca36  1  0.41440497  0.16861042  0.15954988  1
  Ca2+  Ca37  1  0.41457763  0.17066827  0.49646823  1
  Ca2+  Ca38  1  0.41127684  0.17700893  0.83259682  1
  Ca2+  Ca39  1  0.42488593  0.67462871  0.15973580  1
  Ca2+  Ca40  1  0.42508830  0.66941921  0.50036379  1
  Ca2+  Ca41  1  0.42245238  0.67915127  0.82396504  1
  Ca2+  Ca42  1  0.91605923  0.16494089  0.16079768  1
  Ca2+  Ca43  1  0.92644369  0.16415721  0.49403175  1
  Ca2+  Ca44  1  0.91304809  0.17389679  0.82869329  1
  Ca2+  Ca45  1  0.92254617  0.66340420  0.15750915  1
  Ca2+  Ca46  1  0.91499115  0.67052114  0.49633772  1
  Ca2+  Ca47  1  0.92157735  0.66043472  0.83611859  1
  Al0+  Al48  1  0.00103228  -0.00370739  0.00502533  1
  Al0+  Al49  1  0.00179902  0.00011708  0.33035198  1
  Al0+  Al50  1  0.00060775  -0.00076068  0.66383691  1
  Al0+  Al51  1  0.00117065  0.49877398  -0.00617713  1
  Al0+  Al52  1  -0.00054430  0.49854657  0.33913888  1
  Al0+  Al53  1  -0.00047339  0.49837573  0.66163624  1
  Al0+  Al54  1  0.49913378  0.00108799  0.00390877  1
  Al0+  Al55  1  0.49904956  0.00160871  0.34112587  1
  Al0+  Al56  1  0.49805317  0.00118460  0.66838235  1
  Al0+  Al57  1  0.49956798  0.50146550  -0.00016689  1
  Al0+  Al58  1  0.49970604  0.50293199  0.33125672  1
  Al0+  Al59  1  0.49916283  0.50086267  0.66455379  1
  Al0+  Al60  1  0.24939847  0.25144930  -0.00336940  1
  Al0+  Al61  1  0.24747412  0.25059816  0.33777240  1
  Al0+  Al62  1  0.24832229  0.25060542  0.66130290  1
  Al0+  Al63  1  0.25248837  0.74947640  -0.00340842  1
  Al0+  Al64  1  0.25120236  0.75103763  0.33222311  1
  Al0+  Al65  1  0.25139077  0.74964749  0.66475852  1
  Al0+  Al66  1  0.74850449  0.24939248  0.00213840  1
  Al0+  Al67  1  0.74922297  0.25150747  0.34290160  1
  Al0+  Al68  1  0.74963992  0.25022757  0.66255182  1
  Al0+  Al69  1  0.75294396  0.74795541  0.00641235  1
  Al0+  Al70  1  0.75045797  0.74886492  0.32936830  1
  Al0+  Al71  1  0.75059439  0.74898545  0.66907599  1
  Al0+  Al72  1  0.31931051  0.07095651  0.34906056  1
  Al0+  Al73  1  0.42748287  0.82388402  0.65019327  1
  Al0+  Al74  1  0.07033801  0.17997129  0.31581610  1
  Al0+  Al75  1  0.43068442  0.32103633  0.65192608  1
  Al0+  Al76  1  0.92575619  0.32260945  0.64833830  1
  Al0+  Al77  1  0.67955460  0.92762165  0.34976957  1
  Al0+  Al78  1  0.43265107  0.82168666  0.98751871  1
  Al0+  Al79  1  0.57249432  0.68096613  0.65289729  1
  Al0+  Al80  1  0.67701334  0.92753305  0.01524184  1
  Al0+  Al81  1  0.31874701  0.07408389  0.01380846  1
  Al0+  Al82  1  0.06890108  0.17750207  0.65136092  1
  Al0+  Al83  1  0.57084933  0.68001857  0.31604984  1
  Al0+  Al84  1  0.82373941  0.07168323  0.35046491  1
  Al0+  Al85  1  0.82457082  0.56898751  0.01444672  1
  Al0+  Al86  1  0.42741290  0.32250392  0.98778045  1
  Al0+  Al87  1  0.92810106  0.31790655  0.98846735  1
  Al0+  Al88  1  0.17836364  0.42970553  0.34733094  1
  Al0+  Al89  1  0.67672263  0.42993722  0.01352529  1
  Al0+  Al90  1  0.07134670  0.67852493  0.98634802  1
  Al0+  Al91  1  0.67896910  0.92870049  0.68162765  1
  Al0+  Al92  1  0.18026142  0.92583518  0.01448244  1
  Al0+  Al93  1  0.32062425  0.56991512  0.68123117  1
  Al0+  Al94  1  0.67710737  0.43070428  0.34866025  1
  Al0+  Al95  1  0.82179890  0.07217954  0.01310553  1
  Si0+  Si96  1  0.57437744  0.67795737  0.98354796  1
  Si0+  Si97  1  0.82300331  0.57085894  0.68139107  1
  Si0+  Si98  1  0.92744352  0.82229110  0.98304317  1
  Si0+  Si99  1  0.82229841  0.57123475  0.35091963  1
  Si0+  Si100  1  0.92992691  0.81917127  0.65318101  1
  Si0+  Si101  1  0.42940759  0.32050887  0.31933455  1
  Si0+  Si102  1  0.17959126  0.43042915  0.01159739  1
  Si0+  Si103  1  0.82308183  0.07069171  0.68243292  1
  Si0+  Si104  1  0.07243179  0.17570258  0.98442372  1
  Si0+  Si105  1  0.67875533  0.42891185  0.68098039  1
  Si0+  Si106  1  0.17730040  0.42751184  0.68557244  1
  Si0+  Si107  1  0.07137968  0.67760552  0.32070830  1
  Si0+  Si108  1  0.92616632  0.32272452  0.31543920  1
  Si0+  Si109  1  0.57136515  0.17899765  0.32039000  1
  Si0+  Si110  1  0.42765747  0.82507581  0.31516207  1
  Si0+  Si111  1  0.32153743  0.57367485  0.34920210  1
  Si0+  Si112  1  0.07268953  0.67832712  0.65061263  1
  Si0+  Si113  1  0.17872595  0.92559665  0.35038300  1
  Si0+  Si114  1  0.57112151  0.17879533  0.98512010  1
  Si0+  Si115  1  0.57168521  0.17727336  0.64958406  1
  Si0+  Si116  1  0.31945611  0.07267969  0.68209439  1
  Si0+  Si117  1  0.93011273  0.82009938  0.31736315  1
  Si0+  Si118  1  0.17775695  0.92805145  0.68048870  1
  Si0+  Si119  1  0.32154163  0.57149474  0.01491793  1
  O2-  O120  1  0.24630153  0.00282576  0.06471602  1
  O2-  O121  1  0.24632485  -0.00582930  0.39594547  1
  O2-  O122  1  0.24997137  -0.00146807  0.72157810  1
  O2-  O123  1  0.25249385  0.49837868  0.05649916  1
  O2-  O124  1  0.25209864  0.50578218  0.39322455  1
  O2-  O125  1  0.24546779  0.49628065  0.73059593  1
  O2-  O126  1  0.75173204  -0.00187216  0.06273828  1
  O2-  O127  1  0.75107297  0.00014160  0.40022763  1
  O2-  O128  1  0.75128858  0.00621254  0.72733713  1
  O2-  O129  1  0.74920428  0.50106635  0.06445003  1
  O2-  O130  1  0.75192003  0.50515512  0.39608059  1
  O2-  O131  1  0.75384064  0.49683568  0.72151776  1
  O2-  O132  1  -0.00805982  0.25160021  0.27043599  1
  O2-  O133  1  -0.00341118  0.24877449  0.60033014  1
  O2-  O134  1  -0.00239656  0.23813524  0.94137935  1
  O2-  O135  1  0.00236937  0.74898833  0.27701178  1
  O2-  O136  1  0.00100109  0.74862990  0.60872012  1
  O2-  O137  1  -0.00297099  0.75371468  0.93881644  1
  O2-  O138  1  0.50144287  0.25106815  0.27682879  1
  O2-  O139  1  0.50499936  0.24729232  0.60369951  1
  O2-  O140  1  0.50234253  0.24806101  0.94116611  1
  O2-  O141  1  0.49801395  0.75768499  0.27147131  1
  O2-  O142  1  0.50282562  0.75484055  0.60144462  1
  O2-  O143  1  0.51185645  0.75216799  0.94002509  1
  O2-  O144  1  0.07648545  0.18171992  0.08980431  1
  O2-  O145  1  0.07080943  0.18236624  0.42873549  1
  O2-  O146  1  0.06768558  0.17660644  0.76517492  1
  O2-  O147  1  0.07094522  0.67731460  0.10000873  1
  O2-  O148  1  0.07008822  0.67957454  0.42613650  1
  O2-  O149  1  0.07296624  0.67840637  0.75544823  1
  O2-  O150  1  0.57073400  0.17993240  0.09099100  1
  O2-  O151  1  0.56785861  0.17992228  0.42563360  1
  O2-  O152  1  0.57111326  0.17815861  0.75518224  1
  O2-  O153  1  0.56872922  0.67473546  0.08910331  1
  O2-  O154  1  0.56839253  0.67876679  0.42906065  1
  O2-  O155  1  0.57276780  0.68063920  0.76635668  1
  O2-  O156  1  0.17920001  0.43153597  0.23351951  1
  O2-  O157  1  0.17875630  0.43053220  0.57969128  1
  O2-  O158  1  0.18012054  0.43249204  0.90677588  1
  O2-  O159  1  0.18077766  0.92154795  0.24539757  1
  O2-  O160  1  0.17586451  0.92735316  0.57528752  1
  O2-  O161  1  0.18286595  0.92616992  0.90018447  1
  O2-  O162  1  0.67593891  0.43064881  0.23606155  1
  O2-  O163  1  0.67744980  0.43172472  0.57576578  1
  O2-  O164  1  0.67600624  0.43155722  0.89944877  1
  O2-  O165  1  0.68133616  0.92931092  0.23658649  1
  O2-  O166  1  0.68334106  0.92731225  0.56878173  1
  O2-  O167  1  0.67749609  0.92975061  0.90118084  1
  O2-  O168  1  0.42569823  0.32201626  0.10120459  1
  O2-  O169  1  0.43048188  0.32049201  0.42462667  1
  O2-  O170  1  0.43219078  0.32042542  0.76504410  1
  O2-  O171  1  0.43078482  0.81840405  0.10072193  1
  O2-  O172  1  0.42456738  0.82256729  0.42050488  1
  O2-  O173  1  0.42668092  0.82298336  0.76386695  1
  O2-  O174  1  0.93185851  0.32064593  0.10141598  1
  O2-  O175  1  0.92961785  0.32444193  0.42086275  1
  O2-  O176  1  0.92586451  0.32285315  0.76226543  1
  O2-  O177  1  0.92883754  0.82093190  0.08868136  1
  O2-  O178  1  0.93087117  0.81778288  0.42332640  1
  O2-  O179  1  0.93122187  0.81895887  0.75779539  1
  O2-  O180  1  0.31930288  0.07300448  0.23639556  1
  O2-  O181  1  0.31857207  0.07329915  0.57686557  1
  O2-  O182  1  0.31652950  0.07562790  0.89987746  1
  O2-  O183  1  0.31961344  0.57355857  0.24326987  1
  O2-  O184  1  0.31742034  0.56846891  0.56785149  1
  O2-  O185  1  0.32113475  0.57151388  0.90981893  1
  O2-  O186  1  0.82223428  0.06973133  0.23705667  1
  O2-  O187  1  0.82458715  0.06642012  0.57707008  1
  O2-  O188  1  0.81883161  0.07198969  0.89895168  1
  O2-  O189  1  0.82660963  0.56879678  0.24594615  1
  O2-  O190  1  0.82364238  0.57348846  0.57619491  1
  O2-  O191  1  0.82491765  0.56592819  0.90029676  1
  O2-  O192  1  0.04658221  0.08065306  0.26368883  1
  O2-  O193  1  0.04330621  0.07846682  0.59639290  1
  O2-  O194  1  0.05468975  0.07840575  0.94329735  1
  O2-  O195  1  0.04241599  0.58540239  0.27472018  1
  O2-  O196  1  0.04517571  0.58686967  0.60233301  1
  O2-  O197  1  0.04057024  0.58411868  0.92783761  1
  O2-  O198  1  0.54210615  0.08717397  0.27407951  1
  O2-  O199  1  0.54254710  0.08515401  0.60286003  1
  O2-  O200  1  0.54426184  0.08593065  0.93852395  1
  O2-  O201  1  0.53568695  0.58467247  0.26101930  1
  O2-  O202  1  0.53967303  0.58406820  0.59916380  1
  O2-  O203  1  0.54245285  0.58694271  0.93585345  1
  O2-  O204  1  0.16658142  0.21680757  0.26417720  1
  O2-  O205  1  0.16625905  0.20808264  0.59711405  1
  O2-  O206  1  0.16233765  0.20816296  0.93470655  1
  O2-  O207  1  0.16418667  0.70271619  0.27340109  1
  O2-  O208  1  0.16279055  0.70732485  0.60110066  1
  O2-  O209  1  0.16711514  0.71010693  0.93072323  1
  O2-  O210  1  0.66448254  0.20653270  0.27594332  1
  O2-  O211  1  0.66594104  0.19912631  0.60348824  1
  O2-  O212  1  0.66361120  0.20389566  0.93673349  1
  O2-  O213  1  0.66932458  0.70541855  0.26303636  1
  O2-  O214  1  0.67227574  0.70592301  0.59960962  1
  O2-  O215  1  0.67194719  0.69498599  0.94290957  1
  O2-  O216  1  0.08989161  0.46156611  0.06025425  1
  O2-  O217  1  0.08333633  0.46058917  0.40453238  1
  O2-  O218  1  0.08224848  0.45388070  0.72819122  1
  O2-  O219  1  0.07944351  0.94321625  0.06592019  1
  O2-  O220  1  0.08437949  0.94994375  0.39491909  1
  O2-  O221  1  0.08610787  0.95582929  0.72884797  1
  O2-  O222  1  0.57904393  0.45994238  0.06827364  1
  O2-  O223  1  0.58024530  0.46410911  0.40173389  1
  O2-  O224  1  0.58805066  0.45933588  0.72831505  1
  O2-  O225  1  0.58055775  0.95797470  0.06977138  1
  O2-  O226  1  0.58149244  0.95558067  0.40319400  1
  O2-  O227  1  0.58121350  0.95967090  0.73336458  1
  O2-  O228  1  0.20547115  0.33852689  0.05932486  1
  O2-  O229  1  0.21183639  0.33618551  0.40407613  1
  O2-  O230  1  0.20263994  0.33305135  0.72883015  1
  O2-  O231  1  0.21342900  0.82876219  0.06787265  1
  O2-  O232  1  0.20302483  0.83149584  0.39823582  1
  O2-  O233  1  0.20330528  0.83517282  0.72647250  1
  O2-  O234  1  0.70270891  0.33134619  0.06605370  1
  O2-  O235  1  0.70436752  0.33516486  0.40611749  1
  O2-  O236  1  0.70216755  0.33489617  0.72636685  1
  O2-  O237  1  0.70344868  0.82856338  0.06706335  1
  O2-  O238  1  0.71181789  0.82861003  0.40002607  1
  O2-  O239  1  0.71319195  0.83305438  0.73539343  1
  O2-  O240  1  0.45423867  0.41339310  0.27274696  1
  O2-  O241  1  0.46156891  0.41664074  0.59654628  1
  O2-  O242  1  0.45871513  0.41907465  0.93317170  1
  O2-  O243  1  0.45221001  0.92039004  0.27272630  1
  O2-  O244  1  0.45135479  0.92439581  0.60012836  1
  O2-  O245  1  0.45699942  0.92064677  0.93472388  1
  O2-  O246  1  0.95581821  0.41659759  0.27148800  1
  O2-  O247  1  0.95533529  0.42060118  0.59399166  1
  O2-  O248  1  0.96434486  0.41117855  0.93114920  1
  O2-  O249  1  0.95805233  0.91108661  0.26973853  1
  O2-  O250  1  0.95848923  0.90951208  0.60320548  1
  O2-  O251  1  0.95258440  0.91572658  0.93568401  1
  O2-  O252  1  0.33719747  0.29125463  0.27435663  1
  O2-  O253  1  0.33366556  0.29160052  0.59834972  1
  O2-  O254  1  0.33194369  0.29261846  0.93010846  1
  O2-  O255  1  0.33418354  0.79719589  0.26866115  1
  O2-  O256  1  0.32999700  0.79254354  0.59598838  1
  O2-  O257  1  0.33832094  0.78630116  0.93195296  1
  O2-  O258  1  0.82954887  0.30078067  0.27458846  1
  O2-  O259  1  0.82619502  0.29825758  0.59592785  1
  O2-  O260  1  0.83004720  0.29193245  0.93412771  1
  O2-  O261  1  0.83983221  0.79133659  0.26865994  1
  O2-  O262  1  0.83991131  0.78828924  0.60422048  1
  O2-  O263  1  0.83400796  0.79499093  0.93688577  1
  O2-  O264  1  0.41655774  0.04644878  0.06738183  1
  O2-  O265  1  0.41527130  0.04363366  0.40601937  1
  O2-  O266  1  0.41164852  0.04875712  0.72999368  1
  O2-  O267  1  0.41275578  0.54500357  0.06334562  1
  O2-  O268  1  0.41391475  0.54574661  0.39504048  1
  O2-  O269  1  0.41680496  0.53767340  0.73511455  1
  O2-  O270  1  0.92088845  0.04644184  0.06566710  1
  O2-  O271  1  0.92269779  0.03985816  0.40100648  1
  O2-  O272  1  0.91565240  0.04143921  0.72863365  1
  O2-  O273  1  0.92278849  0.53764741  0.06646675  1
  O2-  O274  1  0.91462245  0.54555450  0.40093847  1
  O2-  O275  1  0.91669979  0.54533187  0.72667606  1
  O2-  O276  1  0.28990766  0.17281631  0.06720814  1
  O2-  O277  1  0.28590061  0.16617825  0.40423819  1
  O2-  O278  1  0.28906457  0.16446686  0.72823073  1
  O2-  O279  1  0.29087699  0.66127050  0.06331081  1
  O2-  O280  1  0.29627586  0.66733037  0.39546257  1
  O2-  O281  1  0.28862849  0.66719028  0.73398315  1
  O2-  O282  1  0.79232408  0.16874881  0.06847289  1
  O2-  O283  1  0.79741239  0.16990189  0.40420461  1
  O2-  O284  1  0.80029326  0.16712979  0.72386796  1
  O2-  O285  1  0.80439707  0.66856440  0.06770161  1
  O2-  O286  1  0.79875003  0.66613380  0.39483933  1
  O2-  O287  1  0.79504839  0.66121032  0.73112904  1
