# generated using pymatgen
data_Ca2Al2SiO7
_symmetry_space_group_name_H-M   'P 1'
_cell_length_a   15.46269400
_cell_length_b   15.46290352
_cell_length_c   15.28693876
_cell_angle_alpha   89.99550567
_cell_angle_beta   89.99465403
_cell_angle_gamma   90.00026795
_symmetry_Int_Tables_number   1
_chemical_formula_structural   Ca2Al2SiO7
_chemical_formula_sum   'Ca48 Al48 Si24 O168'
_cell_volume   3655.07868109
_cell_formula_units_Z   24
loop_
 _symmetry_equiv_pos_site_id
 _symmetry_equiv_pos_as_xyz
  1  'x, y, z'
loop_
 _atom_type_symbol
 _atom_type_oxidation_number
  Ca2+  2.0
  Al0+  0.0
  Si0+  0.0
  O2-  -2.0
loop_
 _atom_site_type_symbol
 _atom_site_label
 _atom_site_symmetry_multiplicity
 _atom_site_fract_x
 _atom_site_fract_y
 _atom_site_fract_z
 _atom_site_occupancy
  Ca2+  Ca0  1  0.16999722  0.09159359  0.17576694  1
  Ca2+  Ca1  1  0.17847960  0.08962026  0.50223828  1
  Ca2+  Ca2  1  0.17362033  0.09201748  0.83474695  1
  Ca2+  Ca3  1  0.16410834  0.56745503  0.17290692  1
  Ca2+  Ca4  1  0.16281475  0.57840255  0.50331462  1
  Ca2+  Ca5  1  0.16359897  0.57790177  0.83810445  1
  Ca2+  Ca6  1  0.67689653  0.07956155  0.17490905  1
  Ca2+  Ca7  1  0.67044271  0.08640896  0.50237691  1
  Ca2+  Ca8  1  0.67669738  0.08179374  0.83525609  1
  Ca2+  Ca9  1  0.67552292  0.57810800  0.17807000  1
  Ca2+  Ca10  1  0.66385560  0.58146853  0.49592634  1
  Ca2+  Ca11  1  0.67435181  0.57938049  0.84090400  1
  Ca2+  Ca12  1  0.08168838  0.32625829  0.16089518  1
  Ca2+  Ca13  1  0.07702936  0.32860955  0.49398110  1
  Ca2+  Ca14  1  0.07362716  0.33164576  0.83527562  1
  Ca2+  Ca15  1  0.07930421  0.83080465  0.16383555  1
  Ca2+  Ca16  1  0.07821270  0.83062374  0.50019532  1
  Ca2+  Ca17  1  0.07513667  0.82449374  0.82174430  1
  Ca2+  Ca18  1  0.59261097  0.32738935  0.16935801  1
  Ca2+  Ca19  1  0.58188962  0.32216319  0.49444814  1
  Ca2+  Ca20  1  0.57845491  0.32462948  0.82084611  1
  Ca2+  Ca21  1  0.58704126  0.83964969  0.16990595  1
  Ca2+  Ca22  1  0.57598223  0.83576426  0.48844814  1
  Ca2+  Ca23  1  0.58241722  0.83649101  0.82906246  1
  Ca2+  Ca24  1  0.31926409  0.40984200  0.17284182  1
  Ca2+  Ca25  1  0.32687428  0.40962015  0.50447070  1
  Ca2+  Ca26  1  0.32738421  0.41344702  0.83795832  1
  Ca2+  Ca27  1  0.33066342  0.92226281  0.17619842  1
  Ca2+  Ca28  1  0.34251337  0.92450215  0.50314562  1
  Ca2+  Ca29  1  0.33638876  0.92067705  0.83055820  1
  Ca2+  Ca30  1  0.83643573  0.42605781  0.17257555  1
  Ca2+  Ca31  1  0.82887793  0.41617947  0.50005880  1
  Ca2+  Ca32  1  0.84187191  0.41932390  0.83778352  1
  Ca2+  Ca33  1  0.82452079  0.92727806  0.17302365  1
  Ca2+  Ca34  1  0.83080418  0.92797163  0.50422898  1
  Ca2+  Ca35  1  0.83391516  0.92770770  0.83916411  1
  Ca2+  Ca36  1  0.42311974  0.16050753  0.17069534  1
  Ca2+  Ca37  1  0.42591314  0.16019514  0.49582378  1
  Ca2+  Ca38  1  0.42431950  0.16987301  0.82178999  1
  Ca2+  Ca39  1  0.42411783  0.66999367  0.16898285  1
  Ca2+  Ca40  1  0.42134458  0.68078417  0.49046585  1
  Ca2+  Ca41  1  0.42017547  0.67462427  0.82351160  1
  Ca2+  Ca42  1  0.92376431  0.16657708  0.15894102  1
  Ca2+  Ca43  1  0.91502723  0.16794171  0.49313397  1
  Ca2+  Ca44  1  0.91277614  0.17387189  0.82811303  1
  Ca2+  Ca45  1  0.90810028  0.66356211  0.16429133  1
  Ca2+  Ca46  1  0.91558306  0.67015693  0.49887503  1
  Ca2+  Ca47  1  0.91948129  0.67122874  0.82540580  1
  Al0+  Al48  1  0.00390742  -0.00131922  -0.00222561  1
  Al0+  Al49  1  0.00097684  -0.00099203  0.33208186  1
  Al0+  Al50  1  0.00101882  -0.00098116  0.66823951  1
  Al0+  Al51  1  0.00181212  0.49841557  0.00518269  1
  Al0+  Al52  1  0.00054634  0.50050260  0.34206706  1
  Al0+  Al53  1  -0.00026136  0.49772522  0.66017068  1
  Al0+  Al54  1  0.49827186  -0.00024912  0.00113549  1
  Al0+  Al55  1  0.49900827  0.00189893  0.32961840  1
  Al0+  Al56  1  0.50048988  -0.00032361  0.66623769  1
  Al0+  Al57  1  0.50000340  0.50273576  -0.00110539  1
  Al0+  Al58  1  0.49780271  0.50220396  0.33175382  1
  Al0+  Al59  1  0.49786018  0.49895477  0.66600351  1
  Al0+  Al60  1  0.25063086  0.25034837  0.00010494  1
  Al0+  Al61  1  0.24842170  0.24914578  0.33943738  1
  Al0+  Al62  1  0.24860340  0.25067559  0.67202153  1
  Al0+  Al63  1  0.25206825  0.75106044  -0.00057371  1
  Al0+  Al64  1  0.24789811  0.74943900  0.32726296  1
  Al0+  Al65  1  0.25091708  0.74807312  0.66002108  1
  Al0+  Al66  1  0.75023667  0.25016952  -0.00239513  1
  Al0+  Al67  1  0.74989934  0.25358531  0.33370114  1
  Al0+  Al68  1  0.74969234  0.25021970  0.66401174  1
  Al0+  Al69  1  0.74844941  0.74947697  0.00487218  1
  Al0+  Al70  1  0.74951226  0.75051615  0.33741043  1
  Al0+  Al71  1  0.75087069  0.74899231  0.66418903  1
  Al0+  Al72  1  0.42852457  0.82292125  0.31476553  1
  Al0+  Al73  1  0.82404715  0.07338546  0.01432038  1
  Al0+  Al74  1  0.07041298  0.67787008  0.65160697  1
  Al0+  Al75  1  0.07360661  0.17689469  0.98357053  1
  Al0+  Al76  1  0.57230337  0.67896121  0.31633136  1
  Al0+  Al77  1  0.31898612  0.06896755  0.34663507  1
  Al0+  Al78  1  0.57214894  0.18101121  0.31751848  1
  Al0+  Al79  1  0.92895049  0.32103076  0.98649792  1
  Al0+  Al80  1  0.92722239  0.82343937  0.65141939  1
  Al0+  Al81  1  0.82108902  0.57194335  0.35209224  1
  Al0+  Al82  1  0.07015892  0.17924542  0.32170097  1
  Al0+  Al83  1  0.18202777  0.43028121  0.01367679  1
  Al0+  Al84  1  0.57021939  0.17926950  0.65168863  1
  Al0+  Al85  1  0.82074609  0.56890709  0.01099728  1
  Al0+  Al86  1  0.32095275  0.06993557  0.68171113  1
  Al0+  Al87  1  0.67563727  0.42905875  0.34907936  1
  Al0+  Al88  1  0.42591276  0.32196928  0.65258505  1
  Al0+  Al89  1  0.67792941  0.93040591  0.01466693  1
  Al0+  Al90  1  0.67894952  0.93158009  0.34942348  1
  Al0+  Al91  1  0.18058803  0.42873011  0.35014009  1
  Al0+  Al92  1  0.92900255  0.31938140  0.65114014  1
  Al0+  Al93  1  0.43131727  0.81993463  0.65352286  1
  Al0+  Al94  1  0.82258552  0.07206768  0.68093264  1
  Al0+  Al95  1  0.82350678  0.07245270  0.34757128  1
  Si0+  Si96  1  0.06949266  0.67748272  0.31600325  1
  Si0+  Si97  1  0.17920090  0.92508266  0.68332807  1
  Si0+  Si98  1  0.32389846  0.57508054  0.01710511  1
  Si0+  Si99  1  0.92766617  0.81967897  0.98677890  1
  Si0+  Si100  1  0.67888022  0.92672852  0.68223372  1
  Si0+  Si101  1  0.67788503  0.42969349  0.68198407  1
  Si0+  Si102  1  0.92904212  0.82078729  0.31701865  1
  Si0+  Si103  1  0.57156641  0.67922376  0.98342845  1
  Si0+  Si104  1  0.82121811  0.56973825  0.68200550  1
  Si0+  Si105  1  0.07251522  0.17738114  0.65107113  1
  Si0+  Si106  1  0.67421717  0.42795082  0.01393231  1
  Si0+  Si107  1  0.18002243  0.92509659  0.01386662  1
  Si0+  Si108  1  0.07153716  0.67922225  0.98784585  1
  Si0+  Si109  1  0.17734652  0.42979324  0.68444034  1
  Si0+  Si110  1  0.56992547  0.17851403  0.98522160  1
  Si0+  Si111  1  0.57335820  0.67570555  0.65123520  1
  Si0+  Si112  1  0.42858740  0.82123866  0.98266004  1
  Si0+  Si113  1  0.17668032  0.92432917  0.34987120  1
  Si0+  Si114  1  0.92895994  0.32355981  0.31682603  1
  Si0+  Si115  1  0.42613337  0.32190432  0.31719157  1
  Si0+  Si116  1  0.42928284  0.32201196  0.98704472  1
  Si0+  Si117  1  0.32008190  0.57386172  0.35021334  1
  Si0+  Si118  1  0.32066116  0.57152671  0.68143648  1
  Si0+  Si119  1  0.31889181  0.07007988  0.01495630  1
  O2-  O120  1  0.24509449  0.00142360  0.05582737  1
  O2-  O121  1  0.24662380  -0.00836210  0.39293352  1
  O2-  O122  1  0.24534477  -0.00420862  0.72942839  1
  O2-  O123  1  0.25757214  0.50437529  0.06088693  1
  O2-  O124  1  0.25597879  0.50264937  0.39696899  1
  O2-  O125  1  0.25033870  0.50037769  0.72523616  1
  O2-  O126  1  0.75041613  0.00251498  0.06303772  1
  O2-  O127  1  0.74937490  0.00417356  0.39977435  1
  O2-  O128  1  0.75043530  -0.00702070  0.72579977  1
  O2-  O129  1  0.74717035  0.49274819  0.05623510  1
  O2-  O130  1  0.74733547  0.50085726  0.40040769  1
  O2-  O131  1  0.74821512  0.50130287  0.72521781  1
  O2-  O132  1  -0.00665098  0.25067257  0.27347651  1
  O2-  O133  1  -0.00035882  0.24042562  0.60612094  1
  O2-  O134  1  -0.00440982  0.24372273  0.93544640  1
  O2-  O135  1  -0.00195750  0.74750296  0.27333901  1
  O2-  O136  1  -0.00061280  0.75083842  0.60195312  1
  O2-  O137  1  -0.00034153  0.74867964  0.94496028  1
  O2-  O138  1  0.49877284  0.25849491  0.27089908  1
  O2-  O139  1  0.49565361  0.24924558  0.60238718  1
  O2-  O140  1  0.50377918  0.25520199  0.94454033  1
  O2-  O141  1  0.50248994  0.75274238  0.26443500  1
  O2-  O142  1  0.50798004  0.74745472  0.60827927  1
  O2-  O143  1  0.50090018  0.75087112  0.94133817  1
  O2-  O144  1  0.07715794  0.18075118  0.09692634  1
  O2-  O145  1  0.07175005  0.18189149  0.43469804  1
  O2-  O146  1  0.07426320  0.18166278  0.75672959  1
  O2-  O147  1  0.07297768  0.68169503  0.09283389  1
  O2-  O148  1  0.07148255  0.67916422  0.42069931  1
  O2-  O149  1  0.06889361  0.67742088  0.76641477  1
  O2-  O150  1  0.56818060  0.17778890  0.09010930  1
  O2-  O151  1  0.56985825  0.17989432  0.42994506  1
  O2-  O152  1  0.56959402  0.18133059  0.76650083  1
  O2-  O153  1  0.57040428  0.67555574  0.08755091  1
  O2-  O154  1  0.56768671  0.67959462  0.43014629  1
  O2-  O155  1  0.57168309  0.67451712  0.75767008  1
  O2-  O156  1  0.18087451  0.42987844  0.23663402  1
  O2-  O157  1  0.17798492  0.43023696  0.57963346  1
  O2-  O158  1  0.18299877  0.43365974  0.90038887  1
  O2-  O159  1  0.17660795  0.92363894  0.24357124  1
  O2-  O160  1  0.18020701  0.92419753  0.57809861  1
  O2-  O161  1  0.18439352  0.91737886  0.90947390  1
  O2-  O162  1  0.67925440  0.42953522  0.23475385  1
  O2-  O163  1  0.67681570  0.43153055  0.57759660  1
  O2-  O164  1  0.66857193  0.43245767  0.90818690  1
  O2-  O165  1  0.68271643  0.93350224  0.23563930  1
  O2-  O166  1  0.67765621  0.92644244  0.57735301  1
  O2-  O167  1  0.67717671  0.93044109  0.90062320  1
  O2-  O168  1  0.42683678  0.32060523  0.09180333  1
  O2-  O169  1  0.42501107  0.31863619  0.42240784  1
  O2-  O170  1  0.42944925  0.32262778  0.76730391  1
  O2-  O171  1  0.42472297  0.82070226  0.08690370  1
  O2-  O172  1  0.42749067  0.82049352  0.42828594  1
  O2-  O173  1  0.43162537  0.81766166  0.76764365  1
  O2-  O174  1  0.93281451  0.32549612  0.09954174  1
  O2-  O175  1  0.93139983  0.32396422  0.42261240  1
  O2-  O176  1  0.93185924  0.32350169  0.76427815  1
  O2-  O177  1  0.92973137  0.81862278  0.09192270  1
  O2-  O178  1  0.93286152  0.82150747  0.42173950  1
  O2-  O179  1  0.92805326  0.81950095  0.76611125  1
  O2-  O180  1  0.31615068  0.06972680  0.23268140  1
  O2-  O181  1  0.32012268  0.06941662  0.56926329  1
  O2-  O182  1  0.32109488  0.06854063  0.90981971  1
  O2-  O183  1  0.31605875  0.57383394  0.24422166  1
  O2-  O184  1  0.32056276  0.57197397  0.57695054  1
  O2-  O185  1  0.32332055  0.57684874  0.91122178  1
  O2-  O186  1  0.82564801  0.06938641  0.23387337  1
  O2-  O187  1  0.82138692  0.07257328  0.56851710  1
  O2-  O188  1  0.82127525  0.07175257  0.90035584  1
  O2-  O189  1  0.82308319  0.56865054  0.23789411  1
  O2-  O190  1  0.82078421  0.56948751  0.57767117  1
  O2-  O191  1  0.81974946  0.57068490  0.89736363  1
  O2-  O192  1  0.04649658  0.08050736  0.26728253  1
  O2-  O193  1  0.05630557  0.08077625  0.60926058  1
  O2-  O194  1  0.05764270  0.07439332  0.93307972  1
  O2-  O195  1  0.04109946  0.58469821  0.27080990  1
  O2-  O196  1  0.04100853  0.58138974  0.59718067  1
  O2-  O197  1  0.04504268  0.58715462  0.94136070  1
  O2-  O198  1  0.53678025  0.08712883  0.26147012  1
  O2-  O199  1  0.54315911  0.08076182  0.60063701  1
  O2-  O200  1  0.53467417  0.08915974  0.93748784  1
  O2-  O201  1  0.54056330  0.58125328  0.26157401  1
  O2-  O202  1  0.54405633  0.58367060  0.60545633  1
  O2-  O203  1  0.54289256  0.58814858  0.93316865  1
  O2-  O204  1  0.16632937  0.21406887  0.26826788  1
  O2-  O205  1  0.16448059  0.20920207  0.60593309  1
  O2-  O206  1  0.17043331  0.21276556  0.92989513  1
  O2-  O207  1  0.15998448  0.70486838  0.26539830  1
  O2-  O208  1  0.16844683  0.70363997  0.59749010  1
  O2-  O209  1  0.16352483  0.70759031  0.93986190  1
  O2-  O210  1  0.66871059  0.21274823  0.26258082  1
  O2-  O211  1  0.66640942  0.21103144  0.59869205  1
  O2-  O212  1  0.66277930  0.20115145  0.93770142  1
  O2-  O213  1  0.67273193  0.70480972  0.26606401  1
  O2-  O214  1  0.66809644  0.69551139  0.60681935  1
  O2-  O215  1  0.66347575  0.70707484  0.93562487  1
  O2-  O216  1  0.08797943  0.46268009  0.07052873  1
  O2-  O217  1  0.08626900  0.46200978  0.40561411  1
  O2-  O218  1  0.08613985  0.46170602  0.73086623  1
  O2-  O219  1  0.08635635  0.94547930  0.06034613  1
  O2-  O220  1  0.08398849  0.95027735  0.39600078  1
  O2-  O221  1  0.08485980  0.94684484  0.72991894  1
  O2-  O222  1  0.58250142  0.45698499  0.06231974  1
  O2-  O223  1  0.57577394  0.45644922  0.39988345  1
  O2-  O224  1  0.58545799  0.45675422  0.73043356  1
  O2-  O225  1  0.57851746  0.95772689  0.06628550  1
  O2-  O226  1  0.57877871  0.95819729  0.39767014  1
  O2-  O227  1  0.58656057  0.95484752  0.73025852  1
  O2-  O228  1  0.21506445  0.33427096  0.06772156  1
  O2-  O229  1  0.21146907  0.33401244  0.40625965  1
  O2-  O230  1  0.20408953  0.33896352  0.73418526  1
  O2-  O231  1  0.21249441  0.83615302  0.06560504  1
  O2-  O232  1  0.19996425  0.82949864  0.39405714  1
  O2-  O233  1  0.20831163  0.83151330  0.72917907  1
  O2-  O234  1  0.69498139  0.33232122  0.05628447  1
  O2-  O235  1  0.70463803  0.33176725  0.40294449  1
  O2-  O236  1  0.70664217  0.33851848  0.72966760  1
  O2-  O237  1  0.70457954  0.83170928  0.06721231  1
  O2-  O238  1  0.70507445  0.83279934  0.40097644  1
  O2-  O239  1  0.70078282  0.83099937  0.72780371  1
  O2-  O240  1  0.44293036  0.41812612  0.27297158  1
  O2-  O241  1  0.45176849  0.42093194  0.60034577  1
  O2-  O242  1  0.45116296  0.41646210  0.94060956  1
  O2-  O243  1  0.45477209  0.92107578  0.26092052  1
  O2-  O244  1  0.45948228  0.91654366  0.60074182  1
  O2-  O245  1  0.45579311  0.91361005  0.93543400  1
  O2-  O246  1  0.96130347  0.41663206  0.27329809  1
  O2-  O247  1  0.96300829  0.41324568  0.59511491  1
  O2-  O248  1  0.96522566  0.41842917  0.93295118  1
  O2-  O249  1  0.96059166  0.91030943  0.26695305  1
  O2-  O250  1  0.95734091  0.92103917  0.59857068  1
  O2-  O251  1  0.95657851  0.91043021  0.93828762  1
  O2-  O252  1  0.33438781  0.28907337  0.27098736  1
  O2-  O253  1  0.32543989  0.29686815  0.60433254  1
  O2-  O254  1  0.33969282  0.29075320  0.93749741  1
  O2-  O255  1  0.32953652  0.79192853  0.26185301  1
  O2-  O256  1  0.33634555  0.78844731  0.59852034  1
  O2-  O257  1  0.33778914  0.79122457  0.93334850  1
  O2-  O258  1  0.83357723  0.30601734  0.27257246  1
  O2-  O259  1  0.83151804  0.29374561  0.59829641  1
  O2-  O260  1  0.82801486  0.30118510  0.93278223  1
  O2-  O261  1  0.83699690  0.79360737  0.27088014  1
  O2-  O262  1  0.82974319  0.79387513  0.59821380  1
  O2-  O263  1  0.83607232  0.79079024  0.93995346  1
  O2-  O264  1  0.40911913  0.03894332  0.06307797  1
  O2-  O265  1  0.41577552  0.03957357  0.39890425  1
  O2-  O266  1  0.41712848  0.03742977  0.73706421  1
  O2-  O267  1  0.41833652  0.55151883  0.06197865  1
  O2-  O268  1  0.41528867  0.55464681  0.39371942  1
  O2-  O269  1  0.41244483  0.54483064  0.73130287  1
  O2-  O270  1  0.92416529  0.04386110  0.06318994  1
  O2-  O271  1  0.92118676  0.04018536  0.40021146  1
  O2-  O272  1  0.92053260  0.04394294  0.73501914  1
  O2-  O273  1  0.91711584  0.54190038  0.06708335  1
  O2-  O274  1  0.91871166  0.54365954  0.40598804  1
  O2-  O275  1  0.91311781  0.53859248  0.72780088  1
  O2-  O276  1  0.29417681  0.16250400  0.06171997  1
  O2-  O277  1  0.28664544  0.16321372  0.40298839  1
  O2-  O278  1  0.28990000  0.16659275  0.73788303  1
  O2-  O279  1  0.29640644  0.66779432  0.06352641  1
  O2-  O280  1  0.28904542  0.66643636  0.39528179  1
  O2-  O281  1  0.29220848  0.66309145  0.73023753  1
  O2-  O282  1  0.79732693  0.17310469  0.06512040  1
  O2-  O283  1  0.79896975  0.17298912  0.39593684  1
  O2-  O284  1  0.78748675  0.16823473  0.73461151  1
  O2-  O285  1  0.78921446  0.66400968  0.06668413  1
  O2-  O286  1  0.79504166  0.67061888  0.40424112  1
  O2-  O287  1  0.79622593  0.66292815  0.72930872  1
