# generated using pymatgen
data_Ca2Al2SiO7
_symmetry_space_group_name_H-M   'P 1'
_cell_length_a   15.46369115
_cell_length_b   15.46176781
_cell_length_c   15.28678626
_cell_angle_alpha   90.00315403
_cell_angle_beta   89.98648434
_cell_angle_gamma   89.98751665
_symmetry_Int_Tables_number   1
_chemical_formula_structural   Ca2Al2SiO7
_chemical_formula_sum   'Ca48 Al48 Si24 O168'
_cell_volume   3655.00928524
_cell_formula_units_Z   24
loop_
 _symmetry_equiv_pos_site_id
 _symmetry_equiv_pos_as_xyz
  1  'x, y, z'
loop_
 _atom_type_symbol
 _atom_type_oxidation_number
  Ca2+  2.0
  Al0+  0.0
  Si0+  0.0
  O2-  -2.0
loop_
 _atom_site_type_symbol
 _atom_site_label
 _atom_site_symmetry_multiplicity
 _atom_site_fract_x
 _atom_site_fract_y
 _atom_site_fract_z
 _atom_site_occupancy
  Ca2+  Ca0  1  0.16464775  0.07716053  0.16711246  1
  Ca2+  Ca1  1  0.16975526  0.07889084  0.51504869  1
  Ca2+  Ca2  1  0.16045358  0.07391935  0.83208294  1
  Ca2+  Ca3  1  0.16432840  0.58004349  0.16444033  1
  Ca2+  Ca4  1  0.16668037  0.58396591  0.50776345  1
  Ca2+  Ca5  1  0.17290456  0.58253989  0.83887724  1
  Ca2+  Ca6  1  0.67029607  0.07356516  0.17350116  1
  Ca2+  Ca7  1  0.67582836  0.08771271  0.50522290  1
  Ca2+  Ca8  1  0.66886958  0.08337935  0.83294374  1
  Ca2+  Ca9  1  0.67839399  0.58044102  0.17482654  1
  Ca2+  Ca10  1  0.67511309  0.58061649  0.50234226  1
  Ca2+  Ca11  1  0.66994775  0.58118725  0.83605674  1
  Ca2+  Ca12  1  0.07293047  0.33571562  0.15956346  1
  Ca2+  Ca13  1  0.07682217  0.32535647  0.50025021  1
  Ca2+  Ca14  1  0.07622122  0.33308069  0.82844380  1
  Ca2+  Ca15  1  0.08664497  0.82128078  0.15999919  1
  Ca2+  Ca16  1  0.08518190  0.82570455  0.50196310  1
  Ca2+  Ca17  1  0.09191760  0.82657329  0.82513834  1
  Ca2+  Ca18  1  0.57071272  0.33750200  0.16192087  1
  Ca2+  Ca19  1  0.57265622  0.32762732  0.50233591  1
  Ca2+  Ca20  1  0.57165303  0.32794554  0.82505130  1
  Ca2+  Ca21  1  0.58772469  0.83663401  0.16253440  1
  Ca2+  Ca22  1  0.57611617  0.84284362  0.49944768  1
  Ca2+  Ca23  1  0.57784430  0.83518037  0.82813859  1
  Ca2+  Ca24  1  0.33028064  0.41564141  0.16669884  1
  Ca2+  Ca25  1  0.33787251  0.42171970  0.50926153  1
  Ca2+  Ca26  1  0.33171216  0.42359359  0.84147870  1
  Ca2+  Ca27  1  0.32559307  0.91512902  0.16638319  1
  Ca2+  Ca28  1  0.32807894  0.92239480  0.51410292  1
  Ca2+  Ca29  1  0.32479733  0.91856852  0.83063763  1
  Ca2+  Ca30  1  0.84041834  0.41880348  0.17469455  1
  Ca2+  Ca31  1  0.84386440  0.41796921  0.50286007  1
  Ca2+  Ca32  1  0.83738223  0.41209861  0.83647016  1
  Ca2+  Ca33  1  0.82152079  0.92073279  0.17745036  1
  Ca2+  Ca34  1  0.83267222  0.92675442  0.50861142  1
  Ca2+  Ca35  1  0.83608355  0.92350724  0.83553793  1
  Ca2+  Ca36  1  0.41619423  0.17859201  0.16134409  1
  Ca2+  Ca37  1  0.41402800  0.17277123  0.49838495  1
  Ca2+  Ca38  1  0.41752590  0.17484396  0.82171708  1
  Ca2+  Ca39  1  0.41844004  0.66578710  0.16060077  1
  Ca2+  Ca40  1  0.41232218  0.67230162  0.50295053  1
  Ca2+  Ca41  1  0.40964795  0.66943649  0.82530789  1
  Ca2+  Ca42  1  0.90857971  0.17536372  0.16556477  1
  Ca2+  Ca43  1  0.91418452  0.16962146  0.49996726  1
  Ca2+  Ca44  1  0.92076655  0.17497601  0.82187044  1
  Ca2+  Ca45  1  0.92841703  0.66051661  0.16317090  1
  Ca2+  Ca46  1  0.92734533  0.66952607  0.49620021  1
  Ca2+  Ca47  1  0.93201357  0.67631529  0.82506287  1
  Al0+  Al48  1  -0.00083365  0.00083477  0.00891288  1
  Al0+  Al49  1  -0.00092052  -0.00254482  0.33625663  1
  Al0+  Al50  1  -0.00178119  -0.00058003  0.66977524  1
  Al0+  Al51  1  0.00225958  0.50114914  -0.00642688  1
  Al0+  Al52  1  0.00217584  0.49889665  0.33095811  1
  Al0+  Al53  1  0.00074907  0.50208813  0.66237924  1
  Al0+  Al54  1  0.50141183  -0.00013342  0.00489192  1
  Al0+  Al55  1  0.49676055  0.00043493  0.33318469  1
  Al0+  Al56  1  0.50075890  0.00021307  0.66282971  1
  Al0+  Al57  1  0.50194509  0.50134033  -0.00021395  1
  Al0+  Al58  1  0.49983917  0.50208966  0.32938516  1
  Al0+  Al59  1  0.50225179  0.50050176  0.66754224  1
  Al0+  Al60  1  0.24839038  0.25082673  0.00018439  1
  Al0+  Al61  1  0.24838589  0.25020138  0.32771058  1
  Al0+  Al62  1  0.24780681  0.25237663  0.66331727  1
  Al0+  Al63  1  0.25277694  0.75042530  0.00489804  1
  Al0+  Al64  1  0.25100147  0.74830166  0.32795212  1
  Al0+  Al65  1  0.25269221  0.74898614  0.66479189  1
  Al0+  Al66  1  0.74802379  0.25060388  -0.00253712  1
  Al0+  Al67  1  0.74689395  0.24889795  0.33212179  1
  Al0+  Al68  1  0.74720684  0.25099882  0.66450072  1
  Al0+  Al69  1  0.75065246  0.75000193  0.00322076  1
  Al0+  Al70  1  0.74854400  0.74837922  0.34288359  1
  Al0+  Al71  1  0.75098156  0.74878366  0.66487601  1
  Al0+  Al72  1  0.68004854  0.92901928  0.01277252  1
  Al0+  Al73  1  0.17901630  0.92893220  0.01509026  1
  Al0+  Al74  1  0.17777906  0.42845008  0.01527603  1
  Al0+  Al75  1  0.32290364  0.57079686  0.01676764  1
  Al0+  Al76  1  0.42836529  0.32246961  0.31772182  1
  Al0+  Al77  1  0.82049676  0.07189808  0.35023168  1
  Al0+  Al78  1  0.82366907  0.56759513  0.34786184  1
  Al0+  Al79  1  0.07270600  0.68181695  0.98485363  1
  Al0+  Al80  1  0.07291074  0.68113801  0.65155078  1
  Al0+  Al81  1  0.92972504  0.31774263  0.31991593  1
  Al0+  Al82  1  0.07103101  0.67991539  0.31684499  1
  Al0+  Al83  1  0.92650161  0.82266627  0.65218561  1
  Al0+  Al84  1  0.42815962  0.32196573  0.98487897  1
  Al0+  Al85  1  0.17901768  0.92930450  0.68003462  1
  Al0+  Al86  1  0.81963961  0.07218982  0.68249027  1
  Al0+  Al87  1  0.32179890  0.56883069  0.67855210  1
  Al0+  Al88  1  0.07098327  0.17748469  0.65390562  1
  Al0+  Al89  1  0.92795389  0.32122493  0.65163039  1
  Al0+  Al90  1  0.57004421  0.17800725  0.65143518  1
  Al0+  Al91  1  0.32299935  0.07459220  0.68019797  1
  Al0+  Al92  1  0.43131783  0.81965348  0.65459379  1
  Al0+  Al93  1  0.42681708  0.32285328  0.65344036  1
  Al0+  Al94  1  0.67583783  0.92822884  0.35149325  1
  Al0+  Al95  1  0.92901613  0.32014895  0.98629438  1
  Si0+  Si96  1  0.32195921  0.57056303  0.34867313  1
  Si0+  Si97  1  0.18054590  0.92580413  0.34762699  1
  Si0+  Si98  1  0.92607804  0.82128282  0.31702114  1
  Si0+  Si99  1  0.67518573  0.42867712  0.34974492  1
  Si0+  Si100  1  0.32299566  0.07248224  0.01708829  1
  Si0+  Si101  1  0.07243503  0.17428605  0.31559493  1
  Si0+  Si102  1  0.31699965  0.07194880  0.34648951  1
  Si0+  Si103  1  0.57199687  0.67954853  0.31799100  1
  Si0+  Si104  1  0.57436273  0.67645093  0.64923051  1
  Si0+  Si105  1  0.67797167  0.92623140  0.68377141  1
  Si0+  Si106  1  0.67940287  0.42843747  0.01463181  1
  Si0+  Si107  1  0.17997508  0.42848783  0.34844003  1
  Si0+  Si108  1  0.82086440  0.07433394  0.01730895  1
  Si0+  Si109  1  0.68019339  0.43072281  0.68250780  1
  Si0+  Si110  1  0.56984906  0.17705685  0.98375666  1
  Si0+  Si111  1  0.82087915  0.56949910  0.01295649  1
  Si0+  Si112  1  0.92700274  0.82254194  0.98706912  1
  Si0+  Si113  1  0.17555598  0.42886931  0.68204878  1
  Si0+  Si114  1  0.82312934  0.57163861  0.68337885  1
  Si0+  Si115  1  0.42975512  0.82118577  0.31624446  1
  Si0+  Si116  1  0.07158452  0.17464386  0.98447241  1
  Si0+  Si117  1  0.43104096  0.82134333  0.98612200  1
  Si0+  Si118  1  0.57415936  0.67976215  0.98596688  1
  Si0+  Si119  1  0.56939468  0.17710863  0.31424577  1
  O2-  O120  1  0.25231636  0.00554848  0.06206439  1
  O2-  O121  1  0.24500559  0.00263157  0.38891518  1
  O2-  O122  1  0.24848610  0.00471344  0.72979161  1
  O2-  O123  1  0.25199911  0.49797564  0.06737676  1
  O2-  O124  1  0.25342512  0.49751208  0.39020635  1
  O2-  O125  1  0.24934172  0.49276105  0.72511398  1
  O2-  O126  1  0.75525975  0.00212948  0.06045845  1
  O2-  O127  1  0.74949024  -0.00146704  0.40021844  1
  O2-  O128  1  0.74710664  -0.00593601  0.72842235  1
  O2-  O129  1  0.75365428  0.49559661  0.05730243  1
  O2-  O130  1  0.75009238  0.49062937  0.39416538  1
  O2-  O131  1  0.75358395  0.49927866  0.72582210  1
  O2-  O132  1  0.00030098  0.23982239  0.27171569  1
  O2-  O133  1  -0.00221037  0.24730287  0.60231505  1
  O2-  O134  1  0.00285137  0.24408808  0.94198143  1
  O2-  O135  1  -0.00553644  0.75346622  0.27031070  1
  O2-  O136  1  -0.00007795  0.75226609  0.60201721  1
  O2-  O137  1  0.00137915  0.76127965  0.94151435  1
  O2-  O138  1  0.50344831  0.24851228  0.26978414  1
  O2-  O139  1  0.49201173  0.24480880  0.60284837  1
  O2-  O140  1  0.49968403  0.24393621  0.93996594  1
  O2-  O141  1  0.50497856  0.75409907  0.27477903  1
  O2-  O142  1  0.50789393  0.74741993  0.60587888  1
  O2-  O143  1  0.50147501  0.74902578  0.94481123  1
  O2-  O144  1  0.06974687  0.17341935  0.09054238  1
  O2-  O145  1  0.07733941  0.17648646  0.42028956  1
  O2-  O146  1  0.06892041  0.17905653  0.76771741  1
  O2-  O147  1  0.06895246  0.68051562  0.09839891  1
  O2-  O148  1  0.07411849  0.68189184  0.42924738  1
  O2-  O149  1  0.07208932  0.68121387  0.76521681  1
  O2-  O150  1  0.56968562  0.17848380  0.08965779  1
  O2-  O151  1  0.56665343  0.17647841  0.41922543  1
  O2-  O152  1  0.57139214  0.18195525  0.76550688  1
  O2-  O153  1  0.57649941  0.68040548  0.09122151  1
  O2-  O154  1  0.56851170  0.67474156  0.42240260  1
  O2-  O155  1  0.57540747  0.67578100  0.75532401  1
  O2-  O156  1  0.17982441  0.42932944  0.24340677  1
  O2-  O157  1  0.17390114  0.43166393  0.57597583  1
  O2-  O158  1  0.17687324  0.43076942  0.90211817  1
  O2-  O159  1  0.18439495  0.92526759  0.24219034  1
  O2-  O160  1  0.18318995  0.92770440  0.56587542  1
  O2-  O161  1  0.18104055  0.92807526  0.90285540  1
  O2-  O162  1  0.67316074  0.43390002  0.24360527  1
  O2-  O163  1  0.67737080  0.43438159  0.57749706  1
  O2-  O164  1  0.67853263  0.43049648  0.90976500  1
  O2-  O165  1  0.67704304  0.92972170  0.23718307  1
  O2-  O166  1  0.67893093  0.92622289  0.57854219  1
  O2-  O167  1  0.67890379  0.92840170  0.90030856  1
  O2-  O168  1  0.43202037  0.32150959  0.09856645  1
  O2-  O169  1  0.42908088  0.32284611  0.43016807  1
  O2-  O170  1  0.43211894  0.32606414  0.76686112  1
  O2-  O171  1  0.43286359  0.82106186  0.09180054  1
  O2-  O172  1  0.42707881  0.81969849  0.42088755  1
  O2-  O173  1  0.43207162  0.81796213  0.76806660  1
  O2-  O174  1  0.92773178  0.31963404  0.09974971  1
  O2-  O175  1  0.93399547  0.31963883  0.43206087  1
  O2-  O176  1  0.92959452  0.32138762  0.76550517  1
  O2-  O177  1  0.92428903  0.81735814  0.09280492  1
  O2-  O178  1  0.92889446  0.82055541  0.42199211  1
  O2-  O179  1  0.92264490  0.81831063  0.76620694  1
  O2-  O180  1  0.31674484  0.07046633  0.24103034  1
  O2-  O181  1  0.32188389  0.07040833  0.56577676  1
  O2-  O182  1  0.32670380  0.07042872  0.91240608  1
  O2-  O183  1  0.32318353  0.57159197  0.24383599  1
  O2-  O184  1  0.32198909  0.56859794  0.56469578  1
  O2-  O185  1  0.32363660  0.57145213  0.90352474  1
  O2-  O186  1  0.81777513  0.07105801  0.23587715  1
  O2-  O187  1  0.81704437  0.07334763  0.56982213  1
  O2-  O188  1  0.81997557  0.07525857  0.91214377  1
  O2-  O189  1  0.82176761  0.56671889  0.23382944  1
  O2-  O190  1  0.82177315  0.57082679  0.57834718  1
  O2-  O191  1  0.81617107  0.57106416  0.90804168  1
  O2-  O192  1  0.05053207  0.07832965  0.27157222  1
  O2-  O193  1  0.04582150  0.07828380  0.60245691  1
  O2-  O194  1  0.04526770  0.08028935  0.94016957  1
  O2-  O195  1  0.03980975  0.58319173  0.26343831  1
  O2-  O196  1  0.04227849  0.58420707  0.59739427  1
  O2-  O197  1  0.03914933  0.58753138  0.92965334  1
  O2-  O198  1  0.53905979  0.08467206  0.26681223  1
  O2-  O199  1  0.55073590  0.07851845  0.59821506  1
  O2-  O200  1  0.54677928  0.08221161  0.93951803  1
  O2-  O201  1  0.54108069  0.59040289  0.26628981  1
  O2-  O202  1  0.54623209  0.58473590  0.60151263  1
  O2-  O203  1  0.54973327  0.58745924  0.93820983  1
  O2-  O204  1  0.16375169  0.20317647  0.26564006  1
  O2-  O205  1  0.16771914  0.20627157  0.59716820  1
  O2-  O206  1  0.16604792  0.19738107  0.94036050  1
  O2-  O207  1  0.16719095  0.71223479  0.26148691  1
  O2-  O208  1  0.17023366  0.70917314  0.59703990  1
  O2-  O209  1  0.17167393  0.71104765  0.93583011  1
  O2-  O210  1  0.66358501  0.19958347  0.26809529  1
  O2-  O211  1  0.66371316  0.21589856  0.59569859  1
  O2-  O212  1  0.66247576  0.20479820  0.93730913  1
  O2-  O213  1  0.66570194  0.70374829  0.27173978  1
  O2-  O214  1  0.66829357  0.69830943  0.60300776  1
  O2-  O215  1  0.66488325  0.70890900  0.93662497  1
  O2-  O216  1  0.07967599  0.46226219  0.06805413  1
  O2-  O217  1  0.09006831  0.45936669  0.39632379  1
  O2-  O218  1  0.08404375  0.46021745  0.72964533  1
  O2-  O219  1  0.08231271  0.95628120  0.07254491  1
  O2-  O220  1  0.08580361  0.94475173  0.39145597  1
  O2-  O221  1  0.08014282  0.95186192  0.73443731  1
  O2-  O222  1  0.59024182  0.46110277  0.06439783  1
  O2-  O223  1  0.58474913  0.46350063  0.39678202  1
  O2-  O224  1  0.59101798  0.46303531  0.73311820  1
  O2-  O225  1  0.58432310  0.95913833  0.07048857  1
  O2-  O226  1  0.57539550  0.95709576  0.40010700  1
  O2-  O227  1  0.58432965  0.95266109  0.72911317  1
  O2-  O228  1  0.20160779  0.32854790  0.06887005  1
  O2-  O229  1  0.20533187  0.33481901  0.39329212  1
  O2-  O230  1  0.19427833  0.33358095  0.72621537  1
  O2-  O231  1  0.21535397  0.83548544  0.07208952  1
  O2-  O232  1  0.21601674  0.83601846  0.39371472  1
  O2-  O233  1  0.21545097  0.83294403  0.73237177  1
  O2-  O234  1  0.70195942  0.33524414  0.06188534  1
  O2-  O235  1  0.69189322  0.33209341  0.39089197  1
  O2-  O236  1  0.70516939  0.33902208  0.73050689  1
  O2-  O237  1  0.70935874  0.83205346  0.06901079  1
  O2-  O238  1  0.69622019  0.82783847  0.40289224  1
  O2-  O239  1  0.70028378  0.83050480  0.72826946  1
  O2-  O240  1  0.46053833  0.41908754  0.26338001  1
  O2-  O241  1  0.46556956  0.41819750  0.59931046  1
  O2-  O242  1  0.46414860  0.41808547  0.93348238  1
  O2-  O243  1  0.45270377  0.91420797  0.26817044  1
  O2-  O244  1  0.45964365  0.91525242  0.59762718  1
  O2-  O245  1  0.46055449  0.91310974  0.94040480  1
  O2-  O246  1  0.96454027  0.41316457  0.26524710  1
  O2-  O247  1  0.95791713  0.41921342  0.59945283  1
  O2-  O248  1  0.95868010  0.41635816  0.93157045  1
  O2-  O249  1  0.95013482  0.91556762  0.27075821  1
  O2-  O250  1  0.95182309  0.92142920  0.60095302  1
  O2-  O251  1  0.94541019  0.92019969  0.94766346  1
  O2-  O252  1  0.33228908  0.29015386  0.26280705  1
  O2-  O253  1  0.32688454  0.30474603  0.60063942  1
  O2-  O254  1  0.32937918  0.29574896  0.93465635  1
  O2-  O255  1  0.34089204  0.78781227  0.26588923  1
  O2-  O256  1  0.33814452  0.78543430  0.59666628  1
  O2-  O257  1  0.33941849  0.79391663  0.93995474  1
  O2-  O258  1  0.82948031  0.29414100  0.26750481  1
  O2-  O259  1  0.82853410  0.29739936  0.60045724  1
  O2-  O260  1  0.83054310  0.29293625  0.93361384  1
  O2-  O261  1  0.83041689  0.79497034  0.27508629  1
  O2-  O262  1  0.82931158  0.79197082  0.59769777  1
  O2-  O263  1  0.83590160  0.79108943  0.93926565  1
  O2-  O264  1  0.41479187  0.04409246  0.06669013  1
  O2-  O265  1  0.40853697  0.04325816  0.39255473  1
  O2-  O266  1  0.42123785  0.04336327  0.73209332  1
  O2-  O267  1  0.42345360  0.54465024  0.06864712  1
  O2-  O268  1  0.41503635  0.54542648  0.39475955  1
  O2-  O269  1  0.42022744  0.54353039  0.73239373  1
  O2-  O270  1  0.91467994  0.05453406  0.06526245  1
  O2-  O271  1  0.92085448  0.04598390  0.40073133  1
  O2-  O272  1  0.91564368  0.04314190  0.73821315  1
  O2-  O273  1  0.91358008  0.54335197  0.05818772  1
  O2-  O274  1  0.92031531  0.53702079  0.40111738  1
  O2-  O275  1  0.91530339  0.54485702  0.73020763  1
  O2-  O276  1  0.29765868  0.16621543  0.06345078  1
  O2-  O277  1  0.29153758  0.16496940  0.39228562  1
  O2-  O278  1  0.29861528  0.17526708  0.72977831  1
  O2-  O279  1  0.29649411  0.66910184  0.07108361  1
  O2-  O280  1  0.29203532  0.66295750  0.39397056  1
  O2-  O281  1  0.29074416  0.66486396  0.73237044  1
  O2-  O282  1  0.78930608  0.16656601  0.06410287  1
  O2-  O283  1  0.79011033  0.17090271  0.40133030  1
  O2-  O284  1  0.78477350  0.16866225  0.73543253  1
  O2-  O285  1  0.78961340  0.65907650  0.06304122  1
  O2-  O286  1  0.79052046  0.66215615  0.40360506  1
  O2-  O287  1  0.79240276  0.66231976  0.73172432  1
