# generated using pymatgen
data_Ca2Al2SiO7
_symmetry_space_group_name_H-M   'P 1'
_cell_length_a   15.45459386
_cell_length_b   15.45447169
_cell_length_c   15.28107554
_cell_angle_alpha   90.00691569
_cell_angle_beta   89.99153545
_cell_angle_gamma   89.98712691
_symmetry_Int_Tables_number   1
_chemical_formula_structural   Ca2Al2SiO7
_chemical_formula_sum   'Ca48 Al48 Si24 O168'
_cell_volume   3649.77139996
_cell_formula_units_Z   24
loop_
 _symmetry_equiv_pos_site_id
 _symmetry_equiv_pos_as_xyz
  1  'x, y, z'
loop_
 _atom_type_symbol
 _atom_type_oxidation_number
  Ca2+  2.0
  Al0+  0.0
  Si0+  0.0
  O2-  -2.0
loop_
 _atom_site_type_symbol
 _atom_site_label
 _atom_site_symmetry_multiplicity
 _atom_site_fract_x
 _atom_site_fract_y
 _atom_site_fract_z
 _atom_site_occupancy
  Ca2+  Ca0  1  0.17640526  0.08088762  0.16925467  1
  Ca2+  Ca1  1  0.17518722  0.08402720  0.50764138  1
  Ca2+  Ca2  1  0.16529653  0.07509547  0.83888454  1
  Ca2+  Ca3  1  0.16460655  0.58276536  0.17303758  1
  Ca2+  Ca4  1  0.16518323  0.58556948  0.50097164  1
  Ca2+  Ca5  1  0.16819148  0.58078183  0.83579810  1
  Ca2+  Ca6  1  0.67628393  0.09045799  0.17192512  1
  Ca2+  Ca7  1  0.66931703  0.08707508  0.50441081  1
  Ca2+  Ca8  1  0.66857713  0.07924375  0.83248585  1
  Ca2+  Ca9  1  0.67492928  0.57618530  0.17145872  1
  Ca2+  Ca10  1  0.65930751  0.56986040  0.50703717  1
  Ca2+  Ca11  1  0.66991979  0.57947045  0.83578729  1
  Ca2+  Ca12  1  0.07057958  0.33029209  0.16158826  1
  Ca2+  Ca13  1  0.07122854  0.32884378  0.49791322  1
  Ca2+  Ca14  1  0.07130341  0.32431308  0.82620788  1
  Ca2+  Ca15  1  0.08168183  0.83051586  0.16224277  1
  Ca2+  Ca16  1  0.08150130  0.83343990  0.49999725  1
  Ca2+  Ca17  1  0.07407268  0.84503718  0.82996811  1
  Ca2+  Ca18  1  0.57805021  0.33049562  0.16850300  1
  Ca2+  Ca19  1  0.58729860  0.32496374  0.49293734  1
  Ca2+  Ca20  1  0.58159795  0.32692511  0.82676120  1
  Ca2+  Ca21  1  0.57654133  0.83974832  0.16650950  1
  Ca2+  Ca22  1  0.57628010  0.83710968  0.49989443  1
  Ca2+  Ca23  1  0.58097246  0.82852284  0.81863676  1
  Ca2+  Ca24  1  0.33600586  0.41214746  0.17273734  1
  Ca2+  Ca25  1  0.33652039  0.41604068  0.50225664  1
  Ca2+  Ca26  1  0.33385613  0.41537258  0.83994508  1
  Ca2+  Ca27  1  0.33323004  0.92761688  0.17286256  1
  Ca2+  Ca28  1  0.33251908  0.91670032  0.50608025  1
  Ca2+  Ca29  1  0.32328178  0.92036742  0.83895498  1
  Ca2+  Ca30  1  0.83295671  0.41620634  0.17451553  1
  Ca2+  Ca31  1  0.82494322  0.40984437  0.50385931  1
  Ca2+  Ca32  1  0.83178681  0.41714478  0.83713011  1
  Ca2+  Ca33  1  0.83828273  0.92919298  0.16860095  1
  Ca2+  Ca34  1  0.82978491  0.92248266  0.50826964  1
  Ca2+  Ca35  1  0.83172371  0.91800747  0.84081145  1
  Ca2+  Ca36  1  0.41643711  0.16961924  0.16442233  1
  Ca2+  Ca37  1  0.43052011  0.16508605  0.49070649  1
  Ca2+  Ca38  1  0.41890233  0.16696880  0.83043589  1
  Ca2+  Ca39  1  0.41759199  0.67405621  0.16643420  1
  Ca2+  Ca40  1  0.42001229  0.67929386  0.49960928  1
  Ca2+  Ca41  1  0.42502875  0.67436773  0.82291316  1
  Ca2+  Ca42  1  0.90523382  0.17491942  0.16272265  1
  Ca2+  Ca43  1  0.91624785  0.17270252  0.49696272  1
  Ca2+  Ca44  1  0.91557921  0.17295807  0.82717398  1
  Ca2+  Ca45  1  0.92005640  0.66988076  0.15924282  1
  Ca2+  Ca46  1  0.91995887  0.67476208  0.49763212  1
  Ca2+  Ca47  1  0.90968816  0.67870591  0.83137783  1
  Al0+  Al48  1  -0.00048363  -0.00135990  0.00697532  1
  Al0+  Al49  1  0.00088870  -0.00008837  0.33864163  1
  Al0+  Al50  1  0.00245339  0.00125001  0.66134027  1
  Al0+  Al51  1  0.00008963  0.50013809  -0.00139394  1
  Al0+  Al52  1  0.00074788  0.50095874  0.32761927  1
  Al0+  Al53  1  -0.00001842  0.50050602  0.66510964  1
  Al0+  Al54  1  0.49895328  -0.00012390  0.00155705  1
  Al0+  Al55  1  0.50067171  -0.00002158  0.32752094  1
  Al0+  Al56  1  0.50111138  0.00155667  0.66477693  1
  Al0+  Al57  1  0.49938455  0.49886784  -0.00279847  1
  Al0+  Al58  1  0.50001285  0.50102921  0.33465321  1
  Al0+  Al59  1  0.50044025  0.50087142  0.67046560  1
  Al0+  Al60  1  0.25007908  0.25038904  -0.00095376  1
  Al0+  Al61  1  0.24891861  0.24957503  0.33708120  1
  Al0+  Al62  1  0.24906918  0.25145258  0.66576578  1
  Al0+  Al63  1  0.25009037  0.74806978  0.00276310  1
  Al0+  Al64  1  0.25019229  0.74898497  0.32526616  1
  Al0+  Al65  1  0.24971944  0.75071658  0.66977830  1
  Al0+  Al66  1  0.74682538  0.24944265  -0.00233472  1
  Al0+  Al67  1  0.75022868  0.25035793  0.33371598  1
  Al0+  Al68  1  0.74811019  0.25193264  0.66658591  1
  Al0+  Al69  1  0.75002118  0.74712939  0.00297332  1
  Al0+  Al70  1  0.75100129  0.75023144  0.33300862  1
  Al0+  Al71  1  0.75035880  0.74872255  0.65975931  1
  Al0+  Al72  1  0.17938119  0.92929607  0.68012292  1
  Al0+  Al73  1  0.92836217  0.82231168  0.65349680  1
  Al0+  Al74  1  0.92823630  0.32179120  0.65136989  1
  Al0+  Al75  1  0.92693369  0.32130015  0.98563966  1
  Al0+  Al76  1  0.43028859  0.82049048  0.31785347  1
  Al0+  Al77  1  0.82104114  0.57002443  0.01378336  1
  Al0+  Al78  1  0.42815242  0.82159387  0.65396358  1
  Al0+  Al79  1  0.57271988  0.67718335  0.65121065  1
  Al0+  Al80  1  0.56933937  0.18004178  0.65388023  1
  Al0+  Al81  1  0.06926347  0.68082659  0.31946782  1
  Al0+  Al82  1  0.17771334  0.92737404  0.01771927  1
  Al0+  Al83  1  0.82078327  0.07098736  0.34893864  1
  Al0+  Al84  1  0.67955292  0.92831498  0.67822967  1
  Al0+  Al85  1  0.93014175  0.31807196  0.31893640  1
  Al0+  Al86  1  0.42871833  0.32024670  0.98548914  1
  Al0+  Al87  1  0.67887892  0.42848190  0.68272431  1
  Al0+  Al88  1  0.42771120  0.32174650  0.32043052  1
  Al0+  Al89  1  0.81890789  0.07110758  0.01150185  1
  Al0+  Al90  1  0.68025777  0.43186406  0.34669033  1
  Al0+  Al91  1  0.07237768  0.17772965  0.65159756  1
  Al0+  Al92  1  0.32145295  0.07150132  0.34911779  1
  Al0+  Al93  1  0.32170259  0.07203019  0.01534124  1
  Al0+  Al94  1  0.93024043  0.82050907  0.98822729  1
  Al0+  Al95  1  0.57223164  0.17865464  0.31622457  1
  Si0+  Si96  1  0.57160684  0.17633179  0.98124914  1
  Si0+  Si97  1  0.07384393  0.67735439  0.98137002  1
  Si0+  Si98  1  0.67747630  0.92523599  0.01578305  1
  Si0+  Si99  1  0.82202729  0.07142729  0.68248521  1
  Si0+  Si100  1  0.32020922  0.57201558  0.34835992  1
  Si0+  Si101  1  0.17933404  0.42976833  0.01485295  1
  Si0+  Si102  1  0.42849571  0.82123833  0.98448843  1
  Si0+  Si103  1  0.07266594  0.67787733  0.65204212  1
  Si0+  Si104  1  0.07311218  0.17605641  0.31609774  1
  Si0+  Si105  1  0.42706562  0.32341665  0.65132759  1
  Si0+  Si106  1  0.31990424  0.57058533  0.68229708  1
  Si0+  Si107  1  0.67799407  0.92627389  0.34962867  1
  Si0+  Si108  1  0.92675860  0.82411230  0.31599919  1
  Si0+  Si109  1  0.67679486  0.42816171  0.01720422  1
  Si0+  Si110  1  0.82478955  0.57345404  0.35097810  1
  Si0+  Si111  1  0.82415588  0.57189864  0.68251246  1
  Si0+  Si112  1  0.18079245  0.92587729  0.35103816  1
  Si0+  Si113  1  0.57292559  0.67666160  0.31587545  1
  Si0+  Si114  1  0.07163129  0.17837470  0.98579230  1
  Si0+  Si115  1  0.32306474  0.07349779  0.68282289  1
  Si0+  Si116  1  0.17758314  0.42872011  0.68197573  1
  Si0+  Si117  1  0.57011334  0.67909976  0.98587163  1
  Si0+  Si118  1  0.32245091  0.56960980  0.01591077  1
  Si0+  Si119  1  0.17728717  0.42965054  0.34842532  1
  O2-  O120  1  0.25157336  -0.00174165  0.06595962  1
  O2-  O121  1  0.24714250  -0.00377750  0.39582724  1
  O2-  O122  1  0.25310492  0.00558214  0.72626073  1
  O2-  O123  1  0.25094292  0.49966576  0.05877985  1
  O2-  O124  1  0.25189598  0.49795859  0.39039427  1
  O2-  O125  1  0.25042558  0.49790941  0.72482854  1
  O2-  O126  1  0.74509075  -0.00476199  0.05898100  1
  O2-  O127  1  0.74736604  -0.00587854  0.39368423  1
  O2-  O128  1  0.75669333  -0.00051274  0.72709800  1
  O2-  O129  1  0.75037757  0.49183389  0.06113475  1
  O2-  O130  1  0.75376113  0.50771053  0.39502719  1
  O2-  O131  1  0.75508055  0.50329975  0.72687030  1
  O2-  O132  1  0.00199393  0.24137667  0.27042908  1
  O2-  O133  1  -0.00104421  0.24836936  0.60207997  1
  O2-  O134  1  -0.00049605  0.24349623  0.94108140  1
  O2-  O135  1  -0.00571696  0.75413535  0.27223225  1
  O2-  O136  1  0.00428748  0.74709153  0.60899955  1
  O2-  O137  1  0.00651502  0.74782850  0.93884470  1
  O2-  O138  1  0.49655279  0.24850506  0.26817911  1
  O2-  O139  1  0.49409801  0.25428725  0.60735908  1
  O2-  O140  1  0.50079247  0.24397148  0.93862734  1
  O2-  O141  1  0.50833760  0.74859353  0.27041665  1
  O2-  O142  1  0.50306605  0.75252343  0.60344703  1
  O2-  O143  1  0.50191893  0.75260889  0.94285575  1
  O2-  O144  1  0.07415475  0.18320707  0.09134733  1
  O2-  O145  1  0.07387490  0.17967351  0.42147251  1
  O2-  O146  1  0.07210258  0.17959124  0.76575049  1
  O2-  O147  1  0.07361917  0.67558839  0.08700656  1
  O2-  O148  1  0.06994595  0.68142597  0.43279790  1
  O2-  O149  1  0.07351955  0.67466708  0.75737538  1
  O2-  O150  1  0.57391701  0.17753250  0.08640499  1
  O2-  O151  1  0.57251717  0.18028139  0.42989836  1
  O2-  O152  1  0.56792363  0.18014554  0.76728292  1
  O2-  O153  1  0.56723461  0.67807035  0.09104763  1
  O2-  O154  1  0.56934479  0.67502774  0.42093684  1
  O2-  O155  1  0.56954517  0.67719707  0.76573337  1
  O2-  O156  1  0.17627642  0.43201827  0.24305130  1
  O2-  O157  1  0.17758865  0.43081814  0.57687184  1
  O2-  O158  1  0.18075966  0.43228735  0.90946919  1
  O2-  O159  1  0.18224799  0.92578020  0.24547051  1
  O2-  O160  1  0.18270614  0.92624716  0.56714703  1
  O2-  O161  1  0.17852305  0.92858013  0.90384882  1
  O2-  O162  1  0.68107837  0.43430907  0.23321197  1
  O2-  O163  1  0.67815895  0.42911866  0.56972865  1
  O2-  O164  1  0.67516957  0.43113263  0.91159350  1
  O2-  O165  1  0.68033823  0.92422398  0.24367234  1
  O2-  O166  1  0.67975212  0.93090599  0.56541527  1
  O2-  O167  1  0.67760957  0.92334487  0.91009575  1
  O2-  O168  1  0.43049401  0.32382699  0.09794131  1
  O2-  O169  1  0.42941189  0.32337565  0.43391114  1
  O2-  O170  1  0.42673105  0.32282129  0.75737559  1
  O2-  O171  1  0.42936661  0.81901768  0.08972911  1
  O2-  O172  1  0.42780035  0.81774347  0.43053740  1
  O2-  O173  1  0.42768070  0.81774044  0.76809633  1
  O2-  O174  1  0.92906496  0.32181785  0.09887594  1
  O2-  O175  1  0.93206598  0.31935448  0.43156753  1
  O2-  O176  1  0.93039713  0.32189824  0.76537825  1
  O2-  O177  1  0.93091674  0.81763276  0.10118628  1
  O2-  O178  1  0.92696290  0.82311394  0.42162778  1
  O2-  O179  1  0.92803286  0.82167175  0.76690504  1
  O2-  O180  1  0.31862947  0.07130605  0.23605103  1
  O2-  O181  1  0.32239526  0.07335002  0.57727035  1
  O2-  O182  1  0.32191815  0.07019392  0.90152202  1
  O2-  O183  1  0.31896960  0.57249805  0.24288118  1
  O2-  O184  1  0.31837257  0.57088589  0.57713764  1
  O2-  O185  1  0.32195199  0.56967556  0.91059422  1
  O2-  O186  1  0.81985120  0.07034310  0.23534879  1
  O2-  O187  1  0.81976693  0.07129532  0.57683990  1
  O2-  O188  1  0.81817862  0.07019925  0.89837525  1
  O2-  O189  1  0.82434359  0.57249593  0.24498171  1
  O2-  O190  1  0.82748603  0.57057910  0.57708067  1
  O2-  O191  1  0.81701105  0.57293832  0.90084433  1
  O2-  O192  1  0.05196319  0.08002622  0.27366934  1
  O2-  O193  1  0.04897184  0.08054469  0.59538565  1
  O2-  O194  1  0.04878469  0.08268940  0.94408573  1
  O2-  O195  1  0.04087157  0.58485265  0.26235180  1
  O2-  O196  1  0.04767562  0.58515292  0.60357988  1
  O2-  O197  1  0.04795378  0.58405609  0.93495332  1
  O2-  O198  1  0.54875560  0.07974269  0.26272231  1
  O2-  O199  1  0.54080558  0.08448716  0.59773402  1
  O2-  O200  1  0.54702241  0.08145087  0.93643247  1
  O2-  O201  1  0.54213955  0.58584952  0.26719264  1
  O2-  O202  1  0.53691558  0.58052164  0.59931936  1
  O2-  O203  1  0.53923218  0.58882303  0.93718687  1
  O2-  O204  1  0.16516996  0.20625337  0.26984287  1
  O2-  O205  1  0.16995562  0.20998629  0.59813435  1
  O2-  O206  1  0.16298013  0.20750252  0.93709043  1
  O2-  O207  1  0.16483397  0.70918735  0.26178581  1
  O2-  O208  1  0.16596650  0.70357218  0.60563441  1
  O2-  O209  1  0.16942389  0.69911997  0.93686232  1
  O2-  O210  1  0.66839839  0.21307379  0.26292443  1
  O2-  O211  1  0.66516042  0.21166222  0.60030171  1
  O2-  O212  1  0.66306591  0.20438949  0.93229377  1
  O2-  O213  1  0.66884414  0.69799003  0.27187365  1
  O2-  O214  1  0.67105075  0.69789359  0.59680851  1
  O2-  O215  1  0.66280124  0.70374145  0.93953582  1
  O2-  O216  1  0.08831552  0.45904132  0.06298299  1
  O2-  O217  1  0.08772135  0.46387819  0.39654590  1
  O2-  O218  1  0.08721035  0.45950916  0.73105834  1
  O2-  O219  1  0.08074186  0.95484064  0.07340858  1
  O2-  O220  1  0.08558962  0.94720862  0.39561299  1
  O2-  O221  1  0.08215335  0.96113588  0.73324563  1
  O2-  O222  1  0.58487635  0.46045968  0.06336841  1
  O2-  O223  1  0.58323039  0.46243918  0.40114641  1
  O2-  O224  1  0.58243186  0.46044528  0.73808301  1
  O2-  O225  1  0.58338698  0.95038227  0.06124429  1
  O2-  O226  1  0.58330341  0.95107667  0.39255143  1
  O2-  O227  1  0.58340628  0.96042679  0.73387619  1
  O2-  O228  1  0.20570341  0.33806665  0.06211676  1
  O2-  O229  1  0.20112497  0.33796349  0.39730562  1
  O2-  O230  1  0.20410863  0.33720448  0.73096753  1
  O2-  O231  1  0.20503027  0.82695951  0.06808816  1
  O2-  O232  1  0.20959515  0.83186269  0.39460478  1
  O2-  O233  1  0.20850795  0.83265709  0.73630248  1
  O2-  O234  1  0.69676744  0.33255428  0.06009658  1
  O2-  O235  1  0.71287242  0.33608606  0.39997719  1
  O2-  O236  1  0.70912158  0.33244413  0.73855505  1
  O2-  O237  1  0.70172621  0.83234878  0.06385367  1
  O2-  O238  1  0.70130909  0.83150820  0.39559021  1
  O2-  O239  1  0.70644535  0.82881217  0.72931953  1
  O2-  O240  1  0.45545649  0.42134637  0.26804091  1
  O2-  O241  1  0.45177817  0.41786910  0.60800056  1
  O2-  O242  1  0.45912234  0.41720682  0.93018454  1
  O2-  O243  1  0.46030309  0.91551245  0.26084328  1
  O2-  O244  1  0.45391479  0.91996749  0.60144605  1
  O2-  O245  1  0.45253260  0.91430724  0.93873331  1
  O2-  O246  1  0.96324263  0.41433717  0.26498397  1
  O2-  O247  1  0.95991645  0.41946942  0.59855835  1
  O2-  O248  1  0.96125565  0.41706182  0.93200880  1
  O2-  O249  1  0.95509698  0.91773840  0.27149795  1
  O2-  O250  1  0.95972979  0.91695083  0.59745124  1
  O2-  O251  1  0.95870794  0.91845055  0.93552067  1
  O2-  O252  1  0.32674876  0.29726404  0.27013742  1
  O2-  O253  1  0.33207612  0.30302171  0.60659039  1
  O2-  O254  1  0.33066858  0.29377816  0.93107029  1
  O2-  O255  1  0.33703421  0.78405384  0.26095826  1
  O2-  O256  1  0.33165079  0.78675063  0.60069183  1
  O2-  O257  1  0.33700774  0.78940146  0.93899889  1
  O2-  O258  1  0.83384307  0.28905558  0.26476643  1
  O2-  O259  1  0.82972218  0.29430234  0.60042061  1
  O2-  O260  1  0.82909876  0.29339654  0.93308654  1
  O2-  O261  1  0.83269008  0.80021754  0.26997981  1
  O2-  O262  1  0.83475732  0.79053796  0.59521171  1
  O2-  O263  1  0.83287376  0.78718745  0.93589106  1
  O2-  O264  1  0.42059999  0.04426265  0.06850495  1
  O2-  O265  1  0.42008728  0.04015957  0.39822299  1
  O2-  O266  1  0.41592493  0.04738217  0.72946659  1
  O2-  O267  1  0.41400503  0.54140533  0.06350631  1
  O2-  O268  1  0.41227665  0.54778958  0.39643999  1
  O2-  O269  1  0.41096793  0.54415162  0.73209022  1
  O2-  O270  1  0.91440876  0.04271670  0.06861342  1
  O2-  O271  1  0.91845172  0.04278825  0.40320788  1
  O2-  O272  1  0.91770602  0.04955424  0.72491857  1
  O2-  O273  1  0.91994915  0.54371619  0.06599431  1
  O2-  O274  1  0.91856632  0.54602544  0.39519161  1
  O2-  O275  1  0.91769907  0.54703145  0.73042747  1
  O2-  O276  1  0.29221179  0.17096645  0.06722469  1
  O2-  O277  1  0.29064917  0.16782084  0.40433509  1
  O2-  O278  1  0.29851161  0.16849609  0.72774215  1
  O2-  O279  1  0.29562538  0.66114342  0.06453664  1
  O2-  O280  1  0.28679905  0.66218633  0.39546208  1
  O2-  O281  1  0.28989999  0.66035897  0.73277253  1
  O2-  O282  1  0.78557376  0.16736380  0.06601064  1
  O2-  O283  1  0.78859576  0.16678481  0.40264143  1
  O2-  O284  1  0.79236937  0.16394482  0.72846868  1
  O2-  O285  1  0.78711726  0.66415345  0.07170766  1
  O2-  O286  1  0.80303220  0.66909721  0.39481536  1
  O2-  O287  1  0.79705490  0.66577143  0.72720420  1
