# generated using pymatgen
data_Ca2Al2SiO7
_symmetry_space_group_name_H-M   'P 1'
_cell_length_a   15.45515326
_cell_length_b   15.45542063
_cell_length_c   15.28171550
_cell_angle_alpha   90.00775203
_cell_angle_beta   90.00430626
_cell_angle_gamma   90.00927136
_symmetry_Int_Tables_number   1
_chemical_formula_structural   Ca2Al2SiO7
_chemical_formula_sum   'Ca48 Al48 Si24 O168'
_cell_volume   3650.28054925
_cell_formula_units_Z   24
loop_
 _symmetry_equiv_pos_site_id
 _symmetry_equiv_pos_as_xyz
  1  'x, y, z'
loop_
 _atom_type_symbol
 _atom_type_oxidation_number
  Ca2+  2.0
  Al0+  0.0
  Si0+  0.0
  O2-  -2.0
loop_
 _atom_site_type_symbol
 _atom_site_label
 _atom_site_symmetry_multiplicity
 _atom_site_fract_x
 _atom_site_fract_y
 _atom_site_fract_z
 _atom_site_occupancy
  Ca2+  Ca0  1  0.16822284  0.07560767  0.17373876  1
  Ca2+  Ca1  1  0.17020368  0.07901536  0.50811158  1
  Ca2+  Ca2  1  0.17118497  0.08941241  0.83050139  1
  Ca2+  Ca3  1  0.15926737  0.57973682  0.16444910  1
  Ca2+  Ca4  1  0.17384769  0.57768449  0.51166515  1
  Ca2+  Ca5  1  0.16279274  0.57919891  0.83602530  1
  Ca2+  Ca6  1  0.67048241  0.07765014  0.16960579  1
  Ca2+  Ca7  1  0.66792157  0.07577625  0.50725443  1
  Ca2+  Ca8  1  0.67733638  0.07278019  0.83740129  1
  Ca2+  Ca9  1  0.67329877  0.58007662  0.16541866  1
  Ca2+  Ca10  1  0.66485548  0.57719387  0.50927210  1
  Ca2+  Ca11  1  0.66665296  0.57465967  0.83854779  1
  Ca2+  Ca12  1  0.07206988  0.33680544  0.15901412  1
  Ca2+  Ca13  1  0.08262989  0.32772535  0.49863274  1
  Ca2+  Ca14  1  0.07768751  0.33587771  0.82752522  1
  Ca2+  Ca15  1  0.07805985  0.83126427  0.16262175  1
  Ca2+  Ca16  1  0.08044518  0.83018343  0.49368695  1
  Ca2+  Ca17  1  0.08197987  0.81854107  0.82530462  1
  Ca2+  Ca18  1  0.58307739  0.32942840  0.16428730  1
  Ca2+  Ca19  1  0.57877320  0.32724598  0.49087558  1
  Ca2+  Ca20  1  0.58763457  0.33682582  0.82762786  1
  Ca2+  Ca21  1  0.58001987  0.84424257  0.16556675  1
  Ca2+  Ca22  1  0.57522343  0.84005759  0.49738448  1
  Ca2+  Ca23  1  0.58513172  0.82996447  0.82327686  1
  Ca2+  Ca24  1  0.32799287  0.41525479  0.17057655  1
  Ca2+  Ca25  1  0.33244147  0.42206746  0.51177502  1
  Ca2+  Ca26  1  0.31951888  0.42295166  0.83392918  1
  Ca2+  Ca27  1  0.32658096  0.91415950  0.17594272  1
  Ca2+  Ca28  1  0.33438573  0.91729269  0.50405243  1
  Ca2+  Ca29  1  0.33933875  0.92033955  0.82938561  1
  Ca2+  Ca30  1  0.83899483  0.41830447  0.16505987  1
  Ca2+  Ca31  1  0.82783467  0.41377362  0.50405735  1
  Ca2+  Ca32  1  0.82326614  0.41838837  0.84227151  1
  Ca2+  Ca33  1  0.82466594  0.91733134  0.17564610  1
  Ca2+  Ca34  1  0.82346862  0.91761503  0.50683980  1
  Ca2+  Ca35  1  0.82666865  0.92447363  0.83865888  1
  Ca2+  Ca36  1  0.42504165  0.16704572  0.16939231  1
  Ca2+  Ca37  1  0.42139443  0.16993549  0.49303620  1
  Ca2+  Ca38  1  0.41720087  0.16766284  0.82612268  1
  Ca2+  Ca39  1  0.41720016  0.67412960  0.16530708  1
  Ca2+  Ca40  1  0.42010477  0.67335864  0.50191512  1
  Ca2+  Ca41  1  0.42320871  0.67301134  0.81902151  1
  Ca2+  Ca42  1  0.91071494  0.17675465  0.16059715  1
  Ca2+  Ca43  1  0.91833282  0.16808498  0.49869431  1
  Ca2+  Ca44  1  0.91462367  0.16819187  0.82865627  1
  Ca2+  Ca45  1  0.91788677  0.67153213  0.15946444  1
  Ca2+  Ca46  1  0.92246866  0.67201354  0.49681235  1
  Ca2+  Ca47  1  0.92505594  0.65605094  0.83184536  1
  Al0+  Al48  1  0.00179696  0.00092207  0.00236904  1
  Al0+  Al49  1  0.00019391  -0.00159843  0.33386505  1
  Al0+  Al50  1  0.00104142  0.00153934  0.66639979  1
  Al0+  Al51  1  -0.00025523  0.49905813  -0.00099987  1
  Al0+  Al52  1  0.00103263  0.49916185  0.33292402  1
  Al0+  Al53  1  -0.00154150  0.49879654  0.66121248  1
  Al0+  Al54  1  0.49883155  0.00278942  0.00235124  1
  Al0+  Al55  1  0.49998566  -0.00021426  0.32770770  1
  Al0+  Al56  1  0.49947422  0.00072240  0.67143237  1
  Al0+  Al57  1  0.49787282  0.50151288  0.00415506  1
  Al0+  Al58  1  0.49994494  0.50048783  0.32831002  1
  Al0+  Al59  1  0.49849259  0.50146100  0.67104145  1
  Al0+  Al60  1  0.25100015  0.25112506  0.00608049  1
  Al0+  Al61  1  0.24984407  0.24983590  0.32939757  1
  Al0+  Al62  1  0.24803259  0.24944906  0.67018165  1
  Al0+  Al63  1  0.25032143  0.75073012  -0.00551492  1
  Al0+  Al64  1  0.25171289  0.74754163  0.33348283  1
  Al0+  Al65  1  0.25068669  0.75029889  0.66143285  1
  Al0+  Al66  1  0.74812346  0.24817187  0.00141808  1
  Al0+  Al67  1  0.75131783  0.25033191  0.32544696  1
  Al0+  Al68  1  0.74954874  0.25008606  0.67304549  1
  Al0+  Al69  1  0.74740292  0.75008364  0.00668974  1
  Al0+  Al70  1  0.75173578  0.74917853  0.33524121  1
  Al0+  Al71  1  0.75091996  0.74759238  0.66650523  1
  Al0+  Al72  1  0.82324625  0.07140838  0.68089866  1
  Al0+  Al73  1  0.07051950  0.67711290  0.65081503  1
  Al0+  Al74  1  0.57325891  0.67667998  0.65225325  1
  Al0+  Al75  1  0.57139205  0.17858428  0.31821800  1
  Al0+  Al76  1  0.06894123  0.68110328  0.98584107  1
  Al0+  Al77  1  0.17835498  0.92727436  0.34687170  1
  Al0+  Al78  1  0.92878026  0.82077858  0.32055087  1
  Al0+  Al79  1  0.07165066  0.17943742  0.65326686  1
  Al0+  Al80  1  0.67835507  0.42979410  0.67699755  1
  Al0+  Al81  1  0.93138716  0.32056972  0.31953336  1
  Al0+  Al82  1  0.67893558  0.92963347  0.34939674  1
  Al0+  Al83  1  0.82425700  0.07023634  0.01733336  1
  Al0+  Al84  1  0.32035477  0.07073754  0.67843455  1
  Al0+  Al85  1  0.17749902  0.42870085  0.68018649  1
  Al0+  Al86  1  0.32024893  0.57362639  0.68187431  1
  Al0+  Al87  1  0.42742695  0.32371207  0.31830037  1
  Al0+  Al88  1  0.43109613  0.82365764  0.65087701  1
  Al0+  Al89  1  0.92893819  0.31843190  0.98420634  1
  Al0+  Al90  1  0.82183702  0.56953069  0.01494014  1
  Al0+  Al91  1  0.17951832  0.43007770  0.01505124  1
  Al0+  Al92  1  0.67838043  0.92932451  0.01674402  1
  Al0+  Al93  1  0.67597623  0.42801682  0.01767016  1
  Al0+  Al94  1  0.43018144  0.81893521  0.31867860  1
  Al0+  Al95  1  0.67875956  0.92720370  0.68097402  1
  Si0+  Si96  1  0.32063425  0.07158614  0.34904310  1
  Si0+  Si97  1  0.82194304  0.07455110  0.35034182  1
  Si0+  Si98  1  0.07227035  0.67843131  0.31649751  1
  Si0+  Si99  1  0.92540512  0.82376351  0.98396020  1
  Si0+  Si100  1  0.67926971  0.42911066  0.34667600  1
  Si0+  Si101  1  0.57147937  0.18042360  0.65504802  1
  Si0+  Si102  1  0.32082745  0.07210908  0.01733992  1
  Si0+  Si103  1  0.92563674  0.32046243  0.64979205  1
  Si0+  Si104  1  0.92890574  0.82327316  0.65111876  1
  Si0+  Si105  1  0.07524841  0.17661476  0.98408649  1
  Si0+  Si106  1  0.17864333  0.42895179  0.34825831  1
  Si0+  Si107  1  0.18162535  0.92706170  0.01266077  1
  Si0+  Si108  1  0.32289096  0.56966767  0.34833162  1
  Si0+  Si109  1  0.32060349  0.57439820  0.01811759  1
  Si0+  Si110  1  0.07300914  0.17642912  0.31605404  1
  Si0+  Si111  1  0.82312474  0.57177957  0.68084489  1
  Si0+  Si112  1  0.57405003  0.67672935  0.31484733  1
  Si0+  Si113  1  0.56812476  0.17961668  0.98175430  1
  Si0+  Si114  1  0.82256368  0.57024803  0.34971365  1
  Si0+  Si115  1  0.17726163  0.92722938  0.68316862  1
  Si0+  Si116  1  0.57036164  0.67909445  0.98630111  1
  Si0+  Si117  1  0.42756773  0.32234412  0.98329987  1
  Si0+  Si118  1  0.42906393  0.82244764  0.98436327  1
  Si0+  Si119  1  0.42849134  0.32020873  0.65580676  1
  O2-  O120  1  0.24868382  0.00115941  0.05661452  1
  O2-  O121  1  0.25146397  0.00371043  0.39319315  1
  O2-  O122  1  0.24725263  -0.00492924  0.72710424  1
  O2-  O123  1  0.25293809  0.50546512  0.06359555  1
  O2-  O124  1  0.25431308  0.49526981  0.38919912  1
  O2-  O125  1  0.24425337  0.50536957  0.73090193  1
  O2-  O126  1  0.75537753  -0.00457962  0.06756071  1
  O2-  O127  1  0.75392294  0.00513169  0.39451253  1
  O2-  O128  1  0.75364593  -0.00340770  0.72962090  1
  O2-  O129  1  0.75099067  0.49713425  0.06733502  1
  O2-  O130  1  0.74958341  0.50008511  0.39039907  1
  O2-  O131  1  0.75102233  0.50614733  0.72343960  1
  O2-  O132  1  0.00442833  0.24470781  0.27188455  1
  O2-  O133  1  -0.00461337  0.25230635  0.60624578  1
  O2-  O134  1  0.00358770  0.24213112  0.93995391  1
  O2-  O135  1  0.00521185  0.74843697  0.27250555  1
  O2-  O136  1  -0.00236568  0.75438146  0.60608038  1
  O2-  O137  1  -0.00775207  0.75378771  0.93848880  1
  O2-  O138  1  0.50043230  0.25272218  0.26825553  1
  O2-  O139  1  0.50102188  0.25167314  0.61242711  1
  O2-  O140  1  0.50081312  0.25466652  0.93929684  1
  O2-  O141  1  0.50807050  0.74837315  0.27030384  1
  O2-  O142  1  0.50518317  0.75260418  0.60201194  1
  O2-  O143  1  0.50236452  0.75333223  0.94442975  1
  O2-  O144  1  0.07787882  0.17741853  0.08981699  1
  O2-  O145  1  0.07522764  0.17850951  0.42161787  1
  O2-  O146  1  0.07303580  0.18206296  0.76622730  1
  O2-  O147  1  0.07160717  0.68525511  0.09913572  1
  O2-  O148  1  0.07074562  0.67726299  0.42202342  1
  O2-  O149  1  0.06795395  0.67705037  0.76413602  1
  O2-  O150  1  0.56407150  0.17765679  0.08671451  1
  O2-  O151  1  0.57007957  0.18100788  0.43263889  1
  O2-  O152  1  0.56987989  0.18184804  0.76028334  1
  O2-  O153  1  0.56724174  0.67763475  0.09150375  1
  O2-  O154  1  0.57131790  0.67235238  0.41996953  1
  O2-  O155  1  0.57080186  0.67592699  0.76631106  1
  O2-  O156  1  0.17701206  0.43211777  0.24312872  1
  O2-  O157  1  0.18196370  0.42752577  0.56594092  1
  O2-  O158  1  0.18084865  0.42969229  0.90245770  1
  O2-  O159  1  0.18077372  0.92845006  0.23284248  1
  O2-  O160  1  0.17668347  0.92910895  0.57747136  1
  O2-  O161  1  0.18447599  0.92528800  0.90791814  1
  O2-  O162  1  0.67949700  0.43105399  0.24202363  1
  O2-  O163  1  0.67980923  0.42697359  0.56319959  1
  O2-  O164  1  0.67450453  0.43192288  0.90400186  1
  O2-  O165  1  0.68022735  0.93118428  0.23650047  1
  O2-  O166  1  0.67774446  0.93147849  0.56716501  1
  O2-  O167  1  0.67609542  0.93081897  0.90337874  1
  O2-  O168  1  0.42648778  0.31919625  0.08829976  1
  O2-  O169  1  0.42837480  0.32426745  0.43247471  1
  O2-  O170  1  0.42874092  0.31803942  0.76116026  1
  O2-  O171  1  0.42600685  0.82107881  0.08968439  1
  O2-  O172  1  0.42901323  0.81828421  0.43094048  1
  O2-  O173  1  0.43252431  0.82354295  0.76514818  1
  O2-  O174  1  0.93295415  0.31883185  0.09761277  1
  O2-  O175  1  0.93199234  0.32149521  0.43266556  1
  O2-  O176  1  0.92477715  0.32093113  0.75514086  1
  O2-  O177  1  0.92954436  0.82293839  0.08976934  1
  O2-  O178  1  0.92902762  0.81727823  0.43362031  1
  O2-  O179  1  0.93107565  0.82342512  0.75675358  1
  O2-  O180  1  0.31834905  0.07064111  0.24286518  1
  O2-  O181  1  0.31981309  0.07300617  0.56555678  1
  O2-  O182  1  0.32267921  0.07323629  0.91228343  1
  O2-  O183  1  0.32141775  0.57166606  0.24302652  1
  O2-  O184  1  0.32185659  0.56871514  0.56766242  1
  O2-  O185  1  0.32098992  0.57418997  0.91306347  1
  O2-  O186  1  0.82123640  0.07382089  0.24490627  1
  O2-  O187  1  0.82010851  0.07349356  0.56703171  1
  O2-  O188  1  0.82241755  0.06875584  0.90380807  1
  O2-  O189  1  0.82403449  0.56990735  0.24492013  1
  O2-  O190  1  0.82435637  0.56931751  0.57473243  1
  O2-  O191  1  0.81980867  0.56804411  0.90128730  1
  O2-  O192  1  0.04917480  0.08211594  0.27108125  1
  O2-  O193  1  0.04448232  0.08206558  0.59814612  1
  O2-  O194  1  0.05539100  0.08097465  0.93901798  1
  O2-  O195  1  0.04332282  0.58565575  0.27049789  1
  O2-  O196  1  0.03859412  0.58176078  0.59404152  1
  O2-  O197  1  0.03947703  0.58404772  0.93276953  1
  O2-  O198  1  0.53862714  0.08349157  0.26110348  1
  O2-  O199  1  0.54201849  0.08932597  0.60829160  1
  O2-  O200  1  0.53352180  0.08967461  0.93422010  1
  O2-  O201  1  0.54470421  0.58546626  0.26548596  1
  O2-  O202  1  0.53928606  0.57930891  0.59838972  1
  O2-  O203  1  0.53961575  0.58766148  0.93933637  1
  O2-  O204  1  0.16635658  0.20066215  0.26842366  1
  O2-  O205  1  0.16737088  0.21245312  0.59771490  1
  O2-  O206  1  0.16924090  0.20536395  0.93974504  1
  O2-  O207  1  0.16632829  0.70127036  0.27071070  1
  O2-  O208  1  0.16734250  0.70597185  0.59694269  1
  O2-  O209  1  0.16506938  0.71354202  0.93060012  1
  O2-  O210  1  0.66841237  0.20639831  0.26284797  1
  O2-  O211  1  0.66295969  0.20834182  0.60749670  1
  O2-  O212  1  0.66129487  0.20302027  0.93607719  1
  O2-  O213  1  0.66925674  0.69898613  0.27163736  1
  O2-  O214  1  0.67438568  0.69613280  0.60073796  1
  O2-  O215  1  0.66360313  0.70331540  0.94042677  1
  O2-  O216  1  0.08398266  0.46251390  0.06911485  1
  O2-  O217  1  0.08885071  0.46042064  0.39738728  1
  O2-  O218  1  0.07662628  0.45356951  0.72882194  1
  O2-  O219  1  0.08881274  0.95067226  0.06026886  1
  O2-  O220  1  0.08146990  0.95575608  0.40146792  1
  O2-  O221  1  0.08505817  0.95389887  0.73063249  1
  O2-  O222  1  0.57796714  0.45899668  0.07104692  1
  O2-  O223  1  0.58613990  0.45620813  0.39235831  1
  O2-  O224  1  0.58257156  0.45748669  0.73356450  1
  O2-  O225  1  0.58070565  0.96494579  0.06882770  1
  O2-  O226  1  0.58037332  0.96121936  0.39885810  1
  O2-  O227  1  0.58244316  0.95859501  0.73555133  1
  O2-  O228  1  0.21154395  0.33457289  0.07150056  1
  O2-  O229  1  0.20123561  0.33401576  0.39169516  1
  O2-  O230  1  0.21014384  0.33361355  0.73610584  1
  O2-  O231  1  0.21389883  0.83751032  0.06215012  1
  O2-  O232  1  0.21021169  0.83034055  0.39915377  1
  O2-  O233  1  0.20287309  0.83335944  0.72771447  1
  O2-  O234  1  0.70026760  0.32785522  0.06676692  1
  O2-  O235  1  0.70800122  0.33657779  0.39198245  1
  O2-  O236  1  0.70927428  0.33559567  0.73524803  1
  O2-  O237  1  0.69751443  0.82920406  0.06987923  1
  O2-  O238  1  0.70917184  0.83148371  0.40090501  1
  O2-  O239  1  0.70457210  0.82711345  0.73177157  1
  O2-  O240  1  0.45427803  0.42132334  0.26259632  1
  O2-  O241  1  0.45431523  0.41254725  0.60933784  1
  O2-  O242  1  0.45122582  0.41679881  0.93943949  1
  O2-  O243  1  0.45587105  0.91606531  0.26297323  1
  O2-  O244  1  0.45805890  0.92344657  0.59884913  1
  O2-  O245  1  0.45411381  0.91649193  0.94012904  1
  O2-  O246  1  0.96526985  0.41649759  0.26505393  1
  O2-  O247  1  0.94946448  0.41328336  0.60127314  1
  O2-  O248  1  0.96096780  0.41476558  0.93115555  1
  O2-  O249  1  0.95766201  0.91774603  0.26603186  1
  O2-  O250  1  0.95443201  0.91631243  0.60410141  1
  O2-  O251  1  0.95358484  0.91731275  0.93918656  1
  O2-  O252  1  0.32944503  0.29454773  0.26372901  1
  O2-  O253  1  0.33796693  0.29030113  0.60783266  1
  O2-  O254  1  0.33632017  0.29004360  0.93722771  1
  O2-  O255  1  0.33467878  0.78362690  0.26333061  1
  O2-  O256  1  0.33254579  0.79635612  0.59778447  1
  O2-  O257  1  0.33904846  0.79342770  0.93466355  1
  O2-  O258  1  0.83523826  0.29401998  0.26318381  1
  O2-  O259  1  0.83229084  0.29213095  0.60346172  1
  O2-  O260  1  0.83001052  0.29027135  0.93301041  1
  O2-  O261  1  0.83351955  0.78711144  0.26556963  1
  O2-  O262  1  0.83550771  0.79684879  0.60502813  1
  O2-  O263  1  0.82977821  0.80016131  0.94196802  1
  O2-  O264  1  0.41086580  0.04209548  0.06640993  1
  O2-  O265  1  0.41459413  0.04540274  0.39242927  1
  O2-  O266  1  0.41512927  0.04160481  0.73746045  1
  O2-  O267  1  0.41325691  0.54919860  0.06621028  1
  O2-  O268  1  0.41587883  0.54399934  0.39450961  1
  O2-  O269  1  0.41597909  0.54190658  0.73756161  1
  O2-  O270  1  0.92558936  0.05000802  0.06898568  1
  O2-  O271  1  0.91687424  0.05044745  0.39413635  1
  O2-  O272  1  0.92260225  0.04674207  0.73359269  1
  O2-  O273  1  0.91974834  0.54165296  0.06905297  1
  O2-  O274  1  0.91390394  0.53989766  0.39730147  1
  O2-  O275  1  0.91505726  0.54189077  0.72722331  1
  O2-  O276  1  0.29441382  0.16288568  0.06716167  1
  O2-  O277  1  0.29668428  0.16663059  0.39352633  1
  O2-  O278  1  0.28761962  0.16483282  0.73664856  1
  O2-  O279  1  0.29298278  0.66839354  0.06321529  1
  O2-  O280  1  0.29248232  0.65968245  0.39697036  1
  O2-  O281  1  0.29598141  0.67384074  0.73214689  1
  O2-  O282  1  0.78992774  0.16708422  0.06896874  1
  O2-  O283  1  0.79607417  0.16910080  0.39466234  1
  O2-  O284  1  0.79140072  0.16740457  0.73643366  1
  O2-  O285  1  0.79276846  0.66739843  0.06966094  1
  O2-  O286  1  0.79625329  0.66148820  0.39839769  1
  O2-  O287  1  0.80489365  0.66621530  0.72734903  1
