# generated using pymatgen
data_Ca2Al2SiO7
_symmetry_space_group_name_H-M   'P 1'
_cell_length_a   15.46575180
_cell_length_b   15.46526006
_cell_length_c   15.28874039
_cell_angle_alpha   90.00352040
_cell_angle_beta   89.99874609
_cell_angle_gamma   90.02213733
_symmetry_Int_Tables_number   1
_chemical_formula_structural   Ca2Al2SiO7
_chemical_formula_sum   'Ca48 Al48 Si24 O168'
_cell_volume   3656.78929042
_cell_formula_units_Z   24
loop_
 _symmetry_equiv_pos_site_id
 _symmetry_equiv_pos_as_xyz
  1  'x, y, z'
loop_
 _atom_type_symbol
 _atom_type_oxidation_number
  Ca2+  2.0
  Al0+  0.0
  Si0+  0.0
  O2-  -2.0
loop_
 _atom_site_type_symbol
 _atom_site_label
 _atom_site_symmetry_multiplicity
 _atom_site_fract_x
 _atom_site_fract_y
 _atom_site_fract_z
 _atom_site_occupancy
  Ca2+  Ca0  1  0.17641657  0.07714644  0.16915609  1
  Ca2+  Ca1  1  0.17431969  0.07250223  0.50745204  1
  Ca2+  Ca2  1  0.18026717  0.08085731  0.83375694  1
  Ca2+  Ca3  1  0.16855403  0.57751421  0.16568531  1
  Ca2+  Ca4  1  0.17421152  0.57908356  0.51221174  1
  Ca2+  Ca5  1  0.17435269  0.57621661  0.83100232  1
  Ca2+  Ca6  1  0.67062908  0.08312673  0.16301870  1
  Ca2+  Ca7  1  0.66935363  0.08016591  0.50914937  1
  Ca2+  Ca8  1  0.66242818  0.07523653  0.83979385  1
  Ca2+  Ca9  1  0.65960378  0.58183933  0.16973448  1
  Ca2+  Ca10  1  0.67349619  0.58230025  0.50771898  1
  Ca2+  Ca11  1  0.66744381  0.57657646  0.83802362  1
  Ca2+  Ca12  1  0.07977123  0.33278658  0.15757329  1
  Ca2+  Ca13  1  0.07852620  0.33932625  0.50301302  1
  Ca2+  Ca14  1  0.07961374  0.33827459  0.82489620  1
  Ca2+  Ca15  1  0.08310146  0.83656284  0.16426854  1
  Ca2+  Ca16  1  0.08045182  0.84086924  0.49935101  1
  Ca2+  Ca17  1  0.07376827  0.83791906  0.82251866  1
  Ca2+  Ca18  1  0.57673432  0.32905933  0.15227187  1
  Ca2+  Ca19  1  0.59095809  0.32773609  0.50280049  1
  Ca2+  Ca20  1  0.59239928  0.32195807  0.83025420  1
  Ca2+  Ca21  1  0.58548258  0.82336783  0.15632178  1
  Ca2+  Ca22  1  0.57943634  0.83073324  0.50128899  1
  Ca2+  Ca23  1  0.57803822  0.83774755  0.82845179  1
  Ca2+  Ca24  1  0.33021875  0.40904832  0.16449355  1
  Ca2+  Ca25  1  0.32805841  0.42614288  0.51326068  1
  Ca2+  Ca26  1  0.32524203  0.41199771  0.83907631  1
  Ca2+  Ca27  1  0.33807121  0.91983719  0.16515938  1
  Ca2+  Ca28  1  0.32462741  0.91553202  0.51339732  1
  Ca2+  Ca29  1  0.34363231  0.92462273  0.83479775  1
  Ca2+  Ca30  1  0.82207620  0.42332134  0.16878023  1
  Ca2+  Ca31  1  0.83124557  0.42837093  0.51117038  1
  Ca2+  Ca32  1  0.82369033  0.41522470  0.83086291  1
  Ca2+  Ca33  1  0.82750578  0.92737892  0.16709465  1
  Ca2+  Ca34  1  0.82757316  0.92058282  0.50798364  1
  Ca2+  Ca35  1  0.82087732  0.91673603  0.83736635  1
  Ca2+  Ca36  1  0.42281241  0.16998341  0.15248833  1
  Ca2+  Ca37  1  0.42094436  0.16188714  0.50583194  1
  Ca2+  Ca38  1  0.42358807  0.16456629  0.82995641  1
  Ca2+  Ca39  1  0.42833734  0.67489589  0.15676547  1
  Ca2+  Ca40  1  0.41948055  0.66870990  0.49777738  1
  Ca2+  Ca41  1  0.42020658  0.67596126  0.82929941  1
  Ca2+  Ca42  1  0.91497633  0.16098242  0.16103235  1
  Ca2+  Ca43  1  0.91315608  0.17347739  0.49745046  1
  Ca2+  Ca44  1  0.91581741  0.17054962  0.82562307  1
  Ca2+  Ca45  1  0.91721498  0.66408016  0.16464054  1
  Ca2+  Ca46  1  0.90890539  0.67047385  0.50095555  1
  Ca2+  Ca47  1  0.91692391  0.66990496  0.82302233  1
  Al0+  Al48  1  0.00093348  0.00035110  0.00147966  1
  Al0+  Al49  1  0.00009887  0.00166085  0.33920128  1
  Al0+  Al50  1  0.00113178  0.00149169  0.66277466  1
  Al0+  Al51  1  0.00133952  0.49926298  0.00362563  1
  Al0+  Al52  1  -0.00241047  0.50086776  0.33422155  1
  Al0+  Al53  1  0.00025500  0.50114133  0.66777122  1
  Al0+  Al54  1  0.50093055  -0.00045899  0.00532193  1
  Al0+  Al55  1  0.49976125  0.00149580  0.33212205  1
  Al0+  Al56  1  0.50130284  -0.00094117  0.66172557  1
  Al0+  Al57  1  0.49785135  0.50129470  -0.00317073  1
  Al0+  Al58  1  0.49781752  0.49857750  0.32978953  1
  Al0+  Al59  1  0.50113680  0.49888636  0.67343628  1
  Al0+  Al60  1  0.24771852  0.24755943  0.00626827  1
  Al0+  Al61  1  0.24739131  0.24820023  0.33434238  1
  Al0+  Al62  1  0.25066509  0.24830541  0.67010755  1
  Al0+  Al63  1  0.24874798  0.74769416  -0.00372628  1
  Al0+  Al64  1  0.24805833  0.74874285  0.33425579  1
  Al0+  Al65  1  0.24771401  0.74908687  0.67067064  1
  Al0+  Al66  1  0.75129951  0.25367088  0.00512225  1
  Al0+  Al67  1  0.74984135  0.25069074  0.33355082  1
  Al0+  Al68  1  0.75219488  0.25145848  0.65810381  1
  Al0+  Al69  1  0.75323508  0.75010215  0.00089520  1
  Al0+  Al70  1  0.75024269  0.75045206  0.33116296  1
  Al0+  Al71  1  0.75107205  0.75138794  0.66877322  1
  Al0+  Al72  1  0.17664492  0.92833590  0.68261341  1
  Al0+  Al73  1  0.42895256  0.81930235  0.65241095  1
  Al0+  Al74  1  0.68012880  0.93041010  0.67811502  1
  Al0+  Al75  1  0.67712777  0.43140863  0.01401733  1
  Al0+  Al76  1  0.82008862  0.57233004  0.68237572  1
  Al0+  Al77  1  0.57483258  0.67811982  0.98276661  1
  Al0+  Al78  1  0.42926103  0.82123207  0.98502255  1
  Al0+  Al79  1  0.32435471  0.57341589  0.68267759  1
  Al0+  Al80  1  0.67835530  0.92745925  0.01612131  1
  Al0+  Al81  1  0.93089054  0.32140969  0.65208535  1
  Al0+  Al82  1  0.57312832  0.18093870  0.98568070  1
  Al0+  Al83  1  0.92777990  0.82251246  0.65210228  1
  Al0+  Al84  1  0.42522707  0.32041330  0.98467757  1
  Al0+  Al85  1  0.81950947  0.07163158  0.34911618  1
  Al0+  Al86  1  0.81998715  0.57136564  0.34723040  1
  Al0+  Al87  1  0.32131372  0.06896448  0.01448086  1
  Al0+  Al88  1  0.82239244  0.07239229  0.01210893  1
  Al0+  Al89  1  0.18118367  0.92832683  0.34656639  1
  Al0+  Al90  1  0.57072779  0.17941087  0.65225756  1
  Al0+  Al91  1  0.57056663  0.67972416  0.32115106  1
  Al0+  Al92  1  0.18028004  0.42873736  0.68064317  1
  Al0+  Al93  1  0.32295972  0.06865348  0.68144961  1
  Al0+  Al94  1  0.67928396  0.42626644  0.68096433  1
  Al0+  Al95  1  0.17972103  0.42914923  0.01519149  1
  Si0+  Si96  1  0.07012756  0.67898272  0.64900631  1
  Si0+  Si97  1  0.06947042  0.17924672  0.31688527  1
  Si0+  Si98  1  0.42612241  0.32253411  0.65074247  1
  Si0+  Si99  1  0.07451924  0.17827549  0.64761450  1
  Si0+  Si100  1  0.93081570  0.32209134  0.98595504  1
  Si0+  Si101  1  0.82224567  0.07360890  0.68012873  1
  Si0+  Si102  1  0.42537472  0.82153870  0.31785714  1
  Si0+  Si103  1  0.93232255  0.82202272  0.98624034  1
  Si0+  Si104  1  0.17737585  0.42789858  0.34795791  1
  Si0+  Si105  1  0.17676044  0.92629803  0.01548728  1
  Si0+  Si106  1  0.93045974  0.82268386  0.31742120  1
  Si0+  Si107  1  0.32087440  0.57364059  0.01875784  1
  Si0+  Si108  1  0.82309936  0.57168304  0.01677890  1
  Si0+  Si109  1  0.07137222  0.67764372  0.31737386  1
  Si0+  Si110  1  0.57187789  0.17926057  0.31699078  1
  Si0+  Si111  1  0.06990137  0.17756595  0.98555392  1
  Si0+  Si112  1  0.67521510  0.42920008  0.34952003  1
  Si0+  Si113  1  0.92945325  0.32244914  0.31584196  1
  Si0+  Si114  1  0.06991773  0.67610756  0.98440967  1
  Si0+  Si115  1  0.32304874  0.07291386  0.35089390  1
  Si0+  Si116  1  0.42655486  0.31932345  0.31981171  1
  Si0+  Si117  1  0.32005908  0.56862528  0.34616337  1
  Si0+  Si118  1  0.57272061  0.67595084  0.65112089  1
  Si0+  Si119  1  0.67747253  0.92808741  0.35028074  1
  O2-  O120  1  0.24968010  -0.01003940  0.06001351  1
  O2-  O121  1  0.26029116  -0.00185586  0.39279520  1
  O2-  O122  1  0.25250895  -0.00459302  0.73220194  1
  O2-  O123  1  0.25647908  0.50048476  0.06420412  1
  O2-  O124  1  0.24932401  0.49756694  0.38913867  1
  O2-  O125  1  0.25692581  0.49540635  0.73032278  1
  O2-  O126  1  0.74916994  0.00255851  0.06378238  1
  O2-  O127  1  0.74301765  -0.00066710  0.39524371  1
  O2-  O128  1  0.75554725  0.00446335  0.72458895  1
  O2-  O129  1  0.74787118  0.51037296  0.06126435  1
  O2-  O130  1  0.74292826  0.49902181  0.39260096  1
  O2-  O131  1  0.74678174  0.50204210  0.73133139  1
  O2-  O132  1  -0.00103442  0.25020641  0.27267673  1
  O2-  O133  1  0.00615043  0.24775924  0.60338659  1
  O2-  O134  1  -0.00186671  0.24767691  0.94419031  1
  O2-  O135  1  0.00112288  0.75011112  0.27538059  1
  O2-  O136  1  0.00352253  0.74924804  0.60353920  1
  O2-  O137  1  0.00152791  0.74965362  0.94380434  1
  O2-  O138  1  0.49757397  0.24829159  0.27761874  1
  O2-  O139  1  0.49686378  0.25622311  0.60516450  1
  O2-  O140  1  0.50076005  0.25232451  0.93500057  1
  O2-  O141  1  0.49816467  0.75710194  0.27455625  1
  O2-  O142  1  0.50053673  0.74099923  0.60589054  1
  O2-  O143  1  0.50445968  0.75261292  0.93478683  1
  O2-  O144  1  0.06864764  0.17780387  0.09138633  1
  O2-  O145  1  0.07105930  0.18206020  0.42137321  1
  O2-  O146  1  0.07303715  0.17712028  0.75322212  1
  O2-  O147  1  0.06862998  0.67506030  0.09037741  1
  O2-  O148  1  0.07354150  0.67481224  0.42155510  1
  O2-  O149  1  0.06715745  0.67755583  0.75467063  1
  O2-  O150  1  0.57160058  0.18350762  0.10039127  1
  O2-  O151  1  0.57298611  0.17906838  0.42193907  1
  O2-  O152  1  0.57275793  0.17855322  0.76449143  1
  O2-  O153  1  0.57174486  0.67957435  0.09743176  1
  O2-  O154  1  0.56788915  0.67814747  0.43402259  1
  O2-  O155  1  0.57451776  0.67865919  0.75603119  1
  O2-  O156  1  0.17726303  0.42779172  0.24285556  1
  O2-  O157  1  0.18049823  0.43174236  0.56585714  1
  O2-  O158  1  0.17564674  0.43206950  0.90321522  1
  O2-  O159  1  0.18048377  0.93065105  0.23319042  1
  O2-  O160  1  0.17767988  0.93133083  0.56843999  1
  O2-  O161  1  0.17041213  0.93023025  0.91106144  1
  O2-  O162  1  0.67562854  0.42934245  0.24381865  1
  O2-  O163  1  0.68225778  0.42716056  0.56656508  1
  O2-  O164  1  0.68394259  0.42697750  0.90208013  1
  O2-  O165  1  0.67947288  0.92811212  0.24497048  1
  O2-  O166  1  0.68097890  0.93144093  0.56434565  1
  O2-  O167  1  0.68094916  0.92724506  0.90276503  1
  O2-  O168  1  0.42604144  0.31635070  0.09980551  1
  O2-  O169  1  0.42493861  0.32086400  0.42448553  1
  O2-  O170  1  0.42223302  0.31925958  0.75537299  1
  O2-  O171  1  0.42689404  0.81731241  0.09958209  1
  O2-  O172  1  0.42289564  0.81888266  0.42322009  1
  O2-  O173  1  0.43254474  0.82167627  0.76465289  1
  O2-  O174  1  0.93386569  0.32403109  0.09166245  1
  O2-  O175  1  0.93191323  0.32355818  0.42052043  1
  O2-  O176  1  0.93112235  0.31840789  0.76541758  1
  O2-  O177  1  0.93523714  0.82267279  0.09196276  1
  O2-  O178  1  0.93119792  0.82220355  0.42214742  1
  O2-  O179  1  0.92900704  0.82164984  0.76538253  1
  O2-  O180  1  0.32112447  0.07610987  0.24543617  1
  O2-  O181  1  0.32056052  0.06766043  0.56707298  1
  O2-  O182  1  0.31893211  0.07124706  0.90237699  1
  O2-  O183  1  0.31835264  0.56762457  0.24134344  1
  O2-  O184  1  0.32111389  0.57174661  0.56739435  1
  O2-  O185  1  0.31551777  0.57651974  0.91410406  1
  O2-  O186  1  0.82031043  0.07028864  0.23628758  1
  O2-  O187  1  0.81944100  0.07245661  0.57395451  1
  O2-  O188  1  0.82770727  0.06927342  0.89919591  1
  O2-  O189  1  0.82430080  0.56741928  0.23424496  1
  O2-  O190  1  0.81851208  0.57188934  0.56822718  1
  O2-  O191  1  0.82833146  0.56877137  0.91203230  1
  O2-  O192  1  0.04067373  0.08726867  0.27020929  1
  O2-  O193  1  0.04730958  0.08627694  0.59870794  1
  O2-  O194  1  0.04338447  0.08608089  0.93744468  1
  O2-  O195  1  0.04066662  0.58659646  0.26824565  1
  O2-  O196  1  0.04334453  0.58635768  0.60097524  1
  O2-  O197  1  0.03821698  0.58570425  0.93739735  1
  O2-  O198  1  0.54685457  0.08615174  0.26997014  1
  O2-  O199  1  0.53802181  0.08538101  0.59347868  1
  O2-  O200  1  0.54602737  0.08046443  0.93887924  1
  O2-  O201  1  0.53743390  0.58326619  0.26648078  1
  O2-  O202  1  0.55173931  0.58012279  0.60642709  1
  O2-  O203  1  0.54528628  0.58033447  0.93116661  1
  O2-  O204  1  0.16174937  0.20701317  0.26866097  1
  O2-  O205  1  0.16800067  0.20400093  0.60069780  1
  O2-  O206  1  0.16095678  0.20699020  0.93986552  1
  O2-  O207  1  0.16289216  0.70459553  0.26767220  1
  O2-  O208  1  0.16450220  0.70182314  0.60324915  1
  O2-  O209  1  0.16217456  0.69916189  0.93736203  1
  O2-  O210  1  0.66319965  0.20890396  0.26955365  1
  O2-  O211  1  0.66591765  0.21132198  0.59425058  1
  O2-  O212  1  0.67265267  0.21038819  0.93574190  1
  O2-  O213  1  0.66782442  0.70770299  0.26598259  1
  O2-  O214  1  0.66464022  0.70715829  0.60422487  1
  O2-  O215  1  0.67670118  0.70081834  0.93498752  1
  O2-  O216  1  0.08502364  0.46454197  0.07264996  1
  O2-  O217  1  0.08608161  0.45782519  0.39406750  1
  O2-  O218  1  0.08370908  0.46116490  0.73319540  1
  O2-  O219  1  0.08649868  0.95778371  0.06619312  1
  O2-  O220  1  0.08652581  0.96325751  0.40104764  1
  O2-  O221  1  0.07897560  0.96161032  0.73402724  1
  O2-  O222  1  0.57830502  0.45743746  0.06706501  1
  O2-  O223  1  0.58031973  0.45145524  0.39417388  1
  O2-  O224  1  0.57936521  0.44423328  0.73270702  1
  O2-  O225  1  0.58127179  0.95296486  0.07233830  1
  O2-  O226  1  0.58168634  0.95114463  0.39354810  1
  O2-  O227  1  0.58469977  0.96253695  0.73060116  1
  O2-  O228  1  0.20579504  0.33237605  0.07206691  1
  O2-  O229  1  0.20232786  0.33507759  0.39429519  1
  O2-  O230  1  0.20155832  0.32881039  0.73199012  1
  O2-  O231  1  0.19646037  0.82987880  0.05886683  1
  O2-  O232  1  0.20436128  0.82926754  0.39962890  1
  O2-  O233  1  0.19449238  0.82759939  0.73207253  1
  O2-  O234  1  0.71315707  0.33836003  0.07275120  1
  O2-  O235  1  0.70327737  0.33578570  0.39383277  1
  O2-  O236  1  0.71657192  0.32981584  0.73172001  1
  O2-  O237  1  0.71323198  0.83063163  0.07020552  1
  O2-  O238  1  0.70602223  0.83536068  0.39543193  1
  O2-  O239  1  0.71082888  0.83550791  0.73311343  1
  O2-  O240  1  0.45237773  0.41067395  0.27009863  1
  O2-  O241  1  0.44941466  0.41801741  0.60627033  1
  O2-  O242  1  0.44300779  0.42234874  0.93763138  1
  O2-  O243  1  0.44645316  0.91810540  0.27508664  1
  O2-  O244  1  0.46259057  0.91326335  0.59430929  1
  O2-  O245  1  0.45494180  0.92147016  0.93669882  1
  O2-  O246  1  0.95963778  0.41347390  0.26762313  1
  O2-  O247  1  0.96326265  0.41796856  0.59734417  1
  O2-  O248  1  0.96411448  0.41202913  0.93886503  1
  O2-  O249  1  0.96194595  0.91412117  0.27094753  1
  O2-  O250  1  0.95790209  0.91924715  0.59645548  1
  O2-  O251  1  0.96237356  0.91255944  0.93813354  1
  O2-  O252  1  0.33369567  0.29174899  0.27272430  1
  O2-  O253  1  0.33339055  0.29464551  0.60197635  1
  O2-  O254  1  0.32599703  0.28881929  0.93618959  1
  O2-  O255  1  0.33312884  0.79224421  0.27038388  1
  O2-  O256  1  0.32972422  0.79031231  0.60143832  1
  O2-  O257  1  0.32992013  0.79235371  0.93341932  1
  O2-  O258  1  0.83627245  0.29594278  0.27009399  1
  O2-  O259  1  0.83748808  0.29025594  0.59190678  1
  O2-  O260  1  0.83817063  0.29780373  0.94065405  1
  O2-  O261  1  0.83902229  0.79543316  0.26930079  1
  O2-  O262  1  0.83214100  0.79020490  0.59611645  1
  O2-  O263  1  0.84029414  0.79628065  0.93981901  1
  O2-  O264  1  0.41659054  0.04123152  0.07263218  1
  O2-  O265  1  0.41937012  0.05441564  0.39392835  1
  O2-  O266  1  0.42136946  0.04022598  0.73161497  1
  O2-  O267  1  0.41589907  0.55296022  0.06308174  1
  O2-  O268  1  0.41106503  0.53973074  0.39423242  1
  O2-  O269  1  0.42393792  0.55351260  0.73399798  1
  O2-  O270  1  0.91955509  0.03985624  0.06856407  1
  O2-  O271  1  0.91581534  0.04172296  0.40311379  1
  O2-  O272  1  0.91754227  0.05212090  0.72245667  1
  O2-  O273  1  0.91334962  0.53814079  0.06651439  1
  O2-  O274  1  0.91624495  0.53912979  0.40158206  1
  O2-  O275  1  0.91832103  0.54313502  0.73335031  1
  O2-  O276  1  0.28404344  0.16177979  0.07289887  1
  O2-  O277  1  0.29013790  0.16394371  0.39827694  1
  O2-  O278  1  0.29392199  0.16636216  0.73377109  1
  O2-  O279  1  0.28780268  0.66455308  0.06767965  1
  O2-  O280  1  0.29179191  0.66013077  0.39335715  1
  O2-  O281  1  0.28826345  0.66730207  0.73778200  1
  O2-  O282  1  0.79836065  0.17099274  0.06747543  1
  O2-  O283  1  0.79145079  0.17031785  0.40079596  1
  O2-  O284  1  0.79741118  0.16760384  0.72322872  1
  O2-  O285  1  0.80704006  0.66764622  0.06164627  1
  O2-  O286  1  0.79332092  0.67006644  0.39855029  1
  O2-  O287  1  0.79549628  0.67092199  0.73489296  1
