# generated using pymatgen
data_Ca2Al2SiO7
_symmetry_space_group_name_H-M   'P 1'
_cell_length_a   15.46683333
_cell_length_b   15.46855322
_cell_length_c   15.29010960
_cell_angle_alpha   89.99517094
_cell_angle_beta   90.00402229
_cell_angle_gamma   90.01328609
_symmetry_Int_Tables_number   1
_chemical_formula_structural   Ca2Al2SiO7
_chemical_formula_sum   'Ca48 Al48 Si24 O168'
_cell_volume   3658.15148392
_cell_formula_units_Z   24
loop_
 _symmetry_equiv_pos_site_id
 _symmetry_equiv_pos_as_xyz
  1  'x, y, z'
loop_
 _atom_type_symbol
 _atom_type_oxidation_number
  Ca2+  2.0
  Al0+  0.0
  Si0+  0.0
  O2-  -2.0
loop_
 _atom_site_type_symbol
 _atom_site_label
 _atom_site_symmetry_multiplicity
 _atom_site_fract_x
 _atom_site_fract_y
 _atom_site_fract_z
 _atom_site_occupancy
  Ca2+  Ca0  1  0.17066529  0.07962490  0.16955232  1
  Ca2+  Ca1  1  0.16131585  0.07544571  0.50387634  1
  Ca2+  Ca2  1  0.16905670  0.08449232  0.83898755  1
  Ca2+  Ca3  1  0.17286602  0.58420458  0.17705403  1
  Ca2+  Ca4  1  0.17413201  0.57752378  0.51224087  1
  Ca2+  Ca5  1  0.16892355  0.58938696  0.83427236  1
  Ca2+  Ca6  1  0.66921090  0.07273531  0.17460384  1
  Ca2+  Ca7  1  0.67298408  0.06942858  0.50946940  1
  Ca2+  Ca8  1  0.67063817  0.07691178  0.83023887  1
  Ca2+  Ca9  1  0.66794661  0.58602876  0.17822452  1
  Ca2+  Ca10  1  0.67552622  0.58501329  0.50316833  1
  Ca2+  Ca11  1  0.66887854  0.58535608  0.83093404  1
  Ca2+  Ca12  1  0.08468431  0.33209656  0.16184522  1
  Ca2+  Ca13  1  0.09602338  0.32924733  0.49965515  1
  Ca2+  Ca14  1  0.09200913  0.32021769  0.82455674  1
  Ca2+  Ca15  1  0.08036599  0.83033881  0.16647980  1
  Ca2+  Ca16  1  0.07208981  0.82796106  0.49827981  1
  Ca2+  Ca17  1  0.08012317  0.82084156  0.82335086  1
  Ca2+  Ca18  1  0.58320046  0.33555177  0.16495267  1
  Ca2+  Ca19  1  0.58183292  0.34582232  0.49849922  1
  Ca2+  Ca20  1  0.57753494  0.33366784  0.82040745  1
  Ca2+  Ca21  1  0.58248035  0.82126637  0.16261375  1
  Ca2+  Ca22  1  0.58115800  0.83325002  0.49395336  1
  Ca2+  Ca23  1  0.57400995  0.83228860  0.82853664  1
  Ca2+  Ca24  1  0.32479011  0.42601428  0.17724626  1
  Ca2+  Ca25  1  0.32961785  0.42874054  0.50503710  1
  Ca2+  Ca26  1  0.33239949  0.42121293  0.82601506  1
  Ca2+  Ca27  1  0.33076994  0.91785583  0.16812167  1
  Ca2+  Ca28  1  0.32677368  0.91146701  0.50545614  1
  Ca2+  Ca29  1  0.33770449  0.91870890  0.84007625  1
  Ca2+  Ca30  1  0.82585634  0.42793677  0.17764213  1
  Ca2+  Ca31  1  0.82413608  0.42849077  0.50684457  1
  Ca2+  Ca32  1  0.83222473  0.42075441  0.82948610  1
  Ca2+  Ca33  1  0.82875466  0.91357140  0.17748219  1
  Ca2+  Ca34  1  0.82655520  0.91124315  0.50864030  1
  Ca2+  Ca35  1  0.83386274  0.91292962  0.82678653  1
  Ca2+  Ca36  1  0.41519493  0.16728145  0.16115795  1
  Ca2+  Ca37  1  0.41784035  0.17600869  0.49973282  1
  Ca2+  Ca38  1  0.41319612  0.17294609  0.82464839  1
  Ca2+  Ca39  1  0.42676075  0.66692195  0.16237953  1
  Ca2+  Ca40  1  0.41988806  0.66333257  0.49745555  1
  Ca2+  Ca41  1  0.41794476  0.67638402  0.82506928  1
  Ca2+  Ca42  1  0.92481872  0.17128558  0.16055259  1
  Ca2+  Ca43  1  0.91718516  0.16452611  0.50135092  1
  Ca2+  Ca44  1  0.92683551  0.16384904  0.82254482  1
  Ca2+  Ca45  1  0.91634343  0.67212772  0.16523622  1
  Ca2+  Ca46  1  0.91026751  0.67072233  0.49694316  1
  Ca2+  Ca47  1  0.92726033  0.66664210  0.82360460  1
  Al0+  Al48  1  -0.00022956  0.00159824  -0.00196536  1
  Al0+  Al49  1  0.00178775  0.00063856  0.33019462  1
  Al0+  Al50  1  0.00086333  -0.00176417  0.66308865  1
  Al0+  Al51  1  -0.00289301  0.49996687  -0.00179283  1
  Al0+  Al52  1  0.00011132  0.49774945  0.33881739  1
  Al0+  Al53  1  0.00056802  0.49385724  0.67124865  1
  Al0+  Al54  1  0.50086987  0.00174191  0.00313446  1
  Al0+  Al55  1  0.50024853  0.00252878  0.33529472  1
  Al0+  Al56  1  0.49972404  0.00041578  0.66539264  1
  Al0+  Al57  1  0.49955041  0.49885656  -0.00314475  1
  Al0+  Al58  1  0.49759119  0.49991347  0.33225047  1
  Al0+  Al59  1  0.49742379  0.50069808  0.67007536  1
  Al0+  Al60  1  0.25056631  0.24944190  0.00193131  1
  Al0+  Al61  1  0.25233632  0.24990408  0.33274416  1
  Al0+  Al62  1  0.25247761  0.25002116  0.65878772  1
  Al0+  Al63  1  0.24955811  0.75097897  -0.00297374  1
  Al0+  Al64  1  0.24994440  0.75385938  0.34059668  1
  Al0+  Al65  1  0.25040259  0.75002829  0.66325486  1
  Al0+  Al66  1  0.74983373  0.24987465  0.00153702  1
  Al0+  Al67  1  0.75087581  0.24976144  0.33253674  1
  Al0+  Al68  1  0.75177968  0.24658540  0.67346716  1
  Al0+  Al69  1  0.74916155  0.74952250  -0.00323416  1
  Al0+  Al70  1  0.74843250  0.75159042  0.33175728  1
  Al0+  Al71  1  0.74872036  0.74924819  0.67507513  1
  Al0+  Al72  1  0.31890071  0.57317693  0.68464270  1
  Al0+  Al73  1  0.82063949  0.57314715  0.34661370  1
  Al0+  Al74  1  0.57209427  0.67655172  0.98281033  1
  Al0+  Al75  1  0.07094822  0.18110386  0.98697990  1
  Al0+  Al76  1  0.67788876  0.42718878  0.34595881  1
  Al0+  Al77  1  0.42949571  0.82348655  0.65132482  1
  Al0+  Al78  1  0.92851173  0.81764567  0.65227924  1
  Al0+  Al79  1  0.17998852  0.42580946  0.68274310  1
  Al0+  Al80  1  0.92940593  0.82026224  0.31992666  1
  Al0+  Al81  1  0.67599564  0.92734455  0.68402521  1
  Al0+  Al82  1  0.17803727  0.42772480  0.34711155  1
  Al0+  Al83  1  0.32045867  0.57350400  0.34690391  1
  Al0+  Al84  1  0.06997813  0.67865193  0.98944103  1
  Al0+  Al85  1  0.43023222  0.82193834  0.98700115  1
  Al0+  Al86  1  0.32091923  0.07149320  0.01295695  1
  Al0+  Al87  1  0.56796416  0.68046892  0.32185059  1
  Al0+  Al88  1  0.67829775  0.42913747  0.68224722  1
  Al0+  Al89  1  0.82350294  0.06822867  0.68189424  1
  Al0+  Al90  1  0.07132870  0.67402415  0.65085884  1
  Al0+  Al91  1  0.07156892  0.17927410  0.65056649  1
  Al0+  Al92  1  0.43154444  0.32170672  0.65086462  1
  Al0+  Al93  1  0.17831925  0.93107325  0.34761688  1
  Al0+  Al94  1  0.82266038  0.57162593  0.68413622  1
  Al0+  Al95  1  0.67928456  0.92976448  0.34544426  1
  Si0+  Si96  1  0.17652671  0.92732042  0.01589387  1
  Si0+  Si97  1  0.92696649  0.82333351  0.98399616  1
  Si0+  Si98  1  0.42930726  0.31960599  0.98521976  1
  Si0+  Si99  1  0.57228392  0.17791914  0.31724956  1
  Si0+  Si100  1  0.32078470  0.57248908  0.01482949  1
  Si0+  Si101  1  0.57378870  0.17808235  0.64977708  1
  Si0+  Si102  1  0.32003418  0.07042777  0.67926865  1
  Si0+  Si103  1  0.68043062  0.93028892  0.01639233  1
  Si0+  Si104  1  0.67763331  0.42788863  0.01512121  1
  Si0+  Si105  1  0.92725738  0.32163527  0.31788860  1
  Si0+  Si106  1  0.32269125  0.07274850  0.35158300  1
  Si0+  Si107  1  0.82248608  0.07221095  0.01675402  1
  Si0+  Si108  1  0.07197762  0.18035127  0.31631780  1
  Si0+  Si109  1  0.81994851  0.57058325  0.01606049  1
  Si0+  Si110  1  0.57271851  0.17937011  0.98543570  1
  Si0+  Si111  1  0.42572010  0.82624198  0.31669994  1
  Si0+  Si112  1  0.82332571  0.07228384  0.34745902  1
  Si0+  Si113  1  0.92530584  0.31964271  0.64862775  1
  Si0+  Si114  1  0.92648117  0.32138118  0.98268806  1
  Si0+  Si115  1  0.57045220  0.67882301  0.65038710  1
  Si0+  Si116  1  0.07308434  0.67712001  0.31984816  1
  Si0+  Si117  1  0.17917000  0.42943199  0.01354886  1
  Si0+  Si118  1  0.43010070  0.31958456  0.31538880  1
  Si0+  Si119  1  0.17954197  0.92938461  0.68202902  1
  O2-  O120  1  0.24667648  -0.00405429  0.05905153  1
  O2-  O121  1  0.25599938  0.00265069  0.39515394  1
  O2-  O122  1  0.25192120  -0.00119127  0.72432713  1
  O2-  O123  1  0.24644155  0.50383925  0.05637859  1
  O2-  O124  1  0.24252349  0.50683618  0.39493694  1
  O2-  O125  1  0.24354726  0.50407524  0.73509442  1
  O2-  O126  1  0.75465774  -0.00150466  0.05929099  1
  O2-  O127  1  0.75558046  0.00308598  0.39060842  1
  O2-  O128  1  0.75120620  -0.00282601  0.73329665  1
  O2-  O129  1  0.74544480  0.50197197  0.05719934  1
  O2-  O130  1  0.74881067  0.49991761  0.39439620  1
  O2-  O131  1  0.74984795  0.49970864  0.73478950  1
  O2-  O132  1  0.00222592  0.25364659  0.27555726  1
  O2-  O133  1  -0.00253620  0.25447281  0.60369948  1
  O2-  O134  1  -0.00396955  0.25390517  0.93862805  1
  O2-  O135  1  0.00289837  0.74369925  0.27340215  1
  O2-  O136  1  -0.00572963  0.74065092  0.60120422  1
  O2-  O137  1  -0.00240213  0.75558038  0.94304438  1
  O2-  O138  1  0.50288292  0.24997452  0.27290518  1
  O2-  O139  1  0.51168346  0.25203311  0.60445148  1
  O2-  O140  1  0.50240628  0.25055075  0.94318853  1
  O2-  O141  1  0.49245001  0.75491466  0.27410010  1
  O2-  O142  1  0.50532927  0.75033079  0.60541243  1
  O2-  O143  1  0.49869458  0.74807609  0.93509503  1
  O2-  O144  1  0.06985408  0.18369405  0.10055408  1
  O2-  O145  1  0.07213632  0.17898980  0.42095924  1
  O2-  O146  1  0.07289833  0.17910550  0.76406934  1
  O2-  O147  1  0.06887780  0.67805261  0.10299382  1
  O2-  O148  1  0.07261514  0.67943679  0.42449775  1
  O2-  O149  1  0.07221087  0.68075580  0.76505567  1
  O2-  O150  1  0.57352632  0.18095926  0.09090303  1
  O2-  O151  1  0.57085724  0.17533550  0.42154093  1
  O2-  O152  1  0.56885687  0.17698566  0.75594335  1
  O2-  O153  1  0.57234783  0.67705440  0.09693889  1
  O2-  O154  1  0.56876978  0.68122146  0.43429662  1
  O2-  O155  1  0.56689666  0.67925482  0.75625653  1
  O2-  O156  1  0.18096667  0.42578037  0.23222367  1
  O2-  O157  1  0.18724800  0.42393763  0.56963163  1
  O2-  O158  1  0.18207493  0.42621978  0.90935586  1
  O2-  O159  1  0.17788404  0.93402156  0.23390654  1
  O2-  O160  1  0.17950900  0.93232793  0.57686801  1
  O2-  O161  1  0.17547585  0.92866830  0.91056551  1
  O2-  O162  1  0.68062150  0.42656915  0.23144526  1
  O2-  O163  1  0.67989845  0.43102979  0.56891898  1
  O2-  O164  1  0.67882152  0.42353759  0.91087805  1
  O2-  O165  1  0.68044044  0.93194882  0.23149647  1
  O2-  O166  1  0.67458688  0.93052167  0.57040319  1
  O2-  O167  1  0.67915595  0.93355176  0.91198857  1
  O2-  O168  1  0.43009916  0.31920995  0.09064797  1
  O2-  O169  1  0.42925800  0.31702737  0.41984521  1
  O2-  O170  1  0.43048186  0.31668233  0.76476900  1
  O2-  O171  1  0.43152177  0.82164979  0.10084895  1
  O2-  O172  1  0.42866342  0.82962337  0.42182910  1
  O2-  O173  1  0.43020103  0.82529666  0.76464083  1
  O2-  O174  1  0.92646954  0.32034065  0.08881348  1
  O2-  O175  1  0.92147967  0.31768524  0.42191127  1
  O2-  O176  1  0.92393196  0.31544576  0.75455914  1
  O2-  O177  1  0.92539180  0.82303204  0.09001859  1
  O2-  O178  1  0.92898195  0.82252585  0.43189710  1
  O2-  O179  1  0.93461698  0.81979555  0.76632494  1
  O2-  O180  1  0.32141582  0.07447945  0.24553374  1
  O2-  O181  1  0.31896015  0.06970746  0.57415314  1
  O2-  O182  1  0.31984302  0.07397116  0.90006243  1
  O2-  O183  1  0.32062255  0.56990559  0.23190195  1
  O2-  O184  1  0.32105865  0.57112104  0.57136800  1
  O2-  O185  1  0.32145557  0.57167518  0.91043223  1
  O2-  O186  1  0.82151390  0.07276633  0.24098567  1
  O2-  O187  1  0.82134984  0.06833272  0.56807729  1
  O2-  O188  1  0.82183756  0.07471782  0.91258317  1
  O2-  O189  1  0.81975555  0.57160947  0.23192150  1
  O2-  O190  1  0.81937491  0.57219408  0.57072527  1
  O2-  O191  1  0.82232571  0.56810663  0.91176382  1
  O2-  O192  1  0.04198178  0.09047179  0.26617080  1
  O2-  O193  1  0.03980503  0.08325054  0.59655416  1
  O2-  O194  1  0.04300506  0.08354640  0.93387295  1
  O2-  O195  1  0.05220711  0.58100378  0.27579520  1
  O2-  O196  1  0.05256751  0.57062071  0.60591589  1
  O2-  O197  1  0.03845905  0.58276380  0.93467581  1
  O2-  O198  1  0.54182349  0.08756848  0.26671334  1
  O2-  O199  1  0.54102072  0.08784713  0.60165671  1
  O2-  O200  1  0.54501426  0.08789150  0.93912839  1
  O2-  O201  1  0.53768146  0.58361811  0.26541047  1
  O2-  O202  1  0.54131190  0.58621874  0.60559479  1
  O2-  O203  1  0.54646257  0.57684792  0.93196118  1
  O2-  O204  1  0.16491619  0.20699325  0.26940883  1
  O2-  O205  1  0.16718177  0.20923266  0.59447119  1
  O2-  O206  1  0.16789962  0.21214805  0.93404000  1
  O2-  O207  1  0.16647467  0.70725006  0.27393549  1
  O2-  O208  1  0.16753986  0.70845107  0.59837639  1
  O2-  O209  1  0.16645192  0.70695366  0.93479038  1
  O2-  O210  1  0.66466055  0.20344778  0.26840380  1
  O2-  O211  1  0.67036330  0.19569942  0.60819177  1
  O2-  O212  1  0.66487492  0.20607753  0.93835842  1
  O2-  O213  1  0.66302743  0.71313822  0.26470596  1
  O2-  O214  1  0.66635737  0.70085609  0.60933128  1
  O2-  O215  1  0.67004982  0.70611045  0.93057259  1
  O2-  O216  1  0.08435419  0.45198610  0.05834392  1
  O2-  O217  1  0.07681973  0.44112179  0.39796831  1
  O2-  O218  1  0.07779794  0.43730853  0.73283349  1
  O2-  O219  1  0.08314260  0.95514503  0.06242821  1
  O2-  O220  1  0.08360939  0.96742007  0.40116290  1
  O2-  O221  1  0.08919735  0.95926936  0.72967673  1
  O2-  O222  1  0.58363835  0.45115012  0.06120781  1
  O2-  O223  1  0.57801847  0.45173789  0.39432892  1
  O2-  O224  1  0.57986129  0.45653273  0.73531730  1
  O2-  O225  1  0.59079782  0.96231223  0.06555397  1
  O2-  O226  1  0.58357880  0.96268097  0.39895079  1
  O2-  O227  1  0.57952721  0.96379143  0.73735355  1
  O2-  O228  1  0.21104947  0.33965005  0.06331794  1
  O2-  O229  1  0.21408930  0.33119269  0.39829910  1
  O2-  O230  1  0.21940511  0.32900168  0.73427676  1
  O2-  O231  1  0.20217959  0.83421187  0.06335055  1
  O2-  O232  1  0.20438830  0.83561067  0.40440363  1
  O2-  O233  1  0.20692254  0.83763616  0.72832770  1
  O2-  O234  1  0.70703596  0.33646601  0.06426420  1
  O2-  O235  1  0.70492625  0.32814346  0.39751627  1
  O2-  O236  1  0.70415424  0.32917725  0.73449800  1
  O2-  O237  1  0.70653564  0.83660523  0.06138906  1
  O2-  O238  1  0.70821765  0.83431898  0.39921256  1
  O2-  O239  1  0.70075677  0.83012590  0.73967258  1
  O2-  O240  1  0.45548352  0.41101368  0.26586843  1
  O2-  O241  1  0.45883405  0.41948219  0.59835059  1
  O2-  O242  1  0.45437911  0.41132547  0.93735998  1
  O2-  O243  1  0.45286752  0.92018696  0.27063304  1
  O2-  O244  1  0.45734734  0.92080921  0.59686507  1
  O2-  O245  1  0.46063123  0.92113617  0.93591560  1
  O2-  O246  1  0.95268937  0.41409162  0.26936739  1
  O2-  O247  1  0.94576903  0.41484081  0.60547510  1
  O2-  O248  1  0.94943393  0.41528654  0.93764637  1
  O2-  O249  1  0.96182504  0.91683988  0.26385526  1
  O2-  O250  1  0.96142742  0.91412809  0.59844643  1
  O2-  O251  1  0.94967205  0.91795764  0.93940442  1
  O2-  O252  1  0.33968491  0.28791045  0.26577354  1
  O2-  O253  1  0.33996238  0.28322648  0.59356453  1
  O2-  O254  1  0.33889060  0.28818659  0.93846276  1
  O2-  O255  1  0.33016770  0.80433411  0.27282791  1
  O2-  O256  1  0.33311545  0.79325744  0.59798734  1
  O2-  O257  1  0.33024367  0.79923099  0.93536487  1
  O2-  O258  1  0.83782978  0.29031016  0.26553197  1
  O2-  O259  1  0.83308721  0.28873877  0.60232889  1
  O2-  O260  1  0.83295059  0.29403250  0.93785249  1
  O2-  O261  1  0.83341235  0.79040985  0.26332814  1
  O2-  O262  1  0.82585059  0.79588428  0.60565499  1
  O2-  O263  1  0.83425393  0.79718924  0.93776889  1
  O2-  O264  1  0.41813910  0.04432363  0.06925520  1
  O2-  O265  1  0.41728433  0.05205935  0.39654036  1
  O2-  O266  1  0.41253144  0.04653544  0.72685130  1
  O2-  O267  1  0.41216893  0.54004160  0.06133706  1
  O2-  O268  1  0.41544437  0.53718747  0.39981864  1
  O2-  O269  1  0.41500941  0.53956814  0.73884491  1
  O2-  O270  1  0.91571136  0.04796426  0.06402239  1
  O2-  O271  1  0.91778512  0.04961970  0.39072680  1
  O2-  O272  1  0.92183355  0.03815784  0.73503101  1
  O2-  O273  1  0.91056099  0.53987411  0.06529362  1
  O2-  O274  1  0.91884120  0.54653488  0.39868688  1
  O2-  O275  1  0.92016079  0.54007699  0.73792614  1
  O2-  O276  1  0.28839166  0.16671708  0.07061687  1
  O2-  O277  1  0.29519322  0.16559185  0.39690713  1
  O2-  O278  1  0.29038151  0.16169737  0.72580470  1
  O2-  O279  1  0.29547600  0.66506334  0.06189954  1
  O2-  O280  1  0.30332580  0.67398683  0.39793070  1
  O2-  O281  1  0.29213286  0.67293397  0.73642511  1
  O2-  O282  1  0.79197939  0.16325459  0.06579123  1
  O2-  O283  1  0.79722567  0.16514437  0.39322595  1
  O2-  O284  1  0.79652591  0.16527413  0.73861676  1
  O2-  O285  1  0.79451220  0.66429922  0.06142749  1
  O2-  O286  1  0.78946688  0.66993061  0.39872211  1
  O2-  O287  1  0.79491227  0.66839067  0.74045708  1
