# generated using pymatgen
data_Ca2Al2SiO7
_symmetry_space_group_name_H-M   'P 1'
_cell_length_a   15.46313031
_cell_length_b   15.46533411
_cell_length_c   15.28754123
_cell_angle_alpha   89.98923041
_cell_angle_beta   89.99533611
_cell_angle_gamma   90.02237378
_symmetry_Int_Tables_number   1
_chemical_formula_structural   Ca2Al2SiO7
_chemical_formula_sum   'Ca48 Al48 Si24 O168'
_cell_volume   3655.90011577
_cell_formula_units_Z   24
loop_
 _symmetry_equiv_pos_site_id
 _symmetry_equiv_pos_as_xyz
  1  'x, y, z'
loop_
 _atom_type_symbol
 _atom_type_oxidation_number
  Ca2+  2.0
  Al0+  0.0
  Si0+  0.0
  O2-  -2.0
loop_
 _atom_site_type_symbol
 _atom_site_label
 _atom_site_symmetry_multiplicity
 _atom_site_fract_x
 _atom_site_fract_y
 _atom_site_fract_z
 _atom_site_occupancy
  Ca2+  Ca0  1  0.17294205  0.08758185  0.17045232  1
  Ca2+  Ca1  1  0.17040703  0.09116545  0.50524072  1
  Ca2+  Ca2  1  0.17318786  0.08330726  0.84052976  1
  Ca2+  Ca3  1  0.16996873  0.58612519  0.16616309  1
  Ca2+  Ca4  1  0.17492144  0.58780693  0.50783486  1
  Ca2+  Ca5  1  0.17243554  0.58940759  0.84258806  1
  Ca2+  Ca6  1  0.67678776  0.07272405  0.16474288  1
  Ca2+  Ca7  1  0.66809041  0.07489866  0.49946365  1
  Ca2+  Ca8  1  0.67411550  0.07576498  0.84515300  1
  Ca2+  Ca9  1  0.67497679  0.57144106  0.17322586  1
  Ca2+  Ca10  1  0.67964227  0.58195244  0.50204394  1
  Ca2+  Ca11  1  0.67217588  0.58235488  0.83468689  1
  Ca2+  Ca12  1  0.07464951  0.33253492  0.16216304  1
  Ca2+  Ca13  1  0.08180449  0.32296977  0.49311260  1
  Ca2+  Ca14  1  0.08209696  0.33205165  0.83317442  1
  Ca2+  Ca15  1  0.07371632  0.82962275  0.15701696  1
  Ca2+  Ca16  1  0.07714639  0.82566592  0.49538512  1
  Ca2+  Ca17  1  0.08608144  0.82720714  0.83522452  1
  Ca2+  Ca18  1  0.58440181  0.33889649  0.15912584  1
  Ca2+  Ca19  1  0.58176608  0.33469807  0.49352280  1
  Ca2+  Ca20  1  0.58237011  0.33528066  0.83295543  1
  Ca2+  Ca21  1  0.58370300  0.83773410  0.16191824  1
  Ca2+  Ca22  1  0.58395449  0.82681389  0.49519522  1
  Ca2+  Ca23  1  0.58244056  0.82949289  0.82883646  1
  Ca2+  Ca24  1  0.32385661  0.42636608  0.16641302  1
  Ca2+  Ca25  1  0.33136598  0.42665654  0.50227339  1
  Ca2+  Ca26  1  0.32222008  0.42754760  0.84066539  1
  Ca2+  Ca27  1  0.32131270  0.92299473  0.16689321  1
  Ca2+  Ca28  1  0.33004624  0.92888605  0.50360073  1
  Ca2+  Ca29  1  0.32528343  0.92578151  0.84156495  1
  Ca2+  Ca30  1  0.82943057  0.41454799  0.17387387  1
  Ca2+  Ca31  1  0.83862823  0.42376540  0.49911907  1
  Ca2+  Ca32  1  0.83248968  0.42137242  0.84139620  1
  Ca2+  Ca33  1  0.82890850  0.90836216  0.17068037  1
  Ca2+  Ca34  1  0.82890778  0.90544558  0.49793829  1
  Ca2+  Ca35  1  0.83105300  0.92177975  0.84466065  1
  Ca2+  Ca36  1  0.41659164  0.16058097  0.16268023  1
  Ca2+  Ca37  1  0.41359110  0.16482444  0.49335654  1
  Ca2+  Ca38  1  0.41236243  0.16492036  0.82931105  1
  Ca2+  Ca39  1  0.41720903  0.65988538  0.16039032  1
  Ca2+  Ca40  1  0.42177799  0.65804213  0.49682161  1
  Ca2+  Ca41  1  0.42150762  0.66133957  0.82584689  1
  Ca2+  Ca42  1  0.91305607  0.17674477  0.16083032  1
  Ca2+  Ca43  1  0.93040690  0.17119525  0.48913842  1
  Ca2+  Ca44  1  0.91758878  0.17220477  0.83116187  1
  Ca2+  Ca45  1  0.91611761  0.67408694  0.16001754  1
  Ca2+  Ca46  1  0.91731857  0.66458199  0.49490077  1
  Ca2+  Ca47  1  0.92816495  0.66806425  0.83019925  1
  Al0+  Al48  1  0.00037226  0.00274500  0.00233346  1
  Al0+  Al49  1  0.00144673  -0.00294067  0.32541658  1
  Al0+  Al50  1  -0.00176885  0.00055243  0.66148669  1
  Al0+  Al51  1  0.00118476  0.50017539  -0.00509462  1
  Al0+  Al52  1  0.00188192  0.49764052  0.33329997  1
  Al0+  Al53  1  -0.00088720  0.50123096  0.66648132  1
  Al0+  Al54  1  0.50235078  -0.00004972  0.00374997  1
  Al0+  Al55  1  0.49935371  -0.00149560  0.34054024  1
  Al0+  Al56  1  0.49914639  0.00035887  0.66917849  1
  Al0+  Al57  1  0.50052600  0.49930453  0.00305282  1
  Al0+  Al58  1  0.50031582  0.49834726  0.33841173  1
  Al0+  Al59  1  0.49968824  0.49957634  0.66465253  1
  Al0+  Al60  1  0.25147972  0.25485650  0.00615257  1
  Al0+  Al61  1  0.25313868  0.25169246  0.33215401  1
  Al0+  Al62  1  0.25040923  0.25200582  0.66669237  1
  Al0+  Al63  1  0.25300820  0.75462297  0.00386645  1
  Al0+  Al64  1  0.25228101  0.75284480  0.33864268  1
  Al0+  Al65  1  0.24995897  0.75346767  0.66554592  1
  Al0+  Al66  1  0.74834984  0.24871933  0.00045001  1
  Al0+  Al67  1  0.74838235  0.24573453  0.33502443  1
  Al0+  Al68  1  0.74735371  0.24917761  0.66385053  1
  Al0+  Al69  1  0.74851100  0.74921205  -0.00221282  1
  Al0+  Al70  1  0.74822481  0.74658366  0.33657225  1
  Al0+  Al71  1  0.74740001  0.74740325  0.66786397  1
  Al0+  Al72  1  0.82273127  0.56908480  0.34683458  1
  Al0+  Al73  1  0.17707958  0.92962661  0.01505635  1
  Al0+  Al74  1  0.67900510  0.42487793  0.34918997  1
  Al0+  Al75  1  0.31947012  0.07243758  0.68098570  1
  Al0+  Al76  1  0.56941043  0.67859146  0.65122939  1
  Al0+  Al77  1  0.31972898  0.57238420  0.34834768  1
  Al0+  Al78  1  0.68059257  0.42971901  0.01088730  1
  Al0+  Al79  1  0.07011664  0.18036154  0.65497442  1
  Al0+  Al80  1  0.82163556  0.57058630  0.68287356  1
  Al0+  Al81  1  0.68138762  0.92616417  0.01372157  1
  Al0+  Al82  1  0.32123247  0.57309534  0.01320285  1
  Al0+  Al83  1  0.32051801  0.57251824  0.68044731  1
  Al0+  Al84  1  0.82295177  0.07203418  0.01332909  1
  Al0+  Al85  1  0.67996084  0.92836793  0.34846003  1
  Al0+  Al86  1  0.07235884  0.67932807  0.65270656  1
  Al0+  Al87  1  0.07273183  0.68116619  0.98625395  1
  Al0+  Al88  1  0.92761925  0.81613991  0.32009931  1
  Al0+  Al89  1  0.92810085  0.32000077  0.31834509  1
  Al0+  Al90  1  0.07443306  0.17863084  0.31601069  1
  Al0+  Al91  1  0.92630634  0.82365467  0.98421160  1
  Al0+  Al92  1  0.32110167  0.07291694  0.01479078  1
  Al0+  Al93  1  0.17551694  0.43051265  0.01540161  1
  Al0+  Al94  1  0.92688047  0.32013162  0.98516723  1
  Al0+  Al95  1  0.31808251  0.07052965  0.34794817  1
  Si0+  Si96  1  0.43239318  0.32175099  0.31628757  1
  Si0+  Si97  1  0.67797267  0.42640145  0.68329145  1
  Si0+  Si98  1  0.56877074  0.17872109  0.98458198  1
  Si0+  Si99  1  0.17570131  0.92785619  0.35254940  1
  Si0+  Si100  1  0.92483045  0.32229864  0.65004248  1
  Si0+  Si101  1  0.43154817  0.82349511  0.98549324  1
  Si0+  Si102  1  0.92665831  0.82120417  0.65058010  1
  Si0+  Si103  1  0.42869136  0.82466397  0.64897478  1
  Si0+  Si104  1  0.42927868  0.32284137  0.98421171  1
  Si0+  Si105  1  0.82067129  0.07174880  0.67915563  1
  Si0+  Si106  1  0.56909810  0.67640320  0.98518323  1
  Si0+  Si107  1  0.17805153  0.42910180  0.68220646  1
  Si0+  Si108  1  0.56837403  0.67793963  0.31724537  1
  Si0+  Si109  1  0.57087479  0.17674403  0.65057954  1
  Si0+  Si110  1  0.56960917  0.17499847  0.31801243  1
  Si0+  Si111  1  0.17489083  0.92966660  0.68248605  1
  Si0+  Si112  1  0.17912482  0.42829900  0.35124033  1
  Si0+  Si113  1  0.82413728  0.06997590  0.35050795  1
  Si0+  Si114  1  0.07620220  0.67764040  0.31859052  1
  Si0+  Si115  1  0.43022477  0.31970037  0.65132091  1
  Si0+  Si116  1  0.82286550  0.57166486  0.01415410  1
  Si0+  Si117  1  0.07529414  0.18049572  0.98409767  1
  Si0+  Si118  1  0.67940536  0.92911943  0.68134242  1
  Si0+  Si119  1  0.43020135  0.82223080  0.31828242  1
  O2-  O120  1  0.24466915  0.00638592  0.06470638  1
  O2-  O121  1  0.23900702  0.00202659  0.39662661  1
  O2-  O122  1  0.24310666  -0.00032953  0.72588134  1
  O2-  O123  1  0.24454717  0.50673229  0.06321544  1
  O2-  O124  1  0.24175504  0.50226879  0.39635781  1
  O2-  O125  1  0.24035655  0.50396106  0.72614735  1
  O2-  O126  1  0.76034315  -0.00907903  0.06262913  1
  O2-  O127  1  0.75812177  -0.00103421  0.39649104  1
  O2-  O128  1  0.75060429  0.00004373  0.72209749  1
  O2-  O129  1  0.75809936  0.49959775  0.05844937  1
  O2-  O130  1  0.75462219  0.49310794  0.39797912  1
  O2-  O131  1  0.74929058  0.49184753  0.72725859  1
  O2-  O132  1  -0.00148247  0.24704261  0.26727588  1
  O2-  O133  1  -0.00547863  0.25387251  0.60766844  1
  O2-  O134  1  0.00321762  0.24591298  0.93932660  1
  O2-  O135  1  0.00330389  0.74180641  0.27509418  1
  O2-  O136  1  -0.00446843  0.75235719  0.60696522  1
  O2-  O137  1  -0.00007776  0.75261443  0.93502125  1
  O2-  O138  1  0.50409691  0.25073927  0.27490297  1
  O2-  O139  1  0.49994689  0.24742483  0.60817730  1
  O2-  O140  1  0.49642049  0.24810891  0.94118583  1
  O2-  O141  1  0.49668626  0.74775601  0.27434379  1
  O2-  O142  1  0.49287319  0.75185487  0.60399960  1
  O2-  O143  1  0.49913711  0.74896259  0.94324685  1
  O2-  O144  1  0.07758070  0.18470444  0.08918985  1
  O2-  O145  1  0.07470740  0.18215020  0.43045056  1
  O2-  O146  1  0.06942237  0.18094765  0.76782087  1
  O2-  O147  1  0.07185701  0.68155590  0.10001429  1
  O2-  O148  1  0.07781678  0.68142475  0.42453279  1
  O2-  O149  1  0.07393156  0.68189866  0.76521005  1
  O2-  O150  1  0.56779886  0.17848619  0.08960501  1
  O2-  O151  1  0.56609432  0.17389511  0.42372879  1
  O2-  O152  1  0.57239259  0.17618723  0.75551792  1
  O2-  O153  1  0.56781673  0.67416665  0.09030665  1
  O2-  O154  1  0.56745914  0.67945275  0.42259319  1
  O2-  O155  1  0.56922034  0.68053429  0.76469002  1
  O2-  O156  1  0.18175470  0.42771692  0.24610417  1
  O2-  O157  1  0.18261563  0.42626952  0.57659494  1
  O2-  O158  1  0.18038270  0.42703093  0.90147434  1
  O2-  O159  1  0.18018149  0.92358446  0.24765563  1
  O2-  O160  1  0.17569983  0.93019247  0.57682164  1
  O2-  O161  1  0.18255480  0.92940187  0.90092013  1
  O2-  O162  1  0.67576302  0.42928805  0.23570083  1
  O2-  O163  1  0.67761917  0.42502242  0.57808330  1
  O2-  O164  1  0.67793846  0.43222458  0.89755925  1
  O2-  O165  1  0.67786272  0.93012704  0.23610138  1
  O2-  O166  1  0.67910124  0.92995300  0.57607838  1
  O2-  O167  1  0.67670190  0.93040474  0.89956737  1
  O2-  O168  1  0.43269104  0.32516207  0.08910067  1
  O2-  O169  1  0.43221809  0.32113537  0.42202401  1
  O2-  O170  1  0.43191863  0.31939954  0.75642092  1
  O2-  O171  1  0.43417947  0.82497314  0.09067400  1
  O2-  O172  1  0.43309943  0.82313424  0.42356824  1
  O2-  O173  1  0.43273669  0.82774088  0.75451611  1
  O2-  O174  1  0.92383661  0.31855417  0.09766653  1
  O2-  O175  1  0.93082590  0.31821553  0.43258536  1
  O2-  O176  1  0.92165558  0.31976751  0.75557642  1
  O2-  O177  1  0.92343768  0.81628137  0.09762453  1
  O2-  O178  1  0.92832193  0.81442717  0.43381887  1
  O2-  O179  1  0.92636965  0.82361143  0.75561051  1
  O2-  O180  1  0.32106555  0.06710353  0.23554878  1
  O2-  O181  1  0.32058685  0.07167221  0.56796800  1
  O2-  O182  1  0.32185922  0.07091045  0.90074875  1
  O2-  O183  1  0.32139870  0.57042930  0.23576358  1
  O2-  O184  1  0.32149965  0.56758317  0.56733732  1
  O2-  O185  1  0.32445309  0.56955269  0.89947961  1
  O2-  O186  1  0.81956905  0.07157904  0.24546182  1
  O2-  O187  1  0.81861092  0.07226661  0.57423133  1
  O2-  O188  1  0.81641052  0.07427785  0.89873876  1
  O2-  O189  1  0.81814998  0.57167379  0.23342596  1
  O2-  O190  1  0.82068844  0.57078448  0.56997170  1
  O2-  O191  1  0.81918664  0.57124466  0.90826241  1
  O2-  O192  1  0.05375622  0.07756153  0.26663916  1
  O2-  O193  1  0.04081981  0.08419844  0.59813006  1
  O2-  O194  1  0.05562644  0.08488842  0.94018807  1
  O2-  O195  1  0.05764770  0.58127899  0.27679887  1
  O2-  O196  1  0.04465851  0.58126568  0.59936601  1
  O2-  O197  1  0.04767334  0.58252859  0.93153335  1
  O2-  O198  1  0.53472680  0.08525961  0.27146307  1
  O2-  O199  1  0.54271503  0.08496533  0.60286561  1
  O2-  O200  1  0.54197183  0.08674525  0.93602142  1
  O2-  O201  1  0.53973216  0.58542483  0.27180477  1
  O2-  O202  1  0.53973442  0.58167388  0.59701751  1
  O2-  O203  1  0.53879938  0.58607148  0.93558802  1
  O2-  O204  1  0.17254249  0.21118809  0.26498056  1
  O2-  O205  1  0.16668378  0.21333790  0.60078248  1
  O2-  O206  1  0.16845849  0.21104612  0.93789980  1
  O2-  O207  1  0.16910592  0.70815217  0.27356828  1
  O2-  O208  1  0.16842241  0.71230824  0.59746581  1
  O2-  O209  1  0.17251706  0.71242469  0.93537171  1
  O2-  O210  1  0.66379703  0.19477390  0.27306989  1
  O2-  O211  1  0.66203162  0.20362584  0.60064157  1
  O2-  O212  1  0.65865177  0.20872281  0.93470741  1
  O2-  O213  1  0.65978657  0.70633905  0.27085977  1
  O2-  O214  1  0.66502372  0.71241677  0.59684029  1
  O2-  O215  1  0.66069445  0.70280847  0.93678303  1
  O2-  O216  1  0.07621806  0.45477862  0.06726890  1
  O2-  O217  1  0.08394185  0.44562402  0.39665939  1
  O2-  O218  1  0.08177534  0.44626679  0.72468465  1
  O2-  O219  1  0.07689638  0.94912609  0.06609571  1
  O2-  O220  1  0.07967708  0.94696401  0.39590480  1
  O2-  O221  1  0.08027440  0.95373055  0.72667437  1
  O2-  O222  1  0.58602935  0.46263584  0.06699144  1
  O2-  O223  1  0.58255206  0.45761959  0.40391685  1
  O2-  O224  1  0.58487715  0.45489346  0.72855511  1
  O2-  O225  1  0.58654668  0.96231020  0.06865777  1
  O2-  O226  1  0.58614563  0.96343679  0.40587468  1
  O2-  O227  1  0.58803562  0.95824934  0.72861809  1
  O2-  O228  1  0.21077433  0.33658721  0.07212771  1
  O2-  O229  1  0.21382336  0.33788690  0.39874836  1
  O2-  O230  1  0.21183131  0.33920044  0.73082085  1
  O2-  O231  1  0.21305871  0.83584504  0.07216028  1
  O2-  O232  1  0.20862247  0.83792716  0.40273921  1
  O2-  O233  1  0.20359358  0.83748549  0.72918422  1
  O2-  O234  1  0.70431043  0.33182485  0.06388778  1
  O2-  O235  1  0.69825250  0.32336885  0.40037059  1
  O2-  O236  1  0.69855797  0.33036159  0.72802029  1
  O2-  O237  1  0.70013704  0.82548249  0.06583261  1
  O2-  O238  1  0.70782325  0.83122000  0.40310980  1
  O2-  O239  1  0.70463455  0.83705908  0.72823940  1
  O2-  O240  1  0.46141196  0.41325173  0.26913038  1
  O2-  O241  1  0.45992029  0.40994987  0.60177555  1
  O2-  O242  1  0.46286655  0.41218423  0.93467718  1
  O2-  O243  1  0.46355929  0.91227587  0.27135788  1
  O2-  O244  1  0.46015773  0.91648042  0.60104815  1
  O2-  O245  1  0.46416938  0.91327627  0.93591318  1
  O2-  O246  1  0.95559718  0.41917550  0.26602341  1
  O2-  O247  1  0.94994868  0.41628880  0.60563615  1
  O2-  O248  1  0.95611539  0.41671453  0.92992797  1
  O2-  O249  1  0.95399072  0.91338306  0.26591377  1
  O2-  O250  1  0.95024843  0.91450716  0.60184306  1
  O2-  O251  1  0.95049520  0.92514276  0.93446474  1
  O2-  O252  1  0.34110418  0.29421087  0.26900157  1
  O2-  O253  1  0.33881044  0.29315662  0.60274738  1
  O2-  O254  1  0.33650824  0.29837134  0.93717853  1
  O2-  O255  1  0.33626526  0.79893755  0.27348919  1
  O2-  O256  1  0.33328678  0.80595845  0.60462335  1
  O2-  O257  1  0.33894128  0.80081209  0.93818077  1
  O2-  O258  1  0.82738392  0.29166263  0.26891342  1
  O2-  O259  1  0.83127910  0.29642707  0.60328235  1
  O2-  O260  1  0.83051902  0.28699012  0.93002893  1
  O2-  O261  1  0.83005762  0.78498547  0.26780889  1
  O2-  O262  1  0.83287609  0.79345790  0.60578812  1
  O2-  O263  1  0.82715108  0.79504419  0.93063709  1
  O2-  O264  1  0.41831396  0.04028435  0.06674593  1
  O2-  O265  1  0.41242407  0.03475955  0.40416452  1
  O2-  O266  1  0.41689277  0.04173908  0.73407248  1
  O2-  O267  1  0.41650974  0.53693020  0.06767710  1
  O2-  O268  1  0.41441215  0.53548299  0.40255399  1
  O2-  O269  1  0.41654078  0.53658704  0.73255037  1
  O2-  O270  1  0.92431806  0.06036039  0.06307775  1
  O2-  O271  1  0.91983523  0.04649711  0.39274203  1
  O2-  O272  1  0.91275535  0.04523946  0.72592110  1
  O2-  O273  1  0.91791260  0.55158689  0.05676511  1
  O2-  O274  1  0.92299930  0.54530025  0.39958213  1
  O2-  O275  1  0.91929164  0.54303924  0.73627720  1
  O2-  O276  1  0.30079352  0.17315292  0.06630881  1
  O2-  O277  1  0.29491579  0.17023949  0.40001084  1
  O2-  O278  1  0.29205213  0.17034088  0.73370782  1
  O2-  O279  1  0.30234925  0.67309607  0.06517038  1
  O2-  O280  1  0.29663086  0.67084709  0.40288810  1
  O2-  O281  1  0.29777484  0.67295595  0.72990669  1
  O2-  O282  1  0.78088324  0.16423796  0.06874036  1
  O2-  O283  1  0.79474706  0.16118555  0.39957321  1
  O2-  O284  1  0.79092499  0.16335618  0.72632657  1
  O2-  O285  1  0.79173093  0.66314760  0.06005450  1
  O2-  O286  1  0.78685698  0.66360685  0.40357544  1
  O2-  O287  1  0.78485531  0.66534660  0.73670036  1
