# generated using pymatgen
data_Ca2Al2SiO7
_symmetry_space_group_name_H-M   'P 1'
_cell_length_a   15.45726595
_cell_length_b   15.45718020
_cell_length_c   15.28271310
_cell_angle_alpha   90.00558071
_cell_angle_beta   90.00458508
_cell_angle_gamma   90.00474838
_symmetry_Int_Tables_number   1
_chemical_formula_structural   Ca2Al2SiO7
_chemical_formula_sum   'Ca48 Al48 Si24 O168'
_cell_volume   3651.43357624
_cell_formula_units_Z   24
loop_
 _symmetry_equiv_pos_site_id
 _symmetry_equiv_pos_as_xyz
  1  'x, y, z'
loop_
 _atom_type_symbol
 _atom_type_oxidation_number
  Ca2+  2.0
  Al0+  0.0
  Si0+  0.0
  O2-  -2.0
loop_
 _atom_site_type_symbol
 _atom_site_label
 _atom_site_symmetry_multiplicity
 _atom_site_fract_x
 _atom_site_fract_y
 _atom_site_fract_z
 _atom_site_occupancy
  Ca2+  Ca0  1  0.16166119  0.07566676  0.17242748  1
  Ca2+  Ca1  1  0.16748711  0.07761430  0.50699265  1
  Ca2+  Ca2  1  0.17099713  0.07290287  0.83209614  1
  Ca2+  Ca3  1  0.18157870  0.58692829  0.17178394  1
  Ca2+  Ca4  1  0.17562481  0.58674484  0.50239528  1
  Ca2+  Ca5  1  0.17604070  0.58342956  0.83924459  1
  Ca2+  Ca6  1  0.66786985  0.06850058  0.17083182  1
  Ca2+  Ca7  1  0.66983763  0.07211421  0.51223836  1
  Ca2+  Ca8  1  0.66454882  0.07491889  0.83108310  1
  Ca2+  Ca9  1  0.66713890  0.58225867  0.17157312  1
  Ca2+  Ca10  1  0.66633412  0.58385394  0.50332408  1
  Ca2+  Ca11  1  0.65597386  0.57437547  0.83501873  1
  Ca2+  Ca12  1  0.07741559  0.32769319  0.16115367  1
  Ca2+  Ca13  1  0.07787799  0.32497827  0.49493677  1
  Ca2+  Ca14  1  0.06837466  0.33450139  0.82532530  1
  Ca2+  Ca15  1  0.07827019  0.84149045  0.16587164  1
  Ca2+  Ca16  1  0.07154407  0.84779545  0.49743515  1
  Ca2+  Ca17  1  0.08253656  0.83834540  0.82707511  1
  Ca2+  Ca18  1  0.58581409  0.33375749  0.16063551  1
  Ca2+  Ca19  1  0.58521509  0.32848252  0.50712876  1
  Ca2+  Ca20  1  0.58377239  0.33006809  0.82044139  1
  Ca2+  Ca21  1  0.59032522  0.82200433  0.16199033  1
  Ca2+  Ca22  1  0.58797990  0.82781113  0.49483099  1
  Ca2+  Ca23  1  0.58525497  0.82458996  0.82332119  1
  Ca2+  Ca24  1  0.33779930  0.43064410  0.17121771  1
  Ca2+  Ca25  1  0.33910586  0.42107786  0.50384408  1
  Ca2+  Ca26  1  0.34054104  0.42303045  0.83714730  1
  Ca2+  Ca27  1  0.31909559  0.91295501  0.17241026  1
  Ca2+  Ca28  1  0.32179898  0.91744834  0.51194506  1
  Ca2+  Ca29  1  0.32986369  0.91474079  0.83268500  1
  Ca2+  Ca30  1  0.83042582  0.42135743  0.16854250  1
  Ca2+  Ca31  1  0.83137045  0.42425633  0.50904005  1
  Ca2+  Ca32  1  0.82245011  0.40936672  0.83633563  1
  Ca2+  Ca33  1  0.82249000  0.90763945  0.17262635  1
  Ca2+  Ca34  1  0.82719449  0.91590048  0.50784698  1
  Ca2+  Ca35  1  0.82350138  0.91624880  0.82957261  1
  Ca2+  Ca36  1  0.41847803  0.16908273  0.16407085  1
  Ca2+  Ca37  1  0.41697048  0.16521361  0.50382509  1
  Ca2+  Ca38  1  0.42289241  0.17184049  0.81904136  1
  Ca2+  Ca39  1  0.42523364  0.66145876  0.16213804  1
  Ca2+  Ca40  1  0.42761066  0.67155016  0.49894521  1
  Ca2+  Ca41  1  0.42533530  0.67118879  0.82684122  1
  Ca2+  Ca42  1  0.92201785  0.16988761  0.16300831  1
  Ca2+  Ca43  1  0.91583161  0.16728127  0.49886017  1
  Ca2+  Ca44  1  0.90901302  0.17473370  0.82563285  1
  Ca2+  Ca45  1  0.91244877  0.67011555  0.16918141  1
  Ca2+  Ca46  1  0.91158812  0.67908282  0.49446820  1
  Ca2+  Ca47  1  0.92126111  0.67477635  0.82537086  1
  Al0+  Al48  1  0.00067487  0.00153812  0.00193765  1
  Al0+  Al49  1  -0.00186185  0.00195083  0.32591413  1
  Al0+  Al50  1  -0.00035119  0.00103392  0.67264005  1
  Al0+  Al51  1  0.00000759  0.50030731  -0.00474120  1
  Al0+  Al52  1  -0.00005767  0.50126774  0.33581059  1
  Al0+  Al53  1  0.00144166  0.50057267  0.66235642  1
  Al0+  Al54  1  0.49947342  -0.00036994  0.00549366  1
  Al0+  Al55  1  0.49803142  -0.00042763  0.33410392  1
  Al0+  Al56  1  0.49806362  -0.00066941  0.66708342  1
  Al0+  Al57  1  0.50163505  0.49969611  0.00496649  1
  Al0+  Al58  1  0.49982712  0.50001441  0.33454652  1
  Al0+  Al59  1  0.50095007  0.50034265  0.66207107  1
  Al0+  Al60  1  0.24913649  0.24922542  -0.00122735  1
  Al0+  Al61  1  0.24963100  0.25054884  0.32546523  1
  Al0+  Al62  1  0.24883365  0.25102559  0.66759380  1
  Al0+  Al63  1  0.25026228  0.75081055  0.00874273  1
  Al0+  Al64  1  0.24922316  0.75028782  0.34408071  1
  Al0+  Al65  1  0.25183695  0.74785989  0.66823506  1
  Al0+  Al66  1  0.74986403  0.24959496  0.00285540  1
  Al0+  Al67  1  0.74814008  0.24978464  0.32994957  1
  Al0+  Al68  1  0.74937870  0.25171341  0.66301878  1
  Al0+  Al69  1  0.75096488  0.74825809  -0.00315400  1
  Al0+  Al70  1  0.74961668  0.74736703  0.33198329  1
  Al0+  Al71  1  0.75394577  0.74854398  0.66381305  1
  Al0+  Al72  1  0.32068578  0.56894848  0.01321463  1
  Al0+  Al73  1  0.32215913  0.57065664  0.35076280  1
  Al0+  Al74  1  0.92716878  0.32204564  0.65115642  1
  Al0+  Al75  1  0.57115076  0.67883323  0.98565386  1
  Al0+  Al76  1  0.93236545  0.82168373  0.65458322  1
  Al0+  Al77  1  0.67918145  0.92851210  0.34654754  1
  Al0+  Al78  1  0.82050305  0.07218893  0.68043357  1
  Al0+  Al79  1  0.56897276  0.67992052  0.31752706  1
  Al0+  Al80  1  0.32185859  0.07316733  0.68138077  1
  Al0+  Al81  1  0.92926586  0.32056533  0.98571335  1
  Al0+  Al82  1  0.57154381  0.17716249  0.65224810  1
  Al0+  Al83  1  0.93004667  0.81974094  0.31859342  1
  Al0+  Al84  1  0.67776381  0.92517235  0.68030429  1
  Al0+  Al85  1  0.68059214  0.42879706  0.01364341  1
  Al0+  Al86  1  0.82098226  0.56907930  0.34702569  1
  Al0+  Al87  1  0.42697402  0.32172786  0.65206906  1
  Al0+  Al88  1  0.07016487  0.18037517  0.31884461  1
  Al0+  Al89  1  0.57214835  0.67993597  0.65071340  1
  Al0+  Al90  1  0.17924470  0.93095564  0.01610697  1
  Al0+  Al91  1  0.68066080  0.43271560  0.67861808  1
  Al0+  Al92  1  0.67955171  0.92696606  0.01361426  1
  Al0+  Al93  1  0.17914258  0.92782647  0.68246770  1
  Al0+  Al94  1  0.17703893  0.93161375  0.34844156  1
  Al0+  Al95  1  0.42737279  0.82208173  0.65256948  1
  Si0+  Si96  1  0.07372054  0.68041873  0.98706103  1
  Si0+  Si97  1  0.92963106  0.82140982  0.98463210  1
  Si0+  Si98  1  0.42537830  0.82268141  0.31664160  1
  Si0+  Si99  1  0.07246770  0.17680586  0.97960013  1
  Si0+  Si100  1  0.42977928  0.32082112  0.98727016  1
  Si0+  Si101  1  0.17701633  0.42859967  0.68128909  1
  Si0+  Si102  1  0.07416500  0.67670723  0.31670795  1
  Si0+  Si103  1  0.82559967  0.57221377  0.68446117  1
  Si0+  Si104  1  0.82087793  0.07204163  0.01798384  1
  Si0+  Si105  1  0.42643916  0.82191389  0.98631386  1
  Si0+  Si106  1  0.32120911  0.56842506  0.68247207  1
  Si0+  Si107  1  0.82037588  0.07350507  0.34753716  1
  Si0+  Si108  1  0.17900262  0.42685591  0.34882418  1
  Si0+  Si109  1  0.43008857  0.32038984  0.31613676  1
  Si0+  Si110  1  0.32257386  0.07435135  0.01847445  1
  Si0+  Si111  1  0.17561315  0.42739376  0.01548832  1
  Si0+  Si112  1  0.07059046  0.17960793  0.65163203  1
  Si0+  Si113  1  0.82516606  0.57238068  0.01524030  1
  Si0+  Si114  1  0.92673717  0.32471473  0.31576480  1
  Si0+  Si115  1  0.56983864  0.17748344  0.98672898  1
  Si0+  Si116  1  0.57137078  0.17663335  0.31616646  1
  Si0+  Si117  1  0.07427214  0.67697864  0.64989462  1
  Si0+  Si118  1  0.67759994  0.42562904  0.35131313  1
  Si0+  Si119  1  0.32150648  0.07455121  0.34906362  1
  O2-  O120  1  0.25349214  0.00632857  0.06290058  1
  O2-  O121  1  0.25403872  0.00488533  0.39250365  1
  O2-  O122  1  0.25440917  -0.00301643  0.73189856  1
  O2-  O123  1  0.24583053  0.49369827  0.06065963  1
  O2-  O124  1  0.24523926  0.49645203  0.39529479  1
  O2-  O125  1  0.24995948  0.49719080  0.72446090  1
  O2-  O126  1  0.75561028  0.00007005  0.06194997  1
  O2-  O127  1  0.75137460  0.00593914  0.39144477  1
  O2-  O128  1  0.74717585  0.00074705  0.72976665  1
  O2-  O129  1  0.75579581  0.50365426  0.05851206  1
  O2-  O130  1  0.74941830  0.49152323  0.39343643  1
  O2-  O131  1  0.75567693  0.50530314  0.72885698  1
  O2-  O132  1  -0.00439176  0.25596715  0.27205675  1
  O2-  O133  1  0.00067692  0.24611522  0.60564242  1
  O2-  O134  1  0.00453735  0.24692065  0.93723848  1
  O2-  O135  1  0.00698519  0.74637076  0.27123669  1
  O2-  O136  1  0.00789562  0.74801224  0.60709202  1
  O2-  O137  1  0.00290526  0.75126297  0.94436742  1
  O2-  O138  1  0.50128449  0.24929758  0.27377970  1
  O2-  O139  1  0.49581253  0.24652033  0.60241918  1
  O2-  O140  1  0.49709486  0.24708408  0.94536769  1
  O2-  O141  1  0.49437346  0.75530613  0.27029856  1
  O2-  O142  1  0.50587750  0.75785798  0.60150788  1
  O2-  O143  1  0.49874302  0.75719877  0.94206319  1
  O2-  O144  1  0.07191793  0.17791307  0.08557458  1
  O2-  O145  1  0.07039631  0.18235850  0.43169158  1
  O2-  O146  1  0.07104410  0.18345636  0.75725792  1
  O2-  O147  1  0.07402032  0.67922492  0.09193842  1
  O2-  O148  1  0.07284316  0.67412744  0.42185646  1
  O2-  O149  1  0.07331545  0.67382670  0.75621107  1
  O2-  O150  1  0.56806813  0.17870423  0.09249316  1
  O2-  O151  1  0.57261252  0.17635955  0.42036295  1
  O2-  O152  1  0.57224743  0.18145130  0.76663002  1
  O2-  O153  1  0.57026021  0.67807770  0.09900463  1
  O2-  O154  1  0.56882765  0.67927539  0.42993556  1
  O2-  O155  1  0.56726907  0.67636897  0.76471650  1
  O2-  O156  1  0.18128242  0.42752495  0.24286390  1
  O2-  O157  1  0.17583105  0.43050116  0.57620401  1
  O2-  O158  1  0.17521685  0.42989801  0.90987983  1
  O2-  O159  1  0.17829742  0.93293154  0.23481487  1
  O2-  O160  1  0.17650918  0.93205332  0.56908171  1
  O2-  O161  1  0.17962256  0.92996484  0.90369531  1
  O2-  O162  1  0.67792146  0.42475308  0.24514842  1
  O2-  O163  1  0.68188912  0.43381421  0.56556985  1
  O2-  O164  1  0.67845715  0.42756917  0.90104106  1
  O2-  O165  1  0.68105405  0.92928180  0.23272385  1
  O2-  O166  1  0.68241743  0.92489483  0.56669910  1
  O2-  O167  1  0.67976144  0.92764353  0.90123251  1
  O2-  O168  1  0.43099189  0.32021868  0.09282846  1
  O2-  O169  1  0.42779888  0.31980147  0.42054518  1
  O2-  O170  1  0.42961745  0.32402883  0.76634261  1
  O2-  O171  1  0.42440241  0.81967929  0.09207995  1
  O2-  O172  1  0.42659805  0.82220381  0.42167465  1
  O2-  O173  1  0.42318015  0.81456884  0.76660986  1
  O2-  O174  1  0.93190526  0.31955663  0.09920304  1
  O2-  O175  1  0.92700641  0.32430188  0.42100912  1
  O2-  O176  1  0.92922736  0.32262809  0.76451608  1
  O2-  O177  1  0.92886895  0.81933538  0.08990122  1
  O2-  O178  1  0.93106588  0.82074247  0.43124984  1
  O2-  O179  1  0.93340246  0.81878688  0.76844717  1
  O2-  O180  1  0.32144136  0.07497300  0.24292058  1
  O2-  O181  1  0.31480650  0.07684792  0.56771148  1
  O2-  O182  1  0.32325394  0.07661342  0.91369870  1
  O2-  O183  1  0.32245790  0.56790929  0.23716919  1
  O2-  O184  1  0.31949581  0.56764847  0.57746791  1
  O2-  O185  1  0.31924067  0.56739067  0.90010359  1
  O2-  O186  1  0.81783852  0.07513757  0.24150679  1
  O2-  O187  1  0.82177087  0.07023167  0.56647947  1
  O2-  O188  1  0.81940753  0.07417352  0.91291849  1
  O2-  O189  1  0.81996699  0.56732949  0.23328877  1
  O2-  O190  1  0.82713820  0.57030591  0.57881728  1
  O2-  O191  1  0.82879889  0.57309327  0.91016093  1
  O2-  O192  1  0.03667363  0.08716778  0.25959011  1
  O2-  O193  1  0.04583713  0.08548680  0.60751960  1
  O2-  O194  1  0.04577723  0.08319748  0.93475060  1
  O2-  O195  1  0.04840885  0.58298029  0.26941568  1
  O2-  O196  1  0.04860443  0.58478573  0.60114921  1
  O2-  O197  1  0.04774096  0.58882570  0.93746814  1
  O2-  O198  1  0.54091679  0.08588061  0.26681374  1
  O2-  O199  1  0.54653010  0.07828492  0.59964698  1
  O2-  O200  1  0.54322171  0.08492417  0.94062617  1
  O2-  O201  1  0.53743182  0.58180976  0.26509274  1
  O2-  O202  1  0.53698259  0.58474823  0.59596151  1
  O2-  O203  1  0.53623479  0.58189069  0.93445304  1
  O2-  O204  1  0.16576568  0.21066018  0.26033996  1
  O2-  O205  1  0.16250337  0.20805555  0.60412607  1
  O2-  O206  1  0.16740848  0.20055761  0.93533843  1
  O2-  O207  1  0.16932190  0.70246727  0.27357581  1
  O2-  O208  1  0.16885445  0.69878609  0.60558407  1
  O2-  O209  1  0.16547315  0.70911343  0.93973068  1
  O2-  O210  1  0.66277358  0.20412378  0.26629885  1
  O2-  O211  1  0.66638284  0.21119743  0.59583194  1
  O2-  O212  1  0.66167911  0.20638200  0.94188338  1
  O2-  O213  1  0.66564010  0.70976323  0.26293412  1
  O2-  O214  1  0.67338388  0.70013107  0.60096295  1
  O2-  O215  1  0.66910744  0.70463412  0.93207435  1
  O2-  O216  1  0.08272507  0.45467179  0.06203985  1
  O2-  O217  1  0.08430001  0.44881060  0.39374101  1
  O2-  O218  1  0.08662174  0.46021785  0.73030923  1
  O2-  O219  1  0.08226220  0.96258349  0.07015671  1
  O2-  O220  1  0.07963753  0.96650945  0.39746394  1
  O2-  O221  1  0.08349035  0.96041722  0.73836027  1
  O2-  O222  1  0.58534868  0.45892271  0.07081476  1
  O2-  O223  1  0.58483888  0.45354090  0.39598694  1
  O2-  O224  1  0.58312978  0.46300159  0.73227654  1
  O2-  O225  1  0.58322602  0.95773070  0.06932001  1
  O2-  O226  1  0.58065072  0.95680726  0.39713549  1
  O2-  O227  1  0.57790601  0.94864854  0.73160782  1
  O2-  O228  1  0.19882190  0.33220044  0.05981808  1
  O2-  O229  1  0.20748455  0.33349113  0.39333883  1
  O2-  O230  1  0.20030163  0.33689680  0.72998486  1
  O2-  O231  1  0.20867871  0.83502606  0.07259360  1
  O2-  O232  1  0.20199452  0.83440569  0.40291000  1
  O2-  O233  1  0.20478367  0.82731426  0.73390382  1
  O2-  O234  1  0.71097229  0.33277415  0.07046604  1
  O2-  O235  1  0.69979862  0.33005780  0.39472573  1
  O2-  O236  1  0.71027997  0.33558403  0.73159218  1
  O2-  O237  1  0.71306626  0.83007790  0.06646440  1
  O2-  O238  1  0.71238574  0.83255936  0.39771681  1
  O2-  O239  1  0.71285808  0.82837358  0.73378508  1
  O2-  O240  1  0.45998869  0.41165752  0.26854812  1
  O2-  O241  1  0.45983096  0.41710072  0.59634818  1
  O2-  O242  1  0.46000320  0.41174676  0.94078920  1
  O2-  O243  1  0.44680441  0.91785673  0.27063754  1
  O2-  O244  1  0.44164436  0.92400285  0.60320975  1
  O2-  O245  1  0.44723870  0.91825206  0.94401233  1
  O2-  O246  1  0.95369233  0.41811026  0.26952945  1
  O2-  O247  1  0.96189294  0.41749167  0.59695620  1
  O2-  O248  1  0.95850007  0.41735092  0.93057876  1
  O2-  O249  1  0.95762417  0.91605690  0.26163852  1
  O2-  O250  1  0.96178925  0.91929410  0.60196392  1
  O2-  O251  1  0.95696608  0.91451162  0.94045627  1
  O2-  O252  1  0.33922142  0.29409039  0.26502341  1
  O2-  O253  1  0.32677532  0.29835426  0.59983626  1
  O2-  O254  1  0.33538182  0.29906901  0.94159889  1
  O2-  O255  1  0.33047489  0.79455301  0.27368282  1
  O2-  O256  1  0.33132631  0.78604573  0.59820163  1
  O2-  O257  1  0.33363868  0.79202824  0.94083561  1
  O2-  O258  1  0.83279883  0.29866906  0.26942657  1
  O2-  O259  1  0.83205534  0.29400070  0.59499539  1
  O2-  O260  1  0.83189332  0.28781726  0.93422135  1
  O2-  O261  1  0.83567966  0.78303655  0.26321689  1
  O2-  O262  1  0.83788941  0.78924557  0.59817481  1
  O2-  O263  1  0.83975738  0.79137364  0.93551191  1
  O2-  O264  1  0.41564860  0.04993983  0.06684391  1
  O2-  O265  1  0.41587000  0.05203740  0.39399027  1
  O2-  O266  1  0.42123890  0.05082630  0.73462071  1
  O2-  O267  1  0.41475821  0.53493675  0.07004122  1
  O2-  O268  1  0.41694844  0.53479259  0.40402873  1
  O2-  O269  1  0.41229610  0.53852491  0.72919927  1
  O2-  O270  1  0.91616645  0.04982925  0.06241688  1
  O2-  O271  1  0.91460202  0.04853601  0.39049920  1
  O2-  O272  1  0.91742158  0.04537806  0.73715514  1
  O2-  O273  1  0.91865417  0.54614890  0.06250220  1
  O2-  O274  1  0.91892017  0.54375107  0.40168550  1
  O2-  O275  1  0.91997858  0.54605552  0.72944578  1
  O2-  O276  1  0.29696455  0.16883768  0.06506194  1
  O2-  O277  1  0.29498568  0.16910722  0.39187672  1
  O2-  O278  1  0.29044245  0.17111652  0.73616676  1
  O2-  O279  1  0.28916985  0.66356658  0.07035723  1
  O2-  O280  1  0.29182206  0.66557845  0.40696402  1
  O2-  O281  1  0.29235911  0.65866168  0.73188813  1
  O2-  O282  1  0.79235792  0.16352425  0.06722165  1
  O2-  O283  1  0.79657749  0.16828814  0.39245843  1
  O2-  O284  1  0.79187181  0.17115964  0.73188533  1
  O2-  O285  1  0.79863993  0.66540018  0.06179923  1
  O2-  O286  1  0.78751945  0.66415123  0.40085516  1
  O2-  O287  1  0.80310382  0.66632271  0.72970778  1
