# generated using pymatgen
data_Ca2Al2SiO7
_symmetry_space_group_name_H-M   'P 1'
_cell_length_a   15.46704821
_cell_length_b   15.46909996
_cell_length_c   15.29058997
_cell_angle_alpha   89.99890269
_cell_angle_beta   89.99327818
_cell_angle_gamma   89.99720797
_symmetry_Int_Tables_number   1
_chemical_formula_structural   Ca2Al2SiO7
_chemical_formula_sum   'Ca48 Al48 Si24 O168'
_cell_volume   3658.44662909
_cell_formula_units_Z   24
loop_
 _symmetry_equiv_pos_site_id
 _symmetry_equiv_pos_as_xyz
  1  'x, y, z'
loop_
 _atom_type_symbol
 _atom_type_oxidation_number
  Ca2+  2.0
  Al0+  0.0
  Si0+  0.0
  O2-  -2.0
loop_
 _atom_site_type_symbol
 _atom_site_label
 _atom_site_symmetry_multiplicity
 _atom_site_fract_x
 _atom_site_fract_y
 _atom_site_fract_z
 _atom_site_occupancy
  Ca2+  Ca0  1  0.17540688  0.08073332  0.17233326  1
  Ca2+  Ca1  1  0.17832656  0.08786467  0.50891353  1
  Ca2+  Ca2  1  0.17159134  0.08862786  0.83137461  1
  Ca2+  Ca3  1  0.16493019  0.57108930  0.16874084  1
  Ca2+  Ca4  1  0.17077318  0.56951790  0.50786267  1
  Ca2+  Ca5  1  0.17491828  0.57221856  0.83264103  1
  Ca2+  Ca6  1  0.66383997  0.08227072  0.17211436  1
  Ca2+  Ca7  1  0.66783366  0.09005189  0.50921101  1
  Ca2+  Ca8  1  0.66872438  0.08862672  0.83109842  1
  Ca2+  Ca9  1  0.67220649  0.58093625  0.16439937  1
  Ca2+  Ca10  1  0.67618301  0.57882903  0.51101677  1
  Ca2+  Ca11  1  0.66480660  0.57764971  0.83714880  1
  Ca2+  Ca12  1  0.07475878  0.34393578  0.16352586  1
  Ca2+  Ca13  1  0.08316529  0.33539734  0.49789972  1
  Ca2+  Ca14  1  0.07906967  0.33912417  0.82935545  1
  Ca2+  Ca15  1  0.07586314  0.82738528  0.15776817  1
  Ca2+  Ca16  1  0.08192149  0.82993975  0.49989161  1
  Ca2+  Ca17  1  0.07659727  0.83170262  0.83017421  1
  Ca2+  Ca18  1  0.58093734  0.32810933  0.15863043  1
  Ca2+  Ca19  1  0.58300838  0.32811626  0.50198494  1
  Ca2+  Ca20  1  0.57609291  0.33880199  0.82426754  1
  Ca2+  Ca21  1  0.57942100  0.82456027  0.15611775  1
  Ca2+  Ca22  1  0.57995664  0.82763363  0.50525881  1
  Ca2+  Ca23  1  0.57743689  0.81844356  0.82990874  1
  Ca2+  Ca24  1  0.32237603  0.40709720  0.16655023  1
  Ca2+  Ca25  1  0.32335085  0.41404815  0.51130452  1
  Ca2+  Ca26  1  0.32652679  0.40566944  0.83711259  1
  Ca2+  Ca27  1  0.33928715  0.92180970  0.17205392  1
  Ca2+  Ca28  1  0.33949933  0.92710404  0.50789217  1
  Ca2+  Ca29  1  0.34879548  0.92206208  0.83283002  1
  Ca2+  Ca30  1  0.83352432  0.42257574  0.16872176  1
  Ca2+  Ca31  1  0.82992330  0.42239883  0.50755511  1
  Ca2+  Ca32  1  0.81880049  0.42261695  0.83995823  1
  Ca2+  Ca33  1  0.83308188  0.91598072  0.16751342  1
  Ca2+  Ca34  1  0.82856783  0.92717978  0.51056836  1
  Ca2+  Ca35  1  0.83685911  0.92369893  0.83652410  1
  Ca2+  Ca36  1  0.41971028  0.16871062  0.16507211  1
  Ca2+  Ca37  1  0.42199019  0.16669081  0.50056804  1
  Ca2+  Ca38  1  0.42123596  0.17784829  0.82339885  1
  Ca2+  Ca39  1  0.42354484  0.67346595  0.15196776  1
  Ca2+  Ca40  1  0.41817408  0.66181857  0.50427283  1
  Ca2+  Ca41  1  0.42232962  0.67055934  0.82063037  1
  Ca2+  Ca42  1  0.91756241  0.18524888  0.16119894  1
  Ca2+  Ca43  1  0.92159969  0.17327281  0.49835889  1
  Ca2+  Ca44  1  0.92200266  0.17380201  0.82524495  1
  Ca2+  Ca45  1  0.91109521  0.66625535  0.15856596  1
  Ca2+  Ca46  1  0.91436902  0.65808724  0.49620342  1
  Ca2+  Ca47  1  0.90672087  0.66688600  0.83141830  1
  Al0+  Al48  1  0.00203529  -0.00111867  -0.00009622  1
  Al0+  Al49  1  0.00006064  -0.00050060  0.33231520  1
  Al0+  Al50  1  0.00008161  0.00153599  0.66538987  1
  Al0+  Al51  1  0.00130372  0.50054072  0.00120948  1
  Al0+  Al52  1  0.00083536  0.50091371  0.33666518  1
  Al0+  Al53  1  0.00019379  0.50258541  0.67373231  1
  Al0+  Al54  1  0.50287008  -0.00011699  -0.00070185  1
  Al0+  Al55  1  0.50099477  -0.00076283  0.33365234  1
  Al0+  Al56  1  0.50071390  -0.00110351  0.66594718  1
  Al0+  Al57  1  0.49987669  0.49750226  -0.00067928  1
  Al0+  Al58  1  0.50009210  0.49956013  0.33072632  1
  Al0+  Al59  1  0.49970323  0.50145271  0.66005944  1
  Al0+  Al60  1  0.25151633  0.24694593  0.00410473  1
  Al0+  Al61  1  0.25037492  0.24771764  0.34096936  1
  Al0+  Al62  1  0.24825840  0.24663874  0.66822763  1
  Al0+  Al63  1  0.24822339  0.75320968  -0.00313821  1
  Al0+  Al64  1  0.24833884  0.75014417  0.33108030  1
  Al0+  Al65  1  0.24562862  0.74985691  0.66443754  1
  Al0+  Al66  1  0.75301583  0.25025818  0.00055396  1
  Al0+  Al67  1  0.75013919  0.24962021  0.32397507  1
  Al0+  Al68  1  0.75150958  0.25164098  0.67181059  1
  Al0+  Al69  1  0.74956954  0.75292811  -0.00453603  1
  Al0+  Al70  1  0.74879323  0.75055021  0.33715336  1
  Al0+  Al71  1  0.74857776  0.75368306  0.66445463  1
  Al0+  Al72  1  0.06981758  0.17872009  0.65296097  1
  Al0+  Al73  1  0.81856811  0.57215489  0.01468130  1
  Al0+  Al74  1  0.93007997  0.32333771  0.98442271  1
  Al0+  Al75  1  0.42866271  0.31770305  0.98847215  1
  Al0+  Al76  1  0.92949348  0.82075124  0.98609902  1
  Al0+  Al77  1  0.81807359  0.57017092  0.34658960  1
  Al0+  Al78  1  0.18057780  0.43032407  0.34738259  1
  Al0+  Al79  1  0.67814359  0.42890063  0.67955613  1
  Al0+  Al80  1  0.56983005  0.67767773  0.98565741  1
  Al0+  Al81  1  0.32133247  0.06760341  0.34842944  1
  Al0+  Al82  1  0.57212615  0.67746798  0.64864110  1
  Al0+  Al83  1  0.42721749  0.82284566  0.98565324  1
  Al0+  Al84  1  0.67601735  0.42619563  0.01720148  1
  Al0+  Al85  1  0.82208529  0.07178985  0.67989740  1
  Al0+  Al86  1  0.82098209  0.57374600  0.68203231  1
  Al0+  Al87  1  0.56990598  0.17904642  0.31882504  1
  Al0+  Al88  1  0.32070769  0.57212759  0.67931731  1
  Al0+  Al89  1  0.18054998  0.42636368  0.68328600  1
  Al0+  Al90  1  0.32210757  0.06825829  0.68243779  1
  Al0+  Al91  1  0.42705476  0.32207082  0.65101659  1
  Al0+  Al92  1  0.18108169  0.42837647  0.01508766  1
  Al0+  Al93  1  0.57276081  0.18056960  0.65375972  1
  Al0+  Al94  1  0.42636853  0.81981649  0.64980034  1
  Al0+  Al95  1  0.93152360  0.32177729  0.32071612  1
  Si0+  Si96  1  0.67646138  0.42495716  0.34860881  1
  Si0+  Si97  1  0.17587545  0.92609920  0.35018390  1
  Si0+  Si98  1  0.17651557  0.92770765  0.68387294  1
  Si0+  Si99  1  0.93000894  0.32414232  0.65156361  1
  Si0+  Si100  1  0.57263445  0.67852803  0.31753247  1
  Si0+  Si101  1  0.92870099  0.82284883  0.65029379  1
  Si0+  Si102  1  0.92744867  0.82176732  0.31938148  1
  Si0+  Si103  1  0.42986902  0.81949427  0.31907156  1
  Si0+  Si104  1  0.68123054  0.93245920  0.01549382  1
  Si0+  Si105  1  0.32205808  0.06755222  0.01593049  1
  Si0+  Si106  1  0.82523712  0.07105919  0.01722054  1
  Si0+  Si107  1  0.07183641  0.17776515  0.98545795  1
  Si0+  Si108  1  0.82124456  0.07226931  0.34615969  1
  Si0+  Si109  1  0.07275988  0.67733558  0.98148382  1
  Si0+  Si110  1  0.17642757  0.92803127  0.01613063  1
  Si0+  Si111  1  0.06989658  0.68000120  0.31796555  1
  Si0+  Si112  1  0.57400003  0.17736785  0.98405174  1
  Si0+  Si113  1  0.68024560  0.92945355  0.34884125  1
  Si0+  Si114  1  0.67810533  0.92926715  0.68568405  1
  Si0+  Si115  1  0.06817666  0.67872615  0.65031400  1
  Si0+  Si116  1  0.32329872  0.57513013  0.34694801  1
  Si0+  Si117  1  0.42571014  0.32210636  0.31674293  1
  Si0+  Si118  1  0.32178410  0.57471550  0.01472702  1
  Si0+  Si119  1  0.07390933  0.17646739  0.31655106  1
  O2-  O120  1  0.25281519  -0.00623738  0.05765077  1
  O2-  O121  1  0.24405339  -0.00558671  0.39393479  1
  O2-  O122  1  0.24930604  -0.00899192  0.72912846  1
  O2-  O123  1  0.25551547  0.50450467  0.06140643  1
  O2-  O124  1  0.25964923  0.50179820  0.39038368  1
  O2-  O125  1  0.25872019  0.49286146  0.73178559  1
  O2-  O126  1  0.75117426  0.00341606  0.06038532  1
  O2-  O127  1  0.75047783  0.00188605  0.38958912  1
  O2-  O128  1  0.74570408  -0.00009265  0.72849233  1
  O2-  O129  1  0.74926048  0.49836173  0.06646476  1
  O2-  O130  1  0.74369192  0.49535884  0.39200192  1
  O2-  O131  1  0.74659956  0.50426338  0.72986223  1
  O2-  O132  1  0.00682233  0.24651544  0.27280305  1
  O2-  O133  1  -0.00122690  0.25630249  0.60569329  1
  O2-  O134  1  0.00574168  0.24800017  0.94086875  1
  O2-  O135  1  -0.00166219  0.75126826  0.27649078  1
  O2-  O136  1  -0.00591511  0.74725951  0.60739218  1
  O2-  O137  1  0.00054428  0.74356752  0.93867769  1
  O2-  O138  1  0.49704312  0.25559311  0.27264266  1
  O2-  O139  1  0.50090654  0.25100480  0.60147278  1
  O2-  O140  1  0.51007279  0.25053051  0.94238767  1
  O2-  O141  1  0.49552430  0.74405340  0.27632109  1
  O2-  O142  1  0.49578424  0.74609590  0.59852973  1
  O2-  O143  1  0.48973333  0.74236252  0.93782730  1
  O2-  O144  1  0.07006550  0.17563102  0.09151630  1
  O2-  O145  1  0.07130202  0.17335996  0.42160839  1
  O2-  O146  1  0.06636094  0.17485475  0.76596763  1
  O2-  O147  1  0.07429683  0.68077025  0.08788005  1
  O2-  O148  1  0.07037514  0.68196942  0.42289307  1
  O2-  O149  1  0.06961524  0.68108796  0.75492572  1
  O2-  O150  1  0.56974284  0.17272545  0.09015428  1
  O2-  O151  1  0.57132689  0.17699724  0.43096647  1
  O2-  O152  1  0.57130506  0.18035828  0.76732690  1
  O2-  O153  1  0.57070899  0.68369890  0.10065088  1
  O2-  O154  1  0.57523272  0.68113789  0.42181389  1
  O2-  O155  1  0.57515225  0.68181761  0.76161462  1
  O2-  O156  1  0.17982698  0.43250467  0.23397795  1
  O2-  O157  1  0.17690536  0.43030205  0.56937592  1
  O2-  O158  1  0.18221411  0.42654098  0.90303328  1
  O2-  O159  1  0.17514933  0.92528076  0.24434322  1
  O2-  O160  1  0.17383275  0.92993329  0.57792198  1
  O2-  O161  1  0.16871059  0.93066568  0.91219967  1
  O2-  O162  1  0.67638013  0.42595968  0.24320199  1
  O2-  O163  1  0.68389793  0.42631789  0.56523341  1
  O2-  O164  1  0.67671683  0.42420645  0.90444175  1
  O2-  O165  1  0.68182074  0.92776139  0.24338636  1
  O2-  O166  1  0.68142593  0.92824890  0.57928203  1
  O2-  O167  1  0.68141873  0.93533090  0.91118139  1
  O2-  O168  1  0.42470537  0.31097806  0.10204544  1
  O2-  O169  1  0.42489039  0.32184800  0.42158141  1
  O2-  O170  1  0.42659807  0.31793238  0.76476638  1
  O2-  O171  1  0.43156097  0.82467743  0.10045602  1
  O2-  O172  1  0.43089889  0.82089922  0.42337363  1
  O2-  O173  1  0.43011404  0.81912940  0.76309869  1
  O2-  O174  1  0.93145723  0.32213782  0.09824649  1
  O2-  O175  1  0.93083967  0.31918174  0.43354348  1
  O2-  O176  1  0.93154749  0.32189335  0.75695483  1
  O2-  O177  1  0.93223196  0.82274639  0.10002184  1
  O2-  O178  1  0.92861076  0.82412371  0.42420374  1
  O2-  O179  1  0.93216797  0.82555238  0.75514706  1
  O2-  O180  1  0.32058103  0.06457202  0.23442183  1
  O2-  O181  1  0.32088593  0.06668445  0.56916666  1
  O2-  O182  1  0.32162292  0.06802938  0.91153738  1
  O2-  O183  1  0.32050478  0.58030912  0.24140057  1
  O2-  O184  1  0.31266549  0.57334251  0.56528862  1
  O2-  O185  1  0.31792805  0.57707991  0.91001804  1
  O2-  O186  1  0.82174287  0.06870759  0.24091992  1
  O2-  O187  1  0.82261294  0.06879345  0.56597513  1
  O2-  O188  1  0.82729595  0.06863222  0.91253856  1
  O2-  O189  1  0.81719122  0.57424937  0.23396747  1
  O2-  O190  1  0.82226330  0.56993129  0.56777421  1
  O2-  O191  1  0.81545388  0.57295217  0.90205077  1
  O2-  O192  1  0.04798781  0.08231376  0.26961505  1
  O2-  O193  1  0.03624052  0.08373511  0.59616419  1
  O2-  O194  1  0.04459648  0.08511584  0.93911386  1
  O2-  O195  1  0.04138396  0.58908156  0.27029763  1
  O2-  O196  1  0.04074635  0.58680675  0.60243022  1
  O2-  O197  1  0.05127305  0.58323887  0.93726227  1
  O2-  O198  1  0.53785463  0.08168195  0.26427352  1
  O2-  O199  1  0.54685832  0.08072098  0.60226720  1
  O2-  O200  1  0.54471201  0.08561034  0.93735229  1
  O2-  O201  1  0.55170730  0.58441245  0.27125058  1
  O2-  O202  1  0.54914225  0.57995266  0.59177530  1
  O2-  O203  1  0.55099533  0.57661611  0.93716385  1
  O2-  O204  1  0.16897096  0.19977588  0.27268342  1
  O2-  O205  1  0.16657444  0.20548882  0.59871336  1
  O2-  O206  1  0.16693697  0.19997830  0.94236229  1
  O2-  O207  1  0.16085000  0.70840031  0.26788362  1
  O2-  O208  1  0.15678799  0.70990582  0.59847961  1
  O2-  O209  1  0.16375457  0.70828783  0.93392331  1
  O2-  O210  1  0.66646540  0.20476214  0.26128525  1
  O2-  O211  1  0.67277190  0.20786079  0.60174012  1
  O2-  O212  1  0.67070686  0.19483040  0.94292611  1
  O2-  O213  1  0.66178201  0.71508416  0.26978053  1
  O2-  O214  1  0.66846679  0.71528402  0.59400428  1
  O2-  O215  1  0.66361668  0.71695656  0.93245653  1
  O2-  O216  1  0.08537987  0.46206588  0.06967972  1
  O2-  O217  1  0.08660839  0.46611957  0.40269433  1
  O2-  O218  1  0.08505792  0.46312095  0.73653547  1
  O2-  O219  1  0.08786689  0.96073098  0.06880434  1
  O2-  O220  1  0.08122963  0.94984783  0.39566589  1
  O2-  O221  1  0.08494047  0.95873867  0.73082619  1
  O2-  O222  1  0.57669206  0.45212789  0.07140812  1
  O2-  O223  1  0.58120078  0.44795515  0.39251109  1
  O2-  O224  1  0.57752049  0.45366561  0.72768853  1
  O2-  O225  1  0.58998940  0.96040761  0.06596871  1
  O2-  O226  1  0.58862672  0.95617996  0.39553346  1
  O2-  O227  1  0.58489659  0.95285050  0.73131951  1
  O2-  O228  1  0.21231818  0.33132896  0.07013522  1
  O2-  O229  1  0.20489626  0.33212442  0.40043143  1
  O2-  O230  1  0.20109556  0.32626789  0.73485151  1
  O2-  O231  1  0.19833609  0.83467791  0.06418706  1
  O2-  O232  1  0.20055118  0.83192847  0.39552029  1
  O2-  O233  1  0.19419779  0.83211741  0.72763225  1
  O2-  O234  1  0.70653720  0.32682128  0.06959165  1
  O2-  O235  1  0.70465323  0.33087981  0.39156666  1
  O2-  O236  1  0.70842667  0.33324179  0.73637414  1
  O2-  O237  1  0.71075049  0.84168662  0.06399345  1
  O2-  O238  1  0.71014627  0.83990021  0.39896417  1
  O2-  O239  1  0.70784257  0.83772057  0.73215416  1
  O2-  O240  1  0.44640352  0.41745542  0.27069511  1
  O2-  O241  1  0.44966037  0.42061515  0.59632909  1
  O2-  O242  1  0.44853081  0.41723520  0.93762105  1
  O2-  O243  1  0.46275304  0.90916753  0.27029930  1
  O2-  O244  1  0.46097708  0.91675998  0.59715338  1
  O2-  O245  1  0.46544129  0.91790750  0.93324121  1
  O2-  O246  1  0.96449430  0.41822824  0.26705641  1
  O2-  O247  1  0.95616369  0.41848914  0.60730887  1
  O2-  O248  1  0.96163400  0.41937658  0.93189677  1
  O2-  O249  1  0.95445520  0.91356007  0.27021512  1
  O2-  O250  1  0.96251780  0.91163414  0.60017758  1
  O2-  O251  1  0.96490789  0.91620157  0.93240032  1
  O2-  O252  1  0.33275639  0.29071707  0.27166495  1
  O2-  O253  1  0.32912232  0.28906219  0.60000497  1
  O2-  O254  1  0.33460560  0.27906351  0.93467428  1
  O2-  O255  1  0.33508698  0.79862731  0.27264093  1
  O2-  O256  1  0.32521601  0.79763015  0.59870624  1
  O2-  O257  1  0.32427379  0.81010617  0.93769131  1
  O2-  O258  1  0.83697163  0.28979592  0.26291200  1
  O2-  O259  1  0.83709501  0.29625586  0.60636468  1
  O2-  O260  1  0.83421875  0.28940291  0.93188022  1
  O2-  O261  1  0.83512535  0.79416984  0.27263725  1
  O2-  O262  1  0.83525196  0.80319368  0.60316616  1
  O2-  O263  1  0.83269195  0.79744181  0.93091068  1
  O2-  O264  1  0.41446909  0.03996015  0.06363434  1
  O2-  O265  1  0.41707734  0.03333605  0.40120884  1
  O2-  O266  1  0.41892677  0.03818703  0.73625130  1
  O2-  O267  1  0.41602854  0.55204571  0.06021317  1
  O2-  O268  1  0.41947912  0.55490671  0.38981054  1
  O2-  O269  1  0.42424574  0.55834778  0.72332545  1
  O2-  O270  1  0.91497464  0.03809791  0.06614216  1
  O2-  O271  1  0.91350574  0.04397379  0.39292732  1
  O2-  O272  1  0.91630845  0.03498137  0.73460087  1
  O2-  O273  1  0.91963525  0.54751684  0.06521285  1
  O2-  O274  1  0.91559627  0.54173426  0.39944395  1
  O2-  O275  1  0.91885180  0.54838660  0.73585596  1
  O2-  O276  1  0.29077379  0.15627717  0.06729678  1
  O2-  O277  1  0.29290657  0.16353265  0.40329671  1
  O2-  O278  1  0.28721162  0.16248787  0.73712489  1
  O2-  O279  1  0.29460269  0.66924178  0.06106382  1
  O2-  O280  1  0.29355765  0.66729182  0.39411971  1
  O2-  O281  1  0.28349876  0.66809965  0.73248025  1
  O2-  O282  1  0.79978621  0.16331892  0.06431304  1
  O2-  O283  1  0.79354417  0.16449038  0.39124900  1
  O2-  O284  1  0.79560607  0.16752182  0.73604719  1
  O2-  O285  1  0.79023671  0.67287740  0.06590367  1
  O2-  O286  1  0.78944598  0.66769247  0.40109564  1
  O2-  O287  1  0.79803496  0.67606648  0.72833495  1
