# generated using pymatgen
data_Ca2Al2SiO7
_symmetry_space_group_name_H-M   'P 1'
_cell_length_a   15.45949575
_cell_length_b   15.45893230
_cell_length_c   15.28440906
_cell_angle_alpha   90.00310438
_cell_angle_beta   90.00327524
_cell_angle_gamma   89.99820789
_symmetry_Int_Tables_number   1
_chemical_formula_structural   Ca2Al2SiO7
_chemical_formula_sum   'Ca48 Al48 Si24 O168'
_cell_volume   3652.77961342
_cell_formula_units_Z   24
loop_
 _symmetry_equiv_pos_site_id
 _symmetry_equiv_pos_as_xyz
  1  'x, y, z'
loop_
 _atom_type_symbol
 _atom_type_oxidation_number
  Ca2+  2.0
  Al0+  0.0
  Si0+  0.0
  O2-  -2.0
loop_
 _atom_site_type_symbol
 _atom_site_label
 _atom_site_symmetry_multiplicity
 _atom_site_fract_x
 _atom_site_fract_y
 _atom_site_fract_z
 _atom_site_occupancy
  Ca2+  Ca0  1  0.17419964  0.07788118  0.17389130  1
  Ca2+  Ca1  1  0.17754412  0.08047304  0.50663868  1
  Ca2+  Ca2  1  0.17551424  0.06999979  0.83617730  1
  Ca2+  Ca3  1  0.16822129  0.58359744  0.16829340  1
  Ca2+  Ca4  1  0.16018278  0.57390264  0.50161957  1
  Ca2+  Ca5  1  0.17374927  0.57964479  0.84169413  1
  Ca2+  Ca6  1  0.65470926  0.07470103  0.17085168  1
  Ca2+  Ca7  1  0.66100666  0.07967479  0.49539348  1
  Ca2+  Ca8  1  0.66253572  0.07926346  0.84203348  1
  Ca2+  Ca9  1  0.66465984  0.58426178  0.16451236  1
  Ca2+  Ca10  1  0.67672641  0.58666875  0.50656310  1
  Ca2+  Ca11  1  0.67443582  0.58487888  0.84660191  1
  Ca2+  Ca12  1  0.09012771  0.32964971  0.16881355  1
  Ca2+  Ca13  1  0.08964579  0.33092382  0.49159665  1
  Ca2+  Ca14  1  0.08507517  0.33459134  0.82795154  1
  Ca2+  Ca15  1  0.08377831  0.82351792  0.15849522  1
  Ca2+  Ca16  1  0.07794318  0.83000819  0.49039372  1
  Ca2+  Ca17  1  0.09376376  0.82785307  0.83227684  1
  Ca2+  Ca18  1  0.58178452  0.32255795  0.15389103  1
  Ca2+  Ca19  1  0.57336114  0.32587967  0.49423556  1
  Ca2+  Ca20  1  0.57135198  0.34001092  0.83449195  1
  Ca2+  Ca21  1  0.57381295  0.83599713  0.15892191  1
  Ca2+  Ca22  1  0.57253618  0.83917298  0.49366021  1
  Ca2+  Ca23  1  0.57389325  0.83421423  0.83491035  1
  Ca2+  Ca24  1  0.33793699  0.42556223  0.16830127  1
  Ca2+  Ca25  1  0.32142063  0.41249220  0.50558941  1
  Ca2+  Ca26  1  0.33405711  0.41675188  0.83960537  1
  Ca2+  Ca27  1  0.33430402  0.91618585  0.17176914  1
  Ca2+  Ca28  1  0.33664856  0.92627078  0.50510542  1
  Ca2+  Ca29  1  0.33033605  0.91162612  0.83653510  1
  Ca2+  Ca30  1  0.82795288  0.42075696  0.16378492  1
  Ca2+  Ca31  1  0.83216000  0.42439856  0.50698122  1
  Ca2+  Ca32  1  0.82527246  0.42822838  0.84253231  1
  Ca2+  Ca33  1  0.81922993  0.90753575  0.17032681  1
  Ca2+  Ca34  1  0.82695941  0.90914756  0.49845802  1
  Ca2+  Ca35  1  0.82410817  0.91905277  0.84258102  1
  Ca2+  Ca36  1  0.42295331  0.16975707  0.16268131  1
  Ca2+  Ca37  1  0.41226016  0.16649094  0.49481298  1
  Ca2+  Ca38  1  0.41807526  0.17367836  0.83181386  1
  Ca2+  Ca39  1  0.41755656  0.67692204  0.15475853  1
  Ca2+  Ca40  1  0.41260709  0.68242331  0.49649380  1
  Ca2+  Ca41  1  0.41562226  0.67418685  0.83518452  1
  Ca2+  Ca42  1  0.92489711  0.16458469  0.16497064  1
  Ca2+  Ca43  1  0.92842265  0.16964942  0.49161651  1
  Ca2+  Ca44  1  0.91847587  0.16817369  0.83101491  1
  Ca2+  Ca45  1  0.92630315  0.66653325  0.16405671  1
  Ca2+  Ca46  1  0.92226886  0.67021065  0.49139004  1
  Ca2+  Ca47  1  0.91869287  0.65976898  0.83362607  1
  Al0+  Al48  1  0.00119102  -0.00109224  0.00288294  1
  Al0+  Al49  1  -0.00324520  0.00110747  0.32430336  1
  Al0+  Al50  1  -0.00057154  -0.00124890  0.66897632  1
  Al0+  Al51  1  -0.00040918  0.49945427  0.00035958  1
  Al0+  Al52  1  -0.00090753  0.49985255  0.33335113  1
  Al0+  Al53  1  -0.00108501  0.49967345  0.67400255  1
  Al0+  Al54  1  0.49891389  0.00233195  -0.00493547  1
  Al0+  Al55  1  0.49949075  0.00059782  0.33503716  1
  Al0+  Al56  1  0.50116303  0.00073924  0.66709618  1
  Al0+  Al57  1  0.50021760  0.50018917  0.00175996  1
  Al0+  Al58  1  0.49958613  0.50141614  0.33909996  1
  Al0+  Al59  1  0.50019097  0.49857997  0.65722585  1
  Al0+  Al60  1  0.24901682  0.24768465  -0.00405462  1
  Al0+  Al61  1  0.24995074  0.25086196  0.33500456  1
  Al0+  Al62  1  0.25085113  0.24859919  0.67212305  1
  Al0+  Al63  1  0.24785864  0.74760092  -0.00036259  1
  Al0+  Al64  1  0.24970208  0.74988898  0.32754097  1
  Al0+  Al65  1  0.25001142  0.74800471  0.66159352  1
  Al0+  Al66  1  0.75320182  0.24999466  -0.00080878  1
  Al0+  Al67  1  0.74976285  0.24919477  0.33206875  1
  Al0+  Al68  1  0.75076801  0.25002622  0.66449581  1
  Al0+  Al69  1  0.75181668  0.75213478  0.00574299  1
  Al0+  Al70  1  0.74909569  0.74946869  0.33648927  1
  Al0+  Al71  1  0.75181975  0.75034101  0.67136715  1
  Al0+  Al72  1  0.31939335  0.06905743  0.34571829  1
  Al0+  Al73  1  0.67818675  0.42880026  0.01490737  1
  Al0+  Al74  1  0.82253200  0.57253915  0.01896900  1
  Al0+  Al75  1  0.18086991  0.43208668  0.34530141  1
  Al0+  Al76  1  0.56992932  0.18111108  0.32026136  1
  Al0+  Al77  1  0.07305122  0.17963294  0.32042355  1
  Al0+  Al78  1  0.67796945  0.93241246  0.01334801  1
  Al0+  Al79  1  0.68019798  0.92979230  0.34790041  1
  Al0+  Al80  1  0.18011165  0.42944455  0.68106348  1
  Al0+  Al81  1  0.57338780  0.67974476  0.98705722  1
  Al0+  Al82  1  0.42964210  0.82052466  0.65125230  1
  Al0+  Al83  1  0.43053877  0.82114893  0.32013357  1
  Al0+  Al84  1  0.32352791  0.07049319  0.68423235  1
  Al0+  Al85  1  0.17769737  0.92691410  0.67926816  1
  Al0+  Al86  1  0.07023363  0.67794592  0.31793325  1
  Al0+  Al87  1  0.18033766  0.92778664  0.01546924  1
  Al0+  Al88  1  0.32090084  0.56938537  0.01226965  1
  Al0+  Al89  1  0.42768431  0.32063900  0.65033053  1
  Al0+  Al90  1  0.81931327  0.57125577  0.68110046  1
  Al0+  Al91  1  0.92602894  0.82169859  0.31760051  1
  Al0+  Al92  1  0.42800024  0.32209223  0.98642271  1
  Al0+  Al93  1  0.42723140  0.82144419  0.98451479  1
  Al0+  Al94  1  0.06915797  0.67813846  0.98352011  1
  Al0+  Al95  1  0.57297065  0.17906507  0.98416343  1
  Si0+  Si96  1  0.67741760  0.42680626  0.68122640  1
  Si0+  Si97  1  0.17750841  0.42539936  0.01649521  1
  Si0+  Si98  1  0.92914193  0.82291259  0.98175313  1
  Si0+  Si99  1  0.17494861  0.92666800  0.34726072  1
  Si0+  Si100  1  0.81880349  0.56832735  0.34951704  1
  Si0+  Si101  1  0.42725289  0.32382500  0.31762300  1
  Si0+  Si102  1  0.67736352  0.42550376  0.35007995  1
  Si0+  Si103  1  0.06932801  0.17857500  0.65352331  1
  Si0+  Si104  1  0.57229975  0.67627164  0.31912696  1
  Si0+  Si105  1  0.57414767  0.17801998  0.64808387  1
  Si0+  Si106  1  0.93082885  0.32017281  0.98375596  1
  Si0+  Si107  1  0.32064879  0.07276536  0.01752996  1
  Si0+  Si108  1  0.32387740  0.57536412  0.35215584  1
  Si0+  Si109  1  0.92959255  0.32161518  0.65225335  1
  Si0+  Si110  1  0.06937105  0.67750719  0.65229975  1
  Si0+  Si111  1  0.82363538  0.07474213  0.35086447  1
  Si0+  Si112  1  0.82262133  0.07236185  0.68023691  1
  Si0+  Si113  1  0.92757089  0.82177985  0.65280554  1
  Si0+  Si114  1  0.92741107  0.32241308  0.31670243  1
  Si0+  Si115  1  0.07115764  0.17661064  0.98260740  1
  Si0+  Si116  1  0.57517786  0.67898623  0.65021717  1
  Si0+  Si117  1  0.82430073  0.07317755  0.01763319  1
  Si0+  Si118  1  0.32348318  0.57198154  0.68102097  1
  Si0+  Si119  1  0.68027063  0.93056890  0.68178238  1
  O2-  O120  1  0.25596223  0.00078175  0.06227029  1
  O2-  O121  1  0.24269734  -0.00449535  0.39252821  1
  O2-  O122  1  0.25386375  -0.00602398  0.73058677  1
  O2-  O123  1  0.24856556  0.49175273  0.05907121  1
  O2-  O124  1  0.25438618  0.50632357  0.39506087  1
  O2-  O125  1  0.25731774  0.50130483  0.72628698  1
  O2-  O126  1  0.75180682  0.00845302  0.06037903  1
  O2-  O127  1  0.75735211  0.00326053  0.39498946  1
  O2-  O128  1  0.74975524  0.00398865  0.72254417  1
  O2-  O129  1  0.74633290  0.50372250  0.06735391  1
  O2-  O130  1  0.74667660  0.49844505  0.39270933  1
  O2-  O131  1  0.74091298  0.49982230  0.72552451  1
  O2-  O132  1  -0.00378585  0.25300957  0.27374685  1
  O2-  O133  1  0.00142940  0.25222634  0.60936613  1
  O2-  O134  1  0.00163224  0.24924892  0.94039332  1
  O2-  O135  1  0.00314234  0.75504431  0.26850854  1
  O2-  O136  1  0.00066693  0.75199990  0.61174351  1
  O2-  O137  1  -0.00409077  0.75378551  0.93511217  1
  O2-  O138  1  0.49995035  0.25978259  0.27402761  1
  O2-  O139  1  0.50279725  0.24496067  0.60526735  1
  O2-  O140  1  0.50257466  0.25295380  0.93520291  1
  O2-  O141  1  0.50131635  0.74210492  0.27589758  1
  O2-  O142  1  0.50503030  0.74546489  0.60494855  1
  O2-  O143  1  0.50123599  0.75034398  0.93521655  1
  O2-  O144  1  0.07101958  0.17791371  0.08770118  1
  O2-  O145  1  0.07169254  0.18197934  0.43418125  1
  O2-  O146  1  0.06388466  0.17868998  0.75864789  1
  O2-  O147  1  0.06800620  0.67770177  0.09622341  1
  O2-  O148  1  0.06578859  0.67537491  0.43249802  1
  O2-  O149  1  0.06829429  0.67635882  0.75710877  1
  O2-  O150  1  0.57020556  0.17885320  0.09786973  1
  O2-  O151  1  0.56926481  0.18291176  0.43375862  1
  O2-  O152  1  0.57909584  0.17946668  0.75298428  1
  O2-  O153  1  0.57045191  0.68220591  0.10087429  1
  O2-  O154  1  0.57386931  0.67689877  0.42528016  1
  O2-  O155  1  0.57781054  0.68026924  0.75517055  1
  O2-  O156  1  0.18212028  0.43151828  0.23262232  1
  O2-  O157  1  0.17653707  0.43089732  0.56780368  1
  O2-  O158  1  0.17626997  0.42648125  0.91058478  1
  O2-  O159  1  0.17767447  0.92804803  0.24181080  1
  O2-  O160  1  0.17127899  0.93107869  0.56576910  1
  O2-  O161  1  0.17931588  0.93052296  0.90221084  1
  O2-  O162  1  0.67825258  0.42476256  0.24574471  1
  O2-  O163  1  0.68250571  0.42560129  0.57510642  1
  O2-  O164  1  0.68231961  0.42822669  0.90090074  1
  O2-  O165  1  0.67925366  0.93085691  0.23546660  1
  O2-  O166  1  0.68176877  0.92967595  0.57652183  1
  O2-  O167  1  0.68147110  0.93355344  0.89944248  1
  O2-  O168  1  0.42593075  0.31906780  0.10016942  1
  O2-  O169  1  0.42720087  0.32171103  0.42360947  1
  O2-  O170  1  0.42955542  0.32280915  0.76283883  1
  O2-  O171  1  0.42870370  0.82173891  0.09806388  1
  O2-  O172  1  0.43241652  0.82168296  0.43384952  1
  O2-  O173  1  0.43081154  0.81897330  0.76371996  1
  O2-  O174  1  0.93122853  0.31922241  0.08885926  1
  O2-  O175  1  0.92728997  0.32282005  0.42296175  1
  O2-  O176  1  0.92838830  0.31924978  0.75719175  1
  O2-  O177  1  0.93161551  0.82378769  0.08697673  1
  O2-  O178  1  0.92603068  0.81739524  0.43248202  1
  O2-  O179  1  0.92365243  0.82311564  0.75727097  1
  O2-  O180  1  0.31913426  0.06968813  0.23290288  1
  O2-  O181  1  0.32046351  0.07058376  0.57010973  1
  O2-  O182  1  0.31686825  0.07520166  0.91209164  1
  O2-  O183  1  0.32736010  0.57349553  0.24696721  1
  O2-  O184  1  0.31909027  0.57304999  0.57529896  1
  O2-  O185  1  0.31775707  0.56936094  0.89875210  1
  O2-  O186  1  0.82284518  0.07997911  0.24602733  1
  O2-  O187  1  0.82587622  0.07243453  0.57553087  1
  O2-  O188  1  0.82705303  0.07120617  0.91117117  1
  O2-  O189  1  0.81922632  0.56695961  0.24527500  1
  O2-  O190  1  0.82049555  0.56950816  0.56719532  1
  O2-  O191  1  0.82314744  0.56780589  0.90504583  1
  O2-  O192  1  0.04328306  0.08483016  0.26292450  1
  O2-  O193  1  0.03743796  0.08825574  0.60547487  1
  O2-  O194  1  0.03960588  0.08587798  0.93520289  1
  O2-  O195  1  0.03619749  0.58120409  0.26511389  1
  O2-  O196  1  0.03593770  0.58638905  0.60590481  1
  O2-  O197  1  0.03803554  0.58073457  0.93028964  1
  O2-  O198  1  0.53562484  0.08582426  0.26805018  1
  O2-  O199  1  0.55070503  0.08344825  0.60326209  1
  O2-  O200  1  0.54193947  0.08339596  0.92790227  1
  O2-  O201  1  0.55062182  0.58053567  0.27548990  1
  O2-  O202  1  0.55501059  0.58434436  0.60303937  1
  O2-  O203  1  0.54809819  0.58029451  0.93546242  1
  O2-  O204  1  0.16719354  0.21446903  0.26451377  1
  O2-  O205  1  0.16231303  0.20435049  0.60896421  1
  O2-  O206  1  0.16202623  0.20299712  0.93331755  1
  O2-  O207  1  0.17006725  0.69942693  0.26611998  1
  O2-  O208  1  0.16129137  0.69981120  0.60302454  1
  O2-  O209  1  0.16505522  0.70878734  0.92881152  1
  O2-  O210  1  0.66834818  0.20646032  0.26762232  1
  O2-  O211  1  0.66756730  0.20516587  0.59998609  1
  O2-  O212  1  0.67468389  0.20145177  0.93422842  1
  O2-  O213  1  0.66549036  0.70224198  0.27435238  1
  O2-  O214  1  0.66863779  0.70832323  0.60379853  1
  O2-  O215  1  0.67310435  0.70856437  0.93613091  1
  O2-  O216  1  0.08487523  0.45268761  0.06249954  1
  O2-  O217  1  0.08239436  0.45976479  0.39996148  1
  O2-  O218  1  0.08417230  0.45987022  0.73652077  1
  O2-  O219  1  0.08393299  0.96055136  0.06878029  1
  O2-  O220  1  0.07880023  0.95098991  0.38887233  1
  O2-  O221  1  0.08038375  0.95774816  0.73488341  1
  O2-  O222  1  0.57941042  0.45109449  0.06863743  1
  O2-  O223  1  0.58504720  0.45119943  0.39880373  1
  O2-  O224  1  0.58094523  0.44788240  0.72167344  1
  O2-  O225  1  0.58047454  0.96320644  0.06546986  1
  O2-  O226  1  0.58600164  0.96539786  0.40397392  1
  O2-  O227  1  0.58891975  0.95714440  0.72913186  1
  O2-  O228  1  0.19939374  0.32961813  0.05955046  1
  O2-  O229  1  0.21141784  0.33596617  0.40126740  1
  O2-  O230  1  0.20583512  0.33211785  0.73513215  1
  O2-  O231  1  0.20725510  0.83026668  0.06765088  1
  O2-  O232  1  0.19897840  0.83186860  0.39181762  1
  O2-  O233  1  0.20364941  0.82615370  0.72856548  1
  O2-  O234  1  0.71422026  0.33159337  0.06743686  1
  O2-  O235  1  0.70812987  0.33509227  0.39902244  1
  O2-  O236  1  0.70806637  0.33479712  0.72736769  1
  O2-  O237  1  0.70985151  0.83739027  0.06886582  1
  O2-  O238  1  0.71012908  0.83311237  0.40455069  1
  O2-  O239  1  0.71104341  0.84035625  0.72981728  1
  O2-  O240  1  0.44973452  0.42031992  0.27661506  1
  O2-  O241  1  0.45662215  0.41639674  0.59164774  1
  O2-  O242  1  0.45475479  0.42054587  0.93289309  1
  O2-  O243  1  0.46480356  0.91598083  0.26681613  1
  O2-  O244  1  0.46317377  0.91761500  0.59902051  1
  O2-  O245  1  0.45449995  0.91970408  0.93133660  1
  O2-  O246  1  0.95434464  0.41453481  0.26982545  1
  O2-  O247  1  0.95676068  0.41426427  0.60610156  1
  O2-  O248  1  0.95938774  0.41109563  0.93535676  1
  O2-  O249  1  0.94119807  0.92277657  0.26611607  1
  O2-  O250  1  0.95307068  0.91415967  0.60462000  1
  O2-  O251  1  0.95446247  0.91739605  0.93618650  1
  O2-  O252  1  0.33543861  0.29569828  0.27151553  1
  O2-  O253  1  0.32965232  0.28843008  0.59888104  1
  O2-  O254  1  0.32993977  0.29173364  0.93199185  1
  O2-  O255  1  0.33289639  0.79555294  0.26680685  1
  O2-  O256  1  0.33321435  0.78962712  0.59550985  1
  O2-  O257  1  0.33024037  0.78850463  0.93181394  1
  O2-  O258  1  0.83440665  0.29651757  0.27047155  1
  O2-  O259  1  0.83857956  0.29350501  0.60248073  1
  O2-  O260  1  0.84050441  0.29219177  0.93347162  1
  O2-  O261  1  0.82905868  0.78665956  0.26643461  1
  O2-  O262  1  0.83676355  0.79131360  0.60383100  1
  O2-  O263  1  0.83464953  0.79871581  0.93743672  1
  O2-  O264  1  0.41622499  0.05152978  0.05961808  1
  O2-  O265  1  0.41424373  0.03720573  0.40243363  1
  O2-  O266  1  0.42393612  0.04714861  0.73451268  1
  O2-  O267  1  0.41675272  0.54226688  0.06900278  1
  O2-  O268  1  0.41724888  0.55170923  0.40118646  1
  O2-  O269  1  0.41982521  0.54911048  0.72172297  1
  O2-  O270  1  0.91645219  0.04490845  0.06495065  1
  O2-  O271  1  0.91887892  0.05135324  0.39557616  1
  O2-  O272  1  0.91206181  0.04299092  0.73142847  1
  O2-  O273  1  0.91875196  0.53539523  0.07126110  1
  O2-  O274  1  0.90956065  0.53807465  0.39827070  1
  O2-  O275  1  0.91297543  0.53651851  0.73715643  1
  O2-  O276  1  0.28933422  0.16473388  0.06424871  1
  O2-  O277  1  0.28888763  0.16594792  0.40012376  1
  O2-  O278  1  0.29064407  0.16628979  0.73867530  1
  O2-  O279  1  0.28610128  0.66357777  0.06759379  1
  O2-  O280  1  0.29619721  0.66918009  0.39694801  1
  O2-  O281  1  0.29500190  0.66440046  0.72712601  1
  O2-  O282  1  0.80620198  0.16870118  0.06152160  1
  O2-  O283  1  0.79587556  0.16730387  0.40004972  1
  O2-  O284  1  0.79751906  0.16554698  0.72732717  1
  O2-  O285  1  0.80058812  0.67221204  0.07048823  1
  O2-  O286  1  0.79119708  0.65961264  0.39885800  1
  O2-  O287  1  0.79343162  0.66840901  0.73614461  1
