# generated using pymatgen
data_Ca2Al2SiO7
_symmetry_space_group_name_H-M   'P 1'
_cell_length_a   15.45220010
_cell_length_b   15.45235729
_cell_length_c   15.27938693
_cell_angle_alpha   89.99727911
_cell_angle_beta   89.99375059
_cell_angle_gamma   90.00195116
_symmetry_Int_Tables_number   1
_chemical_formula_structural   Ca2Al2SiO7
_chemical_formula_sum   'Ca48 Al48 Si24 O168'
_cell_volume   3648.30375784
_cell_formula_units_Z   24
loop_
 _symmetry_equiv_pos_site_id
 _symmetry_equiv_pos_as_xyz
  1  'x, y, z'
loop_
 _atom_type_symbol
 _atom_type_oxidation_number
  Ca2+  2.0
  Al0+  0.0
  Si0+  0.0
  O2-  -2.0
loop_
 _atom_site_type_symbol
 _atom_site_label
 _atom_site_symmetry_multiplicity
 _atom_site_fract_x
 _atom_site_fract_y
 _atom_site_fract_z
 _atom_site_occupancy
  Ca2+  Ca0  1  0.17448901  0.07582060  0.17249780  1
  Ca2+  Ca1  1  0.16876864  0.07865099  0.50906626  1
  Ca2+  Ca2  1  0.17768580  0.09026301  0.83711115  1
  Ca2+  Ca3  1  0.16942204  0.58807554  0.16941304  1
  Ca2+  Ca4  1  0.17449471  0.58221248  0.50876555  1
  Ca2+  Ca5  1  0.16160514  0.58521647  0.83176251  1
  Ca2+  Ca6  1  0.66948945  0.09146552  0.16519607  1
  Ca2+  Ca7  1  0.66350138  0.07928497  0.50546091  1
  Ca2+  Ca8  1  0.66577614  0.08175905  0.83731418  1
  Ca2+  Ca9  1  0.67029041  0.57049203  0.17109324  1
  Ca2+  Ca10  1  0.67217677  0.57646848  0.50735332  1
  Ca2+  Ca11  1  0.68288998  0.57905797  0.84177046  1
  Ca2+  Ca12  1  0.06872232  0.33813611  0.16117244  1
  Ca2+  Ca13  1  0.08376764  0.33180717  0.50066809  1
  Ca2+  Ca14  1  0.07899560  0.33214441  0.82556658  1
  Ca2+  Ca15  1  0.08325194  0.82935473  0.16410929  1
  Ca2+  Ca16  1  0.07459835  0.83234293  0.49564183  1
  Ca2+  Ca17  1  0.07474869  0.82155608  0.82548214  1
  Ca2+  Ca18  1  0.59203418  0.32696294  0.16147331  1
  Ca2+  Ca19  1  0.58884668  0.32191351  0.49317110  1
  Ca2+  Ca20  1  0.58925061  0.32289918  0.83207147  1
  Ca2+  Ca21  1  0.56826960  0.83445876  0.16187338  1
  Ca2+  Ca22  1  0.57776326  0.83240420  0.49538071  1
  Ca2+  Ca23  1  0.57847025  0.84039073  0.82953158  1
  Ca2+  Ca24  1  0.33144325  0.42596025  0.17507514  1
  Ca2+  Ca25  1  0.32952070  0.42896214  0.50987154  1
  Ca2+  Ca26  1  0.32618301  0.41914028  0.83200366  1
  Ca2+  Ca27  1  0.33181690  0.91489045  0.17067542  1
  Ca2+  Ca28  1  0.32781527  0.91809352  0.50224356  1
  Ca2+  Ca29  1  0.33618827  0.92793539  0.83876825  1
  Ca2+  Ca30  1  0.82794478  0.41319285  0.16736783  1
  Ca2+  Ca31  1  0.83254449  0.41820167  0.50072859  1
  Ca2+  Ca32  1  0.83438478  0.42468932  0.84254219  1
  Ca2+  Ca33  1  0.83890662  0.92493889  0.17146813  1
  Ca2+  Ca34  1  0.82767678  0.90983958  0.50900328  1
  Ca2+  Ca35  1  0.82978847  0.91989064  0.83527520  1
  Ca2+  Ca36  1  0.42993396  0.16185592  0.15959473  1
  Ca2+  Ca37  1  0.42627764  0.16173913  0.49933260  1
  Ca2+  Ca38  1  0.42390673  0.16055969  0.82684008  1
  Ca2+  Ca39  1  0.40887842  0.67684721  0.16404086  1
  Ca2+  Ca40  1  0.41018068  0.66895611  0.49290588  1
  Ca2+  Ca41  1  0.41621182  0.67207406  0.82978686  1
  Ca2+  Ca42  1  0.91148667  0.17739215  0.16001090  1
  Ca2+  Ca43  1  0.92443417  0.17140096  0.49506207  1
  Ca2+  Ca44  1  0.91567245  0.17294114  0.83074945  1
  Ca2+  Ca45  1  0.92115050  0.66969429  0.15911822  1
  Ca2+  Ca46  1  0.91634222  0.67350313  0.50137986  1
  Ca2+  Ca47  1  0.92174495  0.66303235  0.82462898  1
  Al0+  Al48  1  0.00074314  -0.00080885  0.00433500  1
  Al0+  Al49  1  0.00158781  -0.00011771  0.33357097  1
  Al0+  Al50  1  -0.00185907  0.00129358  0.66035399  1
  Al0+  Al51  1  -0.00011347  0.50047176  -0.00311200  1
  Al0+  Al52  1  -0.00008178  0.49997151  0.32980112  1
  Al0+  Al53  1  0.00017922  0.50064011  0.66692658  1
  Al0+  Al54  1  0.49938664  0.00091069  -0.00319019  1
  Al0+  Al55  1  0.50171182  -0.00095044  0.32429394  1
  Al0+  Al56  1  0.50028849  -0.00047302  0.66825484  1
  Al0+  Al57  1  0.49889070  0.50012263  0.00336657  1
  Al0+  Al58  1  0.50185886  0.49783282  0.34302829  1
  Al0+  Al59  1  0.49922483  0.49977480  0.67245123  1
  Al0+  Al60  1  0.25185252  0.25075533  0.00936524  1
  Al0+  Al61  1  0.25275990  0.24969394  0.33332200  1
  Al0+  Al62  1  0.25057389  0.25107309  0.66896093  1
  Al0+  Al63  1  0.24892079  0.75126626  -0.01082892  1
  Al0+  Al64  1  0.24943038  0.75172552  0.33839231  1
  Al0+  Al65  1  0.24899053  0.75111410  0.66709205  1
  Al0+  Al66  1  0.75034460  0.24852883  -0.00388543  1
  Al0+  Al67  1  0.75198853  0.24954174  0.33172485  1
  Al0+  Al68  1  0.74937970  0.24805376  0.66075589  1
  Al0+  Al69  1  0.74861924  0.75013485  0.00653997  1
  Al0+  Al70  1  0.75065264  0.75064479  0.32715955  1
  Al0+  Al71  1  0.74653983  0.74932793  0.67300953  1
  Al0+  Al72  1  0.82134383  0.06898756  0.01269773  1
  Al0+  Al73  1  0.31963413  0.57031151  0.34549142  1
  Al0+  Al74  1  0.31942202  0.06882390  0.67854922  1
  Al0+  Al75  1  0.42902466  0.81765554  0.32111264  1
  Al0+  Al76  1  0.43028058  0.81986128  0.98384646  1
  Al0+  Al77  1  0.67913006  0.92960439  0.67887172  1
  Al0+  Al78  1  0.17916360  0.42962903  0.68164258  1
  Al0+  Al79  1  0.07129912  0.67823611  0.64847531  1
  Al0+  Al80  1  0.56917463  0.18208479  0.98429735  1
  Al0+  Al81  1  0.32229151  0.07160086  0.01572810  1
  Al0+  Al82  1  0.06883478  0.68041935  0.98567856  1
  Al0+  Al83  1  0.92560221  0.82041163  0.65326080  1
  Al0+  Al84  1  0.32211629  0.57454006  0.68517920  1
  Al0+  Al85  1  0.68156905  0.42735196  0.34925640  1
  Al0+  Al86  1  0.56995365  0.17999639  0.31809446  1
  Al0+  Al87  1  0.56986086  0.17879044  0.65181288  1
  Al0+  Al88  1  0.93014827  0.31856932  0.98507929  1
  Al0+  Al89  1  0.67949637  0.42864106  0.01393809  1
  Al0+  Al90  1  0.93207208  0.31964102  0.31944165  1
  Al0+  Al91  1  0.81880375  0.56974059  0.67841987  1
  Al0+  Al92  1  0.17927180  0.93060758  0.34816827  1
  Al0+  Al93  1  0.07338694  0.17993565  0.65447873  1
  Al0+  Al94  1  0.92741350  0.82232736  0.31793406  1
  Al0+  Al95  1  0.82419164  0.57213678  0.01758318  1
  Si0+  Si96  1  0.07444780  0.17679031  0.98669157  1
  Si0+  Si97  1  0.57294865  0.67458822  0.31774517  1
  Si0+  Si98  1  0.42830750  0.32316079  0.65009494  1
  Si0+  Si99  1  0.67628145  0.92834698  0.01890681  1
  Si0+  Si100  1  0.07105642  0.68005895  0.31747437  1
  Si0+  Si101  1  0.42482797  0.32533098  0.98399475  1
  Si0+  Si102  1  0.82067775  0.07082912  0.34873990  1
  Si0+  Si103  1  0.92557707  0.82452418  0.98418291  1
  Si0+  Si104  1  0.17858411  0.42906771  0.01631428  1
  Si0+  Si105  1  0.82312601  0.07306188  0.68137223  1
  Si0+  Si106  1  0.67806539  0.42445361  0.68317463  1
  Si0+  Si107  1  0.92796670  0.32226370  0.64919605  1
  Si0+  Si108  1  0.57012740  0.67744058  0.65388087  1
  Si0+  Si109  1  0.17378915  0.92888030  0.68414744  1
  Si0+  Si110  1  0.42818278  0.32410172  0.31771713  1
  Si0+  Si111  1  0.17591051  0.42689246  0.34883172  1
  Si0+  Si112  1  0.67899550  0.92883729  0.34597349  1
  Si0+  Si113  1  0.07569417  0.17660133  0.31568146  1
  Si0+  Si114  1  0.82267225  0.57385543  0.35010526  1
  Si0+  Si115  1  0.18011391  0.92700998  0.01512123  1
  Si0+  Si116  1  0.43027267  0.82098060  0.65156105  1
  Si0+  Si117  1  0.32516597  0.07120911  0.34969932  1
  Si0+  Si118  1  0.57222297  0.67612648  0.98425788  1
  Si0+  Si119  1  0.31924496  0.57287213  0.01403577  1
  O2-  O120  1  0.24624584  -0.00233710  0.06076582  1
  O2-  O121  1  0.25180835  0.00813538  0.39428085  1
  O2-  O122  1  0.24186682  -0.00167713  0.72814011  1
  O2-  O123  1  0.25054645  0.50011126  0.05745733  1
  O2-  O124  1  0.24706898  0.49338257  0.39170181  1
  O2-  O125  1  0.24797858  0.50402463  0.73393987  1
  O2-  O126  1  0.74990885  -0.00787347  0.06251460  1
  O2-  O127  1  0.75278113  -0.00380882  0.38983869  1
  O2-  O128  1  0.75557443  0.00290719  0.72456975  1
  O2-  O129  1  0.75012080  0.50133815  0.06588516  1
  O2-  O130  1  0.75346026  0.50559548  0.39461192  1
  O2-  O131  1  0.74761472  0.49208129  0.72609836  1
  O2-  O132  1  0.01001690  0.24814183  0.27195063  1
  O2-  O133  1  -0.00264061  0.25309199  0.60655831  1
  O2-  O134  1  0.00592158  0.24399285  0.94030988  1
  O2-  O135  1  0.00018425  0.74567675  0.27187147  1
  O2-  O136  1  -0.00014664  0.75204140  0.60060178  1
  O2-  O137  1  -0.01096469  0.75112979  0.94085691  1
  O2-  O138  1  0.49443770  0.25434673  0.27184117  1
  O2-  O139  1  0.49883837  0.25671953  0.60475104  1
  O2-  O140  1  0.49345465  0.25689145  0.93926993  1
  O2-  O141  1  0.50175481  0.74105815  0.27359462  1
  O2-  O142  1  0.49491637  0.74361655  0.61007827  1
  O2-  O143  1  0.50727983  0.74722338  0.93772673  1
  O2-  O144  1  0.07338657  0.17887364  0.09246626  1
  O2-  O145  1  0.07453315  0.17626088  0.42137345  1
  O2-  O146  1  0.07261550  0.18125517  0.76774735  1
  O2-  O147  1  0.07308040  0.68372830  0.09935687  1
  O2-  O148  1  0.07082327  0.68061439  0.42251237  1
  O2-  O149  1  0.06859703  0.68010606  0.76210062  1
  O2-  O150  1  0.56873602  0.18272987  0.09758635  1
  O2-  O151  1  0.56854510  0.17777883  0.43140036  1
  O2-  O152  1  0.56913464  0.17870897  0.76467556  1
  O2-  O153  1  0.56805902  0.67591441  0.08998942  1
  O2-  O154  1  0.57456979  0.67808966  0.42367633  1
  O2-  O155  1  0.57045817  0.67989166  0.75880326  1
  O2-  O156  1  0.17590743  0.42872128  0.24286722  1
  O2-  O157  1  0.18284891  0.42900781  0.56757967  1
  O2-  O158  1  0.17920671  0.42658559  0.91175905  1
  O2-  O159  1  0.18165907  0.92967910  0.23464380  1
  O2-  O160  1  0.17614005  0.93008887  0.57828877  1
  O2-  O161  1  0.18045458  0.92788024  0.90981360  1
  O2-  O162  1  0.68243648  0.42733414  0.23649054  1
  O2-  O163  1  0.67890577  0.42524664  0.57724783  1
  O2-  O164  1  0.68132551  0.42994085  0.90020584  1
  O2-  O165  1  0.67783200  0.93051822  0.24114500  1
  O2-  O166  1  0.67726160  0.93002147  0.56508466  1
  O2-  O167  1  0.67563996  0.93010960  0.91318621  1
  O2-  O168  1  0.42376916  0.32613354  0.08975907  1
  O2-  O169  1  0.42814884  0.32315900  0.42313133  1
  O2-  O170  1  0.42864811  0.32236290  0.75577039  1
  O2-  O171  1  0.42805842  0.81722622  0.09734844  1
  O2-  O172  1  0.43169178  0.81907629  0.43441586  1
  O2-  O173  1  0.43386730  0.82319602  0.75658036  1
  O2-  O174  1  0.93113485  0.31765273  0.09845485  1
  O2-  O175  1  0.93243767  0.31754675  0.43265112  1
  O2-  O176  1  0.92639770  0.32059286  0.75474843  1
  O2-  O177  1  0.93043583  0.82644831  0.08994899  1
  O2-  O178  1  0.92477848  0.82094778  0.43057172  1
  O2-  O179  1  0.92580582  0.82019693  0.76691889  1
  O2-  O180  1  0.32469668  0.06867382  0.24407753  1
  O2-  O181  1  0.32128003  0.06480740  0.56518661  1
  O2-  O182  1  0.32117395  0.07108032  0.90247741  1
  O2-  O183  1  0.31660009  0.57104658  0.23161553  1
  O2-  O184  1  0.32316816  0.57199724  0.57133431  1
  O2-  O185  1  0.31921779  0.57190173  0.90950856  1
  O2-  O186  1  0.81923435  0.07123824  0.24346766  1
  O2-  O187  1  0.82177426  0.07460597  0.57550424  1
  O2-  O188  1  0.82108771  0.06821471  0.89959185  1
  O2-  O189  1  0.82236894  0.57362670  0.24480057  1
  O2-  O190  1  0.81522842  0.57010166  0.56487719  1
  O2-  O191  1  0.82360930  0.57033595  0.90382063  1
  O2-  O192  1  0.04758671  0.08413866  0.26928922  1
  O2-  O193  1  0.04320018  0.08456632  0.59724407  1
  O2-  O194  1  0.05172376  0.08174142  0.94259720  1
  O2-  O195  1  0.04937785  0.58547728  0.27085255  1
  O2-  O196  1  0.04312399  0.57945466  0.59646230  1
  O2-  O197  1  0.04268332  0.58300014  0.93190378  1
  O2-  O198  1  0.54065869  0.08452249  0.26094475  1
  O2-  O199  1  0.53488863  0.08294893  0.59796239  1
  O2-  O200  1  0.53837910  0.08525670  0.93133942  1
  O2-  O201  1  0.54883552  0.57925767  0.27534338  1
  O2-  O202  1  0.54766830  0.58318460  0.60788218  1
  O2-  O203  1  0.54382689  0.58360372  0.93762365  1
  O2-  O204  1  0.17175272  0.19720662  0.27159299  1
  O2-  O205  1  0.16905720  0.21140618  0.59837742  1
  O2-  O206  1  0.16918669  0.20445004  0.94398985  1
  O2-  O207  1  0.16356906  0.71038235  0.27171023  1
  O2-  O208  1  0.17126510  0.70638137  0.59794942  1
  O2-  O209  1  0.16216069  0.71390736  0.92747106  1
  O2-  O210  1  0.66685252  0.21177516  0.26597136  1
  O2-  O211  1  0.66708821  0.20544450  0.59568613  1
  O2-  O212  1  0.66504628  0.21161519  0.92884806  1
  O2-  O213  1  0.66470445  0.70169366  0.26910217  1
  O2-  O214  1  0.65927903  0.70968452  0.60445137  1
  O2-  O215  1  0.66815402  0.69924696  0.94147566  1
  O2-  O216  1  0.08773932  0.45971285  0.06352522  1
  O2-  O217  1  0.08291137  0.45382469  0.39513060  1
  O2-  O218  1  0.07971223  0.45430693  0.73372581  1
  O2-  O219  1  0.08621834  0.94907643  0.06289939  1
  O2-  O220  1  0.08227423  0.95984100  0.40273591  1
  O2-  O221  1  0.07906813  0.95318287  0.72781671  1
  O2-  O222  1  0.57978796  0.45477622  0.06770553  1
  O2-  O223  1  0.58506489  0.45322787  0.40614277  1
  O2-  O224  1  0.58436128  0.44829387  0.72894740  1
  O2-  O225  1  0.58446968  0.96018810  0.06467182  1
  O2-  O226  1  0.58761380  0.95993058  0.39295051  1
  O2-  O227  1  0.58515304  0.96402539  0.73541065  1
  O2-  O228  1  0.20466259  0.33882859  0.06811803  1
  O2-  O229  1  0.19877111  0.33126768  0.39281103  1
  O2-  O230  1  0.21013121  0.33298383  0.73707763  1
  O2-  O231  1  0.21105682  0.83436143  0.06064951  1
  O2-  O232  1  0.21285949  0.83672562  0.40493658  1
  O2-  O233  1  0.20068267  0.83552799  0.72890277  1
  O2-  O234  1  0.71129288  0.33067883  0.06526255  1
  O2-  O235  1  0.71745249  0.33201640  0.40312770  1
  O2-  O236  1  0.70358387  0.32969201  0.72670601  1
  O2-  O237  1  0.69300844  0.83271622  0.06437476  1
  O2-  O238  1  0.70313681  0.83491610  0.39181530  1
  O2-  O239  1  0.70520657  0.83422794  0.73711928  1
  O2-  O240  1  0.45480897  0.41826350  0.27300176  1
  O2-  O241  1  0.45212390  0.41846930  0.60579466  1
  O2-  O242  1  0.44841758  0.41961431  0.93813589  1
  O2-  O243  1  0.46216909  0.91172557  0.26340066  1
  O2-  O244  1  0.46467441  0.90955104  0.60245038  1
  O2-  O245  1  0.46188703  0.91613958  0.93022119  1
  O2-  O246  1  0.95937497  0.41706168  0.26396292  1
  O2-  O247  1  0.95379783  0.41512426  0.60264576  1
  O2-  O248  1  0.96156084  0.41477255  0.93201108  1
  O2-  O249  1  0.96100565  0.91889470  0.26495848  1
  O2-  O250  1  0.94893335  0.91990230  0.59947644  1
  O2-  O251  1  0.95531654  0.91691602  0.93743262  1
  O2-  O252  1  0.33288602  0.30304857  0.27146019  1
  O2-  O253  1  0.33584530  0.29587929  0.60343365  1
  O2-  O254  1  0.33043607  0.29852207  0.94001106  1
  O2-  O255  1  0.33211699  0.78710981  0.26707322  1
  O2-  O256  1  0.33594389  0.79952576  0.60645915  1
  O2-  O257  1  0.33594687  0.78903275  0.92682620  1
  O2-  O258  1  0.83764008  0.28401921  0.26490873  1
  O2-  O259  1  0.83516856  0.29554384  0.60148691  1
  O2-  O260  1  0.83584349  0.28590831  0.92912563  1
  O2-  O261  1  0.83064827  0.79603826  0.26140646  1
  O2-  O262  1  0.82684035  0.78792811  0.60188088  1
  O2-  O263  1  0.82798884  0.80551056  0.94417783  1
  O2-  O264  1  0.41805277  0.03696420  0.06846062  1
  O2-  O265  1  0.41786667  0.03905648  0.39362276  1
  O2-  O266  1  0.41373347  0.03331037  0.73384291  1
  O2-  O267  1  0.41127908  0.54872464  0.06293206  1
  O2-  O268  1  0.41648566  0.54398609  0.40149202  1
  O2-  O269  1  0.42032895  0.54514822  0.73909461  1
  O2-  O270  1  0.91848751  0.04246048  0.06990008  1
  O2-  O271  1  0.91453543  0.04750537  0.39386913  1
  O2-  O272  1  0.91720921  0.05005590  0.72732537  1
  O2-  O273  1  0.92246499  0.54171257  0.06952222  1
  O2-  O274  1  0.91665543  0.54631990  0.39445758  1
  O2-  O275  1  0.91597236  0.54181394  0.73123001  1
  O2-  O276  1  0.29520461  0.16771184  0.07325469  1
  O2-  O277  1  0.30645403  0.16780874  0.39307874  1
  O2-  O278  1  0.29356573  0.16637464  0.73241794  1
  O2-  O279  1  0.28666673  0.66464906  0.05896869  1
  O2-  O280  1  0.28761975  0.66512821  0.40144378  1
  O2-  O281  1  0.29620839  0.67451301  0.73587375  1
  O2-  O282  1  0.78624894  0.16418615  0.06658327  1
  O2-  O283  1  0.78947425  0.16037881  0.39760348  1
  O2-  O284  1  0.79482966  0.16626969  0.72712546  1
  O2-  O285  1  0.79823310  0.67175903  0.07028794  1
  O2-  O286  1  0.79622015  0.66843003  0.39415907  1
  O2-  O287  1  0.78438577  0.66290527  0.73625480  1
