# generated using pymatgen
data_Ca2Al2SiO7
_symmetry_space_group_name_H-M   'P 1'
_cell_length_a   15.46580963
_cell_length_b   15.46506008
_cell_length_c   15.28762587
_cell_angle_alpha   89.99358599
_cell_angle_beta   90.01703392
_cell_angle_gamma   89.98367810
_symmetry_Int_Tables_number   1
_chemical_formula_structural   Ca2Al2SiO7
_chemical_formula_sum   'Ca48 Al48 Si24 O168'
_cell_volume   3656.48905716
_cell_formula_units_Z   24
loop_
 _symmetry_equiv_pos_site_id
 _symmetry_equiv_pos_as_xyz
  1  'x, y, z'
loop_
 _atom_type_symbol
 _atom_type_oxidation_number
  Ca2+  2.0
  Al0+  0.0
  Si0+  0.0
  O2-  -2.0
loop_
 _atom_site_type_symbol
 _atom_site_label
 _atom_site_symmetry_multiplicity
 _atom_site_fract_x
 _atom_site_fract_y
 _atom_site_fract_z
 _atom_site_occupancy
  Ca2+  Ca0  1  0.16216059  0.08099278  0.17645606  1
  Ca2+  Ca1  1  0.17118813  0.07939898  0.50043849  1
  Ca2+  Ca2  1  0.17147923  0.08493564  0.83751678  1
  Ca2+  Ca3  1  0.16922977  0.58653180  0.17498916  1
  Ca2+  Ca4  1  0.16229567  0.58009793  0.49717410  1
  Ca2+  Ca5  1  0.17385050  0.58667576  0.84574383  1
  Ca2+  Ca6  1  0.67151058  0.07500227  0.17295987  1
  Ca2+  Ca7  1  0.65497307  0.07661307  0.50003306  1
  Ca2+  Ca8  1  0.67158122  0.07651507  0.84464632  1
  Ca2+  Ca9  1  0.66382976  0.57676842  0.17059933  1
  Ca2+  Ca10  1  0.65613938  0.58022483  0.49960345  1
  Ca2+  Ca11  1  0.67038843  0.58127183  0.84717284  1
  Ca2+  Ca12  1  0.08321744  0.32427013  0.16041615  1
  Ca2+  Ca13  1  0.08486340  0.32773987  0.48789793  1
  Ca2+  Ca14  1  0.07507083  0.33203287  0.83775776  1
  Ca2+  Ca15  1  0.08038998  0.82797997  0.16612328  1
  Ca2+  Ca16  1  0.07395998  0.83429635  0.48811363  1
  Ca2+  Ca17  1  0.07455721  0.82780505  0.83121813  1
  Ca2+  Ca18  1  0.58607074  0.33631503  0.16623455  1
  Ca2+  Ca19  1  0.57897060  0.32144421  0.48728328  1
  Ca2+  Ca20  1  0.58708741  0.32883704  0.83034802  1
  Ca2+  Ca21  1  0.58752049  0.82725114  0.16529080  1
  Ca2+  Ca22  1  0.58037522  0.82367886  0.48783257  1
  Ca2+  Ca23  1  0.59593558  0.82044746  0.83342091  1
  Ca2+  Ca24  1  0.33040947  0.42292076  0.17427067  1
  Ca2+  Ca25  1  0.32991679  0.41033097  0.49570437  1
  Ca2+  Ca26  1  0.33190325  0.42559861  0.84166035  1
  Ca2+  Ca27  1  0.32708870  0.91452057  0.17680515  1
  Ca2+  Ca28  1  0.33086297  0.91682453  0.49922118  1
  Ca2+  Ca29  1  0.33593822  0.92439530  0.83648018  1
  Ca2+  Ca30  1  0.82821470  0.41917654  0.16764027  1
  Ca2+  Ca31  1  0.82583701  0.41782855  0.49849463  1
  Ca2+  Ca32  1  0.82592622  0.42207784  0.84818660  1
  Ca2+  Ca33  1  0.82574236  0.91578335  0.17139451  1
  Ca2+  Ca34  1  0.83211148  0.91102460  0.49839485  1
  Ca2+  Ca35  1  0.82965423  0.92086706  0.84195268  1
  Ca2+  Ca36  1  0.42136298  0.17311405  0.16993052  1
  Ca2+  Ca37  1  0.42307843  0.16688577  0.49275818  1
  Ca2+  Ca38  1  0.42406153  0.16672347  0.82505295  1
  Ca2+  Ca39  1  0.42478209  0.66844547  0.16416249  1
  Ca2+  Ca40  1  0.42632216  0.67192390  0.49092643  1
  Ca2+  Ca41  1  0.42770051  0.66432679  0.83418307  1
  Ca2+  Ca42  1  0.92529008  0.16860741  0.15762072  1
  Ca2+  Ca43  1  0.92483594  0.16754208  0.49098008  1
  Ca2+  Ca44  1  0.91322972  0.16900621  0.83817933  1
  Ca2+  Ca45  1  0.92449767  0.66514951  0.16365690  1
  Ca2+  Ca46  1  0.92066136  0.68018884  0.49109910  1
  Ca2+  Ca47  1  0.91581276  0.66838074  0.83221181  1
  Al0+  Al48  1  0.00263881  -0.00010920  -0.00352637  1
  Al0+  Al49  1  0.00009657  0.00049071  0.33065161  1
  Al0+  Al50  1  -0.00104573  0.00049831  0.66495668  1
  Al0+  Al51  1  0.00074041  0.49754149  -0.00567096  1
  Al0+  Al52  1  0.00011521  0.50106784  0.33761577  1
  Al0+  Al53  1  -0.00210401  0.49861236  0.66778841  1
  Al0+  Al54  1  0.49788561  0.00084947  0.00435031  1
  Al0+  Al55  1  0.50093472  0.00100545  0.33000159  1
  Al0+  Al56  1  0.49919176  -0.00177599  0.66986212  1
  Al0+  Al57  1  0.49781258  0.50196116  0.00278725  1
  Al0+  Al58  1  0.49961447  0.49944392  0.33354891  1
  Al0+  Al59  1  0.49721739  0.49789358  0.66437014  1
  Al0+  Al60  1  0.25192826  0.25059967  -0.00591221  1
  Al0+  Al61  1  0.25103868  0.25125820  0.33011380  1
  Al0+  Al62  1  0.24879581  0.24944261  0.67353804  1
  Al0+  Al63  1  0.25164089  0.75232497  -0.00188015  1
  Al0+  Al64  1  0.25050455  0.75101730  0.33566141  1
  Al0+  Al65  1  0.24883815  0.74798885  0.66895969  1
  Al0+  Al66  1  0.75027408  0.24891277  0.00325247  1
  Al0+  Al67  1  0.75134033  0.25088978  0.33571774  1
  Al0+  Al68  1  0.74974409  0.24888398  0.66188322  1
  Al0+  Al69  1  0.75098395  0.74912376  0.00336870  1
  Al0+  Al70  1  0.75094139  0.75174097  0.33113605  1
  Al0+  Al71  1  0.75118321  0.74835596  0.65828055  1
  Al0+  Al72  1  0.31951802  0.57315323  0.01456425  1
  Al0+  Al73  1  0.42831073  0.82231319  0.31945067  1
  Al0+  Al74  1  0.67813741  0.92819489  0.01527625  1
  Al0+  Al75  1  0.67895484  0.92970285  0.34908561  1
  Al0+  Al76  1  0.57063815  0.68018733  0.98704726  1
  Al0+  Al77  1  0.67758168  0.42917663  0.01426293  1
  Al0+  Al78  1  0.57152051  0.67840659  0.31703743  1
  Al0+  Al79  1  0.32063891  0.06902597  0.68041637  1
  Al0+  Al80  1  0.42907080  0.32069918  0.31781937  1
  Al0+  Al81  1  0.17895279  0.42909090  0.34532224  1
  Al0+  Al82  1  0.67854579  0.42956658  0.34946332  1
  Al0+  Al83  1  0.82504452  0.57147063  0.01494554  1
  Al0+  Al84  1  0.93071112  0.82125112  0.65311658  1
  Al0+  Al85  1  0.17829347  0.92859697  0.34652049  1
  Al0+  Al86  1  0.56982503  0.67808762  0.65361229  1
  Al0+  Al87  1  0.57370872  0.17860141  0.31607856  1
  Al0+  Al88  1  0.82320933  0.07086446  0.01497944  1
  Al0+  Al89  1  0.57088752  0.17805921  0.65460328  1
  Al0+  Al90  1  0.07335727  0.17684091  0.98216552  1
  Al0+  Al91  1  0.92889692  0.82282403  0.31548743  1
  Al0+  Al92  1  0.92715575  0.31963411  0.98534233  1
  Al0+  Al93  1  0.07259733  0.67888786  0.98673470  1
  Al0+  Al94  1  0.07085301  0.67814179  0.32013252  1
  Al0+  Al95  1  0.07059516  0.18072769  0.32181177  1
  Si0+  Si96  1  0.07117198  0.18103519  0.65146663  1
  Si0+  Si97  1  0.56961922  0.17823892  0.98566459  1
  Si0+  Si98  1  0.17544814  0.92760681  0.68443013  1
  Si0+  Si99  1  0.82212881  0.07226842  0.68100110  1
  Si0+  Si100  1  0.17966909  0.42768479  0.01505999  1
  Si0+  Si101  1  0.32124795  0.07422048  0.01655787  1
  Si0+  Si102  1  0.92821977  0.32159927  0.64992160  1
  Si0+  Si103  1  0.42813348  0.82429017  0.98180463  1
  Si0+  Si104  1  0.67844209  0.42789225  0.68009047  1
  Si0+  Si105  1  0.82229613  0.07182996  0.35145947  1
  Si0+  Si106  1  0.42572865  0.32072705  0.65104933  1
  Si0+  Si107  1  0.42567704  0.82155496  0.65168675  1
  Si0+  Si108  1  0.92776155  0.32403621  0.31829701  1
  Si0+  Si109  1  0.18122735  0.93081251  0.01350545  1
  Si0+  Si110  1  0.07301802  0.67599433  0.65066349  1
  Si0+  Si111  1  0.68037269  0.92765119  0.67998010  1
  Si0+  Si112  1  0.81901173  0.57038233  0.68075965  1
  Si0+  Si113  1  0.92848695  0.82110398  0.98320668  1
  Si0+  Si114  1  0.32051545  0.57051105  0.68252604  1
  Si0+  Si115  1  0.32176636  0.57242453  0.35230966  1
  Si0+  Si116  1  0.17686248  0.42836152  0.68387892  1
  Si0+  Si117  1  0.43001436  0.32203537  0.98339127  1
  Si0+  Si118  1  0.32135268  0.07274215  0.34860844  1
  Si0+  Si119  1  0.82240424  0.57269689  0.35222381  1
  O2-  O120  1  0.24760653  0.00576653  0.05641458  1
  O2-  O121  1  0.25447023  0.00218206  0.39308802  1
  O2-  O122  1  0.24696582  -0.00655960  0.72903176  1
  O2-  O123  1  0.24156445  0.50152378  0.05971650  1
  O2-  O124  1  0.25197822  0.50376913  0.39606994  1
  O2-  O125  1  0.24624244  0.50194807  0.72458399  1
  O2-  O126  1  0.75204411  -0.00142358  0.06449497  1
  O2-  O127  1  0.75164018  0.00610299  0.39794397  1
  O2-  O128  1  0.74987414  0.00111344  0.72144144  1
  O2-  O129  1  0.75061388  0.50096872  0.06296761  1
  O2-  O130  1  0.75066930  0.50669244  0.39750682  1
  O2-  O131  1  0.74625887  0.50111022  0.72325478  1
  O2-  O132  1  -0.00294107  0.25587317  0.27561072  1
  O2-  O133  1  0.00063048  0.25186784  0.60818266  1
  O2-  O134  1  -0.00171214  0.24673283  0.93325548  1
  O2-  O135  1  -0.00008502  0.74903063  0.26804119  1
  O2-  O136  1  0.00843202  0.74861423  0.60812157  1
  O2-  O137  1  -0.00604367  0.74890093  0.93860045  1
  O2-  O138  1  0.50498237  0.25389675  0.26648372  1
  O2-  O139  1  0.49481198  0.25185164  0.60885771  1
  O2-  O140  1  0.50176787  0.25158682  0.94121321  1
  O2-  O141  1  0.50092234  0.75234471  0.26835290  1
  O2-  O142  1  0.49440319  0.75277048  0.60874276  1
  O2-  O143  1  0.50022018  0.75866634  0.93812740  1
  O2-  O144  1  0.07645010  0.17936675  0.09528390  1
  O2-  O145  1  0.07016183  0.18179575  0.43596936  1
  O2-  O146  1  0.07084908  0.18201463  0.75615195  1
  O2-  O147  1  0.07524756  0.68280947  0.09885073  1
  O2-  O148  1  0.06767867  0.67828228  0.43449556  1
  O2-  O149  1  0.07270272  0.67516409  0.75637996  1
  O2-  O150  1  0.56618117  0.17728135  0.08998211  1
  O2-  O151  1  0.56886955  0.17819600  0.43042503  1
  O2-  O152  1  0.57161255  0.18078254  0.76822435  1
  O2-  O153  1  0.56740093  0.67844642  0.09884659  1
  O2-  O154  1  0.56747239  0.67902396  0.43155270  1
  O2-  O155  1  0.57091879  0.67775865  0.76683501  1
  O2-  O156  1  0.18059023  0.42861971  0.23279582  1
  O2-  O157  1  0.17655219  0.42633303  0.57896961  1
  O2-  O158  1  0.18420398  0.42764516  0.90850047  1
  O2-  O159  1  0.17908210  0.93094758  0.23328420  1
  O2-  O160  1  0.17459542  0.92965249  0.57921073  1
  O2-  O161  1  0.18407568  0.93056699  0.90784335  1
  O2-  O162  1  0.68119206  0.42934721  0.23711654  1
  O2-  O163  1  0.68042622  0.42770455  0.57533581  1
  O2-  O164  1  0.67711269  0.42991180  0.89913428  1
  O2-  O165  1  0.68022647  0.93070042  0.23670821  1
  O2-  O166  1  0.68002930  0.92844615  0.57524012  1
  O2-  O167  1  0.67939035  0.92979620  0.90006126  1
  O2-  O168  1  0.42659164  0.32019427  0.08774297  1
  O2-  O169  1  0.42764552  0.31621195  0.43217316  1
  O2-  O170  1  0.42687339  0.32247986  0.75694992  1
  O2-  O171  1  0.42457366  0.82400252  0.08660437  1
  O2-  O172  1  0.42878015  0.81984608  0.43398941  1
  O2-  O173  1  0.42452870  0.82126416  0.75728297  1
  O2-  O174  1  0.93015928  0.31926899  0.09846799  1
  O2-  O175  1  0.92938933  0.32194056  0.42508972  1
  O2-  O176  1  0.92731507  0.32201861  0.75448677  1
  O2-  O177  1  0.93179384  0.82423382  0.08784357  1
  O2-  O178  1  0.93133762  0.82201423  0.42988421  1
  O2-  O179  1  0.93003142  0.81965942  0.76637644  1
  O2-  O180  1  0.31833681  0.07424600  0.24293106  1
  O2-  O181  1  0.31813197  0.07058320  0.56786242  1
  O2-  O182  1  0.32313851  0.07274019  0.91093168  1
  O2-  O183  1  0.32090086  0.57219358  0.24692870  1
  O2-  O184  1  0.32138050  0.57065346  0.57802167  1
  O2-  O185  1  0.32009296  0.56962983  0.90027472  1
  O2-  O186  1  0.82284009  0.07071453  0.24637957  1
  O2-  O187  1  0.82587963  0.07388997  0.57648746  1
  O2-  O188  1  0.81915663  0.06913926  0.89995651  1
  O2-  O189  1  0.82600590  0.56875543  0.24726280  1
  O2-  O190  1  0.82147203  0.56791541  0.57613918  1
  O2-  O191  1  0.82118064  0.57101872  0.89985303  1
  O2-  O192  1  0.03987348  0.08577241  0.26703757  1
  O2-  O193  1  0.04365768  0.08881864  0.60530471  1
  O2-  O194  1  0.04841968  0.07802269  0.92734729  1
  O2-  O195  1  0.04388500  0.57884650  0.26880702  1
  O2-  O196  1  0.04392338  0.58254672  0.60593333  1
  O2-  O197  1  0.04872900  0.58087951  0.93176904  1
  O2-  O198  1  0.54275294  0.08230260  0.26258683  1
  O2-  O199  1  0.53962629  0.08045588  0.60322128  1
  O2-  O200  1  0.53755844  0.08751050  0.93737939  1
  O2-  O201  1  0.54195259  0.58016835  0.26692459  1
  O2-  O202  1  0.53777965  0.58114359  0.60068647  1
  O2-  O203  1  0.53472190  0.58477142  0.93195431  1
  O2-  O204  1  0.16621699  0.20998856  0.26727313  1
  O2-  O205  1  0.16354442  0.20983511  0.60620240  1
  O2-  O206  1  0.17068050  0.20961775  0.92715093  1
  O2-  O207  1  0.17021041  0.70466791  0.27107641  1
  O2-  O208  1  0.16865575  0.69588087  0.60656838  1
  O2-  O209  1  0.16717735  0.71550306  0.93009516  1
  O2-  O210  1  0.67398701  0.20480834  0.26792293  1
  O2-  O211  1  0.66649335  0.20779621  0.59840577  1
  O2-  O212  1  0.66260867  0.20249830  0.93929161  1
  O2-  O213  1  0.67078082  0.70384467  0.26761835  1
  O2-  O214  1  0.66532365  0.70702787  0.59780165  1
  O2-  O215  1  0.66901457  0.70839075  0.93298992  1
  O2-  O216  1  0.08309685  0.44388353  0.05536946  1
  O2-  O217  1  0.08303065  0.45755669  0.40404755  1
  O2-  O218  1  0.08374069  0.45411563  0.73051500  1
  O2-  O219  1  0.08808517  0.95382277  0.05895651  1
  O2-  O220  1  0.08293991  0.96315411  0.40146923  1
  O2-  O221  1  0.08329846  0.95769207  0.73150874  1
  O2-  O222  1  0.57974295  0.45787851  0.06636441  1
  O2-  O223  1  0.58070136  0.45749084  0.40390793  1
  O2-  O224  1  0.58381923  0.45026586  0.72478180  1
  O2-  O225  1  0.57961402  0.95752842  0.06653458  1
  O2-  O226  1  0.58119213  0.96063134  0.40257596  1
  O2-  O227  1  0.58811379  0.95149934  0.72819264  1
  O2-  O228  1  0.21198950  0.33544559  0.05942349  1
  O2-  O229  1  0.21284375  0.33335984  0.40165718  1
  O2-  O230  1  0.20585662  0.33828114  0.73387125  1
  O2-  O231  1  0.21321527  0.84113885  0.06113386  1
  O2-  O232  1  0.20797083  0.83308902  0.40412474  1
  O2-  O233  1  0.19740638  0.83178955  0.72871389  1
  O2-  O234  1  0.70332965  0.33029317  0.06571753  1
  O2-  O235  1  0.71220894  0.33354307  0.40530601  1
  O2-  O236  1  0.70953023  0.33622645  0.72659501  1
  O2-  O237  1  0.70447121  0.82982673  0.06692568  1
  O2-  O238  1  0.71050096  0.83262297  0.40304843  1
  O2-  O239  1  0.71263736  0.83587792  0.72552399  1
  O2-  O240  1  0.45202910  0.42054061  0.26777911  1
  O2-  O241  1  0.44900495  0.41383632  0.60370572  1
  O2-  O242  1  0.45695097  0.41382206  0.93535266  1
  O2-  O243  1  0.45055809  0.92163130  0.26743649  1
  O2-  O244  1  0.45064671  0.91532334  0.60688806  1
  O2-  O245  1  0.45099623  0.91978729  0.93701160  1
  O2-  O246  1  0.95237643  0.41785465  0.27512396  1
  O2-  O247  1  0.95526839  0.41389858  0.60285494  1
  O2-  O248  1  0.95729511  0.41585104  0.92684542  1
  O2-  O249  1  0.95882064  0.91990864  0.26311944  1
  O2-  O250  1  0.95846291  0.91880314  0.59905790  1
  O2-  O251  1  0.95901423  0.91245908  0.93401535  1
  O2-  O252  1  0.33335953  0.28918199  0.26210304  1
  O2-  O253  1  0.33105604  0.29448733  0.60768306  1
  O2-  O254  1  0.33997917  0.29329833  0.93210424  1
  O2-  O255  1  0.33003395  0.79379297  0.26742729  1
  O2-  O256  1  0.33095046  0.79663222  0.60678804  1
  O2-  O257  1  0.33692351  0.79567694  0.93195225  1
  O2-  O258  1  0.83466761  0.29899919  0.27348449  1
  O2-  O259  1  0.83767507  0.29252609  0.60093289  1
  O2-  O260  1  0.82853498  0.29051158  0.93033782  1
  O2-  O261  1  0.83062422  0.79623844  0.26447687  1
  O2-  O262  1  0.83685354  0.78777645  0.59596460  1
  O2-  O263  1  0.83404411  0.79856644  0.93739185  1
  O2-  O264  1  0.41122055  0.04559807  0.06568681  1
  O2-  O265  1  0.41540427  0.04857325  0.39395114  1
  O2-  O266  1  0.41660436  0.03849903  0.73810500  1
  O2-  O267  1  0.41314090  0.53856984  0.06932253  1
  O2-  O268  1  0.41411151  0.54426079  0.39959782  1
  O2-  O269  1  0.41107262  0.53824733  0.73126244  1
  O2-  O270  1  0.92443256  0.04603198  0.06277334  1
  O2-  O271  1  0.91507541  0.04300888  0.39855933  1
  O2-  O272  1  0.91356129  0.04422582  0.72966987  1
  O2-  O273  1  0.92368524  0.54071483  0.06530468  1
  O2-  O274  1  0.91380164  0.54385674  0.40268298  1
  O2-  O275  1  0.91091936  0.54182723  0.72886934  1
  O2-  O276  1  0.29584928  0.16766334  0.06072489  1
  O2-  O277  1  0.29275839  0.16482264  0.39613178  1
  O2-  O278  1  0.28963981  0.16516147  0.73720262  1
  O2-  O279  1  0.29221676  0.67122401  0.06582006  1
  O2-  O280  1  0.29628431  0.66510895  0.40041223  1
  O2-  O281  1  0.29614440  0.66306164  0.73126850  1
  O2-  O282  1  0.79598607  0.16832864  0.06795148  1
  O2-  O283  1  0.80208265  0.16697635  0.39756390  1
  O2-  O284  1  0.79328033  0.16448024  0.72787109  1
  O2-  O285  1  0.80236337  0.67074114  0.06604246  1
  O2-  O286  1  0.79921110  0.66762228  0.39619997  1
  O2-  O287  1  0.79246544  0.66334947  0.72644196  1
