# generated using pymatgen
data_Ca2Al2SiO7
_symmetry_space_group_name_H-M   'P 1'
_cell_length_a   15.46686267
_cell_length_b   15.46848155
_cell_length_c   15.28936703
_cell_angle_alpha   89.97426886
_cell_angle_beta   89.98467408
_cell_angle_gamma   90.02983615
_symmetry_Int_Tables_number   1
_chemical_formula_structural   Ca2Al2SiO7
_chemical_formula_sum   'Ca48 Al48 Si24 O168'
_cell_volume   3657.96293877
_cell_formula_units_Z   24
loop_
 _symmetry_equiv_pos_site_id
 _symmetry_equiv_pos_as_xyz
  1  'x, y, z'
loop_
 _atom_type_symbol
 _atom_type_oxidation_number
  Ca2+  2.0
  Al0+  0.0
  Si0+  0.0
  O2-  -2.0
loop_
 _atom_site_type_symbol
 _atom_site_label
 _atom_site_symmetry_multiplicity
 _atom_site_fract_x
 _atom_site_fract_y
 _atom_site_fract_z
 _atom_site_occupancy
  Ca2+  Ca0  1  0.16516353  0.07402101  0.17109543  1
  Ca2+  Ca1  1  0.17042584  0.07819725  0.50065431  1
  Ca2+  Ca2  1  0.18191456  0.07716928  0.83991326  1
  Ca2+  Ca3  1  0.17781734  0.58070516  0.17435655  1
  Ca2+  Ca4  1  0.18082420  0.58667126  0.50021941  1
  Ca2+  Ca5  1  0.18020811  0.58653713  0.83857774  1
  Ca2+  Ca6  1  0.67376194  0.07884043  0.16589573  1
  Ca2+  Ca7  1  0.67759461  0.08556163  0.50753565  1
  Ca2+  Ca8  1  0.67075983  0.08230541  0.84360728  1
  Ca2+  Ca9  1  0.67433511  0.58644136  0.17169266  1
  Ca2+  Ca10  1  0.66731637  0.59486513  0.49934064  1
  Ca2+  Ca11  1  0.66505613  0.57805800  0.84301343  1
  Ca2+  Ca12  1  0.08932231  0.32763750  0.16537326  1
  Ca2+  Ca13  1  0.08772711  0.32495134  0.48915475  1
  Ca2+  Ca14  1  0.07905147  0.33239862  0.82946382  1
  Ca2+  Ca15  1  0.07428956  0.84328161  0.16288915  1
  Ca2+  Ca16  1  0.07736070  0.83798007  0.48996423  1
  Ca2+  Ca17  1  0.07843778  0.84197152  0.83879001  1
  Ca2+  Ca18  1  0.58767178  0.32774179  0.15938985  1
  Ca2+  Ca19  1  0.58339388  0.32596475  0.49954786  1
  Ca2+  Ca20  1  0.58894612  0.32272149  0.83326035  1
  Ca2+  Ca21  1  0.58086048  0.83110713  0.16545335  1
  Ca2+  Ca22  1  0.56855994  0.82501980  0.49448153  1
  Ca2+  Ca23  1  0.57914630  0.82989673  0.82602287  1
  Ca2+  Ca24  1  0.33281748  0.42819020  0.17320657  1
  Ca2+  Ca25  1  0.33193677  0.42598593  0.49938107  1
  Ca2+  Ca26  1  0.34116710  0.43057100  0.83572180  1
  Ca2+  Ca27  1  0.32347490  0.91704725  0.17086624  1
  Ca2+  Ca28  1  0.33084266  0.91048015  0.50362489  1
  Ca2+  Ca29  1  0.33531067  0.92277593  0.83990131  1
  Ca2+  Ca30  1  0.82832866  0.42741953  0.16782594  1
  Ca2+  Ca31  1  0.83397097  0.42460619  0.49934301  1
  Ca2+  Ca32  1  0.82404073  0.42477313  0.84366410  1
  Ca2+  Ca33  1  0.83281915  0.91871158  0.16980649  1
  Ca2+  Ca34  1  0.83606078  0.92548309  0.50035556  1
  Ca2+  Ca35  1  0.82449812  0.92526696  0.84420771  1
  Ca2+  Ca36  1  0.42002399  0.16936072  0.15509535  1
  Ca2+  Ca37  1  0.42152265  0.16005334  0.49827311  1
  Ca2+  Ca38  1  0.42888725  0.15567372  0.82918869  1
  Ca2+  Ca39  1  0.41398593  0.66716089  0.16609905  1
  Ca2+  Ca40  1  0.42202846  0.66781942  0.49279453  1
  Ca2+  Ca41  1  0.41978464  0.67140914  0.82301108  1
  Ca2+  Ca42  1  0.91942060  0.15735451  0.16456464  1
  Ca2+  Ca43  1  0.92024716  0.16378633  0.48996603  1
  Ca2+  Ca44  1  0.91230951  0.16275630  0.83034748  1
  Ca2+  Ca45  1  0.91096202  0.67560380  0.16071189  1
  Ca2+  Ca46  1  0.91858873  0.67433087  0.48749904  1
  Ca2+  Ca47  1  0.91049760  0.67494736  0.83394965  1
  Al0+  Al48  1  0.00072986  0.00039500  -0.00294928  1
  Al0+  Al49  1  0.00120261  0.00156033  0.33364523  1
  Al0+  Al50  1  0.00002236  0.00221864  0.67076405  1
  Al0+  Al51  1  0.00137778  0.50010002  -0.00035528  1
  Al0+  Al52  1  -0.00198461  0.49799430  0.34009881  1
  Al0+  Al53  1  -0.00152038  0.50035916  0.66628726  1
  Al0+  Al54  1  0.50112990  0.00031105  0.00376011  1
  Al0+  Al55  1  0.50122364  -0.00196740  0.32813969  1
  Al0+  Al56  1  0.50090516  -0.00165281  0.65896546  1
  Al0+  Al57  1  0.49934046  0.49864083  0.00754183  1
  Al0+  Al58  1  0.50162556  0.49712637  0.33355012  1
  Al0+  Al59  1  0.50091279  0.49767058  0.66620199  1
  Al0+  Al60  1  0.25107155  0.25205195  -0.00357274  1
  Al0+  Al61  1  0.25107982  0.24862207  0.33088510  1
  Al0+  Al62  1  0.24878292  0.24878069  0.67107651  1
  Al0+  Al63  1  0.24865112  0.75022470  0.00586538  1
  Al0+  Al64  1  0.24889994  0.75073331  0.33814014  1
  Al0+  Al65  1  0.24568423  0.74878515  0.66996780  1
  Al0+  Al66  1  0.75109193  0.25116515  0.00301879  1
  Al0+  Al67  1  0.75163989  0.25090152  0.33661105  1
  Al0+  Al68  1  0.75130974  0.25282894  0.66495274  1
  Al0+  Al69  1  0.74944702  0.75167406  -0.00069571  1
  Al0+  Al70  1  0.74857152  0.75098331  0.33179695  1
  Al0+  Al71  1  0.75136884  0.75243869  0.66233626  1
  Al0+  Al72  1  0.57166185  0.67643048  0.65319885  1
  Al0+  Al73  1  0.92819949  0.82125793  0.98463438  1
  Al0+  Al74  1  0.17897986  0.42576639  0.34713530  1
  Al0+  Al75  1  0.32301631  0.07274927  0.01450807  1
  Al0+  Al76  1  0.07075910  0.18085780  0.31871958  1
  Al0+  Al77  1  0.32189945  0.57068120  0.34982435  1
  Al0+  Al78  1  0.17984178  0.93061251  0.01527346  1
  Al0+  Al79  1  0.42576170  0.82054844  0.65364048  1
  Al0+  Al80  1  0.57190122  0.17900687  0.65272003  1
  Al0+  Al81  1  0.93059135  0.82091044  0.32013374  1
  Al0+  Al82  1  0.57058178  0.17968572  0.98762810  1
  Al0+  Al83  1  0.17962130  0.93072545  0.34768155  1
  Al0+  Al84  1  0.32079707  0.57100349  0.01369511  1
  Al0+  Al85  1  0.32253317  0.06968518  0.67866714  1
  Al0+  Al86  1  0.56942877  0.67750221  0.31562028  1
  Al0+  Al87  1  0.82176218  0.57277999  0.01282925  1
  Al0+  Al88  1  0.82130596  0.07138995  0.01492364  1
  Al0+  Al89  1  0.67712682  0.92733881  0.01485485  1
  Al0+  Al90  1  0.81893912  0.57277836  0.34798561  1
  Al0+  Al91  1  0.32069009  0.56992769  0.68084057  1
  Al0+  Al92  1  0.81929095  0.06930140  0.34730362  1
  Al0+  Al93  1  0.42559496  0.82093991  0.31502236  1
  Al0+  Al94  1  0.67879928  0.42900138  0.01517293  1
  Al0+  Al95  1  0.82023684  0.07236489  0.68063343  1
  Si0+  Si96  1  0.17629977  0.92746143  0.68448805  1
  Si0+  Si97  1  0.67589985  0.92744585  0.35277026  1
  Si0+  Si98  1  0.17651090  0.42760129  0.01449016  1
  Si0+  Si99  1  0.93139718  0.82278210  0.65133169  1
  Si0+  Si100  1  0.93054907  0.32231333  0.98431440  1
  Si0+  Si101  1  0.07238466  0.17897134  0.98148288  1
  Si0+  Si102  1  0.42664134  0.32108751  0.65004018  1
  Si0+  Si103  1  0.92944442  0.32270234  0.65028654  1
  Si0+  Si104  1  0.42725531  0.32382051  0.98197291  1
  Si0+  Si105  1  0.42736243  0.81967706  0.98629335  1
  Si0+  Si106  1  0.92643439  0.32340719  0.31488222  1
  Si0+  Si107  1  0.82150649  0.57307740  0.68093855  1
  Si0+  Si108  1  0.07269230  0.67698019  0.98297164  1
  Si0+  Si109  1  0.32458302  0.07167983  0.34845109  1
  Si0+  Si110  1  0.67862658  0.42674805  0.35310967  1
  Si0+  Si111  1  0.56975506  0.67803666  0.98656584  1
  Si0+  Si112  1  0.68017629  0.42948603  0.68126863  1
  Si0+  Si113  1  0.17628995  0.42752936  0.68397111  1
  Si0+  Si114  1  0.06859101  0.67656325  0.65147297  1
  Si0+  Si115  1  0.43025064  0.31815135  0.31845449  1
  Si0+  Si116  1  0.57443662  0.17874115  0.31823955  1
  Si0+  Si117  1  0.07057738  0.18029930  0.65179620  1
  Si0+  Si118  1  0.07115881  0.67532995  0.31821542  1
  Si0+  Si119  1  0.67961770  0.92834100  0.68104718  1
  O2-  O120  1  0.25023704  0.00344426  0.06585851  1
  O2-  O121  1  0.25928999  0.00041842  0.39371507  1
  O2-  O122  1  0.25184454  -0.00946563  0.72504154  1
  O2-  O123  1  0.24573874  0.49540677  0.05744277  1
  O2-  O124  1  0.24704307  0.50019752  0.39862100  1
  O2-  O125  1  0.24588735  0.49480421  0.72832521  1
  O2-  O126  1  0.75173021  -0.00267353  0.06419739  1
  O2-  O127  1  0.74326538  -0.00207264  0.39684290  1
  O2-  O128  1  0.74355062  0.00056746  0.72688591  1
  O2-  O129  1  0.74750358  0.50422336  0.06382726  1
  O2-  O130  1  0.74343170  0.49946858  0.39694126  1
  O2-  O131  1  0.74598969  0.50648184  0.72182881  1
  O2-  O132  1  -0.00267474  0.25688471  0.27113852  1
  O2-  O133  1  0.00038962  0.25166353  0.60862958  1
  O2-  O134  1  0.00027001  0.25023653  0.94027720  1
  O2-  O135  1  0.00217240  0.74286224  0.27335144  1
  O2-  O136  1  0.00080892  0.75049430  0.60899759  1
  O2-  O137  1  0.00195789  0.74411739  0.93826401  1
  O2-  O138  1  0.50053169  0.24650793  0.27646424  1
  O2-  O139  1  0.49221999  0.24899612  0.60571170  1
  O2-  O140  1  0.49352290  0.25203348  0.93913127  1
  O2-  O141  1  0.49588323  0.74722067  0.26472139  1
  O2-  O142  1  0.49492893  0.74459597  0.60527149  1
  O2-  O143  1  0.49865071  0.74865255  0.94379379  1
  O2-  O144  1  0.07359388  0.18025018  0.08634511  1
  O2-  O145  1  0.06960192  0.18096635  0.43255615  1
  O2-  O146  1  0.06952160  0.18203369  0.75688132  1
  O2-  O147  1  0.07301624  0.67438905  0.08801900  1
  O2-  O148  1  0.06899638  0.67741882  0.42458694  1
  O2-  O149  1  0.06626905  0.67279996  0.75631055  1
  O2-  O150  1  0.57033957  0.18311002  0.10083582  1
  O2-  O151  1  0.57471754  0.18128255  0.42375618  1
  O2-  O152  1  0.57425416  0.18172640  0.76552467  1
  O2-  O153  1  0.56923383  0.67765761  0.09109488  1
  O2-  O154  1  0.56854568  0.67996912  0.42947947  1
  O2-  O155  1  0.57272511  0.67684795  0.76741982  1
  O2-  O156  1  0.18347260  0.42581486  0.23344642  1
  O2-  O157  1  0.17499537  0.42717638  0.57891878  1
  O2-  O158  1  0.17465285  0.42866104  0.90853723  1
  O2-  O159  1  0.17683190  0.93445264  0.23536684  1
  O2-  O160  1  0.17094632  0.93025715  0.57910835  1
  O2-  O161  1  0.18189223  0.93184593  0.90111080  1
  O2-  O162  1  0.68125528  0.42313179  0.24803577  1
  O2-  O163  1  0.68358010  0.42489170  0.57647422  1
  O2-  O164  1  0.68058676  0.42962004  0.90075152  1
  O2-  O165  1  0.67596037  0.92891712  0.24736582  1
  O2-  O166  1  0.68445699  0.92816892  0.57570679  1
  O2-  O167  1  0.67671876  0.92801547  0.90049385  1
  O2-  O168  1  0.42617765  0.32371194  0.08760233  1
  O2-  O169  1  0.43078384  0.31703637  0.42385169  1
  O2-  O170  1  0.42943807  0.32416342  0.75532326  1
  O2-  O171  1  0.42602873  0.81757913  0.09084585  1
  O2-  O172  1  0.42723961  0.82103502  0.42876623  1
  O2-  O173  1  0.42845726  0.82027196  0.76799743  1
  O2-  O174  1  0.93327661  0.32496386  0.08878449  1
  O2-  O175  1  0.92473713  0.32080560  0.42104575  1
  O2-  O176  1  0.93029611  0.32482118  0.75549630  1
  O2-  O177  1  0.93019669  0.82148757  0.09727981  1
  O2-  O178  1  0.93321926  0.82086069  0.43426537  1
  O2-  O179  1  0.93107876  0.82181432  0.75624372  1
  O2-  O180  1  0.32243868  0.07441398  0.24327827  1
  O2-  O181  1  0.31755620  0.07336834  0.56576625  1
  O2-  O182  1  0.32313250  0.06919327  0.90041971  1
  O2-  O183  1  0.32073766  0.56795141  0.23631053  1
  O2-  O184  1  0.31956458  0.56780890  0.56847111  1
  O2-  O185  1  0.32128012  0.57080185  0.90004384  1
  O2-  O186  1  0.81802142  0.06922985  0.23491976  1
  O2-  O187  1  0.82305660  0.07063570  0.56756520  1
  O2-  O188  1  0.81852584  0.07150759  0.90079903  1
  O2-  O189  1  0.81934185  0.57098793  0.23540357  1
  O2-  O190  1  0.82422538  0.57104676  0.57607588  1
  O2-  O191  1  0.81960926  0.57017095  0.89818479  1
  O2-  O192  1  0.03625590  0.08632487  0.26443186  1
  O2-  O193  1  0.04177343  0.08812453  0.60560835  1
  O2-  O194  1  0.04471083  0.08838165  0.93231761  1
  O2-  O195  1  0.04741898  0.57993824  0.27543095  1
  O2-  O196  1  0.03862656  0.58622787  0.60205047  1
  O2-  O197  1  0.05054808  0.58266261  0.93522563  1
  O2-  O198  1  0.55244620  0.08547743  0.27258828  1
  O2-  O199  1  0.54685207  0.08256895  0.59623305  1
  O2-  O200  1  0.54158817  0.08209730  0.93339051  1
  O2-  O201  1  0.54691659  0.57579856  0.26647830  1
  O2-  O202  1  0.54911415  0.57614898  0.60117412  1
  O2-  O203  1  0.54156983  0.58485130  0.94123242  1
  O2-  O204  1  0.16755021  0.21015540  0.26356675  1
  O2-  O205  1  0.16271260  0.20754010  0.60459950  1
  O2-  O206  1  0.16360431  0.20865414  0.93235727  1
  O2-  O207  1  0.16526950  0.70046526  0.27473878  1
  O2-  O208  1  0.16141390  0.70174808  0.60548190  1
  O2-  O209  1  0.16526281  0.70765973  0.93585086  1
  O2-  O210  1  0.66483952  0.21175649  0.27171246  1
  O2-  O211  1  0.66663113  0.21688308  0.59786230  1
  O2-  O212  1  0.66719790  0.21406311  0.93407594  1
  O2-  O213  1  0.66772746  0.70842571  0.26447067  1
  O2-  O214  1  0.66961727  0.70826117  0.59967847  1
  O2-  O215  1  0.66146593  0.70423711  0.93802921  1
  O2-  O216  1  0.08376080  0.45133862  0.06203963  1
  O2-  O217  1  0.07841427  0.44541402  0.39935508  1
  O2-  O218  1  0.08231858  0.45509718  0.72967861  1
  O2-  O219  1  0.08141158  0.96077280  0.06521461  1
  O2-  O220  1  0.08604212  0.96784012  0.40397947  1
  O2-  O221  1  0.08651645  0.96158013  0.73364749  1
  O2-  O222  1  0.58015212  0.45058907  0.06890776  1
  O2-  O223  1  0.58364152  0.44646159  0.39803159  1
  O2-  O224  1  0.58707367  0.45035168  0.72857461  1
  O2-  O225  1  0.58144962  0.95722855  0.07061675  1
  O2-  O226  1  0.58151324  0.95286158  0.39742696  1
  O2-  O227  1  0.58363914  0.94866523  0.72300934  1
  O2-  O228  1  0.20105588  0.33345318  0.05867661  1
  O2-  O229  1  0.21237186  0.32876667  0.40133127  1
  O2-  O230  1  0.19877508  0.33366107  0.73104014  1
  O2-  O231  1  0.20474582  0.83246119  0.06846787  1
  O2-  O232  1  0.20286221  0.83301754  0.40309523  1
  O2-  O233  1  0.19182328  0.83158369  0.72942958  1
  O2-  O234  1  0.71238592  0.33393175  0.06999369  1
  O2-  O235  1  0.70955206  0.33570233  0.40234061  1
  O2-  O236  1  0.71513598  0.34108686  0.73097944  1
  O2-  O237  1  0.70389747  0.82925877  0.06735483  1
  O2-  O238  1  0.70384211  0.83502995  0.39854130  1
  O2-  O239  1  0.70962653  0.83610211  0.72853442  1
  O2-  O240  1  0.45858771  0.40927812  0.27044334  1
  O2-  O241  1  0.45745637  0.41191683  0.60116287  1
  O2-  O242  1  0.45795126  0.41661069  0.93600720  1
  O2-  O243  1  0.45509158  0.91961744  0.26203468  1
  O2-  O244  1  0.45501362  0.91635160  0.59593373  1
  O2-  O245  1  0.45609801  0.91208906  0.94063807  1
  O2-  O246  1  0.94905474  0.41851932  0.27116233  1
  O2-  O247  1  0.95648953  0.41475116  0.60209633  1
  O2-  O248  1  0.95958350  0.41301772  0.93319466  1
  O2-  O249  1  0.96477493  0.91619727  0.26717249  1
  O2-  O250  1  0.96187744  0.91482006  0.60532825  1
  O2-  O251  1  0.96198908  0.91681342  0.92825137  1
  O2-  O252  1  0.33945947  0.29141416  0.26901483  1
  O2-  O253  1  0.33081158  0.29855992  0.60715490  1
  O2-  O254  1  0.33264595  0.30475672  0.93426345  1
  O2-  O255  1  0.32501080  0.79449694  0.26586525  1
  O2-  O256  1  0.32394849  0.79677580  0.60541154  1
  O2-  O257  1  0.33525262  0.79170269  0.93918482  1
  O2-  O258  1  0.83340353  0.29536826  0.26939659  1
  O2-  O259  1  0.83853822  0.29585073  0.60149008  1
  O2-  O260  1  0.83851318  0.29506335  0.93687278  1
  O2-  O261  1  0.83285635  0.79366640  0.26834526  1
  O2-  O262  1  0.83969527  0.79728763  0.60302660  1
  O2-  O263  1  0.83168874  0.79090691  0.92827162  1
  O2-  O264  1  0.42024041  0.04637852  0.06796939  1
  O2-  O265  1  0.42035213  0.04962359  0.39189312  1
  O2-  O266  1  0.42174612  0.04202838  0.72906113  1
  O2-  O267  1  0.41482404  0.53932865  0.07027383  1
  O2-  O268  1  0.41936843  0.53636712  0.40108512  1
  O2-  O269  1  0.41784586  0.53763443  0.73367440  1
  O2-  O270  1  0.92131082  0.04543396  0.06332233  1
  O2-  O271  1  0.91541357  0.03744963  0.40146338  1
  O2-  O272  1  0.91648283  0.04141879  0.73508492  1
  O2-  O273  1  0.91999043  0.54258486  0.06382811  1
  O2-  O274  1  0.91430919  0.54085459  0.40494548  1
  O2-  O275  1  0.91122935  0.54049066  0.72969487  1
  O2-  O276  1  0.29752272  0.17412759  0.06195569  1
  O2-  O277  1  0.29627972  0.16397940  0.39527194  1
  O2-  O278  1  0.28920485  0.16491036  0.73496126  1
  O2-  O279  1  0.28864871  0.66534067  0.06900019  1
  O2-  O280  1  0.29294395  0.66823288  0.40338961  1
  O2-  O281  1  0.28708523  0.66550507  0.73594816  1
  O2-  O282  1  0.79486146  0.16946977  0.06744866  1
  O2-  O283  1  0.79124812  0.16725012  0.40138990  1
  O2-  O284  1  0.79347791  0.17151135  0.73130803  1
  O2-  O285  1  0.79593814  0.67125456  0.06366419  1
  O2-  O286  1  0.78920021  0.66961256  0.40270246  1
  O2-  O287  1  0.79900855  0.66749706  0.72530970  1
