# generated using pymatgen
data_Ca2Al2SiO7
_symmetry_space_group_name_H-M   'P 1'
_cell_length_a   15.45807471
_cell_length_b   15.45709618
_cell_length_c   15.28372369
_cell_angle_alpha   90.00890884
_cell_angle_beta   90.00133749
_cell_angle_gamma   90.00004979
_symmetry_Int_Tables_number   1
_chemical_formula_structural   Ca2Al2SiO7
_chemical_formula_sum   'Ca48 Al48 Si24 O168'
_cell_volume   3651.84624232
_cell_formula_units_Z   24
loop_
 _symmetry_equiv_pos_site_id
 _symmetry_equiv_pos_as_xyz
  1  'x, y, z'
loop_
 _atom_type_symbol
 _atom_type_oxidation_number
  Ca2+  2.0
  Al0+  0.0
  Si0+  0.0
  O2-  -2.0
loop_
 _atom_site_type_symbol
 _atom_site_label
 _atom_site_symmetry_multiplicity
 _atom_site_fract_x
 _atom_site_fract_y
 _atom_site_fract_z
 _atom_site_occupancy
  Ca2+  Ca0  1  0.16591796  0.07098537  0.17581318  1
  Ca2+  Ca1  1  0.16495859  0.07931376  0.50489409  1
  Ca2+  Ca2  1  0.16567908  0.07685238  0.83314127  1
  Ca2+  Ca3  1  0.15544083  0.58104052  0.16770687  1
  Ca2+  Ca4  1  0.17189388  0.58349415  0.50400866  1
  Ca2+  Ca5  1  0.17071261  0.58076749  0.84081477  1
  Ca2+  Ca6  1  0.67569671  0.08407887  0.16759753  1
  Ca2+  Ca7  1  0.67020287  0.07537076  0.50459740  1
  Ca2+  Ca8  1  0.67174217  0.07904650  0.83857893  1
  Ca2+  Ca9  1  0.67641956  0.57285487  0.17503737  1
  Ca2+  Ca10  1  0.67246455  0.58223832  0.50169122  1
  Ca2+  Ca11  1  0.66525559  0.57885738  0.83737974  1
  Ca2+  Ca12  1  0.07376317  0.33048453  0.16123960  1
  Ca2+  Ca13  1  0.08378654  0.31866273  0.49120085  1
  Ca2+  Ca14  1  0.08073971  0.33014485  0.83003035  1
  Ca2+  Ca15  1  0.08371249  0.82576768  0.16080733  1
  Ca2+  Ca16  1  0.08316890  0.83251668  0.49031349  1
  Ca2+  Ca17  1  0.08332232  0.83894362  0.83533902  1
  Ca2+  Ca18  1  0.58132744  0.34042503  0.16520163  1
  Ca2+  Ca19  1  0.57102444  0.33707870  0.49412388  1
  Ca2+  Ca20  1  0.57924846  0.33291705  0.82785401  1
  Ca2+  Ca21  1  0.57432606  0.83303300  0.15950603  1
  Ca2+  Ca22  1  0.58768149  0.82809670  0.49866263  1
  Ca2+  Ca23  1  0.57780518  0.83097008  0.82502556  1
  Ca2+  Ca24  1  0.32641372  0.41577396  0.17033191  1
  Ca2+  Ca25  1  0.33710880  0.41765568  0.50615121  1
  Ca2+  Ca26  1  0.33006951  0.42070022  0.83523021  1
  Ca2+  Ca27  1  0.32322678  0.91699092  0.17341629  1
  Ca2+  Ca28  1  0.31980599  0.92991231  0.50712924  1
  Ca2+  Ca29  1  0.32312361  0.91665480  0.83905404  1
  Ca2+  Ca30  1  0.82836335  0.41392342  0.17610360  1
  Ca2+  Ca31  1  0.83620416  0.41867309  0.49529615  1
  Ca2+  Ca32  1  0.82708650  0.41504827  0.84644114  1
  Ca2+  Ca33  1  0.84445415  0.91800185  0.16720306  1
  Ca2+  Ca34  1  0.83197533  0.91301543  0.50435546  1
  Ca2+  Ca35  1  0.83124179  0.92099499  0.83964976  1
  Ca2+  Ca36  1  0.41382292  0.16821323  0.16918427  1
  Ca2+  Ca37  1  0.40724598  0.17315936  0.49522354  1
  Ca2+  Ca38  1  0.41044256  0.17412199  0.82488728  1
  Ca2+  Ca39  1  0.41716520  0.67426684  0.16001470  1
  Ca2+  Ca40  1  0.42188821  0.66227272  0.50035130  1
  Ca2+  Ca41  1  0.41883728  0.67091788  0.82760416  1
  Ca2+  Ca42  1  0.91842049  0.17227837  0.16242488  1
  Ca2+  Ca43  1  0.93033509  0.16828979  0.49244712  1
  Ca2+  Ca44  1  0.91920497  0.16871881  0.83243230  1
  Ca2+  Ca45  1  0.92319801  0.67398150  0.16442863  1
  Ca2+  Ca46  1  0.92386874  0.67241205  0.48666752  1
  Ca2+  Ca47  1  0.92433559  0.66936685  0.83487314  1
  Al0+  Al48  1  0.00094878  0.00012547  0.00430436  1
  Al0+  Al49  1  -0.00065897  -0.00044459  0.33191456  1
  Al0+  Al50  1  -0.00100548  0.00135456  0.66645439  1
  Al0+  Al51  1  -0.00000498  0.50007279  -0.00539492  1
  Al0+  Al52  1  -0.00040066  0.49958551  0.33355608  1
  Al0+  Al53  1  -0.00141373  0.50261205  0.66632523  1
  Al0+  Al54  1  0.50063950  0.00118709  -0.00477877  1
  Al0+  Al55  1  0.49982206  0.00129163  0.33708294  1
  Al0+  Al56  1  0.49943734  0.00088961  0.67295756  1
  Al0+  Al57  1  0.49963397  0.49967622  0.00391534  1
  Al0+  Al58  1  0.50054512  0.49839821  0.33087216  1
  Al0+  Al59  1  0.50090049  0.50126631  0.66369697  1
  Al0+  Al60  1  0.25050909  0.25146484  0.00370615  1
  Al0+  Al61  1  0.25178653  0.25059932  0.32552452  1
  Al0+  Al62  1  0.24727866  0.25046781  0.66246366  1
  Al0+  Al63  1  0.25230074  0.75053969  -0.00459160  1
  Al0+  Al64  1  0.25098229  0.74949110  0.33479317  1
  Al0+  Al65  1  0.25069728  0.74971478  0.67366269  1
  Al0+  Al66  1  0.74924997  0.24873691  0.00362017  1
  Al0+  Al67  1  0.74674771  0.24787280  0.33865713  1
  Al0+  Al68  1  0.74860652  0.25140825  0.66471125  1
  Al0+  Al69  1  0.74979301  0.74928234  -0.00299347  1
  Al0+  Al70  1  0.75070887  0.74779120  0.33116930  1
  Al0+  Al71  1  0.74954948  0.74907642  0.66842730  1
  Al0+  Al72  1  0.07157330  0.67877714  0.98221390  1
  Al0+  Al73  1  0.82033757  0.06901101  0.01355366  1
  Al0+  Al74  1  0.92773293  0.31911145  0.31963251  1
  Al0+  Al75  1  0.92710248  0.82108307  0.31919822  1
  Al0+  Al76  1  0.57071527  0.68086947  0.65218718  1
  Al0+  Al77  1  0.67769053  0.42730427  0.35203477  1
  Al0+  Al78  1  0.43052552  0.31928345  0.65445687  1
  Al0+  Al79  1  0.67958060  0.92768298  0.68018089  1
  Al0+  Al80  1  0.17702314  0.92902925  0.68373300  1
  Al0+  Al81  1  0.43019950  0.32156227  0.31688123  1
  Al0+  Al82  1  0.32133819  0.07207494  0.34816294  1
  Al0+  Al83  1  0.92885995  0.82327549  0.98256180  1
  Al0+  Al84  1  0.17808594  0.42916195  0.01339083  1
  Al0+  Al85  1  0.32251019  0.56934740  0.68011429  1
  Al0+  Al86  1  0.18130763  0.92928356  0.01547331  1
  Al0+  Al87  1  0.42996220  0.82242155  0.98558724  1
  Al0+  Al88  1  0.07271849  0.17794497  0.31533748  1
  Al0+  Al89  1  0.92768512  0.31941389  0.98676140  1
  Al0+  Al90  1  0.17758764  0.92807879  0.34874746  1
  Al0+  Al91  1  0.67895972  0.42920233  0.01344833  1
  Al0+  Al92  1  0.82205495  0.57056025  0.34892325  1
  Al0+  Al93  1  0.07461092  0.67880367  0.31987608  1
  Al0+  Al94  1  0.31954622  0.07465974  0.68253262  1
  Al0+  Al95  1  0.06765544  0.18050527  0.65399349  1
  Si0+  Si96  1  0.07337038  0.17879486  0.98344191  1
  Si0+  Si97  1  0.42860712  0.32151008  0.98450292  1
  Si0+  Si98  1  0.57152485  0.17509976  0.31642494  1
  Si0+  Si99  1  0.32454549  0.07357955  0.01712763  1
  Si0+  Si100  1  0.43151130  0.82128809  0.32177583  1
  Si0+  Si101  1  0.67990920  0.43051922  0.68144142  1
  Si0+  Si102  1  0.57405805  0.17592910  0.64979453  1
  Si0+  Si103  1  0.07288637  0.67818578  0.65185309  1
  Si0+  Si104  1  0.92460823  0.32552658  0.64985308  1
  Si0+  Si105  1  0.57133105  0.67829012  0.31721937  1
  Si0+  Si106  1  0.32269763  0.57108135  0.34731980  1
  Si0+  Si107  1  0.42650807  0.82355642  0.64879098  1
  Si0+  Si108  1  0.82193151  0.57162436  0.68362536  1
  Si0+  Si109  1  0.67673975  0.92683773  0.01597532  1
  Si0+  Si110  1  0.93012702  0.81954643  0.65335586  1
  Si0+  Si111  1  0.82080091  0.07307935  0.68227596  1
  Si0+  Si112  1  0.82264690  0.57297561  0.01593473  1
  Si0+  Si113  1  0.17931298  0.42926147  0.34714523  1
  Si0+  Si114  1  0.57153003  0.18017814  0.98459597  1
  Si0+  Si115  1  0.32162810  0.57116278  0.01729832  1
  Si0+  Si116  1  0.67780914  0.92780657  0.34620717  1
  Si0+  Si117  1  0.17611545  0.42912645  0.68132830  1
  Si0+  Si118  1  0.82077328  0.07041188  0.34922183  1
  Si0+  Si119  1  0.57074043  0.67686305  0.98440175  1
  O2-  O120  1  0.25684845  0.00422028  0.06066813  1
  O2-  O121  1  0.24574778  0.00420313  0.39793419  1
  O2-  O122  1  0.25190598  -0.00089206  0.73297368  1
  O2-  O123  1  0.25033499  0.50585058  0.06182187  1
  O2-  O124  1  0.25020728  0.50114638  0.38893952  1
  O2-  O125  1  0.24485621  0.49755753  0.72605050  1
  O2-  O126  1  0.74916891  -0.00967378  0.06133972  1
  O2-  O127  1  0.75244185  -0.00506424  0.38877010  1
  O2-  O128  1  0.75015263  0.00634279  0.72633422  1
  O2-  O129  1  0.75505809  0.50252549  0.05903336  1
  O2-  O130  1  0.75127135  0.49806458  0.40153880  1
  O2-  O131  1  0.75529818  0.49588805  0.72504288  1
  O2-  O132  1  -0.00095180  0.24891003  0.26645989  1
  O2-  O133  1  -0.00645664  0.25658627  0.60793996  1
  O2-  O134  1  0.00484579  0.24801825  0.93868502  1
  O2-  O135  1  0.00302919  0.75203839  0.27147522  1
  O2-  O136  1  0.00446775  0.75216296  0.61106645  1
  O2-  O137  1  0.00114035  0.75231376  0.93112955  1
  O2-  O138  1  0.50526211  0.24606551  0.27181789  1
  O2-  O139  1  0.50184996  0.24132114  0.60684253  1
  O2-  O140  1  0.49853433  0.24953077  0.94248906  1
  O2-  O141  1  0.50125114  0.75040400  0.27620832  1
  O2-  O142  1  0.49721377  0.75655858  0.60368790  1
  O2-  O143  1  0.50630586  0.74873934  0.93956618  1
  O2-  O144  1  0.07253884  0.18057587  0.08857927  1
  O2-  O145  1  0.07122628  0.17920630  0.42948841  1
  O2-  O146  1  0.06537006  0.18167129  0.76736120  1
  O2-  O147  1  0.07003467  0.67859341  0.09544327  1
  O2-  O148  1  0.07565422  0.67987724  0.43436575  1
  O2-  O149  1  0.06964618  0.67314037  0.75629192  1
  O2-  O150  1  0.57155910  0.17888272  0.08957422  1
  O2-  O151  1  0.57116708  0.17182555  0.42185606  1
  O2-  O152  1  0.57960359  0.18081737  0.75543709  1
  O2-  O153  1  0.56823893  0.67693961  0.09029222  1
  O2-  O154  1  0.57127242  0.67891643  0.42242981  1
  O2-  O155  1  0.56975928  0.68035104  0.76531056  1
  O2-  O156  1  0.18025392  0.43058179  0.24203897  1
  O2-  O157  1  0.17531668  0.43115340  0.57554500  1
  O2-  O158  1  0.18301164  0.42707048  0.89996481  1
  O2-  O159  1  0.18256275  0.92498556  0.23527653  1
  O2-  O160  1  0.17536182  0.92863528  0.57047985  1
  O2-  O161  1  0.18179708  0.93247262  0.90246267  1
  O2-  O162  1  0.67712343  0.43096853  0.23832381  1
  O2-  O163  1  0.67925308  0.43207582  0.57703247  1
  O2-  O164  1  0.67735898  0.43086330  0.89946976  1
  O2-  O165  1  0.67294746  0.93022198  0.24134907  1
  O2-  O166  1  0.68430444  0.92658381  0.56640609  1
  O2-  O167  1  0.67535210  0.93020336  0.91047555  1
  O2-  O168  1  0.42962239  0.32208781  0.08930290  1
  O2-  O169  1  0.43093496  0.32373795  0.43008334  1
  O2-  O170  1  0.43376798  0.32052209  0.76810512  1
  O2-  O171  1  0.43205337  0.82088598  0.09964076  1
  O2-  O172  1  0.43481327  0.81949063  0.42656611  1
  O2-  O173  1  0.42871485  0.82037178  0.75444757  1
  O2-  O174  1  0.92594183  0.31735627  0.09921245  1
  O2-  O175  1  0.93145300  0.31643945  0.43376736  1
  O2-  O176  1  0.92245625  0.32572296  0.75558430  1
  O2-  O177  1  0.92882302  0.82043779  0.09546555  1
  O2-  O178  1  0.92450626  0.81848702  0.43366929  1
  O2-  O179  1  0.92888820  0.81835035  0.75811657  1
  O2-  O180  1  0.32573680  0.06549971  0.23454477  1
  O2-  O181  1  0.31670885  0.07477253  0.56937154  1
  O2-  O182  1  0.32417580  0.07572518  0.91167875  1
  O2-  O183  1  0.32574395  0.57145342  0.24238003  1
  O2-  O184  1  0.32181896  0.56745232  0.56649365  1
  O2-  O185  1  0.32546471  0.56677826  0.91171642  1
  O2-  O186  1  0.81775468  0.07274708  0.24428755  1
  O2-  O187  1  0.82065823  0.07154371  0.57653068  1
  O2-  O188  1  0.81569365  0.07056380  0.90013062  1
  O2-  O189  1  0.81812029  0.57257416  0.23558327  1
  O2-  O190  1  0.82232489  0.57322828  0.57901552  1
  O2-  O191  1  0.81946338  0.57202165  0.90955158  1
  O2-  O192  1  0.04343315  0.07939481  0.26495948  1
  O2-  O193  1  0.03455172  0.08490968  0.59829345  1
  O2-  O194  1  0.04579834  0.08561050  0.93873366  1
  O2-  O195  1  0.04521811  0.58037180  0.26867974  1
  O2-  O196  1  0.04267462  0.58742455  0.60261421  1
  O2-  O197  1  0.04203096  0.58131619  0.92655673  1
  O2-  O198  1  0.54381214  0.08271696  0.26770642  1
  O2-  O199  1  0.55352976  0.07984561  0.60694699  1
  O2-  O200  1  0.54729733  0.08816854  0.93541009  1
  O2-  O201  1  0.54143680  0.58787632  0.26924708  1
  O2-  O202  1  0.53857714  0.58578662  0.59633373  1
  O2-  O203  1  0.54047826  0.58434337  0.93774931  1
  O2-  O204  1  0.17003761  0.20587639  0.26172082  1
  O2-  O205  1  0.16249190  0.21160664  0.59726954  1
  O2-  O206  1  0.16756974  0.20566748  0.93851131  1
  O2-  O207  1  0.17396944  0.70365839  0.26615318  1
  O2-  O208  1  0.16704283  0.70215712  0.60777719  1
  O2-  O209  1  0.17151670  0.70371502  0.93117666  1
  O2-  O210  1  0.66580271  0.19897260  0.27152988  1
  O2-  O211  1  0.66633186  0.20392276  0.60100498  1
  O2-  O212  1  0.66137367  0.21066953  0.93542597  1
  O2-  O213  1  0.66201598  0.70583641  0.26857328  1
  O2-  O214  1  0.66771433  0.71192587  0.59788504  1
  O2-  O215  1  0.66557702  0.69658167  0.93883516  1
  O2-  O216  1  0.08005252  0.45817411  0.06496345  1
  O2-  O217  1  0.08813224  0.45424419  0.39651850  1
  O2-  O218  1  0.08227434  0.45526809  0.72772708  1
  O2-  O219  1  0.08476783  0.95847852  0.06898005  1
  O2-  O220  1  0.07732861  0.95292721  0.39980237  1
  O2-  O221  1  0.07874552  0.96120218  0.73576050  1
  O2-  O222  1  0.58295908  0.46066729  0.06860981  1
  O2-  O223  1  0.57957418  0.46118346  0.40291666  1
  O2-  O224  1  0.59014239  0.46324685  0.72963407  1
  O2-  O225  1  0.58458859  0.95819823  0.06261799  1
  O2-  O226  1  0.58905004  0.95869939  0.39787470  1
  O2-  O227  1  0.58231185  0.95378716  0.73476567  1
  O2-  O228  1  0.21160218  0.33451343  0.06979359  1
  O2-  O229  1  0.21040096  0.33772903  0.39269114  1
  O2-  O230  1  0.20166653  0.33599075  0.72684077  1
  O2-  O231  1  0.21463320  0.83173067  0.06593267  1
  O2-  O232  1  0.21069508  0.83063881  0.40222661  1
  O2-  O233  1  0.20343004  0.83018165  0.73671374  1
  O2-  O234  1  0.70666317  0.33258090  0.06741786  1
  O2-  O235  1  0.70006261  0.32734580  0.40485100  1
  O2-  O236  1  0.70229818  0.33621834  0.72776822  1
  O2-  O237  1  0.69503052  0.83031625  0.05886325  1
  O2-  O238  1  0.70271986  0.83469775  0.39233173  1
  O2-  O239  1  0.71235051  0.83257047  0.73583892  1
  O2-  O240  1  0.46219673  0.41739413  0.26103296  1
  O2-  O241  1  0.46556999  0.41403789  0.59957761  1
  O2-  O242  1  0.45781799  0.41369843  0.93832051  1
  O2-  O243  1  0.46110432  0.91224890  0.27384726  1
  O2-  O244  1  0.45067786  0.91902478  0.60643934  1
  O2-  O245  1  0.45969744  0.91871297  0.93008346  1
  O2-  O246  1  0.95341319  0.41863339  0.26902208  1
  O2-  O247  1  0.94984426  0.41989142  0.60496437  1
  O2-  O248  1  0.95420555  0.41629112  0.93140806  1
  O2-  O249  1  0.94916720  0.92103391  0.26883163  1
  O2-  O250  1  0.95227669  0.91317511  0.60693886  1
  O2-  O251  1  0.95665657  0.92315198  0.93169801  1
  O2-  O252  1  0.33529554  0.29262403  0.25942598  1
  O2-  O253  1  0.33241201  0.29480055  0.60058073  1
  O2-  O254  1  0.33650834  0.29427417  0.93726040  1
  O2-  O255  1  0.34057802  0.79207619  0.27406448  1
  O2-  O256  1  0.33317511  0.79427908  0.60461320  1
  O2-  O257  1  0.33639772  0.78955229  0.92861920  1
  O2-  O258  1  0.82687218  0.29088268  0.27190769  1
  O2-  O259  1  0.83078344  0.30103842  0.60351877  1
  O2-  O260  1  0.83139929  0.28539091  0.93247822  1
  O2-  O261  1  0.82934882  0.79191702  0.26405619  1
  O2-  O262  1  0.83940948  0.78785118  0.60633359  1
  O2-  O263  1  0.82840559  0.79592546  0.93083763  1
  O2-  O264  1  0.41980802  0.04918758  0.06067525  1
  O2-  O265  1  0.41898999  0.04207419  0.40325004  1
  O2-  O266  1  0.42103449  0.05463269  0.73335943  1
  O2-  O267  1  0.41351711  0.54272447  0.06611144  1
  O2-  O268  1  0.41372545  0.54101193  0.39498627  1
  O2-  O269  1  0.41833004  0.53633668  0.73460190  1
  O2-  O270  1  0.91692961  0.04334475  0.06883493  1
  O2-  O271  1  0.91259871  0.04490019  0.39718678  1
  O2-  O272  1  0.91248501  0.04527820  0.72973143  1
  O2-  O273  1  0.91711225  0.54935543  0.05846318  1
  O2-  O274  1  0.92049176  0.54315839  0.40386578  1
  O2-  O275  1  0.91502225  0.54785816  0.73111694  1
  O2-  O276  1  0.30009386  0.16735872  0.06342597  1
  O2-  O277  1  0.29802001  0.17415464  0.39497450  1
  O2-  O278  1  0.28745898  0.17265849  0.73537756  1
  O2-  O279  1  0.30074823  0.66663447  0.06028533  1
  O2-  O280  1  0.29769331  0.66252058  0.39685279  1
  O2-  O281  1  0.29550630  0.66571564  0.73559896  1
  O2-  O282  1  0.78302262  0.16218559  0.06982831  1
  O2-  O283  1  0.78887582  0.15863019  0.40099922  1
  O2-  O284  1  0.79639659  0.16810931  0.72711304  1
  O2-  O285  1  0.79490808  0.66613494  0.06186000  1
  O2-  O286  1  0.78932462  0.66846940  0.40257288  1
  O2-  O287  1  0.78893491  0.66060440  0.73280214  1
