# generated using pymatgen
data_Ca2Al2SiO7
_symmetry_space_group_name_H-M   'P 1'
_cell_length_a   15.45946151
_cell_length_b   15.45984974
_cell_length_c   15.28445215
_cell_angle_alpha   89.98759320
_cell_angle_beta   89.99038110
_cell_angle_gamma   90.00611782
_symmetry_Int_Tables_number   1
_chemical_formula_structural   Ca2Al2SiO7
_chemical_formula_sum   'Ca48 Al48 Si24 O168'
_cell_volume   3652.99845674
_cell_formula_units_Z   24
loop_
 _symmetry_equiv_pos_site_id
 _symmetry_equiv_pos_as_xyz
  1  'x, y, z'
loop_
 _atom_type_symbol
 _atom_type_oxidation_number
  Ca2+  2.0
  Al0+  0.0
  Si0+  0.0
  O2-  -2.0
loop_
 _atom_site_type_symbol
 _atom_site_label
 _atom_site_symmetry_multiplicity
 _atom_site_fract_x
 _atom_site_fract_y
 _atom_site_fract_z
 _atom_site_occupancy
  Ca2+  Ca0  1  0.17812876  0.08335873  0.17062174  1
  Ca2+  Ca1  1  0.17269078  0.07695652  0.51144722  1
  Ca2+  Ca2  1  0.17492799  0.08498636  0.83322066  1
  Ca2+  Ca3  1  0.16965255  0.59026158  0.16164616  1
  Ca2+  Ca4  1  0.16251740  0.57741951  0.51204515  1
  Ca2+  Ca5  1  0.16396432  0.58088688  0.83844457  1
  Ca2+  Ca6  1  0.67488058  0.07693418  0.17259622  1
  Ca2+  Ca7  1  0.67722878  0.07137406  0.50767618  1
  Ca2+  Ca8  1  0.67290124  0.08057355  0.83725302  1
  Ca2+  Ca9  1  0.66896888  0.59318633  0.16741042  1
  Ca2+  Ca10  1  0.67235950  0.58643130  0.50519282  1
  Ca2+  Ca11  1  0.67823327  0.58633240  0.83831212  1
  Ca2+  Ca12  1  0.08025985  0.32964614  0.16388722  1
  Ca2+  Ca13  1  0.08069421  0.32858540  0.50821544  1
  Ca2+  Ca14  1  0.08022187  0.32731515  0.82002395  1
  Ca2+  Ca15  1  0.06967430  0.83332967  0.15877416  1
  Ca2+  Ca16  1  0.08059670  0.83360606  0.49965245  1
  Ca2+  Ca17  1  0.08324567  0.82451803  0.82801218  1
  Ca2+  Ca18  1  0.58215080  0.32246142  0.15778317  1
  Ca2+  Ca19  1  0.57635906  0.33201443  0.50033744  1
  Ca2+  Ca20  1  0.57676855  0.32538822  0.82840404  1
  Ca2+  Ca21  1  0.58947821  0.82642016  0.16445069  1
  Ca2+  Ca22  1  0.58606919  0.83628487  0.49906930  1
  Ca2+  Ca23  1  0.57962201  0.83216896  0.82822352  1
  Ca2+  Ca24  1  0.33568908  0.42535760  0.16574550  1
  Ca2+  Ca25  1  0.32747614  0.41803174  0.51074573  1
  Ca2+  Ca26  1  0.32872188  0.41794956  0.83460140  1
  Ca2+  Ca27  1  0.33623082  0.92761462  0.16887855  1
  Ca2+  Ca28  1  0.33245421  0.92570263  0.51227306  1
  Ca2+  Ca29  1  0.32983620  0.91909052  0.83185154  1
  Ca2+  Ca30  1  0.83171064  0.42555962  0.16559190  1
  Ca2+  Ca31  1  0.83623739  0.42380148  0.51091995  1
  Ca2+  Ca32  1  0.84377190  0.42823486  0.83368949  1
  Ca2+  Ca33  1  0.83456760  0.92153383  0.17382584  1
  Ca2+  Ca34  1  0.82507919  0.91600303  0.50494096  1
  Ca2+  Ca35  1  0.83392050  0.92464922  0.83632401  1
  Ca2+  Ca36  1  0.42169282  0.16027551  0.15848235  1
  Ca2+  Ca37  1  0.40630340  0.16930468  0.50017797  1
  Ca2+  Ca38  1  0.41862277  0.16255049  0.82599910  1
  Ca2+  Ca39  1  0.42811004  0.66638082  0.15684474  1
  Ca2+  Ca40  1  0.42176087  0.67924475  0.49671387  1
  Ca2+  Ca41  1  0.42048361  0.66848529  0.82733977  1
  Ca2+  Ca42  1  0.91090575  0.16442436  0.15988438  1
  Ca2+  Ca43  1  0.91877162  0.15726357  0.50142744  1
  Ca2+  Ca44  1  0.91698014  0.17022721  0.82187320  1
  Ca2+  Ca45  1  0.91630308  0.68203503  0.15570782  1
  Ca2+  Ca46  1  0.92011153  0.67102917  0.49912094  1
  Ca2+  Ca47  1  0.92117206  0.66761721  0.82905823  1
  Al0+  Al48  1  0.00003099  0.00086802  0.00003214  1
  Al0+  Al49  1  0.00350672  0.00149696  0.33023421  1
  Al0+  Al50  1  0.00058459  -0.00214894  0.66951145  1
  Al0+  Al51  1  -0.00149652  0.49955023  0.00559078  1
  Al0+  Al52  1  0.00061971  0.49786848  0.33070651  1
  Al0+  Al53  1  0.00118490  0.49918707  0.66639686  1
  Al0+  Al54  1  0.50074537  -0.00049917  -0.00021429  1
  Al0+  Al55  1  0.50076734  0.00166577  0.34084713  1
  Al0+  Al56  1  0.50144661  -0.00163351  0.66907783  1
  Al0+  Al57  1  0.49851955  0.49853646  -0.00101865  1
  Al0+  Al58  1  0.49959405  0.50030430  0.32981888  1
  Al0+  Al59  1  0.50176890  0.49830909  0.66136783  1
  Al0+  Al60  1  0.24887078  0.25070313  0.00643290  1
  Al0+  Al61  1  0.24858529  0.25334407  0.33428583  1
  Al0+  Al62  1  0.24925776  0.25147520  0.66633550  1
  Al0+  Al63  1  0.24842510  0.74913765  0.00376420  1
  Al0+  Al64  1  0.25186748  0.74973721  0.33135755  1
  Al0+  Al65  1  0.25248347  0.75033005  0.65943459  1
  Al0+  Al66  1  0.74829863  0.24973620  -0.00151425  1
  Al0+  Al67  1  0.74952843  0.25220171  0.33603018  1
  Al0+  Al68  1  0.74779707  0.25189873  0.66418825  1
  Al0+  Al69  1  0.74924172  0.75068969  -0.00556757  1
  Al0+  Al70  1  0.75155507  0.75006547  0.32995117  1
  Al0+  Al71  1  0.75091184  0.74889014  0.67510243  1
  Al0+  Al72  1  0.92739624  0.32101079  0.65214250  1
  Al0+  Al73  1  0.82351199  0.07355538  0.34840693  1
  Al0+  Al74  1  0.07014473  0.17633513  0.65239940  1
  Al0+  Al75  1  0.43054408  0.82115175  0.65326796  1
  Al0+  Al76  1  0.93194206  0.82041969  0.32127846  1
  Al0+  Al77  1  0.07031116  0.67872683  0.98523145  1
  Al0+  Al78  1  0.57034442  0.17769567  0.98655649  1
  Al0+  Al79  1  0.32062294  0.07178195  0.34798704  1
  Al0+  Al80  1  0.31973004  0.07170551  0.68205337  1
  Al0+  Al81  1  0.32129786  0.57146489  0.01240494  1
  Al0+  Al82  1  0.57005525  0.67740570  0.98409071  1
  Al0+  Al83  1  0.92789030  0.82417858  0.98172517  1
  Al0+  Al84  1  0.82087117  0.07179210  0.01333881  1
  Al0+  Al85  1  0.56930147  0.68016443  0.31980962  1
  Al0+  Al86  1  0.82135112  0.07223056  0.68197517  1
  Al0+  Al87  1  0.32087596  0.07046473  0.01364652  1
  Al0+  Al88  1  0.18032196  0.43083663  0.68005413  1
  Al0+  Al89  1  0.17824369  0.92474090  0.68151955  1
  Al0+  Al90  1  0.82102033  0.56875047  0.67930406  1
  Al0+  Al91  1  0.42903685  0.32007886  0.65336114  1
  Al0+  Al92  1  0.68126645  0.92674014  0.34816197  1
  Al0+  Al93  1  0.07120223  0.67910839  0.65334692  1
  Al0+  Al94  1  0.67897830  0.92771606  0.68513651  1
  Al0+  Al95  1  0.81995975  0.57177963  0.01537857  1
  Si0+  Si96  1  0.17767827  0.92734766  0.01817137  1
  Si0+  Si97  1  0.82057176  0.56954238  0.34668708  1
  Si0+  Si98  1  0.92854273  0.31985769  0.98686843  1
  Si0+  Si99  1  0.32441093  0.57214694  0.67986411  1
  Si0+  Si100  1  0.42606270  0.32075659  0.98415256  1
  Si0+  Si101  1  0.32273071  0.57062319  0.34831639  1
  Si0+  Si102  1  0.17908041  0.92733159  0.34856676  1
  Si0+  Si103  1  0.42745367  0.32103443  0.31608390  1
  Si0+  Si104  1  0.67786069  0.92826681  0.01709358  1
  Si0+  Si105  1  0.92685976  0.82108066  0.65050710  1
  Si0+  Si106  1  0.67707100  0.42834458  0.01616949  1
  Si0+  Si107  1  0.07342701  0.67414200  0.31584996  1
  Si0+  Si108  1  0.67720490  0.42900473  0.34797287  1
  Si0+  Si109  1  0.57191385  0.17663193  0.64765357  1
  Si0+  Si110  1  0.57077695  0.18033707  0.31970178  1
  Si0+  Si111  1  0.67472265  0.42763491  0.68335610  1
  Si0+  Si112  1  0.42754634  0.82505538  0.31577502  1
  Si0+  Si113  1  0.17840097  0.43115170  0.34986900  1
  Si0+  Si114  1  0.57411854  0.67794976  0.65041429  1
  Si0+  Si115  1  0.07140154  0.18151462  0.31711875  1
  Si0+  Si116  1  0.42712731  0.82198045  0.98468147  1
  Si0+  Si117  1  0.92720067  0.32257127  0.31598759  1
  Si0+  Si118  1  0.17698562  0.42783313  0.01954526  1
  Si0+  Si119  1  0.07273003  0.18031905  0.98701929  1
  O2-  O120  1  0.24700190  -0.00390299  0.06234206  1
  O2-  O121  1  0.25070638  -0.00748581  0.39281625  1
  O2-  O122  1  0.24735410  -0.00021614  0.73153545  1
  O2-  O123  1  0.24552555  0.49806779  0.06185443  1
  O2-  O124  1  0.24611707  0.50604857  0.39043518  1
  O2-  O125  1  0.25472489  0.50578968  0.72556545  1
  O2-  O126  1  0.74874240  -0.00479051  0.06090443  1
  O2-  O127  1  0.75392756  -0.00107432  0.39678826  1
  O2-  O128  1  0.75008923  0.00098859  0.73383791  1
  O2-  O129  1  0.74162117  0.50019427  0.06268734  1
  O2-  O130  1  0.74898417  0.49942607  0.38951248  1
  O2-  O131  1  0.74678643  0.49315988  0.72609635  1
  O2-  O132  1  -0.00536271  0.24729834  0.27451555  1
  O2-  O133  1  -0.00684002  0.24353330  0.60100265  1
  O2-  O134  1  -0.00145295  0.24799188  0.94604323  1
  O2-  O135  1  0.00763972  0.74618198  0.27393964  1
  O2-  O136  1  -0.00166937  0.75501132  0.60581208  1
  O2-  O137  1  -0.00095648  0.74987188  0.93400788  1
  O2-  O138  1  0.49667530  0.24797994  0.27497321  1
  O2-  O139  1  0.50053306  0.24357181  0.60371607  1
  O2-  O140  1  0.49178532  0.24921472  0.94111300  1
  O2-  O141  1  0.49559811  0.75561443  0.27166980  1
  O2-  O142  1  0.50667482  0.74749164  0.60627695  1
  O2-  O143  1  0.49333637  0.75084660  0.94026245  1
  O2-  O144  1  0.07428195  0.18384326  0.09289743  1
  O2-  O145  1  0.07426956  0.18387775  0.42127846  1
  O2-  O146  1  0.07254872  0.18141846  0.76630900  1
  O2-  O147  1  0.06886516  0.68165059  0.09959239  1
  O2-  O148  1  0.07150521  0.66966295  0.42118800  1
  O2-  O149  1  0.07007094  0.67722280  0.76588112  1
  O2-  O150  1  0.56990713  0.17981309  0.10063334  1
  O2-  O151  1  0.57085790  0.18520447  0.42419142  1
  O2-  O152  1  0.57193885  0.17964987  0.75343888  1
  O2-  O153  1  0.56912457  0.67938509  0.09779624  1
  O2-  O154  1  0.56696288  0.67642677  0.43255662  1
  O2-  O155  1  0.57152563  0.67547442  0.75579128  1
  O2-  O156  1  0.17857060  0.42877271  0.24462772  1
  O2-  O157  1  0.18130569  0.43251896  0.56620936  1
  O2-  O158  1  0.17664870  0.42427391  0.91468493  1
  O2-  O159  1  0.17870674  0.93033075  0.24274930  1
  O2-  O160  1  0.18139333  0.92525395  0.56719826  1
  O2-  O161  1  0.17877617  0.92671156  0.91319067  1
  O2-  O162  1  0.67776486  0.42653246  0.24289403  1
  O2-  O163  1  0.67191500  0.43124016  0.57711305  1
  O2-  O164  1  0.67843305  0.42751201  0.91113341  1
  O2-  O165  1  0.68133250  0.92760897  0.23432944  1
  O2-  O166  1  0.68139899  0.92621026  0.57127895  1
  O2-  O167  1  0.67519451  0.93147766  0.91207051  1
  O2-  O168  1  0.42785898  0.32128436  0.09051200  1
  O2-  O169  1  0.42737964  0.32323173  0.42088968  1
  O2-  O170  1  0.43200399  0.32245896  0.76624616  1
  O2-  O171  1  0.42949316  0.82251604  0.09085346  1
  O2-  O172  1  0.42547356  0.82202905  0.42093596  1
  O2-  O173  1  0.42972848  0.81723180  0.76643682  1
  O2-  O174  1  0.92928783  0.31964132  0.09287905  1
  O2-  O175  1  0.92901462  0.32964111  0.41985909  1
  O2-  O176  1  0.93211476  0.32292393  0.76606202  1
  O2-  O177  1  0.92939374  0.82427661  0.09623581  1
  O2-  O178  1  0.93229438  0.81661392  0.43422147  1
  O2-  O179  1  0.92562693  0.81832223  0.75561864  1
  O2-  O180  1  0.31965714  0.07226780  0.23434187  1
  O2-  O181  1  0.31742681  0.07121149  0.56811460  1
  O2-  O182  1  0.31883257  0.07266860  0.90171686  1
  O2-  O183  1  0.32411428  0.56740297  0.24313622  1
  O2-  O184  1  0.32430269  0.56896885  0.57361790  1
  O2-  O185  1  0.32196309  0.56805887  0.89978758  1
  O2-  O186  1  0.81939634  0.07490807  0.23445480  1
  O2-  O187  1  0.81948589  0.06917078  0.56826678  1
  O2-  O188  1  0.81921078  0.07575639  0.90124586  1
  O2-  O189  1  0.81958286  0.56750379  0.24156025  1
  O2-  O190  1  0.81871259  0.56953460  0.56517972  1
  O2-  O191  1  0.82269469  0.56696639  0.90290154  1
  O2-  O192  1  0.05204952  0.08848359  0.26840303  1
  O2-  O193  1  0.04731858  0.07604378  0.59972587  1
  O2-  O194  1  0.05087273  0.08706250  0.94219806  1
  O2-  O195  1  0.04651602  0.58136644  0.26803234  1
  O2-  O196  1  0.03721562  0.58413043  0.59769106  1
  O2-  O197  1  0.04322385  0.57745564  0.93797872  1
  O2-  O198  1  0.54541471  0.08697189  0.27424032  1
  O2-  O199  1  0.54929265  0.08206237  0.60377669  1
  O2-  O200  1  0.54153996  0.08130757  0.93261411  1
  O2-  O201  1  0.53776283  0.58362032  0.26409175  1
  O2-  O202  1  0.54913210  0.58487912  0.60253639  1
  O2-  O203  1  0.54052988  0.57966961  0.93219945  1
  O2-  O204  1  0.16033134  0.21816266  0.26745766  1
  O2-  O205  1  0.16568445  0.21275976  0.59790400  1
  O2-  O206  1  0.16332728  0.21234713  0.94019527  1
  O2-  O207  1  0.16955490  0.69622245  0.27249741  1
  O2-  O208  1  0.16801557  0.70514660  0.59659092  1
  O2-  O209  1  0.17087091  0.70354398  0.93540133  1
  O2-  O210  1  0.66144136  0.21243943  0.27131710  1
  O2-  O211  1  0.66320203  0.20653451  0.59921272  1
  O2-  O212  1  0.66432269  0.21385231  0.93112652  1
  O2-  O213  1  0.66653140  0.70881308  0.26564378  1
  O2-  O214  1  0.66841842  0.70401609  0.60597095  1
  O2-  O215  1  0.66584094  0.70714777  0.92994423  1
  O2-  O216  1  0.08433441  0.45283645  0.06869891  1
  O2-  O217  1  0.08506564  0.45568197  0.39592790  1
  O2-  O218  1  0.08484139  0.46097813  0.73480740  1
  O2-  O219  1  0.08525080  0.95672530  0.06511415  1
  O2-  O220  1  0.08722734  0.95645194  0.39520511  1
  O2-  O221  1  0.07858338  0.94583644  0.73323379  1
  O2-  O222  1  0.58195944  0.44827834  0.06197767  1
  O2-  O223  1  0.58509980  0.45775979  0.39464999  1
  O2-  O224  1  0.58266272  0.45593143  0.73104657  1
  O2-  O225  1  0.58513676  0.95501797  0.06502688  1
  O2-  O226  1  0.58293953  0.95471225  0.40126569  1
  O2-  O227  1  0.58055175  0.95485260  0.73752386  1
  O2-  O228  1  0.20513814  0.33645557  0.07033285  1
  O2-  O229  1  0.21016479  0.34129884  0.39785646  1
  O2-  O230  1  0.21195332  0.33584824  0.73503710  1
  O2-  O231  1  0.20160775  0.83445604  0.06675973  1
  O2-  O232  1  0.19910442  0.83077773  0.39144638  1
  O2-  O233  1  0.21259829  0.82731702  0.73307747  1
  O2-  O234  1  0.70801848  0.33681603  0.06476872  1
  O2-  O235  1  0.70386832  0.33851420  0.39769810  1
  O2-  O236  1  0.69473720  0.33263177  0.72733043  1
  O2-  O237  1  0.70156109  0.83325422  0.06038026  1
  O2-  O238  1  0.71031412  0.82805930  0.40105714  1
  O2-  O239  1  0.70534304  0.82956057  0.73861884  1
  O2-  O240  1  0.45870288  0.41143467  0.26733743  1
  O2-  O241  1  0.46216948  0.41510922  0.59468294  1
  O2-  O242  1  0.45319263  0.41273130  0.93698743  1
  O2-  O243  1  0.45335499  0.91999272  0.27237321  1
  O2-  O244  1  0.46070372  0.91771990  0.59873758  1
  O2-  O245  1  0.45493506  0.91414085  0.93788423  1
  O2-  O246  1  0.96070745  0.41168787  0.26450349  1
  O2-  O247  1  0.96408433  0.41604181  0.59646780  1
  O2-  O248  1  0.95845710  0.41165222  0.94199999  1
  O2-  O249  1  0.96231291  0.91730943  0.26588258  1
  O2-  O250  1  0.94919925  0.91518867  0.60495792  1
  O2-  O251  1  0.95796167  0.92278768  0.93071993  1
  O2-  O252  1  0.33436398  0.29684875  0.26910327  1
  O2-  O253  1  0.33255050  0.29272412  0.59741311  1
  O2-  O254  1  0.33027495  0.29847837  0.94203761  1
  O2-  O255  1  0.33361927  0.80021411  0.26861356  1
  O2-  O256  1  0.33730673  0.78930120  0.59291671  1
  O2-  O257  1  0.33205846  0.79861475  0.94226769  1
  O2-  O258  1  0.83349802  0.29924100  0.26945971  1
  O2-  O259  1  0.82546089  0.30481414  0.60091287  1
  O2-  O260  1  0.83664709  0.29536617  0.93961254  1
  O2-  O261  1  0.83704463  0.78796039  0.26499315  1
  O2-  O262  1  0.83423120  0.78918409  0.60515452  1
  O2-  O263  1  0.82941434  0.79752916  0.93049069  1
  O2-  O264  1  0.41757680  0.03872414  0.06815868  1
  O2-  O265  1  0.41804711  0.04824921  0.40234596  1
  O2-  O266  1  0.41886292  0.04384774  0.73209546  1
  O2-  O267  1  0.41631427  0.53645131  0.06931648  1
  O2-  O268  1  0.41215142  0.53666128  0.39609914  1
  O2-  O269  1  0.41778640  0.54390747  0.72464541  1
  O2-  O270  1  0.91952848  0.04580688  0.06701971  1
  O2-  O271  1  0.92541627  0.04985923  0.39490356  1
  O2-  O272  1  0.92072892  0.04712176  0.73337209  1
  O2-  O273  1  0.91387526  0.53645113  0.07298382  1
  O2-  O274  1  0.91289733  0.53946478  0.39186250  1
  O2-  O275  1  0.91612840  0.53559951  0.73347823  1
  O2-  O276  1  0.29023860  0.16687815  0.07022842  1
  O2-  O277  1  0.28647004  0.16920291  0.39824339  1
  O2-  O278  1  0.29263194  0.17053918  0.73375212  1
  O2-  O279  1  0.29245424  0.66704238  0.07086948  1
  O2-  O280  1  0.30218527  0.66571855  0.39241324  1
  O2-  O281  1  0.30197125  0.66651413  0.72293751  1
  O2-  O282  1  0.78791821  0.16858117  0.06770489  1
  O2-  O283  1  0.79477826  0.17257140  0.40005673  1
  O2-  O284  1  0.79340279  0.17309426  0.73048376  1
  O2-  O285  1  0.78927200  0.66974054  0.06676352  1
  O2-  O286  1  0.79355844  0.66094807  0.39359786  1
  O2-  O287  1  0.79048977  0.66257159  0.73687868  1
