# generated using pymatgen
data_Ca2Al2SiO7
_symmetry_space_group_name_H-M   'P 1'
_cell_length_a   15.45307822
_cell_length_b   15.45310158
_cell_length_c   15.28031358
_cell_angle_alpha   89.99977195
_cell_angle_beta   89.99671056
_cell_angle_gamma   89.99244828
_symmetry_Int_Tables_number   1
_chemical_formula_structural   Ca2Al2SiO7
_chemical_formula_sum   'Ca48 Al48 Si24 O168'
_cell_volume   3648.90809248
_cell_formula_units_Z   24
loop_
 _symmetry_equiv_pos_site_id
 _symmetry_equiv_pos_as_xyz
  1  'x, y, z'
loop_
 _atom_type_symbol
 _atom_type_oxidation_number
  Ca2+  2.0
  Al0+  0.0
  Si0+  0.0
  O2-  -2.0
loop_
 _atom_site_type_symbol
 _atom_site_label
 _atom_site_symmetry_multiplicity
 _atom_site_fract_x
 _atom_site_fract_y
 _atom_site_fract_z
 _atom_site_occupancy
  Ca2+  Ca0  1  0.17270922  0.07826680  0.17117883  1
  Ca2+  Ca1  1  0.17074848  0.08263429  0.50882325  1
  Ca2+  Ca2  1  0.15809050  0.07095308  0.83431644  1
  Ca2+  Ca3  1  0.17186900  0.58835959  0.16379979  1
  Ca2+  Ca4  1  0.16671667  0.57561167  0.50887900  1
  Ca2+  Ca5  1  0.17096657  0.57810991  0.84018214  1
  Ca2+  Ca6  1  0.66890785  0.08626380  0.16617039  1
  Ca2+  Ca7  1  0.66709336  0.07625216  0.50968879  1
  Ca2+  Ca8  1  0.66537151  0.08405552  0.83564505  1
  Ca2+  Ca9  1  0.67452183  0.57782129  0.17716113  1
  Ca2+  Ca10  1  0.67218263  0.58410775  0.50367410  1
  Ca2+  Ca11  1  0.67870646  0.58964883  0.83498431  1
  Ca2+  Ca12  1  0.07548864  0.33520928  0.16602002  1
  Ca2+  Ca13  1  0.07489371  0.33625267  0.50307413  1
  Ca2+  Ca14  1  0.07986728  0.32709811  0.82054984  1
  Ca2+  Ca15  1  0.07929903  0.82957279  0.16037081  1
  Ca2+  Ca16  1  0.07077578  0.83945241  0.49961367  1
  Ca2+  Ca17  1  0.08173627  0.83077135  0.82766906  1
  Ca2+  Ca18  1  0.58094135  0.33065462  0.15827084  1
  Ca2+  Ca19  1  0.58334579  0.33210965  0.49887857  1
  Ca2+  Ca20  1  0.57516517  0.32493112  0.82776610  1
  Ca2+  Ca21  1  0.58290682  0.82601171  0.16695073  1
  Ca2+  Ca22  1  0.59026016  0.82112603  0.50207225  1
  Ca2+  Ca23  1  0.57748642  0.83005288  0.81971682  1
  Ca2+  Ca24  1  0.33710019  0.41897623  0.16626313  1
  Ca2+  Ca25  1  0.32787038  0.41494017  0.50972706  1
  Ca2+  Ca26  1  0.33438504  0.41538270  0.83501926  1
  Ca2+  Ca27  1  0.32652086  0.92148956  0.17130745  1
  Ca2+  Ca28  1  0.33048106  0.92162481  0.50979780  1
  Ca2+  Ca29  1  0.32170701  0.90859767  0.83574781  1
  Ca2+  Ca30  1  0.82928633  0.42646993  0.17717935  1
  Ca2+  Ca31  1  0.83684152  0.42601712  0.50504534  1
  Ca2+  Ca32  1  0.83904877  0.42783331  0.83584540  1
  Ca2+  Ca33  1  0.83650983  0.92225497  0.16865803  1
  Ca2+  Ca34  1  0.83066823  0.91132483  0.51033944  1
  Ca2+  Ca35  1  0.82865106  0.92034805  0.83387653  1
  Ca2+  Ca36  1  0.42172266  0.17143148  0.15747737  1
  Ca2+  Ca37  1  0.41822243  0.16690937  0.50095893  1
  Ca2+  Ca38  1  0.42459649  0.17439121  0.82568249  1
  Ca2+  Ca39  1  0.42357949  0.65960223  0.16133747  1
  Ca2+  Ca40  1  0.42840195  0.66997583  0.49950063  1
  Ca2+  Ca41  1  0.42172690  0.66948505  0.82482111  1
  Ca2+  Ca42  1  0.90907346  0.17444797  0.16215140  1
  Ca2+  Ca43  1  0.92065779  0.17829463  0.49891034  1
  Ca2+  Ca44  1  0.91917841  0.17131597  0.82417179  1
  Ca2+  Ca45  1  0.91742076  0.66744845  0.16335063  1
  Ca2+  Ca46  1  0.90555627  0.67583515  0.49777407  1
  Ca2+  Ca47  1  0.91974289  0.66627407  0.82710184  1
  Al0+  Al48  1  -0.00239871  -0.00008740  0.01018897  1
  Al0+  Al49  1  0.00052058  0.00006350  0.32823548  1
  Al0+  Al50  1  0.00093492  0.00039167  0.66280249  1
  Al0+  Al51  1  0.00139521  0.50165284  0.00152277  1
  Al0+  Al52  1  0.00077544  0.50092857  0.33177342  1
  Al0+  Al53  1  0.00184633  0.49999321  0.67298298  1
  Al0+  Al54  1  0.49954682  -0.00141338  -0.00232828  1
  Al0+  Al55  1  0.49910544  0.00012105  0.33638537  1
  Al0+  Al56  1  0.49938750  0.00001730  0.66503608  1
  Al0+  Al57  1  0.49994344  0.49999030  -0.00171483  1
  Al0+  Al58  1  0.50044517  0.49911465  0.33284676  1
  Al0+  Al59  1  0.50192663  0.49907975  0.65969848  1
  Al0+  Al60  1  0.24799178  0.24958222  -0.00272177  1
  Al0+  Al61  1  0.25096771  0.24896336  0.33600835  1
  Al0+  Al62  1  0.25035670  0.24933890  0.66517132  1
  Al0+  Al63  1  0.24825716  0.74770470  0.00653540  1
  Al0+  Al64  1  0.24913387  0.75099053  0.33566447  1
  Al0+  Al65  1  0.25074573  0.74999012  0.66547061  1
  Al0+  Al66  1  0.74937450  0.24978951  -0.00137419  1
  Al0+  Al67  1  0.74943912  0.24988088  0.33266721  1
  Al0+  Al68  1  0.74961757  0.25216877  0.65922274  1
  Al0+  Al69  1  0.75038189  0.75202173  0.00553117  1
  Al0+  Al70  1  0.74995350  0.75079827  0.32423427  1
  Al0+  Al71  1  0.75098268  0.75075915  0.67076248  1
  Al0+  Al72  1  0.81869320  0.07146331  0.01283371  1
  Al0+  Al73  1  0.56873456  0.67883267  0.31726251  1
  Al0+  Al74  1  0.17861537  0.92820190  0.01551833  1
  Al0+  Al75  1  0.92887993  0.82139654  0.31738151  1
  Al0+  Al76  1  0.82152723  0.57216093  0.34926181  1
  Al0+  Al77  1  0.07044906  0.68018429  0.98561839  1
  Al0+  Al78  1  0.57336581  0.67954032  0.65329510  1
  Al0+  Al79  1  0.42905056  0.32078250  0.64929285  1
  Al0+  Al80  1  0.42565130  0.82113273  0.65215713  1
  Al0+  Al81  1  0.67903008  0.92972102  0.67941953  1
  Al0+  Al82  1  0.17824263  0.92908136  0.67968074  1
  Al0+  Al83  1  0.32143955  0.56887538  0.01255056  1
  Al0+  Al84  1  0.07062585  0.17739198  0.65247244  1
  Al0+  Al85  1  0.67785479  0.42735802  0.34932818  1
  Al0+  Al86  1  0.42736723  0.32248393  0.98458351  1
  Al0+  Al87  1  0.57222906  0.17754763  0.98458286  1
  Al0+  Al88  1  0.92915886  0.32093901  0.31816895  1
  Al0+  Al89  1  0.32099130  0.07062852  0.34758817  1
  Al0+  Al90  1  0.57195703  0.17796079  0.64907964  1
  Al0+  Al91  1  0.82275540  0.57212620  0.01572383  1
  Al0+  Al92  1  0.92893653  0.32489388  0.65294421  1
  Al0+  Al93  1  0.18034579  0.42833904  0.68095902  1
  Al0+  Al94  1  0.81949795  0.57060283  0.68150674  1
  Al0+  Al95  1  0.93085794  0.81930104  0.65702293  1
  Si0+  Si96  1  0.42679400  0.82258009  0.31604710  1
  Si0+  Si97  1  0.82215818  0.07175583  0.34870938  1
  Si0+  Si98  1  0.82162858  0.07385947  0.67978024  1
  Si0+  Si99  1  0.17777482  0.42543576  0.01796871  1
  Si0+  Si100  1  0.42818683  0.81957638  0.98773785  1
  Si0+  Si101  1  0.07313443  0.17932711  0.31464298  1
  Si0+  Si102  1  0.57245352  0.67981439  0.98582119  1
  Si0+  Si103  1  0.07451256  0.67743775  0.31650091  1
  Si0+  Si104  1  0.92792219  0.82364767  0.98278328  1
  Si0+  Si105  1  0.67655487  0.42635515  0.68444580  1
  Si0+  Si106  1  0.07304338  0.67714802  0.65156468  1
  Si0+  Si107  1  0.32394622  0.57126169  0.68128671  1
  Si0+  Si108  1  0.32230706  0.07182991  0.68583719  1
  Si0+  Si109  1  0.42759052  0.31973252  0.31767894  1
  Si0+  Si110  1  0.06963518  0.17725610  0.98729892  1
  Si0+  Si111  1  0.92972456  0.32153797  0.98622691  1
  Si0+  Si112  1  0.68033820  0.93014446  0.34703078  1
  Si0+  Si113  1  0.32222547  0.57170770  0.34873508  1
  Si0+  Si114  1  0.67948338  0.42964524  0.01444538  1
  Si0+  Si115  1  0.17695575  0.92817006  0.35163814  1
  Si0+  Si116  1  0.57021354  0.17679844  0.31774886  1
  Si0+  Si117  1  0.18004892  0.42938071  0.34737978  1
  Si0+  Si118  1  0.32190540  0.07194001  0.01457497  1
  Si0+  Si119  1  0.67471944  0.92777858  0.01866593  1
  O2-  O120  1  0.25352095  0.00386115  0.06067467  1
  O2-  O121  1  0.24642730  -0.00392452  0.39447865  1
  O2-  O122  1  0.25404060  0.00169064  0.72907351  1
  O2-  O123  1  0.24931124  0.49198691  0.06141254  1
  O2-  O124  1  0.24984267  0.50181574  0.38960088  1
  O2-  O125  1  0.25666846  0.50180221  0.72648383  1
  O2-  O126  1  0.74271538  -0.00168322  0.06119857  1
  O2-  O127  1  0.75303291  -0.00096180  0.39025228  1
  O2-  O128  1  0.75004225  0.00864363  0.72508379  1
  O2-  O129  1  0.74734772  0.49778843  0.06096794  1
  O2-  O130  1  0.75089695  0.49865605  0.39887669  1
  O2-  O131  1  0.74591275  0.49445962  0.72904508  1
  O2-  O132  1  0.00216284  0.24501276  0.26903471  1
  O2-  O133  1  -0.00018600  0.25108622  0.60353372  1
  O2-  O134  1  0.00061480  0.24991760  0.94512240  1
  O2-  O135  1  0.00483277  0.74618258  0.27381454  1
  O2-  O136  1  0.00512885  0.74583479  0.60700876  1
  O2-  O137  1  -0.00618753  0.75264513  0.93870994  1
  O2-  O138  1  0.50071654  0.25016178  0.27623686  1
  O2-  O139  1  0.50111593  0.25010686  0.59726015  1
  O2-  O140  1  0.49778123  0.24798625  0.93695729  1
  O2-  O141  1  0.49119220  0.75107878  0.26954493  1
  O2-  O142  1  0.49993060  0.75087894  0.60340600  1
  O2-  O143  1  0.50172461  0.75156988  0.94497876  1
  O2-  O144  1  0.07049399  0.17920533  0.09264714  1
  O2-  O145  1  0.07318194  0.18019232  0.41969090  1
  O2-  O146  1  0.06644006  0.17545019  0.76688659  1
  O2-  O147  1  0.07094141  0.68206626  0.09902887  1
  O2-  O148  1  0.07909383  0.67693531  0.42168094  1
  O2-  O149  1  0.07309819  0.67811252  0.75733084  1
  O2-  O150  1  0.57092844  0.17910882  0.09909799  1
  O2-  O151  1  0.56891889  0.17404733  0.42210146  1
  O2-  O152  1  0.57072911  0.17903068  0.76265965  1
  O2-  O153  1  0.57061149  0.67993414  0.09119336  1
  O2-  O154  1  0.56925911  0.68124361  0.42973135  1
  O2-  O155  1  0.57231985  0.68190623  0.76763077  1
  O2-  O156  1  0.18166102  0.42799709  0.24204054  1
  O2-  O157  1  0.17985415  0.43225524  0.56707687  1
  O2-  O158  1  0.17582835  0.42569242  0.91289087  1
  O2-  O159  1  0.17863890  0.92845103  0.24564327  1
  O2-  O160  1  0.17792398  0.93170803  0.56666901  1
  O2-  O161  1  0.17807055  0.92844711  0.90252427  1
  O2-  O162  1  0.67765652  0.42802929  0.23486448  1
  O2-  O163  1  0.67709173  0.42768922  0.57901559  1
  O2-  O164  1  0.68090281  0.43055821  0.90918572  1
  O2-  O165  1  0.67851635  0.93345761  0.24161013  1
  O2-  O166  1  0.68384908  0.92764706  0.56578886  1
  O2-  O167  1  0.67427690  0.92457737  0.91356915  1
  O2-  O168  1  0.42901749  0.32116555  0.09915777  1
  O2-  O169  1  0.42470160  0.31872778  0.42204037  1
  O2-  O170  1  0.42978525  0.31992721  0.76282726  1
  O2-  O171  1  0.43025209  0.81985242  0.09319906  1
  O2-  O172  1  0.42764078  0.82202491  0.42098036  1
  O2-  O173  1  0.42416241  0.81689042  0.76665869  1
  O2-  O174  1  0.93038282  0.32024795  0.09171815  1
  O2-  O175  1  0.93240420  0.32115849  0.43049315  1
  O2-  O176  1  0.93106829  0.32327813  0.76730547  1
  O2-  O177  1  0.93021269  0.82349626  0.08865639  1
  O2-  O178  1  0.92884525  0.82293472  0.43049660  1
  O2-  O179  1  0.93140968  0.81961127  0.76999966  1
  O2-  O180  1  0.31991969  0.06995396  0.23377608  1
  O2-  O181  1  0.32034303  0.07098803  0.57977984  1
  O2-  O182  1  0.32133959  0.07066765  0.90968357  1
  O2-  O183  1  0.32210966  0.57033484  0.24335096  1
  O2-  O184  1  0.32101917  0.57114047  0.57517291  1
  O2-  O185  1  0.32016424  0.57083399  0.89997234  1
  O2-  O186  1  0.81907775  0.07226822  0.24328535  1
  O2-  O187  1  0.82203952  0.07086019  0.57385515  1
  O2-  O188  1  0.82141865  0.07002882  0.90004619  1
  O2-  O189  1  0.82014854  0.56989273  0.23524498  1
  O2-  O190  1  0.81886817  0.57258512  0.56873668  1
  O2-  O191  1  0.82241591  0.57199807  0.90266570  1
  O2-  O192  1  0.05073240  0.08474271  0.26887439  1
  O2-  O193  1  0.04170630  0.08166337  0.59491525  1
  O2-  O194  1  0.03851382  0.08529275  0.94282442  1
  O2-  O195  1  0.05061964  0.58422088  0.26868217  1
  O2-  O196  1  0.04731285  0.58361641  0.60688302  1
  O2-  O197  1  0.04305903  0.58187217  0.93291224  1
  O2-  O198  1  0.53998965  0.08572714  0.26918326  1
  O2-  O199  1  0.54341414  0.07946793  0.59661076  1
  O2-  O200  1  0.54674866  0.07743039  0.93361428  1
  O2-  O201  1  0.53753090  0.58177494  0.26306467  1
  O2-  O202  1  0.54783665  0.58200489  0.59841424  1
  O2-  O203  1  0.54518680  0.58848467  0.93876547  1
  O2-  O204  1  0.16612686  0.20880011  0.26828282  1
  O2-  O205  1  0.16889097  0.20447984  0.60013775  1
  O2-  O206  1  0.16156339  0.20110997  0.93875675  1
  O2-  O207  1  0.16809923  0.70513055  0.26897287  1
  O2-  O208  1  0.16660142  0.70021662  0.60471882  1
  O2-  O209  1  0.16789843  0.71140687  0.93378690  1
  O2-  O210  1  0.66274936  0.20253757  0.27054394  1
  O2-  O211  1  0.67045540  0.20337758  0.59482312  1
  O2-  O212  1  0.66998071  0.20700440  0.93102042  1
  O2-  O213  1  0.66263848  0.71326619  0.26016406  1
  O2-  O214  1  0.66944191  0.71363557  0.59991547  1
  O2-  O215  1  0.66509115  0.70852743  0.94097113  1
  O2-  O216  1  0.08620013  0.45559443  0.06610478  1
  O2-  O217  1  0.08853923  0.45728692  0.39440907  1
  O2-  O218  1  0.08616564  0.45983521  0.73881200  1
  O2-  O219  1  0.08386286  0.95993904  0.07245003  1
  O2-  O220  1  0.08266172  0.95563308  0.39494349  1
  O2-  O221  1  0.08204614  0.96180622  0.73447432  1
  O2-  O222  1  0.58562373  0.45497547  0.06062037  1
  O2-  O223  1  0.57874486  0.45568110  0.40084509  1
  O2-  O224  1  0.58221543  0.45229428  0.72905930  1
  O2-  O225  1  0.58072470  0.95191350  0.06600255  1
  O2-  O226  1  0.58892865  0.95812413  0.39468026  1
  O2-  O227  1  0.58071360  0.95595016  0.73255430  1
  O2-  O228  1  0.20013975  0.33084890  0.06486723  1
  O2-  O229  1  0.20915322  0.33842598  0.39505885  1
  O2-  O230  1  0.20843242  0.33065329  0.73408050  1
  O2-  O231  1  0.21167792  0.83394065  0.07244391  1
  O2-  O232  1  0.19972600  0.83365102  0.39697860  1
  O2-  O233  1  0.20786062  0.83117731  0.73318632  1
  O2-  O234  1  0.70421916  0.33564546  0.06052413  1
  O2-  O235  1  0.70340706  0.32727146  0.39984807  1
  O2-  O236  1  0.70141027  0.33159841  0.72871690  1
  O2-  O237  1  0.70283819  0.83611390  0.06827351  1
  O2-  O238  1  0.70821104  0.83735543  0.39066438  1
  O2-  O239  1  0.71362739  0.83671880  0.73755411  1
  O2-  O240  1  0.45358900  0.41227482  0.27068174  1
  O2-  O241  1  0.45417995  0.41939834  0.59510019  1
  O2-  O242  1  0.45699379  0.42025475  0.93117039  1
  O2-  O243  1  0.45693781  0.91523903  0.26948556  1
  O2-  O244  1  0.45018108  0.92040968  0.60136367  1
  O2-  O245  1  0.45152071  0.91185959  0.93950383  1
  O2-  O246  1  0.96301598  0.41689294  0.26352159  1
  O2-  O247  1  0.96348570  0.42155736  0.60021316  1
  O2-  O248  1  0.95857628  0.41319745  0.94035348  1
  O2-  O249  1  0.96010452  0.91807081  0.26162269  1
  O2-  O250  1  0.95996919  0.91470822  0.59992246  1
  O2-  O251  1  0.95610565  0.91775885  0.93996812  1
  O2-  O252  1  0.33644938  0.29008437  0.26900500  1
  O2-  O253  1  0.33069717  0.29181935  0.59681019  1
  O2-  O254  1  0.32718791  0.29697651  0.93381275  1
  O2-  O255  1  0.33094279  0.80056756  0.27202268  1
  O2-  O256  1  0.32893438  0.79201974  0.59554053  1
  O2-  O257  1  0.33693600  0.78836327  0.94269154  1
  O2-  O258  1  0.83234824  0.28883993  0.26396641  1
  O2-  O259  1  0.83127969  0.30045555  0.59817025  1
  O2-  O260  1  0.83813708  0.29445238  0.93941914  1
  O2-  O261  1  0.83371746  0.79345599  0.25933953  1
  O2-  O262  1  0.83536121  0.78750344  0.60228933  1
  O2-  O263  1  0.83140340  0.80182651  0.94126288  1
  O2-  O264  1  0.41550425  0.04546940  0.06149973  1
  O2-  O265  1  0.41697396  0.03988099  0.40271912  1
  O2-  O266  1  0.41639204  0.04791537  0.73070044  1
  O2-  O267  1  0.41854210  0.53946196  0.06834124  1
  O2-  O268  1  0.41288316  0.54260105  0.39589318  1
  O2-  O269  1  0.41876526  0.54693184  0.72524188  1
  O2-  O270  1  0.91242924  0.04084641  0.07350556  1
  O2-  O271  1  0.91632597  0.04647755  0.39191441  1
  O2-  O272  1  0.91394412  0.04470580  0.72598711  1
  O2-  O273  1  0.91936931  0.54075967  0.06935356  1
  O2-  O274  1  0.92229509  0.54683253  0.39884898  1
  O2-  O275  1  0.91627287  0.54048617  0.73649066  1
  O2-  O276  1  0.29513688  0.16569364  0.06118111  1
  O2-  O277  1  0.29007385  0.16672029  0.40249907  1
  O2-  O278  1  0.29599625  0.16521381  0.73094476  1
  O2-  O279  1  0.28860405  0.66256124  0.07193718  1
  O2-  O280  1  0.29639847  0.66464736  0.39508220  1
  O2-  O281  1  0.29765989  0.66447007  0.72749892  1
  O2-  O282  1  0.78836689  0.16833552  0.06871718  1
  O2-  O283  1  0.79345976  0.16271857  0.39593101  1
  O2-  O284  1  0.79952780  0.16933984  0.72370551  1
  O2-  O285  1  0.79347001  0.66960497  0.06893220  1
  O2-  O286  1  0.78999463  0.67244380  0.39615960  1
  O2-  O287  1  0.78747755  0.66555962  0.73838547  1
