# generated using pymatgen
data_Ca2Al2SiO7
_symmetry_space_group_name_H-M   'P 1'
_cell_length_a   15.46707111
_cell_length_b   15.46788331
_cell_length_c   15.28944791
_cell_angle_alpha   90.00185933
_cell_angle_beta   90.00409118
_cell_angle_gamma   90.01782409
_symmetry_Int_Tables_number   1
_chemical_formula_structural   Ca2Al2SiO7
_chemical_formula_sum   'Ca48 Al48 Si24 O168'
_cell_volume   3657.89092383
_cell_formula_units_Z   24
loop_
 _symmetry_equiv_pos_site_id
 _symmetry_equiv_pos_as_xyz
  1  'x, y, z'
loop_
 _atom_type_symbol
 _atom_type_oxidation_number
  Ca2+  2.0
  Al0+  0.0
  Si0+  0.0
  O2-  -2.0
loop_
 _atom_site_type_symbol
 _atom_site_label
 _atom_site_symmetry_multiplicity
 _atom_site_fract_x
 _atom_site_fract_y
 _atom_site_fract_z
 _atom_site_occupancy
  Ca2+  Ca0  1  0.15910824  0.07280281  0.17253436  1
  Ca2+  Ca1  1  0.16712733  0.08308250  0.49881762  1
  Ca2+  Ca2  1  0.17971218  0.08118600  0.84277628  1
  Ca2+  Ca3  1  0.17117221  0.57535628  0.17631577  1
  Ca2+  Ca4  1  0.16351041  0.57926003  0.49161856  1
  Ca2+  Ca5  1  0.17275586  0.57812105  0.84468138  1
  Ca2+  Ca6  1  0.67544580  0.08702243  0.17354600  1
  Ca2+  Ca7  1  0.66652223  0.07715213  0.49795831  1
  Ca2+  Ca8  1  0.67171286  0.07792695  0.84272777  1
  Ca2+  Ca9  1  0.67171464  0.57742390  0.17433391  1
  Ca2+  Ca10  1  0.67245094  0.58895840  0.49555919  1
  Ca2+  Ca11  1  0.66885928  0.57334403  0.84157633  1
  Ca2+  Ca12  1  0.07477032  0.33892821  0.16538535  1
  Ca2+  Ca13  1  0.08060008  0.32552615  0.48435145  1
  Ca2+  Ca14  1  0.08014570  0.33795408  0.83537357  1
  Ca2+  Ca15  1  0.08698638  0.83067928  0.16058597  1
  Ca2+  Ca16  1  0.07801563  0.83136918  0.48994689  1
  Ca2+  Ca17  1  0.07176448  0.84570792  0.83506387  1
  Ca2+  Ca18  1  0.58203482  0.32509154  0.16269608  1
  Ca2+  Ca19  1  0.57339245  0.32442405  0.48526131  1
  Ca2+  Ca20  1  0.58617007  0.32602644  0.83702863  1
  Ca2+  Ca21  1  0.58892755  0.82816175  0.16780722  1
  Ca2+  Ca22  1  0.58565836  0.83397936  0.49083984  1
  Ca2+  Ca23  1  0.58324821  0.83427257  0.82821565  1
  Ca2+  Ca24  1  0.32660092  0.42295649  0.17409008  1
  Ca2+  Ca25  1  0.33245305  0.41460831  0.49440472  1
  Ca2+  Ca26  1  0.32546346  0.42422484  0.84589972  1
  Ca2+  Ca27  1  0.32275885  0.92157866  0.16849786  1
  Ca2+  Ca28  1  0.32538789  0.92161117  0.49982133  1
  Ca2+  Ca29  1  0.32867856  0.92678680  0.84184017  1
  Ca2+  Ca30  1  0.83183322  0.41351231  0.17370206  1
  Ca2+  Ca31  1  0.84280538  0.42344700  0.49392624  1
  Ca2+  Ca32  1  0.82829634  0.41519282  0.84487566  1
  Ca2+  Ca33  1  0.83398174  0.92889712  0.17393379  1
  Ca2+  Ca34  1  0.82417073  0.91787446  0.50027224  1
  Ca2+  Ca35  1  0.83251967  0.91735442  0.84001518  1
  Ca2+  Ca36  1  0.42868538  0.16248534  0.16279428  1
  Ca2+  Ca37  1  0.41989831  0.16850731  0.48881624  1
  Ca2+  Ca38  1  0.42007683  0.15628766  0.83245865  1
  Ca2+  Ca39  1  0.41646791  0.66012172  0.16594007  1
  Ca2+  Ca40  1  0.42393815  0.66760661  0.48570742  1
  Ca2+  Ca41  1  0.41522347  0.66594898  0.83351461  1
  Ca2+  Ca42  1  0.91589682  0.17110877  0.16409690  1
  Ca2+  Ca43  1  0.91976960  0.17306008  0.48671684  1
  Ca2+  Ca44  1  0.91385766  0.16941153  0.83857341  1
  Ca2+  Ca45  1  0.92019779  0.67154605  0.16524325  1
  Ca2+  Ca46  1  0.91994845  0.67225486  0.48995674  1
  Ca2+  Ca47  1  0.91797809  0.68087109  0.83017349  1
  Al0+  Al48  1  -0.00064382  0.00129913  0.00076398  1
  Al0+  Al49  1  -0.00255960  0.00132159  0.34100800  1
  Al0+  Al50  1  -0.00179593  0.00169303  0.66110026  1
  Al0+  Al51  1  -0.00022000  0.50248423  -0.00452529  1
  Al0+  Al52  1  0.00035919  0.50233191  0.33432415  1
  Al0+  Al53  1  -0.00044765  0.50125528  0.66876618  1
  Al0+  Al54  1  0.50078662  -0.00307543  -0.00179555  1
  Al0+  Al55  1  0.49900639  -0.00159474  0.33137627  1
  Al0+  Al56  1  0.50108953  -0.00214317  0.67222333  1
  Al0+  Al57  1  0.50238762  0.49772724  0.00490746  1
  Al0+  Al58  1  0.50041900  0.50103883  0.32951601  1
  Al0+  Al59  1  0.50033438  0.49856855  0.66711092  1
  Al0+  Al60  1  0.25207142  0.25164986  0.00709704  1
  Al0+  Al61  1  0.24866478  0.24931283  0.32796894  1
  Al0+  Al62  1  0.25047532  0.25107762  0.67213100  1
  Al0+  Al63  1  0.25287666  0.75055469  0.00248624  1
  Al0+  Al64  1  0.24996353  0.75039976  0.33830102  1
  Al0+  Al65  1  0.24940834  0.74881014  0.66663628  1
  Al0+  Al66  1  0.74904868  0.24864879  -0.00242699  1
  Al0+  Al67  1  0.74920334  0.25043878  0.33399729  1
  Al0+  Al68  1  0.74939939  0.24972105  0.66457360  1
  Al0+  Al69  1  0.74999150  0.74832318  -0.00713701  1
  Al0+  Al70  1  0.74878613  0.74936376  0.33538036  1
  Al0+  Al71  1  0.75056402  0.74969972  0.66763169  1
  Al0+  Al72  1  0.68201246  0.42790284  0.01391293  1
  Al0+  Al73  1  0.17876267  0.42775787  0.34902690  1
  Al0+  Al74  1  0.17521999  0.42943808  0.01601360  1
  Al0+  Al75  1  0.42703536  0.32224321  0.31639606  1
  Al0+  Al76  1  0.82104633  0.57077502  0.34557044  1
  Al0+  Al77  1  0.56994454  0.17667322  0.31848098  1
  Al0+  Al78  1  0.92876938  0.82160354  0.65030525  1
  Al0+  Al79  1  0.57208892  0.68054267  0.31910547  1
  Al0+  Al80  1  0.56970273  0.17784486  0.98417132  1
  Al0+  Al81  1  0.07157484  0.68174117  0.31968622  1
  Al0+  Al82  1  0.81942300  0.06962909  0.01244569  1
  Al0+  Al83  1  0.17744374  0.92859486  0.34799167  1
  Al0+  Al84  1  0.17863814  0.93187401  0.01351616  1
  Al0+  Al85  1  0.32255224  0.57050196  0.35034774  1
  Al0+  Al86  1  0.92999063  0.32221823  0.31901762  1
  Al0+  Al87  1  0.82022883  0.07420299  0.35030048  1
  Al0+  Al88  1  0.92950555  0.82240561  0.98793767  1
  Al0+  Al89  1  0.31946800  0.07022073  0.67891625  1
  Al0+  Al90  1  0.32240131  0.57120672  0.01494163  1
  Al0+  Al91  1  0.32515964  0.07213623  0.01700424  1
  Al0+  Al92  1  0.68150077  0.92880425  0.68223774  1
  Al0+  Al93  1  0.07064524  0.17538749  0.31789680  1
  Al0+  Al94  1  0.67840920  0.92900045  0.34602702  1
  Al0+  Al95  1  0.93002693  0.32146791  0.98589879  1
  Si0+  Si96  1  0.67832122  0.92439760  0.01564154  1
  Si0+  Si97  1  0.57130247  0.67694679  0.98305632  1
  Si0+  Si98  1  0.42889835  0.82097408  0.65221285  1
  Si0+  Si99  1  0.67807167  0.42814798  0.68096347  1
  Si0+  Si100  1  0.82219197  0.07443686  0.68486221  1
  Si0+  Si101  1  0.92720022  0.82164896  0.31773562  1
  Si0+  Si102  1  0.42881231  0.32275145  0.98208793  1
  Si0+  Si103  1  0.07430783  0.68021688  0.98265183  1
  Si0+  Si104  1  0.42881861  0.32110069  0.65357516  1
  Si0+  Si105  1  0.07198557  0.67620011  0.64926040  1
  Si0+  Si106  1  0.92797918  0.32214993  0.65224228  1
  Si0+  Si107  1  0.82122404  0.57393503  0.01450310  1
  Si0+  Si108  1  0.17923357  0.43001391  0.68174315  1
  Si0+  Si109  1  0.17571061  0.92674437  0.68242248  1
  Si0+  Si110  1  0.32172703  0.07126594  0.34788443  1
  Si0+  Si111  1  0.82085824  0.56978087  0.68314913  1
  Si0+  Si112  1  0.07300238  0.18259013  0.65416512  1
  Si0+  Si113  1  0.56915871  0.67727196  0.65248393  1
  Si0+  Si114  1  0.32370758  0.57100458  0.68117818  1
  Si0+  Si115  1  0.42658791  0.82178971  0.31562330  1
  Si0+  Si116  1  0.42932367  0.81937060  0.98308041  1
  Si0+  Si117  1  0.67776892  0.42814249  0.35086813  1
  Si0+  Si118  1  0.57009231  0.17750645  0.65207721  1
  Si0+  Si119  1  0.07384307  0.17799818  0.98302050  1
  O2-  O120  1  0.24658519  0.00672644  0.06479146  1
  O2-  O121  1  0.25025969  0.00601503  0.39362037  1
  O2-  O122  1  0.24491164  -0.00488432  0.72568981  1
  O2-  O123  1  0.24850075  0.50124454  0.06307993  1
  O2-  O124  1  0.25255142  0.49716646  0.40176334  1
  O2-  O125  1  0.24930354  0.50309193  0.72222513  1
  O2-  O126  1  0.74654482  -0.00700652  0.05818434  1
  O2-  O127  1  0.74740634  0.00198060  0.39882742  1
  O2-  O128  1  0.75622242  0.00309783  0.72911162  1
  O2-  O129  1  0.75898117  0.50041701  0.05882801  1
  O2-  O130  1  0.74762425  0.49570315  0.39564796  1
  O2-  O131  1  0.75125983  0.49679343  0.72430786  1
  O2-  O132  1  0.00060812  0.24954741  0.26878797  1
  O2-  O133  1  -0.00071248  0.25118038  0.61228371  1
  O2-  O134  1  0.00808012  0.25011363  0.93753287  1
  O2-  O135  1  0.00019936  0.75880861  0.27242372  1
  O2-  O136  1  0.00689555  0.74884610  0.60638143  1
  O2-  O137  1  0.00643230  0.75016423  0.93857582  1
  O2-  O138  1  0.49823988  0.24860839  0.26832325  1
  O2-  O139  1  0.49812895  0.24832952  0.61152778  1
  O2-  O140  1  0.49172681  0.24934533  0.93523721  1
  O2-  O141  1  0.49580747  0.75302726  0.27208023  1
  O2-  O142  1  0.49784077  0.74781358  0.61037424  1
  O2-  O143  1  0.49999674  0.74737165  0.94004902  1
  O2-  O144  1  0.06941778  0.17409731  0.08742631  1
  O2-  O145  1  0.06994044  0.17798224  0.43302238  1
  O2-  O146  1  0.07504454  0.18502886  0.75918498  1
  O2-  O147  1  0.07350079  0.68000819  0.08763160  1
  O2-  O148  1  0.06833425  0.68285083  0.43355859  1
  O2-  O149  1  0.07058617  0.67195008  0.75477646  1
  O2-  O150  1  0.57102355  0.17887617  0.09615297  1
  O2-  O151  1  0.56652325  0.17702979  0.43348176  1
  O2-  O152  1  0.57150036  0.17914703  0.75709239  1
  O2-  O153  1  0.57466337  0.67890827  0.08731185  1
  O2-  O154  1  0.57167057  0.68289798  0.43329317  1
  O2-  O155  1  0.56674879  0.67489321  0.75784525  1
  O2-  O156  1  0.17597771  0.43286546  0.23656282  1
  O2-  O157  1  0.17842137  0.42758841  0.57756022  1
  O2-  O158  1  0.17710770  0.43295575  0.90049318  1
  O2-  O159  1  0.17946732  0.92724646  0.23539535  1
  O2-  O160  1  0.17745985  0.92608122  0.57712361  1
  O2-  O161  1  0.18032364  0.93288707  0.89893778  1
  O2-  O162  1  0.67905404  0.42925493  0.24550375  1
  O2-  O163  1  0.67526011  0.42906595  0.57671048  1
  O2-  O164  1  0.68196135  0.43076736  0.89934574  1
  O2-  O165  1  0.68224427  0.92647517  0.23277916  1
  O2-  O166  1  0.67892411  0.92948950  0.56996335  1
  O2-  O167  1  0.67934786  0.92463284  0.90926990  1
  O2-  O168  1  0.43436547  0.32635542  0.08636425  1
  O2-  O169  1  0.42996407  0.31936661  0.43203483  1
  O2-  O170  1  0.43012001  0.32452966  0.75830046  1
  O2-  O171  1  0.42993710  0.82026367  0.08738333  1
  O2-  O172  1  0.42744670  0.82200849  0.42212070  1
  O2-  O173  1  0.42934069  0.81920800  0.75745256  1
  O2-  O174  1  0.92789047  0.32134898  0.09763053  1
  O2-  O175  1  0.93254446  0.32193067  0.43399105  1
  O2-  O176  1  0.92704839  0.32353950  0.75734092  1
  O2-  O177  1  0.92661211  0.81908353  0.10010980  1
  O2-  O178  1  0.92738610  0.81724969  0.42391636  1
  O2-  O179  1  0.92946829  0.82014867  0.76379348  1
  O2-  O180  1  0.32500275  0.06638490  0.24314045  1
  O2-  O181  1  0.31823600  0.07061426  0.56611218  1
  O2-  O182  1  0.32437281  0.06659833  0.90235279  1
  O2-  O183  1  0.32048077  0.57061101  0.23745540  1
  O2-  O184  1  0.32921560  0.57033341  0.57736014  1
  O2-  O185  1  0.32132652  0.57019471  0.89957124  1
  O2-  O186  1  0.82041597  0.07290862  0.23678703  1
  O2-  O187  1  0.81928253  0.07809452  0.58016630  1
  O2-  O188  1  0.81805025  0.06822607  0.89844925  1
  O2-  O189  1  0.81845661  0.57212727  0.23281632  1
  O2-  O190  1  0.82142187  0.56940610  0.57841120  1
  O2-  O191  1  0.81643083  0.57471252  0.90792110  1
  O2-  O192  1  0.03889740  0.07703458  0.26759443  1
  O2-  O193  1  0.04951140  0.08957582  0.60739062  1
  O2-  O194  1  0.04405861  0.08666916  0.93330553  1
  O2-  O195  1  0.03770697  0.58687147  0.26652505  1
  O2-  O196  1  0.04154992  0.58382380  0.60246537  1
  O2-  O197  1  0.04675588  0.58840182  0.93282784  1
  O2-  O198  1  0.54298639  0.07833580  0.26519261  1
  O2-  O199  1  0.54207739  0.08487314  0.60720776  1
  O2-  O200  1  0.54144666  0.07939653  0.92986336  1
  O2-  O201  1  0.54506617  0.58387551  0.26516154  1
  O2-  O202  1  0.54221768  0.58529737  0.60475915  1
  O2-  O203  1  0.54303464  0.58471533  0.93552598  1
  O2-  O204  1  0.17042239  0.19567040  0.26678244  1
  O2-  O205  1  0.16380952  0.21335125  0.60613760  1
  O2-  O206  1  0.17000147  0.20128182  0.93969381  1
  O2-  O207  1  0.16933867  0.71028300  0.26835107  1
  O2-  O208  1  0.16807852  0.69662719  0.60573798  1
  O2-  O209  1  0.16890708  0.70424281  0.93662801  1
  O2-  O210  1  0.66835464  0.20623980  0.26841240  1
  O2-  O211  1  0.66155077  0.20666475  0.60461002  1
  O2-  O212  1  0.66395262  0.21295638  0.92696778  1
  O2-  O213  1  0.66737781  0.71266732  0.26373446  1
  O2-  O214  1  0.66189004  0.70470384  0.60783883  1
  O2-  O215  1  0.66148489  0.70452893  0.93086389  1
  O2-  O216  1  0.07630327  0.45959379  0.06514070  1
  O2-  O217  1  0.08242495  0.46169000  0.40430426  1
  O2-  O218  1  0.08683049  0.45759882  0.72948092  1
  O2-  O219  1  0.07961338  0.95513658  0.06570658  1
  O2-  O220  1  0.08173470  0.95717895  0.40453851  1
  O2-  O221  1  0.08134446  0.95436401  0.72575316  1
  O2-  O222  1  0.58777381  0.46053217  0.06837947  1
  O2-  O223  1  0.58507428  0.45655941  0.39694514  1
  O2-  O224  1  0.58761356  0.45846358  0.73078727  1
  O2-  O225  1  0.58401026  0.94677815  0.05894019  1
  O2-  O226  1  0.57830788  0.95384534  0.39906022  1
  O2-  O227  1  0.58489121  0.95807944  0.73764802  1
  O2-  O228  1  0.19828025  0.33015159  0.06645327  1
  O2-  O229  1  0.20516849  0.32742214  0.40061005  1
  O2-  O230  1  0.20859151  0.34039372  0.73243213  1
  O2-  O231  1  0.21023526  0.83406800  0.06415656  1
  O2-  O232  1  0.21174608  0.83509864  0.40592648  1
  O2-  O233  1  0.19969683  0.83200544  0.72763175  1
  O2-  O234  1  0.71038240  0.33142633  0.06575132  1
  O2-  O235  1  0.70108909  0.33500569  0.39848024  1
  O2-  O236  1  0.70523833  0.33554843  0.72785180  1
  O2-  O237  1  0.70326153  0.82940692  0.05778544  1
  O2-  O238  1  0.70849935  0.83208359  0.40189179  1
  O2-  O239  1  0.70980488  0.83070796  0.73604869  1
  O2-  O240  1  0.45694627  0.41984096  0.26493770  1
  O2-  O241  1  0.45895193  0.41186047  0.60480192  1
  O2-  O242  1  0.46139991  0.41466165  0.93368627  1
  O2-  O243  1  0.45190638  0.91415828  0.26833522  1
  O2-  O244  1  0.45936009  0.91199709  0.60529653  1
  O2-  O245  1  0.45925150  0.90922535  0.93214765  1
  O2-  O246  1  0.95724918  0.42090874  0.26766897  1
  O2-  O247  1  0.95541719  0.41530593  0.60717619  1
  O2-  O248  1  0.95637095  0.41966769  0.92892940  1
  O2-  O249  1  0.94748608  0.91802701  0.27827135  1
  O2-  O250  1  0.95414011  0.91979423  0.59671338  1
  O2-  O251  1  0.95938255  0.91867313  0.93082539  1
  O2-  O252  1  0.32792017  0.29938376  0.26528922  1
  O2-  O253  1  0.33583244  0.29487548  0.60792490  1
  O2-  O254  1  0.33191236  0.30434966  0.93880885  1
  O2-  O255  1  0.33362613  0.79462388  0.27087673  1
  O2-  O256  1  0.33539015  0.79623566  0.60616424  1
  O2-  O257  1  0.33825338  0.79175082  0.93258143  1
  O2-  O258  1  0.82966964  0.29743828  0.27020189  1
  O2-  O259  1  0.83584087  0.29582868  0.60469604  1
  O2-  O260  1  0.83515359  0.28648102  0.92913091  1
  O2-  O261  1  0.83599219  0.79038034  0.27193299  1
  O2-  O262  1  0.83256484  0.78603736  0.59843961  1
  O2-  O263  1  0.83482884  0.78789213  0.92906836  1
  O2-  O264  1  0.42101533  0.03467311  0.06790454  1
  O2-  O265  1  0.41335542  0.04151471  0.39669014  1
  O2-  O266  1  0.41507274  0.03776206  0.73402083  1
  O2-  O267  1  0.42063954  0.54329378  0.06609245  1
  O2-  O268  1  0.42271356  0.54361794  0.40184560  1
  O2-  O269  1  0.41412206  0.54050834  0.73117112  1
  O2-  O270  1  0.91599430  0.04204546  0.06552910  1
  O2-  O271  1  0.91645592  0.04533705  0.40729537  1
  O2-  O272  1  0.91812289  0.05164978  0.72754535  1
  O2-  O273  1  0.91777830  0.55662674  0.05459895  1
  O2-  O274  1  0.91574240  0.54086029  0.40401071  1
  O2-  O275  1  0.91284619  0.54367140  0.73174047  1
  O2-  O276  1  0.31024044  0.17424176  0.06382284  1
  O2-  O277  1  0.29979624  0.16603512  0.39258712  1
  O2-  O278  1  0.29022747  0.16657517  0.73568519  1
  O2-  O279  1  0.30077975  0.67118023  0.06525158  1
  O2-  O280  1  0.29373340  0.66836939  0.40463008  1
  O2-  O281  1  0.29823235  0.66416756  0.72841266  1
  O2-  O282  1  0.78639682  0.16492155  0.06448436  1
  O2-  O283  1  0.79176385  0.17226276  0.40495074  1
  O2-  O284  1  0.79341550  0.16778835  0.73141704  1
  O2-  O285  1  0.78919480  0.66507989  0.06036912  1
  O2-  O286  1  0.78638805  0.66462980  0.40329262  1
  O2-  O287  1  0.79047682  0.66036060  0.73108123  1
