# generated using pymatgen
data_Ca2Al2SiO7
_symmetry_space_group_name_H-M   'P 1'
_cell_length_a   15.45639405
_cell_length_b   15.45713434
_cell_length_c   15.28313199
_cell_angle_alpha   89.99966270
_cell_angle_beta   90.00185301
_cell_angle_gamma   90.00793850
_symmetry_Int_Tables_number   1
_chemical_formula_structural   Ca2Al2SiO7
_chemical_formula_sum   'Ca48 Al48 Si24 O168'
_cell_volume   3651.31685862
_cell_formula_units_Z   24
loop_
 _symmetry_equiv_pos_site_id
 _symmetry_equiv_pos_as_xyz
  1  'x, y, z'
loop_
 _atom_type_symbol
 _atom_type_oxidation_number
  Ca2+  2.0
  Al0+  0.0
  Si0+  0.0
  O2-  -2.0
loop_
 _atom_site_type_symbol
 _atom_site_label
 _atom_site_symmetry_multiplicity
 _atom_site_fract_x
 _atom_site_fract_y
 _atom_site_fract_z
 _atom_site_occupancy
  Ca2+  Ca0  1  0.16638004  0.08039221  0.16141248  1
  Ca2+  Ca1  1  0.16659150  0.07700987  0.50905811  1
  Ca2+  Ca2  1  0.16326700  0.07679580  0.83847229  1
  Ca2+  Ca3  1  0.16808442  0.58446277  0.16985036  1
  Ca2+  Ca4  1  0.16791898  0.57579349  0.50135178  1
  Ca2+  Ca5  1  0.17399902  0.58590212  0.84440978  1
  Ca2+  Ca6  1  0.67596671  0.07492553  0.17834197  1
  Ca2+  Ca7  1  0.67743237  0.07168918  0.50639948  1
  Ca2+  Ca8  1  0.67148230  0.07723541  0.83482234  1
  Ca2+  Ca9  1  0.67500839  0.58743675  0.16296748  1
  Ca2+  Ca10  1  0.67031797  0.58512430  0.50469035  1
  Ca2+  Ca11  1  0.66351238  0.57788999  0.84099340  1
  Ca2+  Ca12  1  0.08481933  0.32960034  0.16162020  1
  Ca2+  Ca13  1  0.08619791  0.32503505  0.49428782  1
  Ca2+  Ca14  1  0.08468725  0.31960311  0.82845769  1
  Ca2+  Ca15  1  0.07016212  0.83054413  0.15581542  1
  Ca2+  Ca16  1  0.07208177  0.83863081  0.49840387  1
  Ca2+  Ca17  1  0.07547782  0.83889267  0.83131654  1
  Ca2+  Ca18  1  0.57994108  0.33729452  0.16248359  1
  Ca2+  Ca19  1  0.57526498  0.33815046  0.49810324  1
  Ca2+  Ca20  1  0.57960642  0.33998658  0.82478272  1
  Ca2+  Ca21  1  0.58112626  0.83160465  0.16288883  1
  Ca2+  Ca22  1  0.58765314  0.83344677  0.49532119  1
  Ca2+  Ca23  1  0.58792377  0.82013956  0.82710596  1
  Ca2+  Ca24  1  0.32876679  0.42328373  0.17032333  1
  Ca2+  Ca25  1  0.33353226  0.41044923  0.50106784  1
  Ca2+  Ca26  1  0.33576488  0.42127757  0.83832217  1
  Ca2+  Ca27  1  0.32940614  0.91711667  0.16932086  1
  Ca2+  Ca28  1  0.32754034  0.91240255  0.50669021  1
  Ca2+  Ca29  1  0.31853557  0.92119659  0.84380599  1
  Ca2+  Ca30  1  0.83388817  0.43137444  0.17055758  1
  Ca2+  Ca31  1  0.82765352  0.42619142  0.50646892  1
  Ca2+  Ca32  1  0.81917281  0.42269407  0.84245285  1
  Ca2+  Ca33  1  0.83208474  0.91469895  0.17486991  1
  Ca2+  Ca34  1  0.83090653  0.91915129  0.50456360  1
  Ca2+  Ca35  1  0.83644782  0.91356303  0.83015758  1
  Ca2+  Ca36  1  0.41371015  0.17126127  0.16271792  1
  Ca2+  Ca37  1  0.41762430  0.17756817  0.49454769  1
  Ca2+  Ca38  1  0.41434767  0.17232428  0.82912529  1
  Ca2+  Ca39  1  0.42049962  0.67059876  0.16025078  1
  Ca2+  Ca40  1  0.42672483  0.67413322  0.49589397  1
  Ca2+  Ca41  1  0.42688373  0.65929237  0.83056806  1
  Ca2+  Ca42  1  0.92093257  0.16543692  0.15954490  1
  Ca2+  Ca43  1  0.91878785  0.15625914  0.49992816  1
  Ca2+  Ca44  1  0.92648074  0.15957659  0.82746653  1
  Ca2+  Ca45  1  0.91437459  0.67337572  0.15805288  1
  Ca2+  Ca46  1  0.91082584  0.67838701  0.49449264  1
  Ca2+  Ca47  1  0.91510657  0.67631872  0.83369399  1
  Al0+  Al48  1  -0.00027441  0.00098583  -0.00310499  1
  Al0+  Al49  1  0.00187228  -0.00092947  0.33050337  1
  Al0+  Al50  1  0.00162520  -0.00059615  0.66482702  1
  Al0+  Al51  1  -0.00223342  0.50010371  -0.00231837  1
  Al0+  Al52  1  0.00146730  0.49778302  0.34381637  1
  Al0+  Al53  1  0.00139591  0.49885908  0.66872645  1
  Al0+  Al54  1  0.49901965  0.00256984  0.00242910  1
  Al0+  Al55  1  0.49975802  0.00055871  0.33321797  1
  Al0+  Al56  1  0.50058006  0.00080583  0.67102352  1
  Al0+  Al57  1  0.49719826  0.50008209  0.00627740  1
  Al0+  Al58  1  0.49899096  0.50046476  0.32762168  1
  Al0+  Al59  1  0.50023610  0.50135680  0.65854659  1
  Al0+  Al60  1  0.25007433  0.24946975  -0.00165847  1
  Al0+  Al61  1  0.25080360  0.25000048  0.33126514  1
  Al0+  Al62  1  0.24962222  0.25016829  0.65823848  1
  Al0+  Al63  1  0.24811789  0.75101904  0.00724371  1
  Al0+  Al64  1  0.25234674  0.74894305  0.33202407  1
  Al0+  Al65  1  0.24989028  0.74825087  0.67125012  1
  Al0+  Al66  1  0.74666184  0.24881010  0.00395310  1
  Al0+  Al67  1  0.75189631  0.25033556  0.33713670  1
  Al0+  Al68  1  0.75069856  0.25088784  0.67400989  1
  Al0+  Al69  1  0.74783238  0.74940915  -0.00559350  1
  Al0+  Al70  1  0.75044624  0.74895435  0.33572948  1
  Al0+  Al71  1  0.75146647  0.75054333  0.66122550  1
  Al0+  Al72  1  0.93037317  0.81963413  0.31936340  1
  Al0+  Al73  1  0.06835516  0.18038318  0.65048742  1
  Al0+  Al74  1  0.82054720  0.57206445  0.01336856  1
  Al0+  Al75  1  0.31973875  0.57194806  0.01384612  1
  Al0+  Al76  1  0.07275305  0.67669489  0.98638853  1
  Al0+  Al77  1  0.82104061  0.57064272  0.34843317  1
  Al0+  Al78  1  0.67804147  0.92851697  0.34732119  1
  Al0+  Al79  1  0.18137435  0.42833746  0.34722460  1
  Al0+  Al80  1  0.92780209  0.82110603  0.98326318  1
  Al0+  Al81  1  0.56662793  0.68038600  0.98687154  1
  Al0+  Al82  1  0.18077611  0.92864859  0.67961047  1
  Al0+  Al83  1  0.32148450  0.07240876  0.01562246  1
  Al0+  Al84  1  0.82456252  0.07185168  0.34773041  1
  Al0+  Al85  1  0.82184832  0.06992646  0.68381828  1
  Al0+  Al86  1  0.06945582  0.18246116  0.98607063  1
  Al0+  Al87  1  0.42833513  0.82269227  0.31955992  1
  Al0+  Al88  1  0.57052859  0.68063642  0.65182776  1
  Al0+  Al89  1  0.93268209  0.81836650  0.65041228  1
  Al0+  Al90  1  0.43150923  0.31977139  0.65271026  1
  Al0+  Al91  1  0.67827934  0.43228773  0.67834811  1
  Al0+  Al92  1  0.67770126  0.92663444  0.68397461  1
  Al0+  Al93  1  0.67645563  0.42771549  0.01696839  1
  Al0+  Al94  1  0.42918405  0.32055230  0.31553821  1
  Al0+  Al95  1  0.17634015  0.92978173  0.01778876  1
  Si0+  Si96  1  0.57294440  0.17912417  0.31735073  1
  Si0+  Si97  1  0.57262174  0.17710979  0.98479761  1
  Si0+  Si98  1  0.67841249  0.92854991  0.01385200  1
  Si0+  Si99  1  0.07092707  0.17905582  0.31667553  1
  Si0+  Si100  1  0.32174657  0.07473414  0.68089950  1
  Si0+  Si101  1  0.17935986  0.42621176  0.68197682  1
  Si0+  Si102  1  0.42617889  0.82283190  0.65454438  1
  Si0+  Si103  1  0.32009663  0.56854554  0.67982609  1
  Si0+  Si104  1  0.82390068  0.57314692  0.68399670  1
  Si0+  Si105  1  0.67676160  0.42799201  0.35011281  1
  Si0+  Si106  1  0.82053841  0.07026733  0.01461406  1
  Si0+  Si107  1  0.92917808  0.32278128  0.32016006  1
  Si0+  Si108  1  0.57242877  0.67866852  0.31453104  1
  Si0+  Si109  1  0.32053974  0.07173308  0.34903508  1
  Si0+  Si110  1  0.07623227  0.67438766  0.64925914  1
  Si0+  Si111  1  0.42664411  0.82535111  0.98389294  1
  Si0+  Si112  1  0.17742020  0.42723982  0.01291357  1
  Si0+  Si113  1  0.92361356  0.32272395  0.98401392  1
  Si0+  Si114  1  0.43077188  0.31949008  0.98533780  1
  Si0+  Si115  1  0.32347617  0.57270405  0.35209082  1
  Si0+  Si116  1  0.07200471  0.67526533  0.31983329  1
  Si0+  Si117  1  0.57529947  0.17588173  0.65076431  1
  Si0+  Si118  1  0.92642125  0.32399957  0.65020018  1
  Si0+  Si119  1  0.18080918  0.92830192  0.34795342  1
  O2-  O120  1  0.25247389  -0.00143028  0.06717907  1
  O2-  O121  1  0.25338494  -0.00256799  0.39151537  1
  O2-  O122  1  0.25865657  0.00133124  0.72449761  1
  O2-  O123  1  0.23837312  0.50238702  0.05770611  1
  O2-  O124  1  0.25591305  0.50261505  0.39594458  1
  O2-  O125  1  0.24685061  0.50022830  0.72353873  1
  O2-  O126  1  0.75025511  -0.00130090  0.05617265  1
  O2-  O127  1  0.75183050  -0.00024260  0.39564926  1
  O2-  O128  1  0.74838202  -0.00029442  0.73464472  1
  O2-  O129  1  0.75177988  0.49712686  0.06481014  1
  O2-  O130  1  0.74461284  0.49680684  0.39439561  1
  O2-  O131  1  0.75511907  0.50367008  0.72640561  1
  O2-  O132  1  -0.00324697  0.24849261  0.27694496  1
  O2-  O133  1  -0.00689198  0.25453445  0.60340166  1
  O2-  O134  1  -0.00592373  0.25640357  0.93890048  1
  O2-  O135  1  0.00385143  0.74298053  0.27450272  1
  O2-  O136  1  0.00625982  0.74093276  0.60466864  1
  O2-  O137  1  0.00240760  0.74963264  0.93547803  1
  O2-  O138  1  0.50687493  0.24883465  0.26957327  1
  O2-  O139  1  0.50586852  0.24420231  0.60625451  1
  O2-  O140  1  0.50295552  0.24995035  0.94288826  1
  O2-  O141  1  0.50427957  0.74945463  0.27292894  1
  O2-  O142  1  0.50008383  0.76130394  0.60807483  1
  O2-  O143  1  0.49173284  0.75446337  0.93820742  1
  O2-  O144  1  0.06832577  0.18435279  0.09975080  1
  O2-  O145  1  0.07322039  0.17920017  0.42175400  1
  O2-  O146  1  0.07061322  0.18258156  0.76342185  1
  O2-  O147  1  0.07053648  0.67681173  0.10040593  1
  O2-  O148  1  0.07287152  0.67692212  0.42564200  1
  O2-  O149  1  0.07888966  0.67343330  0.75426936  1
  O2-  O150  1  0.57332005  0.17623550  0.08979066  1
  O2-  O151  1  0.56959911  0.18025331  0.42281318  1
  O2-  O152  1  0.57283736  0.17666093  0.75660261  1
  O2-  O153  1  0.56729960  0.68353840  0.09990812  1
  O2-  O154  1  0.57019869  0.67665583  0.42038477  1
  O2-  O155  1  0.56637339  0.67595278  0.76477728  1
  O2-  O156  1  0.18138553  0.42887422  0.23406932  1
  O2-  O157  1  0.18104495  0.42567641  0.57680255  1
  O2-  O158  1  0.18320910  0.42372671  0.90718835  1
  O2-  O159  1  0.18024020  0.93055188  0.24343891  1
  O2-  O160  1  0.18261548  0.92987171  0.56560807  1
  O2-  O161  1  0.17645097  0.93341086  0.90405846  1
  O2-  O162  1  0.67849478  0.42705935  0.24483843  1
  O2-  O163  1  0.67809912  0.43528192  0.56501101  1
  O2-  O164  1  0.67460432  0.42911636  0.90315951  1
  O2-  O165  1  0.67849278  0.93028585  0.23294989  1
  O2-  O166  1  0.67767409  0.92821922  0.57065644  1
  O2-  O167  1  0.67688879  0.93059358  0.90908204  1
  O2-  O168  1  0.42987110  0.31761023  0.09028780  1
  O2-  O169  1  0.42926063  0.31822419  0.42876342  1
  O2-  O170  1  0.43048946  0.32074766  0.76610876  1
  O2-  O171  1  0.43154441  0.82588011  0.08970821  1
  O2-  O172  1  0.42498527  0.81950430  0.43296523  1
  O2-  O173  1  0.42278702  0.81791680  0.75965250  1
  O2-  O174  1  0.92464714  0.32046819  0.09011920  1
  O2-  O175  1  0.93150099  0.32403840  0.42505650  1
  O2-  O176  1  0.93053275  0.32572252  0.75563131  1
  O2-  O177  1  0.92636593  0.82138665  0.09719726  1
  O2-  O178  1  0.93318985  0.82108340  0.43237651  1
  O2-  O179  1  0.93380783  0.81787973  0.76306490  1
  O2-  O180  1  0.31801184  0.07367578  0.24428811  1
  O2-  O181  1  0.31947805  0.07587430  0.57487071  1
  O2-  O182  1  0.32097597  0.07388121  0.90187848  1
  O2-  O183  1  0.32188607  0.57296984  0.24666382  1
  O2-  O184  1  0.31873920  0.56859909  0.57473150  1
  O2-  O185  1  0.32404526  0.56534714  0.90027423  1
  O2-  O186  1  0.82384378  0.07224409  0.23353425  1
  O2-  O187  1  0.82134614  0.06746415  0.57028800  1
  O2-  O188  1  0.81914958  0.07254971  0.90996542  1
  O2-  O189  1  0.82216743  0.57016144  0.23562726  1
  O2-  O190  1  0.82373699  0.57075431  0.57796076  1
  O2-  O191  1  0.81721494  0.57112437  0.89989305  1
  O2-  O192  1  0.04551291  0.08732804  0.26840735  1
  O2-  O193  1  0.03932228  0.08408626  0.59560951  1
  O2-  O194  1  0.03801444  0.08679722  0.93198008  1
  O2-  O195  1  0.04821188  0.57968834  0.27737152  1
  O2-  O196  1  0.05302888  0.57869912  0.60473225  1
  O2-  O197  1  0.04837475  0.57702971  0.93219828  1
  O2-  O198  1  0.54549064  0.08648350  0.27042001  1
  O2-  O199  1  0.55014534  0.08180813  0.60483288  1
  O2-  O200  1  0.54277768  0.08659442  0.93559909  1
  O2-  O201  1  0.54500317  0.58607389  0.26750860  1
  O2-  O202  1  0.53324717  0.58866650  0.59299709  1
  O2-  O203  1  0.53325132  0.58254046  0.93582978  1
  O2-  O204  1  0.16115397  0.21099629  0.26894237  1
  O2-  O205  1  0.16367900  0.21296306  0.59402457  1
  O2-  O206  1  0.16584023  0.21360793  0.93110823  1
  O2-  O207  1  0.16669471  0.69928448  0.27516556  1
  O2-  O208  1  0.16998633  0.70050748  0.60271977  1
  O2-  O209  1  0.17393970  0.70206617  0.93662399  1
  O2-  O210  1  0.66847380  0.20228639  0.27313146  1
  O2-  O211  1  0.66921807  0.20246066  0.60661981  1
  O2-  O212  1  0.66475809  0.20252553  0.93672133  1
  O2-  O213  1  0.66617238  0.70371366  0.26975057  1
  O2-  O214  1  0.66761925  0.70652585  0.59714156  1
  O2-  O215  1  0.66170961  0.71018264  0.93041059  1
  O2-  O216  1  0.08049135  0.44283342  0.05540418  1
  O2-  O217  1  0.08677566  0.45595431  0.40687896  1
  O2-  O218  1  0.08607692  0.44834639  0.72891225  1
  O2-  O219  1  0.07946790  0.96517539  0.07034584  1
  O2-  O220  1  0.09019537  0.95955914  0.39519957  1
  O2-  O221  1  0.08666073  0.96429184  0.73283292  1
  O2-  O222  1  0.58006510  0.45862987  0.07136627  1
  O2-  O223  1  0.58144750  0.45397305  0.39283327  1
  O2-  O224  1  0.58118399  0.46553243  0.73050716  1
  O2-  O225  1  0.58713179  0.95788522  0.06172738  1
  O2-  O226  1  0.57941616  0.95764389  0.40056251  1
  O2-  O227  1  0.57782435  0.95190405  0.73713252  1
  O2-  O228  1  0.21068212  0.33740677  0.06196293  1
  O2-  O229  1  0.21434160  0.33189021  0.40135592  1
  O2-  O230  1  0.21171773  0.33544845  0.72830345  1
  O2-  O231  1  0.20011987  0.83119346  0.07170418  1
  O2-  O232  1  0.20730116  0.83556843  0.39458378  1
  O2-  O233  1  0.20793880  0.83147654  0.73464782  1
  O2-  O234  1  0.70023428  0.32745040  0.06934212  1
  O2-  O235  1  0.70130320  0.33453086  0.39694767  1
  O2-  O236  1  0.70298197  0.33482458  0.73373866  1
  O2-  O237  1  0.70496514  0.83653506  0.05997931  1
  O2-  O238  1  0.70380632  0.82988776  0.39928114  1
  O2-  O239  1  0.70897181  0.82759585  0.73374426  1
  O2-  O240  1  0.45525806  0.41875996  0.26234756  1
  O2-  O241  1  0.46210604  0.41451122  0.59486312  1
  O2-  O242  1  0.45765306  0.41189735  0.93937285  1
  O2-  O243  1  0.45474485  0.92072032  0.26585398  1
  O2-  O244  1  0.44331761  0.91996615  0.61179059  1
  O2-  O245  1  0.45275681  0.91917865  0.93827953  1
  O2-  O246  1  0.96241144  0.41310597  0.27259930  1
  O2-  O247  1  0.95381090  0.41754527  0.60349523  1
  O2-  O248  1  0.94456505  0.41681605  0.93770332  1
  O2-  O249  1  0.96306966  0.91560526  0.26453373  1
  O2-  O250  1  0.96718718  0.91384849  0.59672947  1
  O2-  O251  1  0.95665738  0.91964428  0.93105788  1
  O2-  O252  1  0.33357021  0.28591867  0.26196967  1
  O2-  O253  1  0.33598254  0.28901862  0.59585116  1
  O2-  O254  1  0.33970934  0.29092055  0.93653897  1
  O2-  O255  1  0.33276009  0.78958763  0.26375942  1
  O2-  O256  1  0.33502751  0.79060122  0.60569332  1
  O2-  O257  1  0.33029473  0.80334427  0.94373622  1
  O2-  O258  1  0.83566626  0.30011768  0.27351221  1
  O2-  O259  1  0.83100465  0.30147778  0.60672306  1
  O2-  O260  1  0.82982751  0.29456226  0.93948149  1
  O2-  O261  1  0.83238740  0.79017329  0.26793207  1
  O2-  O262  1  0.83610388  0.78948175  0.59539657  1
  O2-  O263  1  0.83047622  0.79150818  0.92895379  1
  O2-  O264  1  0.42092948  0.04835781  0.06976994  1
  O2-  O265  1  0.41388463  0.04936560  0.39529866  1
  O2-  O266  1  0.41750921  0.05824586  0.72582290  1
  O2-  O267  1  0.41115704  0.53455049  0.07276330  1
  O2-  O268  1  0.41780367  0.54620689  0.39607591  1
  O2-  O269  1  0.41085155  0.53611829  0.72561289  1
  O2-  O270  1  0.91259077  0.04451612  0.06138912  1
  O2-  O271  1  0.92368355  0.04278915  0.39890935  1
  O2-  O272  1  0.92009595  0.03852801  0.73459072  1
  O2-  O273  1  0.92003792  0.54563241  0.06653559  1
  O2-  O274  1  0.91562458  0.53851752  0.40560851  1
  O2-  O275  1  0.91858640  0.54871810  0.72898200  1
  O2-  O276  1  0.28908981  0.16999078  0.06897994  1
  O2-  O277  1  0.28847838  0.16194012  0.39706023  1
  O2-  O278  1  0.29026271  0.16699800  0.72655343  1
  O2-  O279  1  0.29690233  0.66909097  0.07004936  1
  O2-  O280  1  0.29677865  0.66561929  0.39956328  1
  O2-  O281  1  0.29616079  0.65996224  0.72959560  1
  O2-  O282  1  0.79229815  0.16147370  0.06370244  1
  O2-  O283  1  0.79911720  0.17108612  0.40133494  1
  O2-  O284  1  0.79825975  0.16974005  0.73683711  1
  O2-  O285  1  0.78646404  0.66934600  0.06589214  1
  O2-  O286  1  0.78913215  0.66572564  0.40380038  1
  O2-  O287  1  0.79796271  0.66692802  0.72657245  1
