# generated using pymatgen
data_Ca2Al2SiO7
_symmetry_space_group_name_H-M   'P 1'
_cell_length_a   15.47154451
_cell_length_b   15.47577777
_cell_length_c   15.29496071
_cell_angle_alpha   90.00120556
_cell_angle_beta   90.02709807
_cell_angle_gamma   89.95569839
_symmetry_Int_Tables_number   1
_chemical_formula_structural   Ca2Al2SiO7
_chemical_formula_sum   'Ca48 Al48 Si24 O168'
_cell_volume   3662.13494059
_cell_formula_units_Z   24
loop_
 _symmetry_equiv_pos_site_id
 _symmetry_equiv_pos_as_xyz
  1  'x, y, z'
loop_
 _atom_type_symbol
 _atom_type_oxidation_number
  Ca2+  2.0
  Al0+  0.0
  Si0+  0.0
  O2-  -2.0
loop_
 _atom_site_type_symbol
 _atom_site_label
 _atom_site_symmetry_multiplicity
 _atom_site_fract_x
 _atom_site_fract_y
 _atom_site_fract_z
 _atom_site_occupancy
  Ca2+  Ca0  1  0.16294041  0.08235679  0.17450740  1
  Ca2+  Ca1  1  0.15435186  0.08114427  0.50182693  1
  Ca2+  Ca2  1  0.16173370  0.08785432  0.83936726  1
  Ca2+  Ca3  1  0.16768166  0.57130525  0.17335446  1
  Ca2+  Ca4  1  0.16286411  0.58135429  0.50082927  1
  Ca2+  Ca5  1  0.16782144  0.57630266  0.83969056  1
  Ca2+  Ca6  1  0.67246000  0.09686384  0.16927028  1
  Ca2+  Ca7  1  0.66474487  0.08440628  0.50217485  1
  Ca2+  Ca8  1  0.67258663  0.08604680  0.84554934  1
  Ca2+  Ca9  1  0.66122099  0.57330111  0.17105167  1
  Ca2+  Ca10  1  0.67039503  0.57610619  0.50906216  1
  Ca2+  Ca11  1  0.66803793  0.57720073  0.83517997  1
  Ca2+  Ca12  1  0.07574757  0.33328944  0.15842514  1
  Ca2+  Ca13  1  0.06999300  0.33154862  0.48987571  1
  Ca2+  Ca14  1  0.07150447  0.33111833  0.82695353  1
  Ca2+  Ca15  1  0.09005834  0.82945788  0.16902446  1
  Ca2+  Ca16  1  0.08538795  0.82264015  0.49467288  1
  Ca2+  Ca17  1  0.08106258  0.82467417  0.82791886  1
  Ca2+  Ca18  1  0.58433484  0.32957881  0.15838798  1
  Ca2+  Ca19  1  0.58088400  0.33982681  0.49439288  1
  Ca2+  Ca20  1  0.57679711  0.34318800  0.83183454  1
  Ca2+  Ca21  1  0.58063145  0.81972731  0.15844482  1
  Ca2+  Ca22  1  0.58778283  0.81788337  0.49479005  1
  Ca2+  Ca23  1  0.58235309  0.82242984  0.83279143  1
  Ca2+  Ca24  1  0.32076986  0.40425754  0.16632302  1
  Ca2+  Ca25  1  0.32635450  0.41119592  0.50229363  1
  Ca2+  Ca26  1  0.32796831  0.40739378  0.84041243  1
  Ca2+  Ca27  1  0.33196587  0.91738165  0.17376105  1
  Ca2+  Ca28  1  0.32832575  0.91956334  0.50144030  1
  Ca2+  Ca29  1  0.33384314  0.91760354  0.84095332  1
  Ca2+  Ca30  1  0.82435617  0.40613201  0.16904359  1
  Ca2+  Ca31  1  0.82428322  0.41306698  0.50521325  1
  Ca2+  Ca32  1  0.82542764  0.41171955  0.83659045  1
  Ca2+  Ca33  1  0.83486845  0.92753081  0.16805625  1
  Ca2+  Ca34  1  0.83456760  0.92066624  0.50403925  1
  Ca2+  Ca35  1  0.83294658  0.92638885  0.84137042  1
  Ca2+  Ca36  1  0.42926720  0.17069583  0.16078915  1
  Ca2+  Ca37  1  0.42378341  0.17431459  0.49837088  1
  Ca2+  Ca38  1  0.42129904  0.17946838  0.83440168  1
  Ca2+  Ca39  1  0.42670426  0.66863923  0.16052217  1
  Ca2+  Ca40  1  0.43034745  0.66136004  0.49641688  1
  Ca2+  Ca41  1  0.43021329  0.66365945  0.83363343  1
  Ca2+  Ca42  1  0.92434483  0.17777122  0.16196411  1
  Ca2+  Ca43  1  0.92183898  0.17940690  0.49620291  1
  Ca2+  Ca44  1  0.92060968  0.17654594  0.83409740  1
  Ca2+  Ca45  1  0.92326997  0.66448193  0.16699908  1
  Ca2+  Ca46  1  0.92527892  0.65696802  0.49896417  1
  Ca2+  Ca47  1  0.92072687  0.66187153  0.82451635  1
  Al0+  Al48  1  -0.00038478  -0.00114930  0.00267041  1
  Al0+  Al49  1  -0.00066241  0.00060446  0.33707692  1
  Al0+  Al50  1  -0.00051573  -0.00248872  0.66676551  1
  Al0+  Al51  1  -0.00037118  0.50000027  0.00013991  1
  Al0+  Al52  1  -0.00089089  0.50199461  0.32743599  1
  Al0+  Al53  1  -0.00047205  0.49938421  0.66180696  1
  Al0+  Al54  1  0.49930534  -0.00225290  -0.00503766  1
  Al0+  Al55  1  0.50062277  0.00103563  0.33316398  1
  Al0+  Al56  1  0.49674930  0.00004468  0.66911754  1
  Al0+  Al57  1  0.49985965  0.50165893  -0.00281661  1
  Al0+  Al58  1  0.49823467  0.50064281  0.33158876  1
  Al0+  Al59  1  0.49780014  0.50107590  0.66098587  1
  Al0+  Al60  1  0.25194770  0.24569811  0.00070945  1
  Al0+  Al61  1  0.25091996  0.24817363  0.33839459  1
  Al0+  Al62  1  0.25277104  0.24632325  0.65985141  1
  Al0+  Al63  1  0.25014108  0.74972384  -0.00225882  1
  Al0+  Al64  1  0.24944391  0.75185383  0.33590141  1
  Al0+  Al65  1  0.24895663  0.75110103  0.66484443  1
  Al0+  Al66  1  0.75346756  0.24974873  0.00250297  1
  Al0+  Al67  1  0.75057424  0.25092035  0.33409507  1
  Al0+  Al68  1  0.74961799  0.24757660  0.66895581  1
  Al0+  Al69  1  0.75206668  0.75106502  -0.00213494  1
  Al0+  Al70  1  0.75066759  0.75112269  0.32834052  1
  Al0+  Al71  1  0.74964768  0.75081905  0.66734254  1
  Al0+  Al72  1  0.92901796  0.32297501  0.31658408  1
  Al0+  Al73  1  0.42718693  0.82023956  0.98550058  1
  Al0+  Al74  1  0.57032822  0.18001446  0.32153961  1
  Al0+  Al75  1  0.43008222  0.32159826  0.65120016  1
  Al0+  Al76  1  0.57207550  0.67774362  0.31880301  1
  Al0+  Al77  1  0.07080013  0.17772381  0.65157712  1
  Al0+  Al78  1  0.82094677  0.07068650  0.01567009  1
  Al0+  Al79  1  0.07142504  0.67827532  0.65369699  1
  Al0+  Al80  1  0.57385383  0.67780895  0.98340454  1
  Al0+  Al81  1  0.67937664  0.43166384  0.01364722  1
  Al0+  Al82  1  0.07154617  0.17841588  0.31877900  1
  Al0+  Al83  1  0.07180683  0.68055744  0.31799650  1
  Al0+  Al84  1  0.42941988  0.32080249  0.98693886  1
  Al0+  Al85  1  0.82233087  0.57120070  0.68069107  1
  Al0+  Al86  1  0.07139338  0.17710498  0.98699809  1
  Al0+  Al87  1  0.17916688  0.93051664  0.34922356  1
  Al0+  Al88  1  0.92654330  0.32125562  0.65035991  1
  Al0+  Al89  1  0.57370090  0.17950055  0.98588543  1
  Al0+  Al90  1  0.57068738  0.68105762  0.65151917  1
  Al0+  Al91  1  0.17783326  0.42842308  0.34716197  1
  Al0+  Al92  1  0.92976287  0.32337116  0.98347608  1
  Al0+  Al93  1  0.67920771  0.42994619  0.34623690  1
  Al0+  Al94  1  0.17953342  0.42719032  0.01093959  1
  Al0+  Al95  1  0.67711785  0.42833873  0.68201792  1
  Si0+  Si96  1  0.42716699  0.82368171  0.64839512  1
  Si0+  Si97  1  0.67668887  0.92878732  0.68191653  1
  Si0+  Si98  1  0.57148467  0.17589222  0.65223658  1
  Si0+  Si99  1  0.42713522  0.32312432  0.31654541  1
  Si0+  Si100  1  0.67733700  0.92753529  0.01739046  1
  Si0+  Si101  1  0.17930372  0.92917388  0.68407909  1
  Si0+  Si102  1  0.42959113  0.82205076  0.31940064  1
  Si0+  Si103  1  0.82356720  0.57542544  0.01770076  1
  Si0+  Si104  1  0.32522289  0.07138919  0.35314300  1
  Si0+  Si105  1  0.18093040  0.42749220  0.67850856  1
  Si0+  Si106  1  0.92776196  0.82396093  0.31591722  1
  Si0+  Si107  1  0.82077530  0.06844126  0.68250008  1
  Si0+  Si108  1  0.67856684  0.92786372  0.34792854  1
  Si0+  Si109  1  0.92804458  0.82144777  0.65095450  1
  Si0+  Si110  1  0.32054236  0.57332721  0.01576367  1
  Si0+  Si111  1  0.07029634  0.67920111  0.98556666  1
  Si0+  Si112  1  0.93047265  0.82180062  0.98580622  1
  Si0+  Si113  1  0.32018240  0.57319971  0.35034152  1
  Si0+  Si114  1  0.82105615  0.57584439  0.34824114  1
  Si0+  Si115  1  0.32154351  0.07072297  0.68523259  1
  Si0+  Si116  1  0.81952998  0.07048129  0.35088662  1
  Si0+  Si117  1  0.32268408  0.06898079  0.01637239  1
  Si0+  Si118  1  0.17940071  0.92751751  0.01518211  1
  Si0+  Si119  1  0.31961922  0.57289308  0.68085369  1
  O2-  O120  1  0.25036745  -0.00184158  0.05719074  1
  O2-  O121  1  0.25140116  0.00724332  0.39707410  1
  O2-  O122  1  0.24791720  0.00152745  0.72706420  1
  O2-  O123  1  0.25601195  0.50040607  0.05880699  1
  O2-  O124  1  0.25260954  0.50331102  0.39470356  1
  O2-  O125  1  0.25013432  0.49997519  0.72244278  1
  O2-  O126  1  0.74107784  0.00012833  0.06263368  1
  O2-  O127  1  0.74794175  -0.00089202  0.39276296  1
  O2-  O128  1  0.74547078  0.00138436  0.72447333  1
  O2-  O129  1  0.75359002  0.50782515  0.06065536  1
  O2-  O130  1  0.75241024  0.50696849  0.39147382  1
  O2-  O131  1  0.75187107  0.49839049  0.73136299  1
  O2-  O132  1  0.00697736  0.25596745  0.26854633  1
  O2-  O133  1  0.00246753  0.25236236  0.60163609  1
  O2-  O134  1  0.00492779  0.25299511  0.93612182  1
  O2-  O135  1  -0.00338605  0.75537892  0.27185094  1
  O2-  O136  1  -0.00767968  0.74887167  0.60757768  1
  O2-  O137  1  -0.00309537  0.74725815  0.94288751  1
  O2-  O138  1  0.49797658  0.25598526  0.27447107  1
  O2-  O139  1  0.51013527  0.25066243  0.60757197  1
  O2-  O140  1  0.50595583  0.25456969  0.93495248  1
  O2-  O141  1  0.49720032  0.75348929  0.27453954  1
  O2-  O142  1  0.49617136  0.75624116  0.60390051  1
  O2-  O143  1  0.50060375  0.75032990  0.93550664  1
  O2-  O144  1  0.06966551  0.17504373  0.10009282  1
  O2-  O145  1  0.06505521  0.17730186  0.43212863  1
  O2-  O146  1  0.06908388  0.17744251  0.76494087  1
  O2-  O147  1  0.07182579  0.68188548  0.09040962  1
  O2-  O148  1  0.07071436  0.68222733  0.43103475  1
  O2-  O149  1  0.07403768  0.68237851  0.76715449  1
  O2-  O150  1  0.57006273  0.18007759  0.09956140  1
  O2-  O151  1  0.56793089  0.17692904  0.43486572  1
  O2-  O152  1  0.56795983  0.17023132  0.75704561  1
  O2-  O153  1  0.57200596  0.67979429  0.09714565  1
  O2-  O154  1  0.57215501  0.68001640  0.43204065  1
  O2-  O155  1  0.56976739  0.68327404  0.76401007  1
  O2-  O156  1  0.18044096  0.42950882  0.23395072  1
  O2-  O157  1  0.18288980  0.42994150  0.57347596  1
  O2-  O158  1  0.17930103  0.43072319  0.89724440  1
  O2-  O159  1  0.18265378  0.92907808  0.23583659  1
  O2-  O160  1  0.18023946  0.92847993  0.57927385  1
  O2-  O161  1  0.17901501  0.92585775  0.90986618  1
  O2-  O162  1  0.67902650  0.42980633  0.23327131  1
  O2-  O163  1  0.67669277  0.43056603  0.56811371  1
  O2-  O164  1  0.67898691  0.43319054  0.90082635  1
  O2-  O165  1  0.67969636  0.92658646  0.24340559  1
  O2-  O166  1  0.67757594  0.92949952  0.57640458  1
  O2-  O167  1  0.68148064  0.92634707  0.91144497  1
  O2-  O168  1  0.42667104  0.31595644  0.10027723  1
  O2-  O169  1  0.42838673  0.32259196  0.42246075  1
  O2-  O170  1  0.42593825  0.31922632  0.76377711  1
  O2-  O171  1  0.42560527  0.81828556  0.09938491  1
  O2-  O172  1  0.43173715  0.82238933  0.42512964  1
  O2-  O173  1  0.42679970  0.82365861  0.75358048  1
  O2-  O174  1  0.93036281  0.32259106  0.09665927  1
  O2-  O175  1  0.92619395  0.31982668  0.43016818  1
  O2-  O176  1  0.92702447  0.31968623  0.76369049  1
  O2-  O177  1  0.93227774  0.82289094  0.09072581  1
  O2-  O178  1  0.92634587  0.82490506  0.42145628  1
  O2-  O179  1  0.93185376  0.82540155  0.75665300  1
  O2-  O180  1  0.32959783  0.06732564  0.24782982  1
  O2-  O181  1  0.32659135  0.06705442  0.58057773  1
  O2-  O182  1  0.32225778  0.06808308  0.91118719  1
  O2-  O183  1  0.31913995  0.57612241  0.24495849  1
  O2-  O184  1  0.31869379  0.57484829  0.57580159  1
  O2-  O185  1  0.31615659  0.57746586  0.90999473  1
  O2-  O186  1  0.81956505  0.06800737  0.24609010  1
  O2-  O187  1  0.82082245  0.06498641  0.57717272  1
  O2-  O188  1  0.82226186  0.06482191  0.90219084  1
  O2-  O189  1  0.81904439  0.58005680  0.24278392  1
  O2-  O190  1  0.81979423  0.57402245  0.56719884  1
  O2-  O191  1  0.82503058  0.57783234  0.91240504  1
  O2-  O192  1  0.03901118  0.08010699  0.26815395  1
  O2-  O193  1  0.03881784  0.07867207  0.60115644  1
  O2-  O194  1  0.03948905  0.07882400  0.93432274  1
  O2-  O195  1  0.04121723  0.58608006  0.26117168  1
  O2-  O196  1  0.04538091  0.58214534  0.59771049  1
  O2-  O197  1  0.04472715  0.58771023  0.93780728  1
  O2-  O198  1  0.54073283  0.08298356  0.26726791  1
  O2-  O199  1  0.53858517  0.08441956  0.60414374  1
  O2-  O200  1  0.54429237  0.08094724  0.93394981  1
  O2-  O201  1  0.53781378  0.58305941  0.26423724  1
  O2-  O202  1  0.53710351  0.58655628  0.59621885  1
  O2-  O203  1  0.54226152  0.58206541  0.92864601  1
  O2-  O204  1  0.17547856  0.19520426  0.27394400  1
  O2-  O205  1  0.17155465  0.19657760  0.60055259  1
  O2-  O206  1  0.17247067  0.19682051  0.93737176  1
  O2-  O207  1  0.16790829  0.71476960  0.26536373  1
  O2-  O208  1  0.16544809  0.71495628  0.59821047  1
  O2-  O209  1  0.16034453  0.71003868  0.93695948  1
  O2-  O210  1  0.66724665  0.20863367  0.26939297  1
  O2-  O211  1  0.66777210  0.19190375  0.60919719  1
  O2-  O212  1  0.67434246  0.20069269  0.93703502  1
  O2-  O213  1  0.66724682  0.71056898  0.26434795  1
  O2-  O214  1  0.66688274  0.71456530  0.59823775  1
  O2-  O215  1  0.67187896  0.70898638  0.93134729  1
  O2-  O216  1  0.08436086  0.46178839  0.06530406  1
  O2-  O217  1  0.08064613  0.46247358  0.39808926  1
  O2-  O218  1  0.08814798  0.45406158  0.72382463  1
  O2-  O219  1  0.08794233  0.95365665  0.06340774  1
  O2-  O220  1  0.08131089  0.95740404  0.40379511  1
  O2-  O221  1  0.08610131  0.95357511  0.73104748  1
  O2-  O222  1  0.58099565  0.46069098  0.06637452  1
  O2-  O223  1  0.58037343  0.45887002  0.39758462  1
  O2-  O224  1  0.57748610  0.46060457  0.73088237  1
  O2-  O225  1  0.58085604  0.94610220  0.05950870  1
  O2-  O226  1  0.58689736  0.95492636  0.39630755  1
  O2-  O227  1  0.58363002  0.95358680  0.72824307  1
  O2-  O228  1  0.21056780  0.33047992  0.06515551  1
  O2-  O229  1  0.20829235  0.33212382  0.40277372  1
  O2-  O230  1  0.21178076  0.33527119  0.72305802  1
  O2-  O231  1  0.20759893  0.83553043  0.06281431  1
  O2-  O232  1  0.21223302  0.83495416  0.40517330  1
  O2-  O233  1  0.20912748  0.83771041  0.73190665  1
  O2-  O234  1  0.71084982  0.33467389  0.06666210  1
  O2-  O235  1  0.71029126  0.33367233  0.40149105  1
  O2-  O236  1  0.70070541  0.32721974  0.73247478  1
  O2-  O237  1  0.70918677  0.83566289  0.06408265  1
  O2-  O238  1  0.70918249  0.83678114  0.39626916  1
  O2-  O239  1  0.70660650  0.83879280  0.73087310  1
  O2-  O240  1  0.44732616  0.41740722  0.27109148  1
  O2-  O241  1  0.45345523  0.41878539  0.59546915  1
  O2-  O242  1  0.44928412  0.42125633  0.93517912  1
  O2-  O243  1  0.45498038  0.91511979  0.27293648  1
  O2-  O244  1  0.45180913  0.91787093  0.60311143  1
  O2-  O245  1  0.45337836  0.91761566  0.93000551  1
  O2-  O246  1  0.94979534  0.42267640  0.26435714  1
  O2-  O247  1  0.95204667  0.41980051  0.59744365  1
  O2-  O248  1  0.95585561  0.42265604  0.93098413  1
  O2-  O249  1  0.95519579  0.91686658  0.27036915  1
  O2-  O250  1  0.95892615  0.91187268  0.60161869  1
  O2-  O251  1  0.96316279  0.91038615  0.93570364  1
  O2-  O252  1  0.33406620  0.29359306  0.27277191  1
  O2-  O253  1  0.33739563  0.28397773  0.59375567  1
  O2-  O254  1  0.33380780  0.28524052  0.93238081  1
  O2-  O255  1  0.33539754  0.79791826  0.27507506  1
  O2-  O256  1  0.33346457  0.79793755  0.60297509  1
  O2-  O257  1  0.32924078  0.79200467  0.93029959  1
  O2-  O258  1  0.83301577  0.28599870  0.26513266  1
  O2-  O259  1  0.82875044  0.28733052  0.59872815  1
  O2-  O260  1  0.83333016  0.28949343  0.93170438  1
  O2-  O261  1  0.83518055  0.79961753  0.26724409  1
  O2-  O262  1  0.83270624  0.80329064  0.60629899  1
  O2-  O263  1  0.83765187  0.80045656  0.93780991  1
  O2-  O264  1  0.41415048  0.03861814  0.06389468  1
  O2-  O265  1  0.41617458  0.03899131  0.40259285  1
  O2-  O266  1  0.41139279  0.03977188  0.73552168  1
  O2-  O267  1  0.41601587  0.55357905  0.05911032  1
  O2-  O268  1  0.41393619  0.54679412  0.39612315  1
  O2-  O269  1  0.41201228  0.54661411  0.72673979  1
  O2-  O270  1  0.91440676  0.03081709  0.07076931  1
  O2-  O271  1  0.90939654  0.03963382  0.40020356  1
  O2-  O272  1  0.91023494  0.03361405  0.73039394  1
  O2-  O273  1  0.91741647  0.55002415  0.06366257  1
  O2-  O274  1  0.91595654  0.55114056  0.39127674  1
  O2-  O275  1  0.92361073  0.54743098  0.73136954  1
  O2-  O276  1  0.29684264  0.15946493  0.06653399  1
  O2-  O277  1  0.30580929  0.16602443  0.39901661  1
  O2-  O278  1  0.29514126  0.16341251  0.73108201  1
  O2-  O279  1  0.28941601  0.66476842  0.06403360  1
  O2-  O280  1  0.29436213  0.66588107  0.39851123  1
  O2-  O281  1  0.28990174  0.66422650  0.72878369  1
  O2-  O282  1  0.79474456  0.16683995  0.07173572  1
  O2-  O283  1  0.78968986  0.16071534  0.39926323  1
  O2-  O284  1  0.79702100  0.16038480  0.73018926  1
  O2-  O285  1  0.80135720  0.67066378  0.06327034  1
  O2-  O286  1  0.79741895  0.67030384  0.39465587  1
  O2-  O287  1  0.79543440  0.67143886  0.73316070  1
