# generated using pymatgen
data_Ca2Al2SiO7
_symmetry_space_group_name_H-M   'P 1'
_cell_length_a   15.45976924
_cell_length_b   15.45976101
_cell_length_c   15.28507670
_cell_angle_alpha   90.00886228
_cell_angle_beta   89.99690078
_cell_angle_gamma   90.00131021
_symmetry_Int_Tables_number   1
_chemical_formula_structural   Ca2Al2SiO7
_chemical_formula_sum   'Ca48 Al48 Si24 O168'
_cell_volume   3653.19958349
_cell_formula_units_Z   24
loop_
 _symmetry_equiv_pos_site_id
 _symmetry_equiv_pos_as_xyz
  1  'x, y, z'
loop_
 _atom_type_symbol
 _atom_type_oxidation_number
  Ca2+  2.0
  Al0+  0.0
  Si0+  0.0
  O2-  -2.0
loop_
 _atom_site_type_symbol
 _atom_site_label
 _atom_site_symmetry_multiplicity
 _atom_site_fract_x
 _atom_site_fract_y
 _atom_site_fract_z
 _atom_site_occupancy
  Ca2+  Ca0  1  0.16681057  0.07962823  0.16432875  1
  Ca2+  Ca1  1  0.17571954  0.07629232  0.51182480  1
  Ca2+  Ca2  1  0.17634581  0.07528269  0.84085089  1
  Ca2+  Ca3  1  0.17243329  0.59388471  0.16176199  1
  Ca2+  Ca4  1  0.16999415  0.58169644  0.50334415  1
  Ca2+  Ca5  1  0.16984271  0.58453928  0.84213750  1
  Ca2+  Ca6  1  0.66412982  0.08219523  0.16393237  1
  Ca2+  Ca7  1  0.66532858  0.07726744  0.51033106  1
  Ca2+  Ca8  1  0.65874173  0.08078697  0.83515565  1
  Ca2+  Ca9  1  0.67277190  0.57847007  0.17375321  1
  Ca2+  Ca10  1  0.66477035  0.57725326  0.50035433  1
  Ca2+  Ca11  1  0.67053816  0.56843227  0.84205248  1
  Ca2+  Ca12  1  0.08190975  0.32581893  0.15799311  1
  Ca2+  Ca13  1  0.07548714  0.33453691  0.49976768  1
  Ca2+  Ca14  1  0.07989376  0.32781017  0.82876106  1
  Ca2+  Ca15  1  0.07249094  0.83028596  0.15377634  1
  Ca2+  Ca16  1  0.07443332  0.83834857  0.49988160  1
  Ca2+  Ca17  1  0.07959950  0.83525670  0.83192804  1
  Ca2+  Ca18  1  0.58472732  0.33420992  0.16271532  1
  Ca2+  Ca19  1  0.57765993  0.33734699  0.49974998  1
  Ca2+  Ca20  1  0.58524924  0.32460987  0.82553252  1
  Ca2+  Ca21  1  0.58060958  0.82241197  0.16043403  1
  Ca2+  Ca22  1  0.58188128  0.83152141  0.49858044  1
  Ca2+  Ca23  1  0.57085367  0.83718848  0.82647777  1
  Ca2+  Ca24  1  0.33638358  0.42025367  0.16841832  1
  Ca2+  Ca25  1  0.34031288  0.41383220  0.50404127  1
  Ca2+  Ca26  1  0.33877195  0.42346152  0.83818882  1
  Ca2+  Ca27  1  0.33171550  0.91726512  0.16142261  1
  Ca2+  Ca28  1  0.32919896  0.92252785  0.51670446  1
  Ca2+  Ca29  1  0.33086215  0.92272757  0.84177620  1
  Ca2+  Ca30  1  0.82340557  0.42836063  0.17233828  1
  Ca2+  Ca31  1  0.82237111  0.42024664  0.50935283  1
  Ca2+  Ca32  1  0.82537324  0.41572537  0.84090733  1
  Ca2+  Ca33  1  0.83895116  0.91349682  0.16975612  1
  Ca2+  Ca34  1  0.83028062  0.91356563  0.50718860  1
  Ca2+  Ca35  1  0.82931534  0.90871174  0.83426538  1
  Ca2+  Ca36  1  0.42126085  0.17226337  0.15769314  1
  Ca2+  Ca37  1  0.41975516  0.17263321  0.50188610  1
  Ca2+  Ca38  1  0.42362948  0.16442883  0.82670412  1
  Ca2+  Ca39  1  0.42228128  0.66740126  0.15903568  1
  Ca2+  Ca40  1  0.42452068  0.67338094  0.49666030  1
  Ca2+  Ca41  1  0.40735783  0.67911696  0.83248817  1
  Ca2+  Ca42  1  0.92324926  0.16838902  0.15703835  1
  Ca2+  Ca43  1  0.91256145  0.17406398  0.50228055  1
  Ca2+  Ca44  1  0.92388038  0.16941601  0.82999493  1
  Ca2+  Ca45  1  0.91444634  0.67176795  0.15853916  1
  Ca2+  Ca46  1  0.90858773  0.67769975  0.49527160  1
  Ca2+  Ca47  1  0.91770659  0.67173700  0.83328576  1
  Al0+  Al48  1  -0.00053352  0.00076790  -0.00522978  1
  Al0+  Al49  1  0.00030299  0.00010224  0.33222196  1
  Al0+  Al50  1  0.00068429  -0.00118453  0.66543205  1
  Al0+  Al51  1  -0.00148720  0.50108860  0.00089547  1
  Al0+  Al52  1  0.00125654  0.50185514  0.33638910  1
  Al0+  Al53  1  0.00167639  0.50039133  0.66222867  1
  Al0+  Al54  1  0.49967560  0.00064335  -0.00029640  1
  Al0+  Al55  1  0.49872252  0.00248961  0.33366038  1
  Al0+  Al56  1  0.50095664  0.00010399  0.66473218  1
  Al0+  Al57  1  0.49923470  0.49906057  0.00818224  1
  Al0+  Al58  1  0.49939395  0.50072136  0.32910657  1
  Al0+  Al59  1  0.50174118  0.49974069  0.66935826  1
  Al0+  Al60  1  0.25109178  0.24959845  -0.00092268  1
  Al0+  Al61  1  0.25105857  0.25001594  0.33058935  1
  Al0+  Al62  1  0.25075194  0.25034104  0.66715608  1
  Al0+  Al63  1  0.24845327  0.75024206  0.00261062  1
  Al0+  Al64  1  0.24799996  0.75108348  0.33653154  1
  Al0+  Al65  1  0.24913377  0.74925469  0.66331691  1
  Al0+  Al66  1  0.74819568  0.24749522  0.00159873  1
  Al0+  Al67  1  0.74975504  0.24954395  0.33603045  1
  Al0+  Al68  1  0.75119687  0.24943511  0.66237726  1
  Al0+  Al69  1  0.74851799  0.74833456  -0.00126029  1
  Al0+  Al70  1  0.74881133  0.75085110  0.32849899  1
  Al0+  Al71  1  0.75157904  0.74963659  0.66809966  1
  Al0+  Al72  1  0.17739165  0.92994351  0.01663651  1
  Al0+  Al73  1  0.07070470  0.67818345  0.98488199  1
  Al0+  Al74  1  0.67906947  0.42562901  0.01669412  1
  Al0+  Al75  1  0.93072167  0.82007787  0.31931392  1
  Al0+  Al76  1  0.92623943  0.82150913  0.98250025  1
  Al0+  Al77  1  0.67974897  0.42896904  0.68157295  1
  Al0+  Al78  1  0.07304404  0.17900957  0.98549578  1
  Al0+  Al79  1  0.42852337  0.82065502  0.65345801  1
  Al0+  Al80  1  0.67799561  0.42870724  0.35169772  1
  Al0+  Al81  1  0.92955657  0.32186354  0.65370276  1
  Al0+  Al82  1  0.56879502  0.68130802  0.31961259  1
  Al0+  Al83  1  0.17786060  0.92712078  0.68282975  1
  Al0+  Al84  1  0.68046341  0.92821092  0.67982658  1
  Al0+  Al85  1  0.57064123  0.18001754  0.98634642  1
  Al0+  Al86  1  0.92940284  0.81977178  0.65178406  1
  Al0+  Al87  1  0.42977455  0.31948418  0.31764702  1
  Al0+  Al88  1  0.82162197  0.57333671  0.35065222  1
  Al0+  Al89  1  0.82110152  0.57192610  0.01514587  1
  Al0+  Al90  1  0.42919531  0.32315613  0.65336592  1
  Al0+  Al91  1  0.31942468  0.57153195  0.01357830  1
  Al0+  Al92  1  0.32202137  0.07197462  0.68248089  1
  Al0+  Al93  1  0.43060488  0.81899805  0.98810172  1
  Al0+  Al94  1  0.32309701  0.07180255  0.01743832  1
  Al0+  Al95  1  0.57192539  0.17821960  0.65015704  1
  Si0+  Si96  1  0.32128426  0.56991286  0.67953010  1
  Si0+  Si97  1  0.32028307  0.07213199  0.34919298  1
  Si0+  Si98  1  0.17734220  0.42927049  0.68056677  1
  Si0+  Si99  1  0.06967769  0.18096646  0.31944579  1
  Si0+  Si100  1  0.17810641  0.93029761  0.34926491  1
  Si0+  Si101  1  0.17997619  0.42627791  0.34856909  1
  Si0+  Si102  1  0.42813289  0.32355639  0.98378128  1
  Si0+  Si103  1  0.82367332  0.07065825  0.34783311  1
  Si0+  Si104  1  0.82270800  0.07249102  0.68318242  1
  Si0+  Si105  1  0.57145572  0.67503971  0.98234414  1
  Si0+  Si106  1  0.67784483  0.92846252  0.01454408  1
  Si0+  Si107  1  0.07206863  0.17849031  0.64931381  1
  Si0+  Si108  1  0.92788773  0.32253180  0.31855321  1
  Si0+  Si109  1  0.92819188  0.32068864  0.98629092  1
  Si0+  Si110  1  0.32019782  0.57166424  0.34915146  1
  Si0+  Si111  1  0.57234407  0.67803703  0.65257898  1
  Si0+  Si112  1  0.07461671  0.67665974  0.31615900  1
  Si0+  Si113  1  0.82097220  0.06970907  0.01366400  1
  Si0+  Si114  1  0.42520135  0.82467300  0.31744436  1
  Si0+  Si115  1  0.07312193  0.67684446  0.64700153  1
  Si0+  Si116  1  0.82434971  0.57167727  0.68388702  1
  Si0+  Si117  1  0.67841767  0.93071247  0.34574941  1
  Si0+  Si118  1  0.17698506  0.42698295  0.01556198  1
  Si0+  Si119  1  0.57349085  0.17589450  0.31539478  1
  O2-  O120  1  0.24920602  0.00183871  0.06856879  1
  O2-  O121  1  0.25391926  -0.00356108  0.39107588  1
  O2-  O122  1  0.25187753  -0.00246658  0.73112804  1
  O2-  O123  1  0.24441917  0.49652952  0.06073072  1
  O2-  O124  1  0.24938063  0.49956656  0.39068277  1
  O2-  O125  1  0.25094939  0.49776894  0.72112789  1
  O2-  O126  1  0.75313287  -0.00441057  0.05665932  1
  O2-  O127  1  0.74917625  0.00236297  0.38800601  1
  O2-  O128  1  0.75398364  0.00404886  0.72731033  1
  O2-  O129  1  0.74840235  0.50080618  0.06525556  1
  O2-  O130  1  0.75253901  0.49881665  0.40150860  1
  O2-  O131  1  0.75728660  0.50119670  0.72721602  1
  O2-  O132  1  -0.00137054  0.25139756  0.27586520  1
  O2-  O133  1  0.00349718  0.24700607  0.60412688  1
  O2-  O134  1  0.00020040  0.25637506  0.94073057  1
  O2-  O135  1  0.00306844  0.74298218  0.27423050  1
  O2-  O136  1  0.00398395  0.74559430  0.60370280  1
  O2-  O137  1  -0.00078880  0.74965804  0.93413723  1
  O2-  O138  1  0.50749989  0.24754277  0.27236061  1
  O2-  O139  1  0.50053176  0.25159166  0.60140848  1
  O2-  O140  1  0.49659645  0.25499152  0.94045740  1
  O2-  O141  1  0.49334200  0.75591579  0.27338242  1
  O2-  O142  1  0.50542272  0.74828428  0.60690173  1
  O2-  O143  1  0.50273637  0.74333651  0.93822373  1
  O2-  O144  1  0.06905966  0.18063876  0.09970170  1
  O2-  O145  1  0.06896559  0.18213300  0.42449723  1
  O2-  O146  1  0.07113364  0.18083196  0.75453618  1
  O2-  O147  1  0.07012275  0.68024880  0.09883890  1
  O2-  O148  1  0.08001074  0.67815341  0.42167237  1
  O2-  O149  1  0.07421300  0.67283182  0.75181345  1
  O2-  O150  1  0.57099294  0.17983363  0.09989537  1
  O2-  O151  1  0.57191449  0.17011424  0.42025498  1
  O2-  O152  1  0.57178106  0.17950221  0.76363138  1
  O2-  O153  1  0.57059256  0.67802961  0.08838738  1
  O2-  O154  1  0.56672355  0.68353810  0.43310406  1
  O2-  O155  1  0.56993681  0.67760456  0.75779035  1
  O2-  O156  1  0.17998161  0.42271550  0.24395474  1
  O2-  O157  1  0.17523694  0.43107801  0.57494404  1
  O2-  O158  1  0.17780039  0.42642439  0.90983966  1
  O2-  O159  1  0.17562045  0.93190009  0.24480786  1
  O2-  O160  1  0.17874283  0.93043556  0.56783357  1
  O2-  O161  1  0.17862767  0.93110030  0.90372872  1
  O2-  O162  1  0.68072780  0.42819518  0.23849871  1
  O2-  O163  1  0.67816757  0.43281662  0.56859544  1
  O2-  O164  1  0.68161533  0.42412412  0.90288490  1
  O2-  O165  1  0.67761618  0.93257881  0.24051229  1
  O2-  O166  1  0.68277556  0.92777083  0.56579976  1
  O2-  O167  1  0.67633438  0.93016379  0.90974468  1
  O2-  O168  1  0.42777909  0.32219687  0.08981605  1
  O2-  O169  1  0.42652506  0.31657534  0.43037192  1
  O2-  O170  1  0.43038340  0.32707095  0.76623035  1
  O2-  O171  1  0.43469697  0.81774411  0.10179481  1
  O2-  O172  1  0.42562258  0.82413044  0.42319102  1
  O2-  O173  1  0.42694107  0.81831509  0.76623099  1
  O2-  O174  1  0.92969993  0.31681239  0.09248328  1
  O2-  O175  1  0.92977041  0.32047502  0.42369867  1
  O2-  O176  1  0.93321067  0.32138154  0.76664185  1
  O2-  O177  1  0.92742661  0.82198975  0.09658921  1
  O2-  O178  1  0.93259050  0.82302079  0.43240521  1
  O2-  O179  1  0.92796335  0.81727810  0.76379832  1
  O2-  O180  1  0.31925070  0.07320935  0.24459041  1
  O2-  O181  1  0.31832382  0.07180214  0.56756405  1
  O2-  O182  1  0.32421464  0.07040897  0.90455931  1
  O2-  O183  1  0.31799644  0.57326978  0.24443772  1
  O2-  O184  1  0.32004575  0.56981486  0.57382260  1
  O2-  O185  1  0.31931415  0.56962609  0.90014485  1
  O2-  O186  1  0.82726851  0.07062881  0.24273721  1
  O2-  O187  1  0.82270219  0.07101425  0.57674460  1
  O2-  O188  1  0.81996759  0.07334704  0.90913114  1
  O2-  O189  1  0.82105168  0.57162201  0.23754253  1
  O2-  O190  1  0.82327502  0.57168911  0.57810559  1
  O2-  O191  1  0.82023124  0.56894558  0.90129826  1
  O2-  O192  1  0.04076188  0.08967793  0.27192747  1
  O2-  O193  1  0.04579367  0.08559663  0.60213886  1
  O2-  O194  1  0.03837834  0.08588541  0.92954715  1
  O2-  O195  1  0.05478746  0.58083870  0.27230783  1
  O2-  O196  1  0.04872791  0.58365332  0.59862701  1
  O2-  O197  1  0.04530999  0.57810119  0.93230562  1
  O2-  O198  1  0.54439629  0.08359184  0.26711651  1
  O2-  O199  1  0.54308886  0.08058435  0.59547246  1
  O2-  O200  1  0.54027311  0.08340546  0.93328845  1
  O2-  O201  1  0.53734161  0.58616078  0.26418603  1
  O2-  O202  1  0.54254157  0.58647885  0.60474950  1
  O2-  O203  1  0.54526341  0.58024992  0.94021515  1
  O2-  O204  1  0.16057288  0.20950496  0.27119922  1
  O2-  O205  1  0.16479954  0.20591831  0.60235385  1
  O2-  O206  1  0.16937336  0.20886882  0.93152661  1
  O2-  O207  1  0.16759169  0.70577161  0.26981359  1
  O2-  O208  1  0.16580404  0.70242259  0.59821980  1
  O2-  O209  1  0.16979726  0.70492845  0.93332452  1
  O2-  O210  1  0.66954980  0.19743977  0.27184601  1
  O2-  O211  1  0.67118778  0.20278948  0.59705066  1
  O2-  O212  1  0.66825083  0.20699688  0.93250733  1
  O2-  O213  1  0.66313061  0.71409094  0.26276150  1
  O2-  O214  1  0.66607528  0.70240479  0.60645561  1
  O2-  O215  1  0.66456434  0.69976475  0.93666096  1
  O2-  O216  1  0.08278179  0.44928445  0.06193440  1
  O2-  O217  1  0.08808852  0.45308184  0.39721510  1
  O2-  O218  1  0.08699486  0.45932463  0.72937866  1
  O2-  O219  1  0.07830930  0.96193484  0.06794747  1
  O2-  O220  1  0.08822943  0.96405758  0.39786618  1
  O2-  O221  1  0.07937008  0.95664123  0.73353377  1
  O2-  O222  1  0.58039451  0.45175541  0.06959731  1
  O2-  O223  1  0.57842891  0.46087962  0.40065048  1
  O2-  O224  1  0.58443880  0.46154032  0.73693766  1
  O2-  O225  1  0.58944436  0.96111389  0.06531189  1
  O2-  O226  1  0.58600047  0.95748222  0.39380056  1
  O2-  O227  1  0.58366636  0.95819350  0.73267464  1
  O2-  O228  1  0.20405794  0.33440299  0.06341577  1
  O2-  O229  1  0.20938438  0.33549956  0.39773094  1
  O2-  O230  1  0.20071901  0.33648378  0.72710957  1
  O2-  O231  1  0.20615901  0.83222865  0.07068002  1
  O2-  O232  1  0.20025556  0.83669908  0.39639991  1
  O2-  O233  1  0.20241208  0.82601835  0.73049523  1
  O2-  O234  1  0.70995152  0.32805383  0.07076016  1
  O2-  O235  1  0.70415349  0.32793457  0.40218423  1
  O2-  O236  1  0.71114406  0.33078493  0.73110917  1
  O2-  O237  1  0.70156766  0.83524616  0.06109294  1
  O2-  O238  1  0.70615863  0.83932944  0.39266983  1
  O2-  O239  1  0.71092324  0.83216729  0.73497599  1
  O2-  O240  1  0.45501194  0.41770749  0.26486544  1
  O2-  O241  1  0.45878443  0.42159401  0.59898114  1
  O2-  O242  1  0.45280338  0.41837735  0.94048712  1
  O2-  O243  1  0.45038265  0.91888038  0.27276996  1
  O2-  O244  1  0.45867987  0.91623443  0.59815266  1
  O2-  O245  1  0.46358880  0.91453356  0.93478880  1
  O2-  O246  1  0.95741788  0.41452440  0.27317768  1
  O2-  O247  1  0.96298582  0.41646499  0.59640018  1
  O2-  O248  1  0.94902039  0.41518223  0.94165832  1
  O2-  O249  1  0.96310572  0.91710758  0.26580956  1
  O2-  O250  1  0.95847773  0.91750495  0.59737853  1
  O2-  O251  1  0.95179529  0.92059889  0.93090172  1
  O2-  O252  1  0.33337504  0.28725163  0.26294809  1
  O2-  O253  1  0.32904278  0.29764512  0.60038131  1
  O2-  O254  1  0.33378574  0.30136572  0.93866183  1
  O2-  O255  1  0.33064486  0.79874727  0.27396662  1
  O2-  O256  1  0.33350664  0.78732657  0.59667515  1
  O2-  O257  1  0.33353449  0.78899829  0.93636473  1
  O2-  O258  1  0.83638392  0.29338555  0.27196783  1
  O2-  O259  1  0.83567650  0.28963460  0.59575180  1
  O2-  O260  1  0.83677786  0.28883852  0.94056452  1
  O2-  O261  1  0.83286931  0.79512658  0.26593404  1
  O2-  O262  1  0.83253699  0.78831097  0.59707818  1
  O2-  O263  1  0.82695595  0.79301467  0.93116818  1
  O2-  O264  1  0.42029314  0.03960949  0.07205912  1
  O2-  O265  1  0.41403600  0.04926248  0.39552070  1
  O2-  O266  1  0.42131189  0.04499497  0.73170095  1
  O2-  O267  1  0.41437662  0.54103643  0.07141157  1
  O2-  O268  1  0.41172931  0.54378639  0.39591985  1
  O2-  O269  1  0.41213404  0.54418726  0.72864862  1
  O2-  O270  1  0.91317415  0.04514298  0.06212070  1
  O2-  O271  1  0.91390964  0.04080429  0.39775977  1
  O2-  O272  1  0.91684272  0.04767881  0.72750955  1
  O2-  O273  1  0.91977481  0.54465142  0.06900822  1
  O2-  O274  1  0.92314997  0.55043196  0.40118835  1
  O2-  O275  1  0.91959484  0.54693942  0.72651610  1
  O2-  O276  1  0.29511296  0.17160576  0.06873500  1
  O2-  O277  1  0.28674401  0.16220171  0.39665527  1
  O2-  O278  1  0.29301019  0.17075149  0.73423765  1
  O2-  O279  1  0.28889658  0.66620056  0.07138862  1
  O2-  O280  1  0.29186428  0.66332968  0.39843954  1
  O2-  O281  1  0.29081106  0.66095012  0.72600301  1
  O2-  O282  1  0.79046354  0.15894444  0.06547764  1
  O2-  O283  1  0.79917826  0.16321579  0.39550928  1
  O2-  O284  1  0.79987245  0.16673889  0.72806278  1
  O2-  O285  1  0.79209483  0.67074553  0.06773545  1
  O2-  O286  1  0.78841147  0.67221456  0.40087545  1
  O2-  O287  1  0.79791045  0.66445453  0.72971846  1
