# generated using pymatgen
data_Ca2Al2SiO7
_symmetry_space_group_name_H-M   'P 1'
_cell_length_a   15.46436186
_cell_length_b   15.46378632
_cell_length_c   15.28801395
_cell_angle_alpha   89.98431501
_cell_angle_beta   89.99478577
_cell_angle_gamma   90.02339344
_symmetry_Int_Tables_number   1
_chemical_formula_structural   Ca2Al2SiO7
_chemical_formula_sum   'Ca48 Al48 Si24 O168'
_cell_volume   3655.93831254
_cell_formula_units_Z   24
loop_
 _symmetry_equiv_pos_site_id
 _symmetry_equiv_pos_as_xyz
  1  'x, y, z'
loop_
 _atom_type_symbol
 _atom_type_oxidation_number
  Ca2+  2.0
  Al0+  0.0
  Si0+  0.0
  O2-  -2.0
loop_
 _atom_site_type_symbol
 _atom_site_label
 _atom_site_symmetry_multiplicity
 _atom_site_fract_x
 _atom_site_fract_y
 _atom_site_fract_z
 _atom_site_occupancy
  Ca2+  Ca0  1  0.16231378  0.07564044  0.17040071  1
  Ca2+  Ca1  1  0.17017394  0.07436970  0.50323453  1
  Ca2+  Ca2  1  0.16858067  0.08548313  0.83782083  1
  Ca2+  Ca3  1  0.16339750  0.57866124  0.16539919  1
  Ca2+  Ca4  1  0.16812976  0.58111542  0.50801902  1
  Ca2+  Ca5  1  0.17122069  0.58708104  0.84201942  1
  Ca2+  Ca6  1  0.68084739  0.08015627  0.17038430  1
  Ca2+  Ca7  1  0.67702641  0.07433534  0.50924529  1
  Ca2+  Ca8  1  0.67829200  0.07642379  0.83410850  1
  Ca2+  Ca9  1  0.67586648  0.58800689  0.16884857  1
  Ca2+  Ca10  1  0.67732984  0.57907153  0.50855093  1
  Ca2+  Ca11  1  0.67410724  0.58835971  0.83608045  1
  Ca2+  Ca12  1  0.08940408  0.32852929  0.15840724  1
  Ca2+  Ca13  1  0.07501015  0.33472723  0.49819161  1
  Ca2+  Ca14  1  0.07878647  0.33167683  0.82994040  1
  Ca2+  Ca15  1  0.07606173  0.82840451  0.16110585  1
  Ca2+  Ca16  1  0.07976397  0.82757213  0.49484356  1
  Ca2+  Ca17  1  0.07601661  0.82058738  0.83348185  1
  Ca2+  Ca18  1  0.58769548  0.33555868  0.16514238  1
  Ca2+  Ca19  1  0.58839425  0.33821605  0.49581162  1
  Ca2+  Ca20  1  0.58575558  0.33457742  0.82498344  1
  Ca2+  Ca21  1  0.57407592  0.82714597  0.15571217  1
  Ca2+  Ca22  1  0.59209492  0.82685981  0.50292683  1
  Ca2+  Ca23  1  0.58339086  0.82253770  0.83023251  1
  Ca2+  Ca24  1  0.32112729  0.42171212  0.16529296  1
  Ca2+  Ca25  1  0.32370193  0.42052839  0.50449982  1
  Ca2+  Ca26  1  0.32676196  0.43117117  0.83881794  1
  Ca2+  Ca27  1  0.32496708  0.90955573  0.16974969  1
  Ca2+  Ca28  1  0.32553082  0.91804188  0.50656237  1
  Ca2+  Ca29  1  0.33674514  0.91889829  0.83619528  1
  Ca2+  Ca30  1  0.83222820  0.43538041  0.17214534  1
  Ca2+  Ca31  1  0.82658200  0.42443337  0.50716560  1
  Ca2+  Ca32  1  0.83417467  0.42522349  0.83135053  1
  Ca2+  Ca33  1  0.85109044  0.92566463  0.16936543  1
  Ca2+  Ca34  1  0.83651493  0.92534246  0.50536248  1
  Ca2+  Ca35  1  0.83714674  0.92252341  0.83870075  1
  Ca2+  Ca36  1  0.41951374  0.17098502  0.16033129  1
  Ca2+  Ca37  1  0.41749062  0.16483007  0.49791606  1
  Ca2+  Ca38  1  0.41607709  0.16938274  0.82500864  1
  Ca2+  Ca39  1  0.42258064  0.66911009  0.15305758  1
  Ca2+  Ca40  1  0.42420438  0.65681748  0.50248053  1
  Ca2+  Ca41  1  0.42394164  0.66160886  0.82831813  1
  Ca2+  Ca42  1  0.92031734  0.16695866  0.15806235  1
  Ca2+  Ca43  1  0.90357335  0.17218494  0.49916756  1
  Ca2+  Ca44  1  0.91537140  0.17020680  0.82956797  1
  Ca2+  Ca45  1  0.91473178  0.67604044  0.15739142  1
  Ca2+  Ca46  1  0.91510847  0.66819672  0.49670367  1
  Ca2+  Ca47  1  0.92486208  0.65638950  0.82835191  1
  Al0+  Al48  1  0.00268281  0.00182675  -0.00551521  1
  Al0+  Al49  1  0.00294800  0.00043693  0.34100101  1
  Al0+  Al50  1  0.00270581  -0.00046930  0.67044791  1
  Al0+  Al51  1  -0.00251759  0.49829783  0.00564893  1
  Al0+  Al52  1  0.00118474  0.49949322  0.33966011  1
  Al0+  Al53  1  -0.00118865  0.49606965  0.65900202  1
  Al0+  Al54  1  0.50157390  0.00209981  -0.00268640  1
  Al0+  Al55  1  0.50199650  0.00124261  0.32972672  1
  Al0+  Al56  1  0.49898329  0.00013805  0.67244452  1
  Al0+  Al57  1  0.49826808  0.49878141  0.00040809  1
  Al0+  Al58  1  0.49887922  0.49867176  0.33149763  1
  Al0+  Al59  1  0.49712851  0.49893790  0.66654522  1
  Al0+  Al60  1  0.25113975  0.24955327  -0.00130333  1
  Al0+  Al61  1  0.25155538  0.25160921  0.33601466  1
  Al0+  Al62  1  0.24959369  0.24838714  0.66702811  1
  Al0+  Al63  1  0.24932732  0.75290408  -0.00223051  1
  Al0+  Al64  1  0.25051624  0.75014139  0.33803560  1
  Al0+  Al65  1  0.24963616  0.74980499  0.66587936  1
  Al0+  Al66  1  0.75048364  0.24797045  0.00377948  1
  Al0+  Al67  1  0.75020360  0.25000346  0.33524363  1
  Al0+  Al68  1  0.74924554  0.24849037  0.66856196  1
  Al0+  Al69  1  0.74626385  0.75320796  -0.00226890  1
  Al0+  Al70  1  0.75032404  0.75286876  0.32979877  1
  Al0+  Al71  1  0.75007544  0.74967454  0.66819290  1
  Al0+  Al72  1  0.67887365  0.43068520  0.34645258  1
  Al0+  Al73  1  0.82231883  0.06871516  0.01499108  1
  Al0+  Al74  1  0.17805510  0.42832820  0.01290854  1
  Al0+  Al75  1  0.06792268  0.67634392  0.98739348  1
  Al0+  Al76  1  0.56956693  0.67703310  0.98419595  1
  Al0+  Al77  1  0.42701587  0.82326753  0.98457776  1
  Al0+  Al78  1  0.82239463  0.57029895  0.68162975  1
  Al0+  Al79  1  0.31927266  0.07025194  0.67998842  1
  Al0+  Al80  1  0.67871120  0.92671185  0.68287521  1
  Al0+  Al81  1  0.92816788  0.82260126  0.98502194  1
  Al0+  Al82  1  0.32078485  0.57406423  0.01505353  1
  Al0+  Al83  1  0.67764348  0.42887710  0.68101605  1
  Al0+  Al84  1  0.82287499  0.07042600  0.68345101  1
  Al0+  Al85  1  0.17936787  0.42732243  0.34892422  1
  Al0+  Al86  1  0.07134517  0.67815579  0.65210088  1
  Al0+  Al87  1  0.82223839  0.06958542  0.34676166  1
  Al0+  Al88  1  0.18047027  0.92842158  0.34702159  1
  Al0+  Al89  1  0.31873148  0.57075489  0.67964021  1
  Al0+  Al90  1  0.81959741  0.57317335  0.01296526  1
  Al0+  Al91  1  0.93084320  0.82180048  0.32140364  1
  Al0+  Al92  1  0.92797078  0.31737407  0.65183593  1
  Al0+  Al93  1  0.57108695  0.67808831  0.65104765  1
  Al0+  Al94  1  0.82121364  0.57586835  0.34839743  1
  Al0+  Al95  1  0.07212795  0.18034528  0.98708869  1
  Si0+  Si96  1  0.67651204  0.93002459  0.01862702  1
  Si0+  Si97  1  0.32413413  0.07200103  0.34723536  1
  Si0+  Si98  1  0.17849203  0.92639985  0.68704677  1
  Si0+  Si99  1  0.17689987  0.42723407  0.68252718  1
  Si0+  Si100  1  0.07241690  0.18130588  0.32007786  1
  Si0+  Si101  1  0.42926700  0.31914228  0.98385625  1
  Si0+  Si102  1  0.32138694  0.57196391  0.34982372  1
  Si0+  Si103  1  0.07395673  0.67667628  0.31749797  1
  Si0+  Si104  1  0.42801392  0.32057373  0.31624176  1
  Si0+  Si105  1  0.42881094  0.82312801  0.64844567  1
  Si0+  Si106  1  0.56912002  0.17849426  0.65102655  1
  Si0+  Si107  1  0.42815931  0.82259745  0.32027304  1
  Si0+  Si108  1  0.56962285  0.67879950  0.31866079  1
  Si0+  Si109  1  0.07415039  0.17670314  0.64755866  1
  Si0+  Si110  1  0.18017374  0.93129508  0.01433750  1
  Si0+  Si111  1  0.57190988  0.17902699  0.31686871  1
  Si0+  Si112  1  0.57284272  0.18039967  0.98359351  1
  Si0+  Si113  1  0.42739665  0.32005743  0.64968461  1
  Si0+  Si114  1  0.67725143  0.42672495  0.01573780  1
  Si0+  Si115  1  0.92799418  0.32106198  0.31730034  1
  Si0+  Si116  1  0.92881881  0.82302570  0.65024528  1
  Si0+  Si117  1  0.67429403  0.92965208  0.34851140  1
  Si0+  Si118  1  0.32312660  0.07219250  0.01554438  1
  Si0+  Si119  1  0.92602911  0.32136538  0.98533013  1
  O2-  O120  1  0.25490271  -0.00074652  0.05763301  1
  O2-  O121  1  0.25857422  0.00116462  0.39157740  1
  O2-  O122  1  0.24588486  -0.00289432  0.73001434  1
  O2-  O123  1  0.24547177  0.50464150  0.06412831  1
  O2-  O124  1  0.24988398  0.50640139  0.39401679  1
  O2-  O125  1  0.24028586  0.50035227  0.72604754  1
  O2-  O126  1  0.75117713  -0.00824784  0.06402815  1
  O2-  O127  1  0.74748190  -0.00596985  0.39114930  1
  O2-  O128  1  0.75535151  -0.00592250  0.73251876  1
  O2-  O129  1  0.74252714  0.49895816  0.05842735  1
  O2-  O130  1  0.74931473  0.50278954  0.39683437  1
  O2-  O131  1  0.74657537  0.50225408  0.73188867  1
  O2-  O132  1  0.00174341  0.25181637  0.27583572  1
  O2-  O133  1  0.00108829  0.24029376  0.60343273  1
  O2-  O134  1  -0.00208971  0.25541822  0.94196912  1
  O2-  O135  1  0.00141604  0.74227876  0.27525691  1
  O2-  O136  1  -0.00435537  0.75233765  0.60583105  1
  O2-  O137  1  -0.00895639  0.74233735  0.93558795  1
  O2-  O138  1  0.50125381  0.25098354  0.27443880  1
  O2-  O139  1  0.50007433  0.25075513  0.60671975  1
  O2-  O140  1  0.50368143  0.25246577  0.94068486  1
  O2-  O141  1  0.49802818  0.75068939  0.27827218  1
  O2-  O142  1  0.49719667  0.75459525  0.60294672  1
  O2-  O143  1  0.49460545  0.74720593  0.93539313  1
  O2-  O144  1  0.07219715  0.17892594  0.10100311  1
  O2-  O145  1  0.07485023  0.18282488  0.42481318  1
  O2-  O146  1  0.07835520  0.18060591  0.75287864  1
  O2-  O147  1  0.06929601  0.67932508  0.10139955  1
  O2-  O148  1  0.07730752  0.67953005  0.42305637  1
  O2-  O149  1  0.07250731  0.67894466  0.76491573  1
  O2-  O150  1  0.57131608  0.18084748  0.08924979  1
  O2-  O151  1  0.56917207  0.17607154  0.42159380  1
  O2-  O152  1  0.56664547  0.18038795  0.75629242  1
  O2-  O153  1  0.56852684  0.67947080  0.09900024  1
  O2-  O154  1  0.56857997  0.67792624  0.42359470  1
  O2-  O155  1  0.56774866  0.67655329  0.76324175  1
  O2-  O156  1  0.18305199  0.42215964  0.23637025  1
  O2-  O157  1  0.18098720  0.42558999  0.57648905  1
  O2-  O158  1  0.18210423  0.42447352  0.89980154  1
  O2-  O159  1  0.18149168  0.93030406  0.23376847  1
  O2-  O160  1  0.18009523  0.92766580  0.58088781  1
  O2-  O161  1  0.18022579  0.93460836  0.90963724  1
  O2-  O162  1  0.67925608  0.43148926  0.23269711  1
  O2-  O163  1  0.67929357  0.42970499  0.56742347  1
  O2-  O164  1  0.67816056  0.42235067  0.91066254  1
  O2-  O165  1  0.66585883  0.93416352  0.24356652  1
  O2-  O166  1  0.67795524  0.93094853  0.56834889  1
  O2-  O167  1  0.67284435  0.93570314  0.91376126  1
  O2-  O168  1  0.42844013  0.31541291  0.08943653  1
  O2-  O169  1  0.42607261  0.31848509  0.42111804  1
  O2-  O170  1  0.42579901  0.31707722  0.75474553  1
  O2-  O171  1  0.42957709  0.82488081  0.09936921  1
  O2-  O172  1  0.42831784  0.82578339  0.42483873  1
  O2-  O173  1  0.42924388  0.82349428  0.75354007  1
  O2-  O174  1  0.92442135  0.31858782  0.09134097  1
  O2-  O175  1  0.92696717  0.31784021  0.42213018  1
  O2-  O176  1  0.93094143  0.31749401  0.76505247  1
  O2-  O177  1  0.93585120  0.82491204  0.09892383  1
  O2-  O178  1  0.93342009  0.82361473  0.43436759  1
  O2-  O179  1  0.93200896  0.82556531  0.75537144  1
  O2-  O180  1  0.32417181  0.07340820  0.24159159  1
  O2-  O181  1  0.31866139  0.06924898  0.56631483  1
  O2-  O182  1  0.32203517  0.07433034  0.91069345  1
  O2-  O183  1  0.32241807  0.57174086  0.24454390  1
  O2-  O184  1  0.31906386  0.56604762  0.56594715  1
  O2-  O185  1  0.32162706  0.56952457  0.90176722  1
  O2-  O186  1  0.82282117  0.07017322  0.23355605  1
  O2-  O187  1  0.81870992  0.07036074  0.56945313  1
  O2-  O188  1  0.81933285  0.07123966  0.90267766  1
  O2-  O189  1  0.81881032  0.57632644  0.23444898  1
  O2-  O190  1  0.82157982  0.56941167  0.56802028  1
  O2-  O191  1  0.82181110  0.56856665  0.90057218  1
  O2-  O192  1  0.04460470  0.08845707  0.27514516  1
  O2-  O193  1  0.05446921  0.07992752  0.60542013  1
  O2-  O194  1  0.04263067  0.08620401  0.92942393  1
  O2-  O195  1  0.05357326  0.58024569  0.27531184  1
  O2-  O196  1  0.04395875  0.58101118  0.59745212  1
  O2-  O197  1  0.04522796  0.57533768  0.93695154  1
  O2-  O198  1  0.54300105  0.08877092  0.26578828  1
  O2-  O199  1  0.53747289  0.08756875  0.60374936  1
  O2-  O200  1  0.54298188  0.09026425  0.93549121  1
  O2-  O201  1  0.54076873  0.58739667  0.27068712  1
  O2-  O202  1  0.53490818  0.58222267  0.59664829  1
  O2-  O203  1  0.54436100  0.57676254  0.93367117  1
  O2-  O204  1  0.16516501  0.20814411  0.27256146  1
  O2-  O205  1  0.16630846  0.20614277  0.59925708  1
  O2-  O206  1  0.16910250  0.20928622  0.93221755  1
  O2-  O207  1  0.16723424  0.70651183  0.27195904  1
  O2-  O208  1  0.16759394  0.71099688  0.59687099  1
  O2-  O209  1  0.16511047  0.71013127  0.93527182  1
  O2-  O210  1  0.66319613  0.20791431  0.26841849  1
  O2-  O211  1  0.66121946  0.20410141  0.60377672  1
  O2-  O212  1  0.66502672  0.20708041  0.93699557  1
  O2-  O213  1  0.66073627  0.70707555  0.27045499  1
  O2-  O214  1  0.66823201  0.70899455  0.59672349  1
  O2-  O215  1  0.66627880  0.70861217  0.93074359  1
  O2-  O216  1  0.07892807  0.44858091  0.06795915  1
  O2-  O217  1  0.08224556  0.45228957  0.40351139  1
  O2-  O218  1  0.08128168  0.44668630  0.72394337  1
  O2-  O219  1  0.09094764  0.96510683  0.06278254  1
  O2-  O220  1  0.08906830  0.96404192  0.40656993  1
  O2-  O221  1  0.08549772  0.95119687  0.73319365  1
  O2-  O222  1  0.58175905  0.44679950  0.06065456  1
  O2-  O223  1  0.57758160  0.45313465  0.39667385  1
  O2-  O224  1  0.57661373  0.45049780  0.73052917  1
  O2-  O225  1  0.58530046  0.96417332  0.06654543  1
  O2-  O226  1  0.58314321  0.95952976  0.39803942  1
  O2-  O227  1  0.58243255  0.96041996  0.73601546  1
  O2-  O228  1  0.21547076  0.33184583  0.06731969  1
  O2-  O229  1  0.21628225  0.33342349  0.40513736  1
  O2-  O230  1  0.20744190  0.33503962  0.72782934  1
  O2-  O231  1  0.20486941  0.83977611  0.06364824  1
  O2-  O232  1  0.21060116  0.83309126  0.40399263  1
  O2-  O233  1  0.20663426  0.83401245  0.73224407  1
  O2-  O234  1  0.70479953  0.33411214  0.06403423  1
  O2-  O235  1  0.70514495  0.33138059  0.39804260  1
  O2-  O236  1  0.70546676  0.33035586  0.73322730  1
  O2-  O237  1  0.69238589  0.83402228  0.06232145  1
  O2-  O238  1  0.69686843  0.83453817  0.39099679  1
  O2-  O239  1  0.70022468  0.82710804  0.73399855  1
  O2-  O240  1  0.45387399  0.41237292  0.26742359  1
  O2-  O241  1  0.45247233  0.41142024  0.60067038  1
  O2-  O242  1  0.45254256  0.41195315  0.93758769  1
  O2-  O243  1  0.45490665  0.91436350  0.27086807  1
  O2-  O244  1  0.45347830  0.91811131  0.60356663  1
  O2-  O245  1  0.45796183  0.92193229  0.93246954  1
  O2-  O246  1  0.95448794  0.41493451  0.27328401  1
  O2-  O247  1  0.96022836  0.41098235  0.59260148  1
  O2-  O248  1  0.94935281  0.41517024  0.94030695  1
  O2-  O249  1  0.96886519  0.91811706  0.26958507  1
  O2-  O250  1  0.95809384  0.91671414  0.60426746  1
  O2-  O251  1  0.96604601  0.91671610  0.92989638  1
  O2-  O252  1  0.33805527  0.28824196  0.26709466  1
  O2-  O253  1  0.33670268  0.28819620  0.60103844  1
  O2-  O254  1  0.34063746  0.28571853  0.93472328  1
  O2-  O255  1  0.33559492  0.79520496  0.27346543  1
  O2-  O256  1  0.33468548  0.79786012  0.60288352  1
  O2-  O257  1  0.32674524  0.80433280  0.93306665  1
  O2-  O258  1  0.83707258  0.29104352  0.26934257  1
  O2-  O259  1  0.83096924  0.28579405  0.59749933  1
  O2-  O260  1  0.83415822  0.29067986  0.93868522  1
  O2-  O261  1  0.83188730  0.80039835  0.26632045  1
  O2-  O262  1  0.83404765  0.80121223  0.60540384  1
  O2-  O263  1  0.82492035  0.80920983  0.93937052  1
  O2-  O264  1  0.41658506  0.04860168  0.06224853  1
  O2-  O265  1  0.41883626  0.04902299  0.39215944  1
  O2-  O266  1  0.41514275  0.04305676  0.73619740  1
  O2-  O267  1  0.41756092  0.53957406  0.06927745  1
  O2-  O268  1  0.41365602  0.54095856  0.39545864  1
  O2-  O269  1  0.41257372  0.53451117  0.73379928  1
  O2-  O270  1  0.92139437  0.04048934  0.06611074  1
  O2-  O271  1  0.91768043  0.04200095  0.40341591  1
  O2-  O272  1  0.92412578  0.04914779  0.73317638  1
  O2-  O273  1  0.91372915  0.54061558  0.07119311  1
  O2-  O274  1  0.92016450  0.54885808  0.39943548  1
  O2-  O275  1  0.91994468  0.53398256  0.73148019  1
  O2-  O276  1  0.29324562  0.16247865  0.06464140  1
  O2-  O277  1  0.29673809  0.16404696  0.39495984  1
  O2-  O278  1  0.28957646  0.16708519  0.73461696  1
  O2-  O279  1  0.29721917  0.67461760  0.06579921  1
  O2-  O280  1  0.30111643  0.66613444  0.39689929  1
  O2-  O281  1  0.29412637  0.66924130  0.73118954  1
  O2-  O282  1  0.78794515  0.16424059  0.07049458  1
  O2-  O283  1  0.78759548  0.16501558  0.39962473  1
  O2-  O284  1  0.78833619  0.16623880  0.73633709  1
  O2-  O285  1  0.78881034  0.67109333  0.06538070  1
  O2-  O286  1  0.79237147  0.67479699  0.39971850  1
  O2-  O287  1  0.80007500  0.67036094  0.73169232  1
