# generated using pymatgen
data_Ca2Al2SiO7
_symmetry_space_group_name_H-M   'P 1'
_cell_length_a   15.46361174
_cell_length_b   15.46308309
_cell_length_c   15.28607052
_cell_angle_alpha   90.00143530
_cell_angle_beta   90.00277298
_cell_angle_gamma   90.01311584
_symmetry_Int_Tables_number   1
_chemical_formula_structural   Ca2Al2SiO7
_chemical_formula_sum   'Ca48 Al48 Si24 O168'
_cell_volume   3655.13038123
_cell_formula_units_Z   24
loop_
 _symmetry_equiv_pos_site_id
 _symmetry_equiv_pos_as_xyz
  1  'x, y, z'
loop_
 _atom_type_symbol
 _atom_type_oxidation_number
  Ca2+  2.0
  Al0+  0.0
  Si0+  0.0
  O2-  -2.0
loop_
 _atom_site_type_symbol
 _atom_site_label
 _atom_site_symmetry_multiplicity
 _atom_site_fract_x
 _atom_site_fract_y
 _atom_site_fract_z
 _atom_site_occupancy
  Ca2+  Ca0  1  0.17222283  0.07391328  0.17303431  1
  Ca2+  Ca1  1  0.17196896  0.08385446  0.50500100  1
  Ca2+  Ca2  1  0.16473190  0.07599091  0.83703944  1
  Ca2+  Ca3  1  0.15507100  0.57676328  0.17028453  1
  Ca2+  Ca4  1  0.16465261  0.58428136  0.50497091  1
  Ca2+  Ca5  1  0.17038307  0.58929878  0.83596536  1
  Ca2+  Ca6  1  0.67254273  0.07314847  0.17494514  1
  Ca2+  Ca7  1  0.67706739  0.07925335  0.50322674  1
  Ca2+  Ca8  1  0.66932421  0.08082078  0.83263316  1
  Ca2+  Ca9  1  0.67078264  0.57212565  0.17662622  1
  Ca2+  Ca10  1  0.67632826  0.57978667  0.50707705  1
  Ca2+  Ca11  1  0.66967650  0.57474856  0.83425810  1
  Ca2+  Ca12  1  0.08411916  0.33728844  0.16274668  1
  Ca2+  Ca13  1  0.08776726  0.32779771  0.49523922  1
  Ca2+  Ca14  1  0.08609000  0.32630075  0.82857010  1
  Ca2+  Ca15  1  0.07862610  0.82311651  0.16260958  1
  Ca2+  Ca16  1  0.06963559  0.81953789  0.49617495  1
  Ca2+  Ca17  1  0.08148172  0.82572982  0.82435140  1
  Ca2+  Ca18  1  0.58725682  0.33487121  0.16178776  1
  Ca2+  Ca19  1  0.58757547  0.33513022  0.49978229  1
  Ca2+  Ca20  1  0.58399945  0.33200777  0.82029899  1
  Ca2+  Ca21  1  0.58147360  0.84332630  0.16638293  1
  Ca2+  Ca22  1  0.57346405  0.84108564  0.49344841  1
  Ca2+  Ca23  1  0.57632156  0.83689858  0.82780328  1
  Ca2+  Ca24  1  0.31942493  0.41920475  0.17233157  1
  Ca2+  Ca25  1  0.32986732  0.42346265  0.50713500  1
  Ca2+  Ca26  1  0.33102393  0.42088670  0.83274528  1
  Ca2+  Ca27  1  0.32875572  0.91848891  0.17410537  1
  Ca2+  Ca28  1  0.33825920  0.91730846  0.50274388  1
  Ca2+  Ca29  1  0.32691328  0.91447750  0.83705018  1
  Ca2+  Ca30  1  0.82483085  0.42260248  0.17584972  1
  Ca2+  Ca31  1  0.82591418  0.42883933  0.50387432  1
  Ca2+  Ca32  1  0.82521151  0.41972075  0.83201200  1
  Ca2+  Ca33  1  0.82438550  0.91648266  0.17736909  1
  Ca2+  Ca34  1  0.84188351  0.92026743  0.50415488  1
  Ca2+  Ca35  1  0.83736190  0.92179931  0.83352411  1
  Ca2+  Ca36  1  0.41562096  0.16567379  0.16630003  1
  Ca2+  Ca37  1  0.42318450  0.17027638  0.49755120  1
  Ca2+  Ca38  1  0.42672639  0.17734314  0.81999332  1
  Ca2+  Ca39  1  0.41828998  0.67240095  0.16773301  1
  Ca2+  Ca40  1  0.41432013  0.67540831  0.49840686  1
  Ca2+  Ca41  1  0.41625276  0.67100914  0.82233320  1
  Ca2+  Ca42  1  0.91212337  0.16695919  0.16804688  1
  Ca2+  Ca43  1  0.91713268  0.16181977  0.49865675  1
  Ca2+  Ca44  1  0.92172106  0.16698319  0.82190647  1
  Ca2+  Ca45  1  0.92099265  0.66430606  0.16722212  1
  Ca2+  Ca46  1  0.91774855  0.66620406  0.49180508  1
  Ca2+  Ca47  1  0.92709999  0.66987351  0.82320910  1
  Al0+  Al48  1  0.00156352  0.00097319  0.00588377  1
  Al0+  Al49  1  0.00162637  -0.00203284  0.33068669  1
  Al0+  Al50  1  0.00141851  -0.00082962  0.66401830  1
  Al0+  Al51  1  0.00076941  0.50016724  -0.00390666  1
  Al0+  Al52  1  -0.00157675  0.49573524  0.33742144  1
  Al0+  Al53  1  0.00003515  0.49686275  0.66933513  1
  Al0+  Al54  1  0.50193924  0.00293680  0.00048197  1
  Al0+  Al55  1  0.49969785  0.00276975  0.33431125  1
  Al0+  Al56  1  0.50017557  0.00314827  0.66097324  1
  Al0+  Al57  1  0.49930227  0.50167681  0.00359238  1
  Al0+  Al58  1  0.49533991  0.49854697  0.33346715  1
  Al0+  Al59  1  0.49671574  0.50149344  0.67042953  1
  Al0+  Al60  1  0.25113290  0.25226710  0.00149874  1
  Al0+  Al61  1  0.25109403  0.24926110  0.33843635  1
  Al0+  Al62  1  0.25241038  0.24956694  0.66064450  1
  Al0+  Al63  1  0.25056859  0.75159211  0.00198997  1
  Al0+  Al64  1  0.25027615  0.74909641  0.32293699  1
  Al0+  Al65  1  0.24907349  0.74967314  0.66263895  1
  Al0+  Al66  1  0.75038167  0.25094711  0.00124113  1
  Al0+  Al67  1  0.75003531  0.24707605  0.33770186  1
  Al0+  Al68  1  0.75177893  0.24702727  0.67010644  1
  Al0+  Al69  1  0.74946574  0.75157863  0.00179494  1
  Al0+  Al70  1  0.74719897  0.74861413  0.33542712  1
  Al0+  Al71  1  0.74912530  0.75139309  0.67009350  1
  Al0+  Al72  1  0.67930753  0.43018769  0.68115444  1
  Al0+  Al73  1  0.43128634  0.82279833  0.31722055  1
  Al0+  Al74  1  0.67810907  0.92785894  0.34924251  1
  Al0+  Al75  1  0.82274282  0.06771037  0.68156056  1
  Al0+  Al76  1  0.18004369  0.42986687  0.01201233  1
  Al0+  Al77  1  0.17840347  0.42965586  0.34782933  1
  Al0+  Al78  1  0.67869518  0.42946701  0.01376437  1
  Al0+  Al79  1  0.17900024  0.92805127  0.01408422  1
  Al0+  Al80  1  0.07031685  0.67958487  0.98421219  1
  Al0+  Al81  1  0.31977126  0.06973775  0.34825680  1
  Al0+  Al82  1  0.42923090  0.82130190  0.65475282  1
  Al0+  Al83  1  0.82368244  0.06825071  0.34888454  1
  Al0+  Al84  1  0.06894900  0.67552059  0.31683624  1
  Al0+  Al85  1  0.82394770  0.57459162  0.68403850  1
  Al0+  Al86  1  0.07014893  0.67627650  0.65236197  1
  Al0+  Al87  1  0.67878812  0.93004797  0.01265429  1
  Al0+  Al88  1  0.31720088  0.57232895  0.67933720  1
  Al0+  Al89  1  0.57424818  0.17994099  0.64931710  1
  Al0+  Al90  1  0.81971965  0.57052260  0.34695174  1
  Al0+  Al91  1  0.92735011  0.82033319  0.65401290  1
  Al0+  Al92  1  0.92596301  0.82138631  0.31629396  1
  Al0+  Al93  1  0.43024817  0.32397646  0.65000095  1
  Al0+  Al94  1  0.07158898  0.17894077  0.65349964  1
  Al0+  Al95  1  0.67534792  0.42698745  0.34825830  1
  Si0+  Si96  1  0.92844835  0.32011219  0.98503671  1
  Si0+  Si97  1  0.57145216  0.18104257  0.98529841  1
  Si0+  Si98  1  0.57012968  0.67499959  0.31693917  1
  Si0+  Si99  1  0.18181007  0.93096842  0.67953339  1
  Si0+  Si100  1  0.17846361  0.42438984  0.68368246  1
  Si0+  Si101  1  0.57100023  0.67799550  0.98556351  1
  Si0+  Si102  1  0.43088345  0.82256407  0.98544414  1
  Si0+  Si103  1  0.42850290  0.32239363  0.98608476  1
  Si0+  Si104  1  0.57180053  0.67821209  0.65235999  1
  Si0+  Si105  1  0.92697420  0.82414216  0.98391339  1
  Si0+  Si106  1  0.07218644  0.17891434  0.98727776  1
  Si0+  Si107  1  0.42679667  0.32129040  0.31540144  1
  Si0+  Si108  1  0.32164737  0.07233558  0.01423802  1
  Si0+  Si109  1  0.32244142  0.57429219  0.01843405  1
  Si0+  Si110  1  0.82318876  0.07260866  0.01635570  1
  Si0+  Si111  1  0.82211848  0.57149839  0.01549169  1
  Si0+  Si112  1  0.17919752  0.92518052  0.35085747  1
  Si0+  Si113  1  0.92784323  0.32071065  0.64959872  1
  Si0+  Si114  1  0.57102372  0.18170067  0.31578154  1
  Si0+  Si115  1  0.32287107  0.07255838  0.68236996  1
  Si0+  Si116  1  0.32060663  0.57335880  0.34912769  1
  Si0+  Si117  1  0.92900676  0.31707164  0.31867112  1
  Si0+  Si118  1  0.67421624  0.92899318  0.68359195  1
  Si0+  Si119  1  0.07438541  0.17863340  0.31656330  1
  O2-  O120  1  0.25411627  0.00339536  0.05919950  1
  O2-  O121  1  0.24774214  -0.00655193  0.39627873  1
  O2-  O122  1  0.25276393  0.00137368  0.72485694  1
  O2-  O123  1  0.25115146  0.50703745  0.06039342  1
  O2-  O124  1  0.24861342  0.50833815  0.39278149  1
  O2-  O125  1  0.24231418  0.49795780  0.72729558  1
  O2-  O126  1  0.75718184  0.00095540  0.05852764  1
  O2-  O127  1  0.75758175  -0.00882302  0.39896246  1
  O2-  O128  1  0.74752244  -0.00681037  0.72795788  1
  O2-  O129  1  0.75171128  0.50483967  0.06048855  1
  O2-  O130  1  0.74286350  0.50321778  0.39597029  1
  O2-  O131  1  0.75038864  0.50258212  0.73271387  1
  O2-  O132  1  0.00070098  0.24687499  0.27407084  1
  O2-  O133  1  -0.00030483  0.25506226  0.60539772  1
  O2-  O134  1  -0.00031311  0.24785880  0.94433293  1
  O2-  O135  1  -0.00268126  0.74818209  0.26630403  1
  O2-  O136  1  -0.01105807  0.73886681  0.60471433  1
  O2-  O137  1  -0.00364913  0.75621767  0.93969885  1
  O2-  O138  1  0.50189862  0.25472736  0.27202612  1
  O2-  O139  1  0.50523331  0.25530195  0.59986058  1
  O2-  O140  1  0.50317802  0.25517513  0.94397983  1
  O2-  O141  1  0.50718264  0.74886682  0.27049737  1
  O2-  O142  1  0.50726901  0.75074123  0.60806008  1
  O2-  O143  1  0.50077880  0.75056973  0.94337805  1
  O2-  O144  1  0.07338834  0.17993613  0.09224607  1
  O2-  O145  1  0.07655755  0.18070361  0.42140582  1
  O2-  O146  1  0.07134023  0.17879390  0.76774416  1
  O2-  O147  1  0.06709035  0.67745129  0.09682599  1
  O2-  O148  1  0.06909428  0.67600070  0.43001517  1
  O2-  O149  1  0.07432903  0.68305145  0.76631129  1
  O2-  O150  1  0.57020411  0.17999211  0.09042873  1
  O2-  O151  1  0.57019689  0.18183963  0.42015002  1
  O2-  O152  1  0.57001132  0.17859890  0.76418692  1
  O2-  O153  1  0.56865988  0.67574724  0.09034867  1
  O2-  O154  1  0.56455159  0.67137028  0.42198019  1
  O2-  O155  1  0.56822449  0.67871631  0.75880030  1
  O2-  O156  1  0.18032365  0.42773329  0.23407483  1
  O2-  O157  1  0.18144600  0.42193513  0.57829529  1
  O2-  O158  1  0.18462130  0.42350047  0.89973700  1
  O2-  O159  1  0.18134888  0.92923501  0.24464555  1
  O2-  O160  1  0.18449175  0.93323987  0.57489264  1
  O2-  O161  1  0.18044240  0.93013566  0.90049404  1
  O2-  O162  1  0.67899308  0.42715979  0.23380300  1
  O2-  O163  1  0.68056941  0.43269150  0.56810956  1
  O2-  O164  1  0.67880687  0.42822388  0.90133798  1
  O2-  O165  1  0.67676995  0.93475309  0.23498491  1
  O2-  O166  1  0.66969384  0.93204831  0.57886894  1
  O2-  O167  1  0.67369398  0.93413597  0.89998666  1
  O2-  O168  1  0.42644892  0.31900219  0.09120905  1
  O2-  O169  1  0.42461244  0.31997011  0.41971185  1
  O2-  O170  1  0.42834609  0.31996539  0.76476251  1
  O2-  O171  1  0.43222083  0.82378979  0.09027472  1
  O2-  O172  1  0.43064548  0.82155271  0.43013254  1
  O2-  O173  1  0.42879176  0.82096238  0.76885981  1
  O2-  O174  1  0.92738159  0.31885405  0.09029913  1
  O2-  O175  1  0.93045451  0.31567346  0.42323667  1
  O2-  O176  1  0.92880411  0.31766409  0.75610182  1
  O2-  O177  1  0.92662458  0.82354730  0.08908055  1
  O2-  O178  1  0.93073146  0.82258170  0.42934899  1
  O2-  O179  1  0.93435440  0.82489566  0.76816400  1
  O2-  O180  1  0.31732663  0.07066654  0.23419174  1
  O2-  O181  1  0.32193335  0.07219691  0.57759698  1
  O2-  O182  1  0.32142418  0.07242000  0.90864258  1
  O2-  O183  1  0.32404067  0.56951520  0.24321304  1
  O2-  O184  1  0.31565363  0.57376130  0.56653162  1
  O2-  O185  1  0.32440154  0.57452330  0.91289335  1
  O2-  O186  1  0.81831923  0.07306781  0.23464901  1
  O2-  O187  1  0.82482007  0.06604697  0.56938792  1
  O2-  O188  1  0.82440550  0.07411905  0.91088494  1
  O2-  O189  1  0.82039608  0.56526435  0.23259509  1
  O2-  O190  1  0.82208551  0.57245988  0.57091225  1
  O2-  O191  1  0.82054866  0.56933508  0.91020141  1
  O2-  O192  1  0.04986703  0.08594038  0.26911571  1
  O2-  O193  1  0.04105575  0.08376134  0.59834037  1
  O2-  O194  1  0.04644511  0.08602747  0.94037308  1
  O2-  O195  1  0.03846650  0.57543424  0.26620558  1
  O2-  O196  1  0.05413132  0.57278821  0.60639445  1
  O2-  O197  1  0.04204652  0.58226887  0.92956980  1
  O2-  O198  1  0.53846536  0.09173779  0.26711834  1
  O2-  O199  1  0.54037748  0.08464198  0.59474984  1
  O2-  O200  1  0.54074212  0.09078485  0.93619655  1
  O2-  O201  1  0.53744463  0.58366591  0.26726745  1
  O2-  O202  1  0.54117786  0.58697595  0.60628014  1
  O2-  O203  1  0.54092724  0.58691104  0.93707710  1
  O2-  O204  1  0.16512861  0.21021910  0.26864339  1
  O2-  O205  1  0.16792281  0.20716249  0.59827665  1
  O2-  O206  1  0.16372161  0.20824474  0.93939842  1
  O2-  O207  1  0.16766745  0.70180236  0.26210145  1
  O2-  O208  1  0.16425865  0.71349023  0.59736065  1
  O2-  O209  1  0.16958523  0.71027614  0.93452663  1
  O2-  O210  1  0.66366213  0.20758388  0.26798633  1
  O2-  O211  1  0.67445693  0.20309797  0.59950677  1
  O2-  O212  1  0.66445123  0.20602935  0.93869483  1
  O2-  O213  1  0.66554343  0.69304283  0.27221278  1
  O2-  O214  1  0.66705280  0.69837713  0.60880788  1
  O2-  O215  1  0.66355553  0.70424588  0.93901197  1
  O2-  O216  1  0.08141576  0.45713598  0.06427937  1
  O2-  O217  1  0.08105219  0.45182369  0.40230638  1
  O2-  O218  1  0.08271221  0.44086153  0.72826226  1
  O2-  O219  1  0.08419400  0.95989240  0.07082010  1
  O2-  O220  1  0.08587249  0.95193003  0.39467506  1
  O2-  O221  1  0.09172818  0.96103092  0.72856333  1
  O2-  O222  1  0.58122176  0.45806112  0.06769456  1
  O2-  O223  1  0.57360234  0.44858679  0.39564304  1
  O2-  O224  1  0.58020498  0.45754416  0.73419736  1
  O2-  O225  1  0.58375887  0.96554562  0.06819853  1
  O2-  O226  1  0.58275897  0.96553759  0.40111482  1
  O2-  O227  1  0.58241040  0.96164779  0.73153424  1
  O2-  O228  1  0.21258011  0.33433462  0.06896443  1
  O2-  O229  1  0.21323837  0.33478758  0.40151052  1
  O2-  O230  1  0.21067678  0.33219783  0.73038578  1
  O2-  O231  1  0.21168420  0.83351922  0.06998521  1
  O2-  O232  1  0.20591425  0.83058672  0.39208150  1
  O2-  O233  1  0.21137485  0.84002431  0.72743422  1
  O2-  O234  1  0.70991829  0.33261204  0.06755453  1
  O2-  O235  1  0.70753447  0.33032798  0.39985875  1
  O2-  O236  1  0.70917027  0.33140486  0.73371198  1
  O2-  O237  1  0.70320131  0.83186837  0.06679985  1
  O2-  O238  1  0.69022144  0.82507768  0.39653845  1
  O2-  O239  1  0.69194589  0.83363670  0.72897378  1
  O2-  O240  1  0.44839893  0.41441820  0.26696348  1
  O2-  O241  1  0.45247624  0.42435448  0.59958084  1
  O2-  O242  1  0.45188573  0.41656711  0.94158048  1
  O2-  O243  1  0.46113252  0.92054357  0.26335190  1
  O2-  O244  1  0.45582117  0.91846919  0.60079729  1
  O2-  O245  1  0.45898413  0.91488891  0.93822576  1
  O2-  O246  1  0.95707084  0.40790961  0.26967616  1
  O2-  O247  1  0.94970406  0.41532799  0.60517926  1
  O2-  O248  1  0.95691508  0.41041570  0.93601009  1
  O2-  O249  1  0.95595786  0.92019335  0.26224517  1
  O2-  O250  1  0.96697201  0.91370141  0.59905587  1
  O2-  O251  1  0.95318766  0.91974543  0.94118350  1
  O2-  O252  1  0.33678170  0.28636034  0.26732811  1
  O2-  O253  1  0.33427254  0.29103491  0.59581780  1
  O2-  O254  1  0.33845791  0.29128972  0.93682285  1
  O2-  O255  1  0.33602744  0.79137245  0.25986342  1
  O2-  O256  1  0.33514200  0.78816305  0.59880570  1
  O2-  O257  1  0.33837306  0.79595644  0.93916182  1
  O2-  O258  1  0.83754337  0.28725406  0.26996684  1
  O2-  O259  1  0.83622536  0.29095845  0.60412144  1
  O2-  O260  1  0.83724060  0.29121373  0.93644341  1
  O2-  O261  1  0.82503141  0.79560658  0.26598085  1
  O2-  O262  1  0.82392862  0.80691809  0.60699474  1
  O2-  O263  1  0.83234882  0.80077864  0.93825747  1
  O2-  O264  1  0.41518678  0.04750915  0.06073178  1
  O2-  O265  1  0.41658179  0.04229023  0.40124450  1
  O2-  O266  1  0.41468105  0.04504720  0.72986736  1
  O2-  O267  1  0.41432785  0.54609443  0.06663342  1
  O2-  O268  1  0.41172193  0.54381657  0.39708179  1
  O2-  O269  1  0.41276525  0.54319304  0.73698569  1
  O2-  O270  1  0.91760449  0.05305905  0.06324995  1
  O2-  O271  1  0.92570375  0.04789772  0.39749544  1
  O2-  O272  1  0.91975215  0.03626465  0.73657968  1
  O2-  O273  1  0.91479315  0.54181790  0.06030532  1
  O2-  O274  1  0.91436886  0.53472949  0.40148664  1
  O2-  O275  1  0.92173907  0.54243371  0.73771281  1
  O2-  O276  1  0.29545456  0.16521764  0.06159043  1
  O2-  O277  1  0.28769066  0.16450611  0.40362277  1
  O2-  O278  1  0.29373403  0.16414396  0.72958454  1
  O2-  O279  1  0.30021423  0.66846000  0.06401458  1
  O2-  O280  1  0.29914418  0.66940197  0.39062607  1
  O2-  O281  1  0.28641205  0.66885782  0.73551733  1
  O2-  O282  1  0.79381236  0.16493531  0.06308784  1
  O2-  O283  1  0.79107276  0.16461572  0.40237236  1
  O2-  O284  1  0.79371552  0.16390485  0.73762430  1
  O2-  O285  1  0.79932097  0.66628558  0.05982125  1
  O2-  O286  1  0.79689109  0.66966630  0.39908974  1
  O2-  O287  1  0.79683921  0.67343120  0.73797813  1
