# generated using pymatgen
data_Ca2Al2SiO7
_symmetry_space_group_name_H-M   'P 1'
_cell_length_a   15.45824056
_cell_length_b   15.45789619
_cell_length_c   15.28355121
_cell_angle_alpha   89.99810863
_cell_angle_beta   90.01613421
_cell_angle_gamma   89.99388028
_symmetry_Int_Tables_number   1
_chemical_formula_structural   Ca2Al2SiO7
_chemical_formula_sum   'Ca48 Al48 Si24 O168'
_cell_volume   3652.03309426
_cell_formula_units_Z   24
loop_
 _symmetry_equiv_pos_site_id
 _symmetry_equiv_pos_as_xyz
  1  'x, y, z'
loop_
 _atom_type_symbol
 _atom_type_oxidation_number
  Ca2+  2.0
  Al0+  0.0
  Si0+  0.0
  O2-  -2.0
loop_
 _atom_site_type_symbol
 _atom_site_label
 _atom_site_symmetry_multiplicity
 _atom_site_fract_x
 _atom_site_fract_y
 _atom_site_fract_z
 _atom_site_occupancy
  Ca2+  Ca0  1  0.16240368  0.07601180  0.17633210  1
  Ca2+  Ca1  1  0.16625031  0.07247881  0.50701387  1
  Ca2+  Ca2  1  0.17261525  0.07887612  0.83140908  1
  Ca2+  Ca3  1  0.16046028  0.57749645  0.17051704  1
  Ca2+  Ca4  1  0.16476267  0.57591021  0.50823436  1
  Ca2+  Ca5  1  0.17446130  0.58493465  0.83841034  1
  Ca2+  Ca6  1  0.66644650  0.08677301  0.17083787  1
  Ca2+  Ca7  1  0.66631981  0.07949230  0.50620496  1
  Ca2+  Ca8  1  0.66285672  0.07627398  0.83667920  1
  Ca2+  Ca9  1  0.66953732  0.58284234  0.17183748  1
  Ca2+  Ca10  1  0.67440485  0.59567060  0.49931630  1
  Ca2+  Ca11  1  0.66564910  0.57732971  0.84354035  1
  Ca2+  Ca12  1  0.08284062  0.33605087  0.16320351  1
  Ca2+  Ca13  1  0.09266322  0.32937297  0.49354030  1
  Ca2+  Ca14  1  0.08382545  0.34341357  0.83125828  1
  Ca2+  Ca15  1  0.08174244  0.82197712  0.16005947  1
  Ca2+  Ca16  1  0.09377841  0.82302138  0.49776079  1
  Ca2+  Ca17  1  0.08000284  0.82361266  0.82397644  1
  Ca2+  Ca18  1  0.58873986  0.32431554  0.15830554  1
  Ca2+  Ca19  1  0.57164577  0.32815579  0.49533568  1
  Ca2+  Ca20  1  0.57820472  0.33076569  0.82941618  1
  Ca2+  Ca21  1  0.58300332  0.81897048  0.16201739  1
  Ca2+  Ca22  1  0.57611749  0.83416498  0.49893599  1
  Ca2+  Ca23  1  0.57831322  0.82702317  0.82660818  1
  Ca2+  Ca24  1  0.32389621  0.42408794  0.16712483  1
  Ca2+  Ca25  1  0.32488982  0.42084048  0.51012263  1
  Ca2+  Ca26  1  0.32565290  0.42492087  0.83713301  1
  Ca2+  Ca27  1  0.32562266  0.91787409  0.17189073  1
  Ca2+  Ca28  1  0.32485481  0.91962584  0.51013592  1
  Ca2+  Ca29  1  0.33240380  0.91406898  0.82949268  1
  Ca2+  Ca30  1  0.83133179  0.41972897  0.16857034  1
  Ca2+  Ca31  1  0.83329639  0.42646804  0.50005534  1
  Ca2+  Ca32  1  0.82809671  0.41612364  0.84319479  1
  Ca2+  Ca33  1  0.83542632  0.91341859  0.16845148  1
  Ca2+  Ca34  1  0.82633066  0.91256260  0.50944165  1
  Ca2+  Ca35  1  0.83257217  0.90801112  0.83441254  1
  Ca2+  Ca36  1  0.42774397  0.16816203  0.16211770  1
  Ca2+  Ca37  1  0.41125330  0.17086622  0.49868302  1
  Ca2+  Ca38  1  0.41647893  0.17195502  0.82562509  1
  Ca2+  Ca39  1  0.42443958  0.66024538  0.16148338  1
  Ca2+  Ca40  1  0.41409523  0.67142253  0.49991477  1
  Ca2+  Ca41  1  0.41856723  0.66073784  0.82752546  1
  Ca2+  Ca42  1  0.92444401  0.17335682  0.16176285  1
  Ca2+  Ca43  1  0.92476488  0.16975237  0.49497501  1
  Ca2+  Ca44  1  0.91724413  0.17561735  0.83353790  1
  Ca2+  Ca45  1  0.92632398  0.66496330  0.16175302  1
  Ca2+  Ca46  1  0.92791309  0.66960332  0.49736738  1
  Ca2+  Ca47  1  0.92957586  0.67223941  0.82942345  1
  Al0+  Al48  1  -0.00120259  0.00187544  -0.00313174  1
  Al0+  Al49  1  -0.00135999  0.00144085  0.33505904  1
  Al0+  Al50  1  -0.00263784  0.00236009  0.66879054  1
  Al0+  Al51  1  -0.00072333  0.49997525  -0.00485569  1
  Al0+  Al52  1  -0.00227504  0.50146858  0.33904788  1
  Al0+  Al53  1  -0.00311785  0.50076214  0.66575938  1
  Al0+  Al54  1  0.50159058  -0.00070886  -0.00100733  1
  Al0+  Al55  1  0.49947443  0.00159953  0.32849122  1
  Al0+  Al56  1  0.50282194  -0.00228562  0.67082649  1
  Al0+  Al57  1  0.49950748  0.49701032  0.00544644  1
  Al0+  Al58  1  0.49896563  0.49978254  0.33074553  1
  Al0+  Al59  1  0.50119038  0.49646994  0.66199778  1
  Al0+  Al60  1  0.25159039  0.24903508  0.00554143  1
  Al0+  Al61  1  0.25015182  0.25032163  0.32915371  1
  Al0+  Al62  1  0.24986417  0.24989646  0.67001585  1
  Al0+  Al63  1  0.25226065  0.75192136  0.00263244  1
  Al0+  Al64  1  0.24936667  0.75031653  0.33110171  1
  Al0+  Al65  1  0.25244581  0.74873176  0.66558037  1
  Al0+  Al66  1  0.75173761  0.24743053  -0.00418689  1
  Al0+  Al67  1  0.74881475  0.25079861  0.33315473  1
  Al0+  Al68  1  0.75126102  0.24955512  0.66452344  1
  Al0+  Al69  1  0.74778895  0.74978690  -0.00576090  1
  Al0+  Al70  1  0.74838351  0.75087497  0.33413104  1
  Al0+  Al71  1  0.75215946  0.75029965  0.66970997  1
  Al0+  Al72  1  0.57181319  0.17834628  0.98407275  1
  Al0+  Al73  1  0.17746526  0.92741005  0.68235262  1
  Al0+  Al74  1  0.68089530  0.92877964  0.68142541  1
  Al0+  Al75  1  0.17791202  0.92889613  0.34608028  1
  Al0+  Al76  1  0.67967296  0.42644139  0.01280412  1
  Al0+  Al77  1  0.57030547  0.18017368  0.32008129  1
  Al0+  Al78  1  0.56855001  0.67608768  0.98660123  1
  Al0+  Al79  1  0.17685633  0.42883034  0.68153954  1
  Al0+  Al80  1  0.32341872  0.57042557  0.67972668  1
  Al0+  Al81  1  0.57122684  0.68050211  0.32032853  1
  Al0+  Al82  1  0.32182668  0.07090457  0.68107282  1
  Al0+  Al83  1  0.92891050  0.82273904  0.98536032  1
  Al0+  Al84  1  0.07065584  0.67862612  0.31941861  1
  Al0+  Al85  1  0.17948572  0.43026447  0.34750427  1
  Al0+  Al86  1  0.32143993  0.57380999  0.01693884  1
  Al0+  Al87  1  0.07209374  0.67917088  0.65007160  1
  Al0+  Al88  1  0.43044022  0.82088958  0.65339543  1
  Al0+  Al89  1  0.92884208  0.82268885  0.65015475  1
  Al0+  Al90  1  0.93159708  0.32030142  0.98769250  1
  Al0+  Al91  1  0.81875668  0.57178531  0.34685783  1
  Al0+  Al92  1  0.42808662  0.31988382  0.65337913  1
  Al0+  Al93  1  0.17676066  0.42979685  0.01670729  1
  Al0+  Al94  1  0.07349851  0.67865313  0.98477093  1
  Al0+  Al95  1  0.07115679  0.17856848  0.32105678  1
  Si0+  Si96  1  0.42743372  0.31980544  0.98352473  1
  Si0+  Si97  1  0.07472005  0.17738473  0.98277258  1
  Si0+  Si98  1  0.92637029  0.32179514  0.64964227  1
  Si0+  Si99  1  0.82117016  0.07047941  0.01625024  1
  Si0+  Si100  1  0.42761063  0.82277533  0.31568719  1
  Si0+  Si101  1  0.81948598  0.57089451  0.68381663  1
  Si0+  Si102  1  0.82152735  0.07518500  0.68541894  1
  Si0+  Si103  1  0.82025854  0.07329241  0.34827826  1
  Si0+  Si104  1  0.67637041  0.42615560  0.35118906  1
  Si0+  Si105  1  0.67893250  0.92841197  0.01702669  1
  Si0+  Si106  1  0.32309615  0.07110545  0.34793375  1
  Si0+  Si107  1  0.17772659  0.93152258  0.01490566  1
  Si0+  Si108  1  0.42926614  0.82275530  0.98385297  1
  Si0+  Si109  1  0.32420205  0.57234571  0.35090321  1
  Si0+  Si110  1  0.42658154  0.32272644  0.31343049  1
  Si0+  Si111  1  0.32327628  0.07066719  0.01679987  1
  Si0+  Si112  1  0.68040984  0.42714967  0.67983238  1
  Si0+  Si113  1  0.57260270  0.17778800  0.65031940  1
  Si0+  Si114  1  0.92661243  0.82251670  0.31849213  1
  Si0+  Si115  1  0.57304726  0.67568513  0.65053304  1
  Si0+  Si116  1  0.81958038  0.57281643  0.01529721  1
  Si0+  Si117  1  0.92800242  0.32244978  0.31824470  1
  Si0+  Si118  1  0.67872527  0.93053915  0.34667742  1
  Si0+  Si119  1  0.07053173  0.18093928  0.65288983  1
  O2-  O120  1  0.24897747  0.00259774  0.05812413  1
  O2-  O121  1  0.25281378  0.00432716  0.39148880  1
  O2-  O122  1  0.25170079  -0.00235135  0.73261491  1
  O2-  O123  1  0.24476669  0.50592196  0.06658204  1
  O2-  O124  1  0.25398586  0.50490362  0.39401512  1
  O2-  O125  1  0.24740770  0.50277109  0.72989136  1
  O2-  O126  1  0.75227077  -0.00262892  0.05935029  1
  O2-  O127  1  0.74900435  0.00213398  0.38943348  1
  O2-  O128  1  0.75588290  0.00332263  0.72863866  1
  O2-  O129  1  0.75140176  0.50363324  0.06024921  1
  O2-  O130  1  0.74134187  0.49874160  0.39492351  1
  O2-  O131  1  0.74800580  0.49964810  0.72431945  1
  O2-  O132  1  -0.00167702  0.25519910  0.27460550  1
  O2-  O133  1  0.00188643  0.25467590  0.60980625  1
  O2-  O134  1  0.01137517  0.25142097  0.93944818  1
  O2-  O135  1  -0.00286239  0.75605282  0.27462073  1
  O2-  O136  1  0.00462181  0.75609863  0.59917545  1
  O2-  O137  1  0.00282759  0.75302465  0.93632193  1
  O2-  O138  1  0.49897190  0.25635494  0.27092921  1
  O2-  O139  1  0.50094463  0.24272717  0.60594061  1
  O2-  O140  1  0.49693616  0.25211218  0.93831382  1
  O2-  O141  1  0.49410267  0.75166151  0.27211778  1
  O2-  O142  1  0.50318670  0.74358468  0.60704974  1
  O2-  O143  1  0.49187769  0.74824772  0.94037635  1
  O2-  O144  1  0.07058869  0.17283848  0.08840829  1
  O2-  O145  1  0.06852596  0.17791196  0.43428743  1
  O2-  O146  1  0.06831545  0.18059818  0.75809032  1
  O2-  O147  1  0.06982355  0.67918056  0.09900440  1
  O2-  O148  1  0.07068044  0.67776869  0.43193412  1
  O2-  O149  1  0.06935783  0.67743481  0.76333185  1
  O2-  O150  1  0.57074905  0.17823270  0.09758255  1
  O2-  O151  1  0.56986703  0.17940240  0.43301078  1
  O2-  O152  1  0.57571776  0.18174903  0.75575248  1
  O2-  O153  1  0.57145392  0.68012230  0.09993510  1
  O2-  O154  1  0.57319261  0.68626229  0.43322894  1
  O2-  O155  1  0.57309177  0.67435122  0.75618972  1
  O2-  O156  1  0.17896016  0.43079767  0.23470489  1
  O2-  O157  1  0.17904531  0.42720701  0.56756458  1
  O2-  O158  1  0.18026669  0.42770935  0.90370317  1
  O2-  O159  1  0.17887639  0.93083204  0.23223731  1
  O2-  O160  1  0.17833876  0.93084675  0.56848325  1
  O2-  O161  1  0.17807208  0.93291324  0.91020478  1
  O2-  O162  1  0.68024591  0.42251830  0.24574683  1
  O2-  O163  1  0.68351977  0.42475427  0.57479540  1
  O2-  O164  1  0.68156049  0.42711165  0.89915518  1
  O2-  O165  1  0.68057555  0.93040896  0.24142427  1
  O2-  O166  1  0.68078434  0.93157068  0.56744204  1
  O2-  O167  1  0.67772704  0.93011750  0.91226160  1
  O2-  O168  1  0.42788706  0.31600984  0.08929734  1
  O2-  O169  1  0.42638276  0.32067581  0.41928197  1
  O2-  O170  1  0.43236913  0.31979370  0.76624546  1
  O2-  O171  1  0.43329759  0.82726449  0.08969142  1
  O2-  O172  1  0.42983466  0.82614526  0.42106498  1
  O2-  O173  1  0.43486441  0.82217826  0.76629059  1
  O2-  O174  1  0.92919443  0.31612021  0.10085439  1
  O2-  O175  1  0.92544704  0.31946437  0.42412764  1
  O2-  O176  1  0.92109488  0.31924104  0.75448671  1
  O2-  O177  1  0.93064526  0.82386115  0.09964401  1
  O2-  O178  1  0.92338332  0.82162223  0.42352981  1
  O2-  O179  1  0.92778217  0.81703941  0.76332334  1
  O2-  O180  1  0.32494500  0.06784463  0.24194682  1
  O2-  O181  1  0.31864290  0.07151094  0.56706356  1
  O2-  O182  1  0.32408334  0.07070388  0.91208083  1
  O2-  O183  1  0.32624945  0.57047203  0.24553228  1
  O2-  O184  1  0.32557637  0.56736762  0.56589609  1
  O2-  O185  1  0.32399872  0.57100169  0.90373687  1
  O2-  O186  1  0.82006756  0.07414519  0.24313627  1
  O2-  O187  1  0.81858960  0.08008658  0.57954111  1
  O2-  O188  1  0.82021725  0.07229870  0.91145855  1
  O2-  O189  1  0.81827599  0.56988690  0.23380264  1
  O2-  O190  1  0.81848709  0.57052911  0.57838985  1
  O2-  O191  1  0.81696767  0.57112215  0.90948478  1
  O2-  O192  1  0.03560497  0.08381148  0.26516592  1
  O2-  O193  1  0.03908676  0.09053948  0.60458386  1
  O2-  O194  1  0.04225478  0.08753198  0.93354051  1
  O2-  O195  1  0.03398223  0.58280447  0.26740997  1
  O2-  O196  1  0.03515217  0.58217908  0.59754316  1
  O2-  O197  1  0.04408177  0.58160296  0.93121789  1
  O2-  O198  1  0.54039651  0.08428798  0.26290349  1
  O2-  O199  1  0.55181103  0.08239362  0.60742237  1
  O2-  O200  1  0.54083468  0.08116854  0.93191015  1
  O2-  O201  1  0.54672509  0.58108635  0.26852227  1
  O2-  O202  1  0.55237548  0.58186613  0.60282999  1
  O2-  O203  1  0.54238096  0.57714329  0.93538167  1
  O2-  O204  1  0.16804308  0.20419049  0.26529133  1
  O2-  O205  1  0.16250361  0.20587507  0.60534172  1
  O2-  O206  1  0.17135209  0.19648689  0.94137345  1
  O2-  O207  1  0.16763119  0.70750239  0.26503790  1
  O2-  O208  1  0.17219744  0.70215441  0.59858027  1
  O2-  O209  1  0.17324083  0.70772223  0.93577131  1
  O2-  O210  1  0.66814939  0.20879755  0.26611850  1
  O2-  O211  1  0.66513375  0.20703966  0.60265032  1
  O2-  O212  1  0.66817137  0.20665976  0.92990813  1
  O2-  O213  1  0.66597315  0.71521202  0.26432707  1
  O2-  O214  1  0.66613268  0.70608602  0.60654289  1
  O2-  O215  1  0.66318995  0.70902818  0.93061204  1
  O2-  O216  1  0.07533313  0.45377694  0.06652472  1
  O2-  O217  1  0.08180999  0.45663294  0.40129324  1
  O2-  O218  1  0.07520359  0.45252224  0.72997411  1
  O2-  O219  1  0.08588530  0.96133253  0.06168686  1
  O2-  O220  1  0.08145823  0.96019771  0.39992824  1
  O2-  O221  1  0.07935858  0.95971996  0.73414699  1
  O2-  O222  1  0.58320201  0.45127956  0.06880947  1
  O2-  O223  1  0.58049358  0.44779670  0.39387898  1
  O2-  O224  1  0.58773184  0.45170933  0.72587220  1
  O2-  O225  1  0.58830511  0.95893070  0.06561790  1
  O2-  O226  1  0.58618443  0.95926713  0.39238363  1
  O2-  O227  1  0.58661931  0.95964807  0.73886784  1
  O2-  O228  1  0.20679921  0.33027397  0.06943362  1
  O2-  O229  1  0.21060930  0.33137662  0.39789065  1
  O2-  O230  1  0.20489315  0.33102235  0.73465284  1
  O2-  O231  1  0.20582019  0.84047117  0.06363549  1
  O2-  O232  1  0.21040602  0.83260482  0.39902255  1
  O2-  O233  1  0.20666628  0.82918284  0.73344920  1
  O2-  O234  1  0.71511766  0.33020826  0.06575978  1
  O2-  O235  1  0.70571714  0.33428500  0.39976336  1
  O2-  O236  1  0.71082980  0.33607898  0.72766318  1
  O2-  O237  1  0.70590792  0.83557655  0.06339105  1
  O2-  O238  1  0.70623627  0.84003987  0.39592460  1
  O2-  O239  1  0.71115242  0.83248326  0.73668778  1
  O2-  O240  1  0.44964572  0.41706769  0.26861810  1
  O2-  O241  1  0.46342380  0.41276445  0.59414903  1
  O2-  O242  1  0.45335036  0.41346044  0.93965445  1
  O2-  O243  1  0.45563938  0.91498620  0.26738050  1
  O2-  O244  1  0.46547375  0.91664141  0.59873605  1
  O2-  O245  1  0.46168339  0.91323227  0.93575037  1
  O2-  O246  1  0.95170395  0.41646259  0.27384149  1
  O2-  O247  1  0.94796940  0.41504685  0.60317291  1
  O2-  O248  1  0.95329643  0.41721611  0.93079125  1
  O2-  O249  1  0.94865308  0.91778130  0.27408816  1
  O2-  O250  1  0.94475248  0.92662183  0.60334399  1
  O2-  O251  1  0.95183911  0.92300418  0.93329251  1
  O2-  O252  1  0.33558691  0.29353045  0.26468352  1
  O2-  O253  1  0.33155119  0.28865838  0.59903659  1
  O2-  O254  1  0.33429755  0.29142795  0.93815847  1
  O2-  O255  1  0.33401977  0.79930656  0.26906024  1
  O2-  O256  1  0.33434923  0.79372527  0.59712638  1
  O2-  O257  1  0.33317636  0.80574097  0.94102100  1
  O2-  O258  1  0.83505053  0.29458973  0.27191057  1
  O2-  O259  1  0.83745715  0.28852408  0.59872255  1
  O2-  O260  1  0.83852898  0.28243266  0.93043600  1
  O2-  O261  1  0.83349555  0.79617601  0.27129949  1
  O2-  O262  1  0.83073954  0.78917516  0.59808119  1
  O2-  O263  1  0.83035607  0.79475165  0.93318673  1
  O2-  O264  1  0.41421977  0.03852492  0.06467830  1
  O2-  O265  1  0.41654261  0.04507614  0.39464248  1
  O2-  O266  1  0.42121437  0.04578889  0.73310117  1
  O2-  O267  1  0.41752569  0.53870181  0.07214675  1
  O2-  O268  1  0.41813023  0.54683980  0.39721952  1
  O2-  O269  1  0.42224035  0.53784892  0.73092775  1
  O2-  O270  1  0.91406400  0.04553295  0.06430533  1
  O2-  O271  1  0.91123295  0.04662674  0.39758221  1
  O2-  O272  1  0.91568128  0.05532073  0.73182753  1
  O2-  O273  1  0.91344819  0.54626175  0.05944813  1
  O2-  O274  1  0.91181564  0.53815938  0.40574663  1
  O2-  O275  1  0.90993916  0.54069045  0.73135382  1
  O2-  O276  1  0.30003335  0.16254447  0.06616460  1
  O2-  O277  1  0.29975939  0.16629056  0.39054124  1
  O2-  O278  1  0.29032851  0.16700766  0.73679119  1
  O2-  O279  1  0.30263369  0.67543121  0.06911052  1
  O2-  O280  1  0.30084366  0.66804479  0.39286173  1
  O2-  O281  1  0.30234470  0.67040928  0.73141740  1
  O2-  O282  1  0.79027626  0.16044892  0.06520194  1
  O2-  O283  1  0.79206197  0.16457361  0.39728167  1
  O2-  O284  1  0.79148290  0.16739353  0.73319677  1
  O2-  O285  1  0.79249301  0.66635660  0.06081340  1
  O2-  O286  1  0.78619854  0.66788394  0.40205012  1
  O2-  O287  1  0.79240372  0.66165746  0.73225636  1
