# generated using pymatgen
data_Ca2Al2SiO7
_symmetry_space_group_name_H-M   'P 1'
_cell_length_a   15.47210033
_cell_length_b   15.47399062
_cell_length_c   15.29620115
_cell_angle_alpha   89.99678615
_cell_angle_beta   90.00457350
_cell_angle_gamma   90.00807502
_symmetry_Int_Tables_number   1
_chemical_formula_structural   Ca2Al2SiO7
_chemical_formula_sum   'Ca48 Al48 Si24 O168'
_cell_volume   3662.14201496
_cell_formula_units_Z   24
loop_
 _symmetry_equiv_pos_site_id
 _symmetry_equiv_pos_as_xyz
  1  'x, y, z'
loop_
 _atom_type_symbol
 _atom_type_oxidation_number
  Ca2+  2.0
  Al0+  0.0
  Si0+  0.0
  O2-  -2.0
loop_
 _atom_site_type_symbol
 _atom_site_label
 _atom_site_symmetry_multiplicity
 _atom_site_fract_x
 _atom_site_fract_y
 _atom_site_fract_z
 _atom_site_occupancy
  Ca2+  Ca0  1  0.16562293  0.09462606  0.17114433  1
  Ca2+  Ca1  1  0.16043843  0.08870505  0.50436024  1
  Ca2+  Ca2  1  0.15474322  0.08470316  0.83878305  1
  Ca2+  Ca3  1  0.16270034  0.56799061  0.16388089  1
  Ca2+  Ca4  1  0.17107199  0.57484113  0.50357712  1
  Ca2+  Ca5  1  0.17420719  0.57919730  0.84510083  1
  Ca2+  Ca6  1  0.68004389  0.08904472  0.17019599  1
  Ca2+  Ca7  1  0.68214797  0.08829276  0.50519109  1
  Ca2+  Ca8  1  0.67661261  0.09080572  0.83825397  1
  Ca2+  Ca9  1  0.66937972  0.57295105  0.16887742  1
  Ca2+  Ca10  1  0.66362076  0.57210143  0.50210235  1
  Ca2+  Ca11  1  0.67489145  0.56904971  0.84043747  1
  Ca2+  Ca12  1  0.07355780  0.33136170  0.15856496  1
  Ca2+  Ca13  1  0.07191922  0.32824158  0.49016808  1
  Ca2+  Ca14  1  0.07199122  0.33097674  0.82995748  1
  Ca2+  Ca15  1  0.08295587  0.82270625  0.15957746  1
  Ca2+  Ca16  1  0.07560908  0.83252486  0.50103932  1
  Ca2+  Ca17  1  0.07717370  0.82450869  0.83086100  1
  Ca2+  Ca18  1  0.58069886  0.33632242  0.15614033  1
  Ca2+  Ca19  1  0.58874445  0.33353640  0.49962989  1
  Ca2+  Ca20  1  0.59200216  0.32816329  0.83205538  1
  Ca2+  Ca21  1  0.59263628  0.82756091  0.16698090  1
  Ca2+  Ca22  1  0.58786414  0.82520002  0.48919260  1
  Ca2+  Ca23  1  0.58220482  0.82958693  0.82938714  1
  Ca2+  Ca24  1  0.31897784  0.40628701  0.16488408  1
  Ca2+  Ca25  1  0.32482408  0.41860235  0.50392708  1
  Ca2+  Ca26  1  0.32736004  0.42253810  0.84325980  1
  Ca2+  Ca27  1  0.32957531  0.91966498  0.16856043  1
  Ca2+  Ca28  1  0.33063779  0.91978771  0.50354239  1
  Ca2+  Ca29  1  0.33039423  0.92193421  0.83797254  1
  Ca2+  Ca30  1  0.82680740  0.41005887  0.16849095  1
  Ca2+  Ca31  1  0.82456467  0.40255308  0.50153688  1
  Ca2+  Ca32  1  0.82772711  0.40866306  0.83981532  1
  Ca2+  Ca33  1  0.83138096  0.93288321  0.17328306  1
  Ca2+  Ca34  1  0.83505340  0.92821298  0.50460678  1
  Ca2+  Ca35  1  0.84339199  0.92972810  0.83524889  1
  Ca2+  Ca36  1  0.42726899  0.17561370  0.15534412  1
  Ca2+  Ca37  1  0.42676923  0.16565600  0.49869123  1
  Ca2+  Ca38  1  0.42932382  0.17654027  0.83401435  1
  Ca2+  Ca39  1  0.41947233  0.66431976  0.16299408  1
  Ca2+  Ca40  1  0.42190121  0.66253468  0.49502522  1
  Ca2+  Ca41  1  0.41268677  0.65978371  0.82970058  1
  Ca2+  Ca42  1  0.91727386  0.17513975  0.16185258  1
  Ca2+  Ca43  1  0.91954332  0.17254252  0.49821680  1
  Ca2+  Ca44  1  0.91588508  0.17686458  0.83045740  1
  Ca2+  Ca45  1  0.91677247  0.66809423  0.15572099  1
  Ca2+  Ca46  1  0.90655824  0.67734009  0.49705932  1
  Ca2+  Ca47  1  0.91854153  0.66577041  0.83195577  1
  Al0+  Al48  1  -0.00120608  -0.00217017  0.00518881  1
  Al0+  Al49  1  0.00240531  -0.00132662  0.33459676  1
  Al0+  Al50  1  0.00016559  -0.00303242  0.66387823  1
  Al0+  Al51  1  0.00127566  0.50179960  -0.00349426  1
  Al0+  Al52  1  0.00001684  0.50089390  0.33635712  1
  Al0+  Al53  1  -0.00045939  0.50042530  0.66061430  1
  Al0+  Al54  1  0.49826702  -0.00147547  -0.00291505  1
  Al0+  Al55  1  0.49763663  -0.00177080  0.33543580  1
  Al0+  Al56  1  0.49910038  -0.00103481  0.66267920  1
  Al0+  Al57  1  0.49950767  0.50330990  0.00195051  1
  Al0+  Al58  1  0.50114986  0.50181978  0.33177979  1
  Al0+  Al59  1  0.49966249  0.49931409  0.67390792  1
  Al0+  Al60  1  0.25271653  0.24812479  -0.00410139  1
  Al0+  Al61  1  0.25156343  0.25061562  0.33873145  1
  Al0+  Al62  1  0.25315983  0.24965374  0.66614457  1
  Al0+  Al63  1  0.24956318  0.75103079  -0.00033046  1
  Al0+  Al64  1  0.25127490  0.75200317  0.33428500  1
  Al0+  Al65  1  0.25044780  0.75201440  0.66834694  1
  Al0+  Al66  1  0.75111061  0.24792823  0.00287883  1
  Al0+  Al67  1  0.75072684  0.24966578  0.33838869  1
  Al0+  Al68  1  0.75019767  0.24726783  0.66724865  1
  Al0+  Al69  1  0.74793242  0.75127722  -0.00071795  1
  Al0+  Al70  1  0.74878076  0.75023967  0.32867920  1
  Al0+  Al71  1  0.74811040  0.74955584  0.66226779  1
  Al0+  Al72  1  0.92748523  0.32173045  0.31646646  1
  Al0+  Al73  1  0.32120149  0.57386239  0.01708607  1
  Al0+  Al74  1  0.67834986  0.43032876  0.34746059  1
  Al0+  Al75  1  0.82124024  0.06962542  0.01434839  1
  Al0+  Al76  1  0.42922574  0.32484206  0.98501882  1
  Al0+  Al77  1  0.68203412  0.42927343  0.68064600  1
  Al0+  Al78  1  0.57052218  0.17866492  0.65160223  1
  Al0+  Al79  1  0.07269430  0.17877508  0.31852797  1
  Al0+  Al80  1  0.17947260  0.42601888  0.01283084  1
  Al0+  Al81  1  0.82224379  0.57367525  0.01273405  1
  Al0+  Al82  1  0.92886591  0.81847363  0.65320847  1
  Al0+  Al83  1  0.07136532  0.17668000  0.98681871  1
  Al0+  Al84  1  0.07096456  0.67893365  0.98716948  1
  Al0+  Al85  1  0.68125354  0.42853585  0.01494346  1
  Al0+  Al86  1  0.82124440  0.06762518  0.68284823  1
  Al0+  Al87  1  0.67853682  0.92835340  0.34790737  1
  Al0+  Al88  1  0.31815403  0.57034923  0.67897942  1
  Al0+  Al89  1  0.92888195  0.32202028  0.98565595  1
  Al0+  Al90  1  0.92804206  0.32242656  0.65031022  1
  Al0+  Al91  1  0.57069482  0.67904244  0.31764705  1
  Al0+  Al92  1  0.17767502  0.42792316  0.34846795  1
  Al0+  Al93  1  0.57220685  0.17869914  0.98687401  1
  Al0+  Al94  1  0.07241437  0.17900289  0.65268611  1
  Al0+  Al95  1  0.82264249  0.07081375  0.35151194  1
  Si0+  Si96  1  0.82187851  0.57638953  0.68079381  1
  Si0+  Si97  1  0.18053588  0.93087737  0.68286059  1
  Si0+  Si98  1  0.17648101  0.42658519  0.68266333  1
  Si0+  Si99  1  0.43038368  0.32144866  0.32054847  1
  Si0+  Si100  1  0.42743872  0.82059302  0.98340023  1
  Si0+  Si101  1  0.67611491  0.92573526  0.68292241  1
  Si0+  Si102  1  0.56812549  0.67833512  0.65223891  1
  Si0+  Si103  1  0.57123063  0.68045112  0.98251708  1
  Si0+  Si104  1  0.56996066  0.17751614  0.32044963  1
  Si0+  Si105  1  0.42768537  0.82120876  0.65032531  1
  Si0+  Si106  1  0.07475538  0.67913069  0.64881342  1
  Si0+  Si107  1  0.82269917  0.57341467  0.34919858  1
  Si0+  Si108  1  0.18076476  0.92698501  0.34979663  1
  Si0+  Si109  1  0.32225420  0.06939360  0.01460524  1
  Si0+  Si110  1  0.92944987  0.82009392  0.31706194  1
  Si0+  Si111  1  0.92643879  0.82122377  0.98485316  1
  Si0+  Si112  1  0.67367656  0.92839052  0.01531200  1
  Si0+  Si113  1  0.07327775  0.68024525  0.31968842  1
  Si0+  Si114  1  0.32035352  0.57268730  0.34898919  1
  Si0+  Si115  1  0.42993984  0.32369996  0.64886848  1
  Si0+  Si116  1  0.17900356  0.92970982  0.01529611  1
  Si0+  Si117  1  0.42661391  0.82260009  0.31494072  1
  Si0+  Si118  1  0.32081171  0.07148852  0.34946420  1
  Si0+  Si119  1  0.32437661  0.07142882  0.68301803  1
  O2-  O120  1  0.24550700  0.00475718  0.05774857  1
  O2-  O121  1  0.24686091  0.00288028  0.39116244  1
  O2-  O122  1  0.24727027  0.00622149  0.72473430  1
  O2-  O123  1  0.25280729  0.49736914  0.06449736  1
  O2-  O124  1  0.25227656  0.50434526  0.39364729  1
  O2-  O125  1  0.24168338  0.49890994  0.72612683  1
  O2-  O126  1  0.74170063  -0.00229774  0.05794172  1
  O2-  O127  1  0.74834805  -0.00037141  0.40083874  1
  O2-  O128  1  0.74422409  -0.00680001  0.72839025  1
  O2-  O129  1  0.75512989  0.49886520  0.06509943  1
  O2-  O130  1  0.75675630  0.50219593  0.39340628  1
  O2-  O131  1  0.76121171  0.50095358  0.72426970  1
  O2-  O132  1  0.00077179  0.24970978  0.26843325  1
  O2-  O133  1  0.00507351  0.25426062  0.60217320  1
  O2-  O134  1  0.00250357  0.25054315  0.93667818  1
  O2-  O135  1  -0.00168244  0.74652552  0.27619255  1
  O2-  O136  1  -0.00047646  0.74037807  0.60406757  1
  O2-  O137  1  -0.00871087  0.74884569  0.94108341  1
  O2-  O138  1  0.50264421  0.25176683  0.27846822  1
  O2-  O139  1  0.49716458  0.25430491  0.60341392  1
  O2-  O140  1  0.50629732  0.25685734  0.93689667  1
  O2-  O141  1  0.49749771  0.75656863  0.27154806  1
  O2-  O142  1  0.49841943  0.75049259  0.60876313  1
  O2-  O143  1  0.49726880  0.74924667  0.94051435  1
  O2-  O144  1  0.06966116  0.17639080  0.10006839  1
  O2-  O145  1  0.07347701  0.18015843  0.43191291  1
  O2-  O146  1  0.07022850  0.17839768  0.76571471  1
  O2-  O147  1  0.07364801  0.68435906  0.10057737  1
  O2-  O148  1  0.07594747  0.68510085  0.42485749  1
  O2-  O149  1  0.07821570  0.68378649  0.75392565  1
  O2-  O150  1  0.56811465  0.17496049  0.10095245  1
  O2-  O151  1  0.56624396  0.17666506  0.42560909  1
  O2-  O152  1  0.56819993  0.17711282  0.76410732  1
  O2-  O153  1  0.57250636  0.68410031  0.08730530  1
  O2-  O154  1  0.56618724  0.67869947  0.43139510  1
  O2-  O155  1  0.56697504  0.68123167  0.75712308  1
  O2-  O156  1  0.17909650  0.42709947  0.23595915  1
  O2-  O157  1  0.18022294  0.42799858  0.57675046  1
  O2-  O158  1  0.18051123  0.42877475  0.89921078  1
  O2-  O159  1  0.18432815  0.92100994  0.24506647  1
  O2-  O160  1  0.18379581  0.92721163  0.57756243  1
  O2-  O161  1  0.18141509  0.92824154  0.91008883  1
  O2-  O162  1  0.67415105  0.43182876  0.23518130  1
  O2-  O163  1  0.67838623  0.43329075  0.56737154  1
  O2-  O164  1  0.68182004  0.43045431  0.90124500  1
  O2-  O165  1  0.68094483  0.92943269  0.23433231  1
  O2-  O166  1  0.67597982  0.92424263  0.57771067  1
  O2-  O167  1  0.67098381  0.92670459  0.90970107  1
  O2-  O168  1  0.42765086  0.31835912  0.09939652  1
  O2-  O169  1  0.42973155  0.32007681  0.42587165  1
  O2-  O170  1  0.42945794  0.32309309  0.75377841  1
  O2-  O171  1  0.42631546  0.82318906  0.08818502  1
  O2-  O172  1  0.42228378  0.82135840  0.42055328  1
  O2-  O173  1  0.42683020  0.82309836  0.75531798  1
  O2-  O174  1  0.92755986  0.32048767  0.09899563  1
  O2-  O175  1  0.92815519  0.32012315  0.42992694  1
  O2-  O176  1  0.92754769  0.32196961  0.76353455  1
  O2-  O177  1  0.92936400  0.82178349  0.09066231  1
  O2-  O178  1  0.93069416  0.81908635  0.42240575  1
  O2-  O179  1  0.93298047  0.81853366  0.76604368  1
  O2-  O180  1  0.32302110  0.06954045  0.24448834  1
  O2-  O181  1  0.32706629  0.06652500  0.57774097  1
  O2-  O182  1  0.32655717  0.06361262  0.90983060  1
  O2-  O183  1  0.31839364  0.57604545  0.24437475  1
  O2-  O184  1  0.31825844  0.57019246  0.56542541  1
  O2-  O185  1  0.31663324  0.57676014  0.90330651  1
  O2-  O186  1  0.82191778  0.06966237  0.23794014  1
  O2-  O187  1  0.82118526  0.06565599  0.57009431  1
  O2-  O188  1  0.82334036  0.06619878  0.90136760  1
  O2-  O189  1  0.82179199  0.57645110  0.24406656  1
  O2-  O190  1  0.81473403  0.58427234  0.57567192  1
  O2-  O191  1  0.81645804  0.57946016  0.89924188  1
  O2-  O192  1  0.05273300  0.07585732  0.27036880  1
  O2-  O193  1  0.04421451  0.07967455  0.60088948  1
  O2-  O194  1  0.04265002  0.07605591  0.93753774  1
  O2-  O195  1  0.05059547  0.58670516  0.27532400  1
  O2-  O196  1  0.05808712  0.58330094  0.60486428  1
  O2-  O197  1  0.04724025  0.58365942  0.92906675  1
  O2-  O198  1  0.53764595  0.08672393  0.27400511  1
  O2-  O199  1  0.53607545  0.08278103  0.59688617  1
  O2-  O200  1  0.53691682  0.08208150  0.93326255  1
  O2-  O201  1  0.53704257  0.58445350  0.26227647  1
  O2-  O202  1  0.53685273  0.58724797  0.60567848  1
  O2-  O203  1  0.54531907  0.58878985  0.93518782  1
  O2-  O204  1  0.17436932  0.20545841  0.27056564  1
  O2-  O205  1  0.17548329  0.19854238  0.60370873  1
  O2-  O206  1  0.17302266  0.19469899  0.93661940  1
  O2-  O207  1  0.16274990  0.71518133  0.27225746  1
  O2-  O208  1  0.16479362  0.71508369  0.60083084  1
  O2-  O209  1  0.16447027  0.71885237  0.93181871  1
  O2-  O210  1  0.66351184  0.20175298  0.27710431  1
  O2-  O211  1  0.66624548  0.20941328  0.59778566  1
  O2-  O212  1  0.67123386  0.20237930  0.93518855  1
  O2-  O213  1  0.66637113  0.70982750  0.26154616  1
  O2-  O214  1  0.65919055  0.70472334  0.60308730  1
  O2-  O215  1  0.66068825  0.71237026  0.93246012  1
  O2-  O216  1  0.08230856  0.45867455  0.06531324  1
  O2-  O217  1  0.08277671  0.46129131  0.40444143  1
  O2-  O218  1  0.08042969  0.44891175  0.72420563  1
  O2-  O219  1  0.08673526  0.94949216  0.06448265  1
  O2-  O220  1  0.08807583  0.94913713  0.39744968  1
  O2-  O221  1  0.08795042  0.95358597  0.72970128  1
  O2-  O222  1  0.58265419  0.46013069  0.06550079  1
  O2-  O223  1  0.58254427  0.46492881  0.40242711  1
  O2-  O224  1  0.58697222  0.46305786  0.73553729  1
  O2-  O225  1  0.57931583  0.95022773  0.06179518  1
  O2-  O226  1  0.57644516  0.94890102  0.39788018  1
  O2-  O227  1  0.58070673  0.94978688  0.72670372  1
  O2-  O228  1  0.21019952  0.32746312  0.06572273  1
  O2-  O229  1  0.21363404  0.33426011  0.40549981  1
  O2-  O230  1  0.20606095  0.33402749  0.72773715  1
  O2-  O231  1  0.21383985  0.84124782  0.06466782  1
  O2-  O232  1  0.21479386  0.83878658  0.40152305  1
  O2-  O233  1  0.21379571  0.84150238  0.73201052  1
  O2-  O234  1  0.70478491  0.32942673  0.06774274  1
  O2-  O235  1  0.70552623  0.33311962  0.40202597  1
  O2-  O236  1  0.70941692  0.33164123  0.73265687  1
  O2-  O237  1  0.70105085  0.83540924  0.06104828  1
  O2-  O238  1  0.70678109  0.82848048  0.39855527  1
  O2-  O239  1  0.70020874  0.83105655  0.72809872  1
  O2-  O240  1  0.45555148  0.41334910  0.27353893  1
  O2-  O241  1  0.45734710  0.41721476  0.60327466  1
  O2-  O242  1  0.44955172  0.42625039  0.93571462  1
  O2-  O243  1  0.44795444  0.91749506  0.26937975  1
  O2-  O244  1  0.45362008  0.91213368  0.60052494  1
  O2-  O245  1  0.45581533  0.91105372  0.93313307  1
  O2-  O246  1  0.95404443  0.42319217  0.26877178  1
  O2-  O247  1  0.94779879  0.42362371  0.59708153  1
  O2-  O248  1  0.95309022  0.42108957  0.93261187  1
  O2-  O249  1  0.96156917  0.91039097  0.27032572  1
  O2-  O250  1  0.96656041  0.91080148  0.59580825  1
  O2-  O251  1  0.96001014  0.91172564  0.93826333  1
  O2-  O252  1  0.33941345  0.29011007  0.27431042  1
  O2-  O253  1  0.33643418  0.29763890  0.60214876  1
  O2-  O254  1  0.33482916  0.28924516  0.92879172  1
  O2-  O255  1  0.33414101  0.79420090  0.26714201  1
  O2-  O256  1  0.33603402  0.79347899  0.60185941  1
  O2-  O257  1  0.33589067  0.79484641  0.93436809  1
  O2-  O258  1  0.82777613  0.29165266  0.26684381  1
  O2-  O259  1  0.83173749  0.28669977  0.59839897  1
  O2-  O260  1  0.83162632  0.28899240  0.93373836  1
  O2-  O261  1  0.83780963  0.79504640  0.26904984  1
  O2-  O262  1  0.83142368  0.79158450  0.59745582  1
  O2-  O263  1  0.83164462  0.80212688  0.93893581  1
  O2-  O264  1  0.41040300  0.03370412  0.06493991  1
  O2-  O265  1  0.40996573  0.03868895  0.39990976  1
  O2-  O266  1  0.41250814  0.03442488  0.73147435  1
  O2-  O267  1  0.42201964  0.55408432  0.06701610  1
  O2-  O268  1  0.41388143  0.54597456  0.39427398  1
  O2-  O269  1  0.41372880  0.54075053  0.73469978  1
  O2-  O270  1  0.91443087  0.03285703  0.07181914  1
  O2-  O271  1  0.92101669  0.03761584  0.40229554  1
  O2-  O272  1  0.91726365  0.03076383  0.73404089  1
  O2-  O273  1  0.92420586  0.55598042  0.06106767  1
  O2-  O274  1  0.91754273  0.55595480  0.39609646  1
  O2-  O275  1  0.92048166  0.55998132  0.71938697  1
  O2-  O276  1  0.30119448  0.16231641  0.06158069  1
  O2-  O277  1  0.29779410  0.16258438  0.40002253  1
  O2-  O278  1  0.30560118  0.16595577  0.72772621  1
  O2-  O279  1  0.29079665  0.67254609  0.06906978  1
  O2-  O280  1  0.29494512  0.66667114  0.39639521  1
  O2-  O281  1  0.29174866  0.66929320  0.73166113  1
  O2-  O282  1  0.79109382  0.16448418  0.07053139  1
  O2-  O283  1  0.79238866  0.16782395  0.40524295  1
  O2-  O284  1  0.78847393  0.16342263  0.73529799  1
  O2-  O285  1  0.79001404  0.67176408  0.06647311  1
  O2-  O286  1  0.79220246  0.66633847  0.39465072  1
  O2-  O287  1  0.79029979  0.66704759  0.72996750  1
