# generated using pymatgen
data_Ca2Al2SiO7
_symmetry_space_group_name_H-M   'P 1'
_cell_length_a   15.46008189
_cell_length_b   15.45956668
_cell_length_c   15.28428374
_cell_angle_alpha   90.01298185
_cell_angle_beta   90.01390840
_cell_angle_gamma   90.01827711
_symmetry_Int_Tables_number   1
_chemical_formula_structural   Ca2Al2SiO7
_chemical_formula_sum   'Ca48 Al48 Si24 O168'
_cell_volume   3653.03768038
_cell_formula_units_Z   24
loop_
 _symmetry_equiv_pos_site_id
 _symmetry_equiv_pos_as_xyz
  1  'x, y, z'
loop_
 _atom_type_symbol
 _atom_type_oxidation_number
  Ca2+  2.0
  Al0+  0.0
  Si0+  0.0
  O2-  -2.0
loop_
 _atom_site_type_symbol
 _atom_site_label
 _atom_site_symmetry_multiplicity
 _atom_site_fract_x
 _atom_site_fract_y
 _atom_site_fract_z
 _atom_site_occupancy
  Ca2+  Ca0  1  0.17043512  0.08701301  0.16142059  1
  Ca2+  Ca1  1  0.17309603  0.07863821  0.51025712  1
  Ca2+  Ca2  1  0.17561101  0.07929353  0.84281809  1
  Ca2+  Ca3  1  0.17148422  0.57550670  0.16977655  1
  Ca2+  Ca4  1  0.17320419  0.57903540  0.49831304  1
  Ca2+  Ca5  1  0.16679054  0.57576330  0.84383178  1
  Ca2+  Ca6  1  0.66088639  0.07587305  0.16329681  1
  Ca2+  Ca7  1  0.66332381  0.06947680  0.50540804  1
  Ca2+  Ca8  1  0.66809264  0.07787731  0.84487943  1
  Ca2+  Ca9  1  0.66046384  0.57201558  0.17148143  1
  Ca2+  Ca10  1  0.65895540  0.57557888  0.50430809  1
  Ca2+  Ca11  1  0.66006307  0.57308357  0.83394066  1
  Ca2+  Ca12  1  0.07937449  0.33600601  0.15819047  1
  Ca2+  Ca13  1  0.07105266  0.33849193  0.49318275  1
  Ca2+  Ca14  1  0.08149297  0.32652534  0.83112837  1
  Ca2+  Ca15  1  0.08717047  0.82681971  0.15345251  1
  Ca2+  Ca16  1  0.08397002  0.83579973  0.49727126  1
  Ca2+  Ca17  1  0.09280894  0.83174558  0.83251929  1
  Ca2+  Ca18  1  0.57871192  0.33253425  0.15509735  1
  Ca2+  Ca19  1  0.58007440  0.33958882  0.49748949  1
  Ca2+  Ca20  1  0.57770852  0.33122832  0.83010031  1
  Ca2+  Ca21  1  0.58353056  0.82999757  0.15995779  1
  Ca2+  Ca22  1  0.59190145  0.82312012  0.49422481  1
  Ca2+  Ca23  1  0.58164230  0.83594170  0.82894543  1
  Ca2+  Ca24  1  0.32186731  0.41335446  0.16992715  1
  Ca2+  Ca25  1  0.33457014  0.42048618  0.50176151  1
  Ca2+  Ca26  1  0.33433571  0.41453217  0.84165614  1
  Ca2+  Ca27  1  0.33729418  0.91995729  0.16152012  1
  Ca2+  Ca28  1  0.32787769  0.92557537  0.51043504  1
  Ca2+  Ca29  1  0.33106660  0.92788019  0.84214140  1
  Ca2+  Ca30  1  0.82159538  0.41091419  0.17029334  1
  Ca2+  Ca31  1  0.82431672  0.41026920  0.50371012  1
  Ca2+  Ca32  1  0.82233073  0.40993651  0.83599401  1
  Ca2+  Ca33  1  0.82538933  0.92438404  0.16642512  1
  Ca2+  Ca34  1  0.82304141  0.91590140  0.50482154  1
  Ca2+  Ca35  1  0.82098969  0.92175157  0.84221205  1
  Ca2+  Ca36  1  0.42263918  0.17234653  0.15280754  1
  Ca2+  Ca37  1  0.41383805  0.17040466  0.50267879  1
  Ca2+  Ca38  1  0.41294674  0.17321646  0.83409444  1
  Ca2+  Ca39  1  0.41713235  0.67047831  0.16312440  1
  Ca2+  Ca40  1  0.42773596  0.66485469  0.49424240  1
  Ca2+  Ca41  1  0.42161203  0.67646723  0.83071657  1
  Ca2+  Ca42  1  0.92065131  0.16973909  0.15877978  1
  Ca2+  Ca43  1  0.91403850  0.17906482  0.49645908  1
  Ca2+  Ca44  1  0.91950992  0.16547934  0.83258358  1
  Ca2+  Ca45  1  0.92453458  0.66781402  0.15941343  1
  Ca2+  Ca46  1  0.91788627  0.66818569  0.49599576  1
  Ca2+  Ca47  1  0.92347562  0.66549494  0.83356553  1
  Al0+  Al48  1  -0.00136061  -0.00012436  0.00293134  1
  Al0+  Al49  1  -0.00062389  0.00178825  0.33391571  1
  Al0+  Al50  1  0.00014410  -0.00204821  0.66704555  1
  Al0+  Al51  1  -0.00016793  0.50123462  -0.00203372  1
  Al0+  Al52  1  -0.00112127  0.50061323  0.33117981  1
  Al0+  Al53  1  -0.00008105  0.50070777  0.66115303  1
  Al0+  Al54  1  0.49938064  0.00001379  0.00026822  1
  Al0+  Al55  1  0.49944971  -0.00069984  0.33930939  1
  Al0+  Al56  1  0.49840659  0.00126922  0.67314736  1
  Al0+  Al57  1  0.49959757  0.50213614  0.00060751  1
  Al0+  Al58  1  0.49946075  0.50065621  0.33471986  1
  Al0+  Al59  1  0.49995883  0.50016703  0.66378039  1
  Al0+  Al60  1  0.24766191  0.25029809  0.00078326  1
  Al0+  Al61  1  0.24839688  0.24904141  0.33896984  1
  Al0+  Al62  1  0.25007801  0.25098168  0.66355549  1
  Al0+  Al63  1  0.25152497  0.74945836  -0.00674290  1
  Al0+  Al64  1  0.25114900  0.75069474  0.33781130  1
  Al0+  Al65  1  0.25162523  0.74815317  0.66603381  1
  Al0+  Al66  1  0.74942477  0.24994304  0.00443770  1
  Al0+  Al67  1  0.75052474  0.24921146  0.33291544  1
  Al0+  Al68  1  0.74942255  0.24913151  0.66511300  1
  Al0+  Al69  1  0.75196274  0.74821289  0.00225496  1
  Al0+  Al70  1  0.75040033  0.74928715  0.32982302  1
  Al0+  Al71  1  0.75263168  0.74817022  0.66713029  1
  Al0+  Al72  1  0.17700578  0.42780195  0.34971871  1
  Al0+  Al73  1  0.82155096  0.07231350  0.01536248  1
  Al0+  Al74  1  0.57233592  0.17959852  0.98579008  1
  Al0+  Al75  1  0.42802390  0.32275078  0.98715456  1
  Al0+  Al76  1  0.17801114  0.92702356  0.68187746  1
  Al0+  Al77  1  0.57089855  0.67848166  0.31784520  1
  Al0+  Al78  1  0.42903977  0.32101928  0.65127083  1
  Al0+  Al79  1  0.32069218  0.57189488  0.34891375  1
  Al0+  Al80  1  0.32009151  0.07420205  0.68394631  1
  Al0+  Al81  1  0.68030895  0.92669142  0.68031226  1
  Al0+  Al82  1  0.67881376  0.42925779  0.68042778  1
  Al0+  Al83  1  0.06973060  0.17814486  0.98655521  1
  Al0+  Al84  1  0.67828114  0.43073750  0.01281755  1
  Al0+  Al85  1  0.92867296  0.32149023  0.31707012  1
  Al0+  Al86  1  0.67702744  0.92700309  0.01544927  1
  Al0+  Al87  1  0.67976988  0.92878189  0.34754099  1
  Al0+  Al88  1  0.18008957  0.92732623  0.01518787  1
  Al0+  Al89  1  0.57144312  0.68132989  0.65333682  1
  Al0+  Al90  1  0.43064431  0.82067799  0.98642004  1
  Al0+  Al91  1  0.32055277  0.07234084  0.01698980  1
  Al0+  Al92  1  0.17846036  0.42879105  0.01096595  1
  Al0+  Al93  1  0.67960783  0.42821514  0.34727064  1
  Al0+  Al94  1  0.07120749  0.67934315  0.98613156  1
  Al0+  Al95  1  0.92839618  0.32031652  0.65300669  1
  Si0+  Si96  1  0.57490419  0.67786538  0.98294791  1
  Si0+  Si97  1  0.92737960  0.32267140  0.98298149  1
  Si0+  Si98  1  0.07314498  0.67808698  0.64867099  1
  Si0+  Si99  1  0.07121816  0.17726540  0.64958020  1
  Si0+  Si100  1  0.42836489  0.32011485  0.31930286  1
  Si0+  Si101  1  0.82342650  0.57126853  0.01683517  1
  Si0+  Si102  1  0.82476304  0.57141835  0.68327052  1
  Si0+  Si103  1  0.56937975  0.17667929  0.32044808  1
  Si0+  Si104  1  0.17707236  0.43154352  0.68077573  1
  Si0+  Si105  1  0.93013874  0.82011241  0.65129822  1
  Si0+  Si106  1  0.42845576  0.82336565  0.64902097  1
  Si0+  Si107  1  0.07218496  0.68171532  0.31844292  1
  Si0+  Si108  1  0.32168370  0.07113245  0.34967890  1
  Si0+  Si109  1  0.32189305  0.57276246  0.01464826  1
  Si0+  Si110  1  0.82209791  0.57249786  0.34900327  1
  Si0+  Si111  1  0.07243243  0.17745178  0.31660704  1
  Si0+  Si112  1  0.82135941  0.07192042  0.68182253  1
  Si0+  Si113  1  0.17790674  0.92941143  0.34725654  1
  Si0+  Si114  1  0.92756738  0.82178995  0.98277612  1
  Si0+  Si115  1  0.82370868  0.07101536  0.35246743  1
  Si0+  Si116  1  0.57238775  0.17679899  0.64921748  1
  Si0+  Si117  1  0.42756441  0.82315748  0.31811466  1
  Si0+  Si118  1  0.92918254  0.82256130  0.31755327  1
  Si0+  Si119  1  0.32197041  0.56932274  0.68262493  1
  O2-  O120  1  0.24956583  -0.00052127  0.06828351  1
  O2-  O121  1  0.24842622  0.00065036  0.38944400  1
  O2-  O122  1  0.24853611  0.00006556  0.73070387  1
  O2-  O123  1  0.25582223  0.50083106  0.05749345  1
  O2-  O124  1  0.25090563  0.49776672  0.40025019  1
  O2-  O125  1  0.24984555  0.49951573  0.72452978  1
  O2-  O126  1  0.74759346  0.00128941  0.06438820  1
  O2-  O127  1  0.75412301  0.00298729  0.39620989  1
  O2-  O128  1  0.75187828  0.00434429  0.72574667  1
  O2-  O129  1  0.75266112  0.50518861  0.06070852  1
  O2-  O130  1  0.75415603  0.50366601  0.39388470  1
  O2-  O131  1  0.75612170  0.50229580  0.72608424  1
  O2-  O132  1  0.00647760  0.24892103  0.27294933  1
  O2-  O133  1  0.00263355  0.24557858  0.60452025  1
  O2-  O134  1  -0.00510495  0.25262371  0.93923329  1
  O2-  O135  1  0.00250379  0.75374277  0.27577429  1
  O2-  O136  1  0.00447364  0.75234977  0.60761448  1
  O2-  O137  1  -0.00111294  0.75583188  0.93791870  1
  O2-  O138  1  0.49992435  0.24943964  0.27832476  1
  O2-  O139  1  0.50412253  0.24609080  0.60429408  1
  O2-  O140  1  0.50070680  0.25210845  0.93609118  1
  O2-  O141  1  0.49638416  0.75459342  0.27398704  1
  O2-  O142  1  0.50073162  0.75912636  0.60400710  1
  O2-  O143  1  0.51032699  0.75077726  0.93984525  1
  O2-  O144  1  0.06885862  0.18156733  0.09991337  1
  O2-  O145  1  0.07023487  0.17418952  0.42236688  1
  O2-  O146  1  0.07009965  0.17795389  0.75486905  1
  O2-  O147  1  0.06919634  0.67921841  0.09968005  1
  O2-  O148  1  0.07087311  0.68385366  0.42410682  1
  O2-  O149  1  0.07187991  0.67455564  0.75330929  1
  O2-  O150  1  0.57028222  0.18185782  0.10039092  1
  O2-  O151  1  0.56654701  0.17447768  0.42578128  1
  O2-  O152  1  0.57517179  0.17801883  0.75414528  1
  O2-  O153  1  0.57297537  0.67612932  0.08860071  1
  O2-  O154  1  0.57108130  0.68033989  0.43128380  1
  O2-  O155  1  0.56801434  0.68076540  0.76617306  1
  O2-  O156  1  0.17757242  0.42913134  0.23629154  1
  O2-  O157  1  0.17588716  0.43552909  0.57561066  1
  O2-  O158  1  0.17665494  0.43161240  0.89740161  1
  O2-  O159  1  0.17673063  0.92683853  0.24308027  1
  O2-  O160  1  0.17845459  0.92883901  0.56691118  1
  O2-  O161  1  0.18306898  0.92771688  0.90202496  1
  O2-  O162  1  0.67946092  0.42881046  0.23439109  1
  O2-  O163  1  0.67994240  0.43162754  0.56710809  1
  O2-  O164  1  0.67903458  0.43208345  0.89954693  1
  O2-  O165  1  0.68004939  0.93047317  0.23526546  1
  O2-  O166  1  0.68407351  0.92634874  0.56664364  1
  O2-  O167  1  0.68087106  0.92592080  0.90174740  1
  O2-  O168  1  0.42877549  0.32269501  0.10148872  1
  O2-  O169  1  0.42884373  0.31867041  0.42474468  1
  O2-  O170  1  0.42909608  0.32323454  0.76363096  1
  O2-  O171  1  0.42939005  0.81631641  0.10001366  1
  O2-  O172  1  0.42693751  0.82401208  0.42378927  1
  O2-  O173  1  0.42676045  0.81977483  0.75427637  1
  O2-  O174  1  0.92927374  0.32409991  0.08868672  1
  O2-  O175  1  0.92849417  0.31896713  0.43059634  1
  O2-  O176  1  0.93033685  0.32045076  0.76571770  1
  O2-  O177  1  0.92722400  0.81801030  0.08872855  1
  O2-  O178  1  0.93053183  0.82139677  0.42328659  1
  O2-  O179  1  0.92850413  0.81767505  0.75574925  1
  O2-  O180  1  0.32389226  0.07232669  0.24537336  1
  O2-  O181  1  0.31789627  0.07199633  0.56890560  1
  O2-  O182  1  0.31826719  0.07290084  0.90401482  1
  O2-  O183  1  0.31690920  0.57441472  0.23563144  1
  O2-  O184  1  0.32029084  0.56960915  0.57741415  1
  O2-  O185  1  0.32078507  0.57256930  0.90860032  1
  O2-  O186  1  0.82772515  0.06888997  0.24764857  1
  O2-  O187  1  0.82130157  0.06989948  0.57580218  1
  O2-  O188  1  0.82166810  0.06968544  0.90129581  1
  O2-  O189  1  0.82309368  0.57326218  0.24367130  1
  O2-  O190  1  0.82705149  0.57295413  0.57760612  1
  O2-  O191  1  0.82540725  0.57098768  0.91112409  1
  O2-  O192  1  0.04450845  0.08444342  0.26984653  1
  O2-  O193  1  0.04647192  0.08265724  0.60353291  1
  O2-  O194  1  0.03956143  0.08100474  0.93306906  1
  O2-  O195  1  0.04344908  0.59029434  0.27159104  1
  O2-  O196  1  0.04127021  0.58910781  0.59770524  1
  O2-  O197  1  0.03638704  0.58480895  0.92909093  1
  O2-  O198  1  0.53861809  0.08539300  0.27334032  1
  O2-  O199  1  0.54388720  0.08288146  0.60344335  1
  O2-  O200  1  0.54594552  0.08060486  0.93468052  1
  O2-  O201  1  0.53816335  0.58202569  0.26445553  1
  O2-  O202  1  0.53613672  0.58655765  0.59835399  1
  O2-  O203  1  0.54367182  0.58667472  0.93534197  1
  O2-  O204  1  0.16819098  0.19966108  0.27355748  1
  O2-  O205  1  0.16403848  0.20335958  0.60229603  1
  O2-  O206  1  0.16461749  0.21095192  0.93150162  1
  O2-  O207  1  0.16450146  0.70959979  0.27283950  1
  O2-  O208  1  0.16570871  0.70353204  0.60076936  1
  O2-  O209  1  0.16674836  0.70661024  0.92901296  1
  O2-  O210  1  0.66279962  0.20056082  0.27569442  1
  O2-  O211  1  0.66592247  0.20015054  0.60138139  1
  O2-  O212  1  0.67142906  0.20707907  0.93391148  1
  O2-  O213  1  0.66809400  0.70742041  0.26404976  1
  O2-  O214  1  0.67044542  0.70702733  0.60015245  1
  O2-  O215  1  0.67082176  0.69697254  0.93899849  1
  O2-  O216  1  0.08296958  0.46343633  0.06499525  1
  O2-  O217  1  0.07905140  0.46121217  0.40139586  1
  O2-  O218  1  0.08618441  0.46267778  0.72753724  1
  O2-  O219  1  0.08003438  0.95115177  0.06613226  1
  O2-  O220  1  0.08580945  0.95697337  0.39566734  1
  O2-  O221  1  0.07737807  0.94968799  0.73204689  1
  O2-  O222  1  0.58216651  0.46272020  0.06788128  1
  O2-  O223  1  0.58298867  0.45928634  0.40063942  1
  O2-  O224  1  0.58302576  0.46372613  0.73302726  1
  O2-  O225  1  0.57906857  0.95387439  0.06869260  1
  O2-  O226  1  0.58359603  0.95909473  0.40366263  1
  O2-  O227  1  0.58216361  0.95297305  0.73132959  1
  O2-  O228  1  0.20580483  0.33367716  0.06788112  1
  O2-  O229  1  0.20200638  0.32879777  0.40370115  1
  O2-  O230  1  0.20097022  0.33733321  0.72325946  1
  O2-  O231  1  0.21066146  0.82784424  0.06554092  1
  O2-  O232  1  0.20489817  0.83855827  0.39735312  1
  O2-  O233  1  0.20474642  0.82642594  0.73041593  1
  O2-  O234  1  0.70845735  0.33528931  0.06828365  1
  O2-  O235  1  0.70995476  0.33105164  0.40106936  1
  O2-  O236  1  0.70879331  0.33151654  0.73187648  1
  O2-  O237  1  0.70801634  0.82848357  0.06759539  1
  O2-  O238  1  0.71395074  0.83190763  0.39945662  1
  O2-  O239  1  0.71489225  0.83146359  0.73374367  1
  O2-  O240  1  0.45429434  0.41239910  0.27346987  1
  O2-  O241  1  0.46125310  0.41670286  0.59571111  1
  O2-  O242  1  0.45468675  0.42233268  0.93505075  1
  O2-  O243  1  0.45370413  0.91723520  0.27331675  1
  O2-  O244  1  0.44865282  0.91969543  0.60643671  1
  O2-  O245  1  0.45660131  0.91793274  0.93259341  1
  O2-  O246  1  0.95596654  0.41961945  0.26417824  1
  O2-  O247  1  0.95964464  0.41674061  0.59735015  1
  O2-  O248  1  0.95362470  0.41563048  0.93640303  1
  O2-  O249  1  0.95506931  0.91560494  0.27228498  1
  O2-  O250  1  0.95451588  0.91236328  0.60158690  1
  O2-  O251  1  0.94871896  0.91631623  0.93848524  1
  O2-  O252  1  0.33491756  0.29166661  0.27530439  1
  O2-  O253  1  0.33203872  0.29160012  0.59517204  1
  O2-  O254  1  0.32954812  0.29471141  0.93493799  1
  O2-  O255  1  0.33345508  0.79714327  0.27279723  1
  O2-  O256  1  0.33597929  0.79301411  0.60154778  1
  O2-  O257  1  0.33777955  0.78544121  0.92808132  1
  O2-  O258  1  0.83227145  0.28814725  0.26384786  1
  O2-  O259  1  0.83227510  0.28871493  0.59712841  1
  O2-  O260  1  0.83352790  0.29665280  0.93881315  1
  O2-  O261  1  0.83938454  0.79263551  0.26858798  1
  O2-  O262  1  0.84095042  0.78785124  0.60059139  1
  O2-  O263  1  0.83561271  0.79117483  0.93521056  1
  O2-  O264  1  0.41865151  0.04318962  0.06968141  1
  O2-  O265  1  0.41111982  0.04145362  0.40088801  1
  O2-  O266  1  0.41876477  0.04915632  0.73608241  1
  O2-  O267  1  0.41600555  0.55238017  0.06113211  1
  O2-  O268  1  0.41848748  0.54300934  0.40244318  1
  O2-  O269  1  0.41269616  0.54075221  0.72996446  1
  O2-  O270  1  0.91779074  0.04143798  0.07153671  1
  O2-  O271  1  0.91654747  0.04419730  0.40107717  1
  O2-  O272  1  0.91512639  0.04538079  0.72640366  1
  O2-  O273  1  0.91597352  0.54435759  0.06430897  1
  O2-  O274  1  0.91609751  0.54902055  0.39562553  1
  O2-  O275  1  0.91888972  0.54589517  0.72878311  1
  O2-  O276  1  0.28913234  0.16940251  0.07087801  1
  O2-  O277  1  0.29421403  0.16203932  0.39941999  1
  O2-  O278  1  0.29045895  0.17318481  0.73410070  1
  O2-  O279  1  0.29142015  0.66414358  0.06107826  1
  O2-  O280  1  0.29034387  0.66923292  0.40527339  1
  O2-  O281  1  0.29505516  0.66188760  0.72851470  1
  O2-  O282  1  0.79620417  0.17027735  0.07021859  1
  O2-  O283  1  0.79699055  0.16465888  0.39708676  1
  O2-  O284  1  0.79821925  0.16570805  0.72725275  1
  O2-  O285  1  0.80218718  0.66540199  0.06360798  1
  O2-  O286  1  0.79768715  0.66649914  0.39533130  1
  O2-  O287  1  0.80010263  0.66434009  0.73042864  1
