# generated using pymatgen
data_Ca2Al2SiO7
_symmetry_space_group_name_H-M   'P 1'
_cell_length_a   15.45871749
_cell_length_b   15.45988208
_cell_length_c   15.28464734
_cell_angle_alpha   89.99661722
_cell_angle_beta   90.01001235
_cell_angle_gamma   90.01790627
_symmetry_Int_Tables_number   1
_chemical_formula_structural   Ca2Al2SiO7
_chemical_formula_sum   'Ca48 Al48 Si24 O168'
_cell_volume   3652.87685423
_cell_formula_units_Z   24
loop_
 _symmetry_equiv_pos_site_id
 _symmetry_equiv_pos_as_xyz
  1  'x, y, z'
loop_
 _atom_type_symbol
 _atom_type_oxidation_number
  Ca2+  2.0
  Al0+  0.0
  Si0+  0.0
  O2-  -2.0
loop_
 _atom_site_type_symbol
 _atom_site_label
 _atom_site_symmetry_multiplicity
 _atom_site_fract_x
 _atom_site_fract_y
 _atom_site_fract_z
 _atom_site_occupancy
  Ca2+  Ca0  1  0.16850185  0.07580368  0.17657445  1
  Ca2+  Ca1  1  0.16159907  0.07399544  0.50629020  1
  Ca2+  Ca2  1  0.16533319  0.07955585  0.82980875  1
  Ca2+  Ca3  1  0.17209843  0.59154425  0.17018000  1
  Ca2+  Ca4  1  0.17097620  0.58196236  0.51071938  1
  Ca2+  Ca5  1  0.18010344  0.58292598  0.83279968  1
  Ca2+  Ca6  1  0.66829106  0.07363353  0.17301461  1
  Ca2+  Ca7  1  0.67349908  0.07516543  0.50645408  1
  Ca2+  Ca8  1  0.65960218  0.07626607  0.83606796  1
  Ca2+  Ca9  1  0.67039646  0.57194632  0.17498843  1
  Ca2+  Ca10  1  0.67528672  0.58651178  0.50605136  1
  Ca2+  Ca11  1  0.66626323  0.58338066  0.83495983  1
  Ca2+  Ca12  1  0.08105505  0.32492892  0.16520936  1
  Ca2+  Ca13  1  0.08684447  0.32204189  0.49567250  1
  Ca2+  Ca14  1  0.08386634  0.32870119  0.82204761  1
  Ca2+  Ca15  1  0.07594723  0.83197040  0.16615220  1
  Ca2+  Ca16  1  0.08488173  0.83120199  0.49175829  1
  Ca2+  Ca17  1  0.07533852  0.83681253  0.82895288  1
  Ca2+  Ca18  1  0.59415875  0.32855694  0.16013694  1
  Ca2+  Ca19  1  0.59101947  0.32857225  0.49814000  1
  Ca2+  Ca20  1  0.59269922  0.32297547  0.82965624  1
  Ca2+  Ca21  1  0.57557574  0.84129962  0.16065556  1
  Ca2+  Ca22  1  0.57758956  0.83673220  0.49938441  1
  Ca2+  Ca23  1  0.57427730  0.83478118  0.82269610  1
  Ca2+  Ca24  1  0.33553385  0.42623878  0.16849803  1
  Ca2+  Ca25  1  0.32549002  0.42439133  0.51126512  1
  Ca2+  Ca26  1  0.33549931  0.42825413  0.83425478  1
  Ca2+  Ca27  1  0.33224648  0.91291533  0.17293816  1
  Ca2+  Ca28  1  0.32419633  0.90531816  0.50325129  1
  Ca2+  Ca29  1  0.32991248  0.90554961  0.83357570  1
  Ca2+  Ca30  1  0.82331504  0.41941968  0.17349859  1
  Ca2+  Ca31  1  0.83310002  0.42819931  0.50028305  1
  Ca2+  Ca32  1  0.83005081  0.42488573  0.83455514  1
  Ca2+  Ca33  1  0.82169258  0.91550949  0.17283148  1
  Ca2+  Ca34  1  0.82400211  0.92422492  0.50666738  1
  Ca2+  Ca35  1  0.81934733  0.91869850  0.83576281  1
  Ca2+  Ca36  1  0.42605018  0.17020234  0.15971064  1
  Ca2+  Ca37  1  0.42337761  0.16564204  0.50009785  1
  Ca2+  Ca38  1  0.43028897  0.16680683  0.82715188  1
  Ca2+  Ca39  1  0.41662335  0.67810794  0.16105137  1
  Ca2+  Ca40  1  0.41924115  0.67408031  0.49960826  1
  Ca2+  Ca41  1  0.42065975  0.67084416  0.82565024  1
  Ca2+  Ca42  1  0.91890205  0.15747904  0.16887841  1
  Ca2+  Ca43  1  0.92294191  0.15573009  0.49688923  1
  Ca2+  Ca44  1  0.91956383  0.16720499  0.82239900  1
  Ca2+  Ca45  1  0.92021619  0.66707548  0.16488942  1
  Ca2+  Ca46  1  0.92169565  0.66143892  0.49249131  1
  Ca2+  Ca47  1  0.91033086  0.67423359  0.82825377  1
  Al0+  Al48  1  0.00059473  -0.00145578  -0.00449090  1
  Al0+  Al49  1  0.00135241  -0.00216192  0.33326035  1
  Al0+  Al50  1  -0.00050751  0.00057655  0.67085268  1
  Al0+  Al51  1  0.00289054  0.49786256  -0.00107113  1
  Al0+  Al52  1  0.00103204  0.49754073  0.32837424  1
  Al0+  Al53  1  -0.00162965  0.50008246  0.67607477  1
  Al0+  Al54  1  0.49823795  0.00116139  -0.00415094  1
  Al0+  Al55  1  0.49848186  0.00236706  0.33225536  1
  Al0+  Al56  1  0.49742195  0.00155109  0.65904410  1
  Al0+  Al57  1  0.49864145  0.50067631  0.00986709  1
  Al0+  Al58  1  0.49887122  0.50016774  0.33722552  1
  Al0+  Al59  1  0.50090049  0.50085551  0.66616659  1
  Al0+  Al60  1  0.25101817  0.25001893  -0.00013767  1
  Al0+  Al61  1  0.25124520  0.24999618  0.32627437  1
  Al0+  Al62  1  0.24871189  0.24801326  0.66590170  1
  Al0+  Al63  1  0.24898537  0.74934721  0.00083399  1
  Al0+  Al64  1  0.25050624  0.75042252  0.32828904  1
  Al0+  Al65  1  0.24826876  0.74978623  0.67311373  1
  Al0+  Al66  1  0.75380527  0.24994650  -0.00144067  1
  Al0+  Al67  1  0.75189658  0.25022979  0.33949722  1
  Al0+  Al68  1  0.75287937  0.25179424  0.66226864  1
  Al0+  Al69  1  0.75054363  0.75100587  0.00154701  1
  Al0+  Al70  1  0.74846916  0.74845753  0.33936485  1
  Al0+  Al71  1  0.74855112  0.75190834  0.67019539  1
  Al0+  Al72  1  0.43133482  0.82025180  0.31840116  1
  Al0+  Al73  1  0.07087767  0.67722136  0.32109844  1
  Al0+  Al74  1  0.57295496  0.67819643  0.65146240  1
  Al0+  Al75  1  0.67584408  0.93156591  0.68260163  1
  Al0+  Al76  1  0.32255465  0.57147315  0.68116917  1
  Al0+  Al77  1  0.67686144  0.92993595  0.01326748  1
  Al0+  Al78  1  0.67713590  0.42856053  0.35064086  1
  Al0+  Al79  1  0.82089866  0.07216362  0.68289974  1
  Al0+  Al80  1  0.67408419  0.92793525  0.34902032  1
  Al0+  Al81  1  0.07105951  0.17657953  0.31839378  1
  Al0+  Al82  1  0.68162627  0.42886144  0.01202364  1
  Al0+  Al83  1  0.17912732  0.92865596  0.68133834  1
  Al0+  Al84  1  0.31913642  0.57129649  0.01684937  1
  Al0+  Al85  1  0.82173650  0.06894563  0.34752762  1
  Al0+  Al86  1  0.92808258  0.82014323  0.98588525  1
  Al0+  Al87  1  0.42914052  0.82067457  0.98529339  1
  Al0+  Al88  1  0.82057685  0.57282206  0.68179725  1
  Al0+  Al89  1  0.17843351  0.42678794  0.68050223  1
  Al0+  Al90  1  0.06991385  0.17911857  0.65221244  1
  Al0+  Al91  1  0.42616937  0.82028081  0.65043049  1
  Al0+  Al92  1  0.18211445  0.92908416  0.34469560  1
  Al0+  Al93  1  0.57195665  0.18137122  0.98757393  1
  Al0+  Al94  1  0.57297628  0.18003898  0.65032534  1
  Al0+  Al95  1  0.82279567  0.57068569  0.34661966  1
  Si0+  Si96  1  0.17790971  0.42536473  0.01944894  1
  Si0+  Si97  1  0.32049462  0.07220352  0.01454093  1
  Si0+  Si98  1  0.42760118  0.32406739  0.98387689  1
  Si0+  Si99  1  0.82383750  0.07120732  0.01575732  1
  Si0+  Si100  1  0.32167707  0.07297158  0.68330119  1
  Si0+  Si101  1  0.93077443  0.32115826  0.98366512  1
  Si0+  Si102  1  0.06827106  0.67945825  0.65517603  1
  Si0+  Si103  1  0.07243798  0.17871353  0.98391175  1
  Si0+  Si104  1  0.42798933  0.32207106  0.65072043  1
  Si0+  Si105  1  0.67821114  0.42820623  0.68287440  1
  Si0+  Si106  1  0.92872260  0.32093065  0.31484927  1
  Si0+  Si107  1  0.92630000  0.82095030  0.31900367  1
  Si0+  Si108  1  0.82447143  0.57297322  0.01676452  1
  Si0+  Si109  1  0.57297847  0.67596761  0.31606614  1
  Si0+  Si110  1  0.92883455  0.82155267  0.65165473  1
  Si0+  Si111  1  0.31856031  0.57165170  0.34863137  1
  Si0+  Si112  1  0.17803619  0.93034787  0.01595124  1
  Si0+  Si113  1  0.18016982  0.42656295  0.34568999  1
  Si0+  Si114  1  0.42806041  0.32321616  0.31738803  1
  Si0+  Si115  1  0.57175275  0.18222642  0.31808371  1
  Si0+  Si116  1  0.32156786  0.07532934  0.34917005  1
  Si0+  Si117  1  0.57158953  0.67623041  0.98694104  1
  Si0+  Si118  1  0.92898110  0.32544486  0.64805633  1
  Si0+  Si119  1  0.07174616  0.67696550  0.98114260  1
  O2-  O120  1  0.25011645  0.00071363  0.05730375  1
  O2-  O121  1  0.25382560  0.00574007  0.39250886  1
  O2-  O122  1  0.25609176  0.00133353  0.72809512  1
  O2-  O123  1  0.24384624  0.49636592  0.06412995  1
  O2-  O124  1  0.24790947  0.49956616  0.38922296  1
  O2-  O125  1  0.25254896  0.49640961  0.73038390  1
  O2-  O126  1  0.75366394  0.00370933  0.05906769  1
  O2-  O127  1  0.74936249  -0.00244588  0.39690788  1
  O2-  O128  1  0.74459727  0.00623604  0.73412433  1
  O2-  O129  1  0.75431932  0.50522563  0.05972247  1
  O2-  O130  1  0.74692502  0.50366610  0.39809789  1
  O2-  O131  1  0.74337016  0.50002328  0.72742903  1
  O2-  O132  1  -0.00530560  0.24905211  0.27016876  1
  O2-  O133  1  -0.00342483  0.25490423  0.60497062  1
  O2-  O134  1  0.00286774  0.25086475  0.94228783  1
  O2-  O135  1  -0.00791041  0.74843448  0.27526808  1
  O2-  O136  1  -0.00190999  0.74880148  0.60950449  1
  O2-  O137  1  -0.00076929  0.74184822  0.93779683  1
  O2-  O138  1  0.50282560  0.25568928  0.27535712  1
  O2-  O139  1  0.49877549  0.25662840  0.60450956  1
  O2-  O140  1  0.49941260  0.25873476  0.94026210  1
  O2-  O141  1  0.50963670  0.74933828  0.27074731  1
  O2-  O142  1  0.50055356  0.75010702  0.60150214  1
  O2-  O143  1  0.50644511  0.74766888  0.94170410  1
  O2-  O144  1  0.07219037  0.17831085  0.08915571  1
  O2-  O145  1  0.07353215  0.17916455  0.43081213  1
  O2-  O146  1  0.06872687  0.18065301  0.76609033  1
  O2-  O147  1  0.07184157  0.67840264  0.08711625  1
  O2-  O148  1  0.07282189  0.67735479  0.43437703  1
  O2-  O149  1  0.06675420  0.68177222  0.76040156  1
  O2-  O150  1  0.57019194  0.18224388  0.10112316  1
  O2-  O151  1  0.56891878  0.18277573  0.42284480  1
  O2-  O152  1  0.57123435  0.18187817  0.76388432  1
  O2-  O153  1  0.56905606  0.67533384  0.09273780  1
  O2-  O154  1  0.56902060  0.67232176  0.42103166  1
  O2-  O155  1  0.57176866  0.67711901  0.76569484  1
  O2-  O156  1  0.18363562  0.42505682  0.24035691  1
  O2-  O157  1  0.17894239  0.42859392  0.56619414  1
  O2-  O158  1  0.17863801  0.42257325  0.91447012  1
  O2-  O159  1  0.18305821  0.93034362  0.23092062  1
  O2-  O160  1  0.17810702  0.92766482  0.56822632  1
  O2-  O161  1  0.17678877  0.93205111  0.91101672  1
  O2-  O162  1  0.67950300  0.42768358  0.23641490  1
  O2-  O163  1  0.68027590  0.42816390  0.57760475  1
  O2-  O164  1  0.68441207  0.42828326  0.89924065  1
  O2-  O165  1  0.67360551  0.93177486  0.23463656  1
  O2-  O166  1  0.67872550  0.93134366  0.56932044  1
  O2-  O167  1  0.67528619  0.93131746  0.90087744  1
  O2-  O168  1  0.42483239  0.32027453  0.08980512  1
  O2-  O169  1  0.42299670  0.32122975  0.42188954  1
  O2-  O170  1  0.42826137  0.31997519  0.75648730  1
  O2-  O171  1  0.42861099  0.82081046  0.09870399  1
  O2-  O172  1  0.42639994  0.81578282  0.43052205  1
  O2-  O173  1  0.42641553  0.81736518  0.76435672  1
  O2-  O174  1  0.93119669  0.32166693  0.08867618  1
  O2-  O175  1  0.93281461  0.32560491  0.41965661  1
  O2-  O176  1  0.92993989  0.32531793  0.75433104  1
  O2-  O177  1  0.93108322  0.82119561  0.09919542  1
  O2-  O178  1  0.93021121  0.82259353  0.42441984  1
  O2-  O179  1  0.93078925  0.82031059  0.75714916  1
  O2-  O180  1  0.32094988  0.07638653  0.24282444  1
  O2-  O181  1  0.31885584  0.07690266  0.57782105  1
  O2-  O182  1  0.31843986  0.07577456  0.91000793  1
  O2-  O183  1  0.31775354  0.57057008  0.24320413  1
  O2-  O184  1  0.31761028  0.57116040  0.56710588  1
  O2-  O185  1  0.31861116  0.56930837  0.90439903  1
  O2-  O186  1  0.81957296  0.06804625  0.23303372  1
  O2-  O187  1  0.82271890  0.06712108  0.56969531  1
  O2-  O188  1  0.82530141  0.07165041  0.91069133  1
  O2-  O189  1  0.82335766  0.56724244  0.23257713  1
  O2-  O190  1  0.82567371  0.56957765  0.56923845  1
  O2-  O191  1  0.82460481  0.57140925  0.91124517  1
  O2-  O192  1  0.04168158  0.07986826  0.26272741  1
  O2-  O193  1  0.03756944  0.08194350  0.59999773  1
  O2-  O194  1  0.04498197  0.08725745  0.93629814  1
  O2-  O195  1  0.04535864  0.58025831  0.26343471  1
  O2-  O196  1  0.04138366  0.58620703  0.61036278  1
  O2-  O197  1  0.05303994  0.58054232  0.93797812  1
  O2-  O198  1  0.54051018  0.09185439  0.26942798  1
  O2-  O199  1  0.53860170  0.08636593  0.59369213  1
  O2-  O200  1  0.53503831  0.08807111  0.93197029  1
  O2-  O201  1  0.54158935  0.58323098  0.26942829  1
  O2-  O202  1  0.54674184  0.57874393  0.59846327  1
  O2-  O203  1  0.54210635  0.58301800  0.94183838  1
  O2-  O204  1  0.16650161  0.21043992  0.26162604  1
  O2-  O205  1  0.16729898  0.20689943  0.59786712  1
  O2-  O206  1  0.16500581  0.20608358  0.93774921  1
  O2-  O207  1  0.16414510  0.71304195  0.26313124  1
  O2-  O208  1  0.16057500  0.70642685  0.60911620  1
  O2-  O209  1  0.16347017  0.70798983  0.93528570  1
  O2-  O210  1  0.66491002  0.20854159  0.27253154  1
  O2-  O211  1  0.66937959  0.21121511  0.59615501  1
  O2-  O212  1  0.66946600  0.20987015  0.93400122  1
  O2-  O213  1  0.66960501  0.69417763  0.27295296  1
  O2-  O214  1  0.67177275  0.70740314  0.59941725  1
  O2-  O215  1  0.66757879  0.69588241  0.94413335  1
  O2-  O216  1  0.08294520  0.44818671  0.06465352  1
  O2-  O217  1  0.08668171  0.44936390  0.38978363  1
  O2-  O218  1  0.08253353  0.45625399  0.73738474  1
  O2-  O219  1  0.08694809  0.96088356  0.06341174  1
  O2-  O220  1  0.08507854  0.95617271  0.39789839  1
  O2-  O221  1  0.08499175  0.96347247  0.73757245  1
  O2-  O222  1  0.58426855  0.45373316  0.06778779  1
  O2-  O223  1  0.57648924  0.45089856  0.40153114  1
  O2-  O224  1  0.58321471  0.44799141  0.72805988  1
  O2-  O225  1  0.58037526  0.96438301  0.06614556  1
  O2-  O226  1  0.57701147  0.96123958  0.40098525  1
  O2-  O227  1  0.57499129  0.95927829  0.73073631  1
  O2-  O228  1  0.20608136  0.33217970  0.06645719  1
  O2-  O229  1  0.21159719  0.33563583  0.39261014  1
  O2-  O230  1  0.20505200  0.32777854  0.73313989  1
  O2-  O231  1  0.20381881  0.83756282  0.06164326  1
  O2-  O232  1  0.21432615  0.83277254  0.39814074  1
  O2-  O233  1  0.20648732  0.83323402  0.73918663  1
  O2-  O234  1  0.71690840  0.33329838  0.06686506  1
  O2-  O235  1  0.70874855  0.33203523  0.40397302  1
  O2-  O236  1  0.70875708  0.33596334  0.72867101  1
  O2-  O237  1  0.70645420  0.83264219  0.06740781  1
  O2-  O238  1  0.69622907  0.82774092  0.39927160  1
  O2-  O239  1  0.70695725  0.83448054  0.73608612  1
  O2-  O240  1  0.45203673  0.41683150  0.27087354  1
  O2-  O241  1  0.44929724  0.41666881  0.60517373  1
  O2-  O242  1  0.45034805  0.41963459  0.94217049  1
  O2-  O243  1  0.45549019  0.92033775  0.26585979  1
  O2-  O244  1  0.44784616  0.92010806  0.59774298  1
  O2-  O245  1  0.45425379  0.91845454  0.93175095  1
  O2-  O246  1  0.95793285  0.41135001  0.26334220  1
  O2-  O247  1  0.95762014  0.41913636  0.60396603  1
  O2-  O248  1  0.95783263  0.41319168  0.93534398  1
  O2-  O249  1  0.95726340  0.91145892  0.26938813  1
  O2-  O250  1  0.96030443  0.91221262  0.60555160  1
  O2-  O251  1  0.96379343  0.91454342  0.92988908  1
  O2-  O252  1  0.33938666  0.29266676  0.26436265  1
  O2-  O253  1  0.33536891  0.29334553  0.60382939  1
  O2-  O254  1  0.33484618  0.29580236  0.93717225  1
  O2-  O255  1  0.33655617  0.78534253  0.26205508  1
  O2-  O256  1  0.32688424  0.78759866  0.60039228  1
  O2-  O257  1  0.33145550  0.78841988  0.93435776  1
  O2-  O258  1  0.83386573  0.29581628  0.27034153  1
  O2-  O259  1  0.83555184  0.30380726  0.60097744  1
  O2-  O260  1  0.84054665  0.29287462  0.93404230  1
  O2-  O261  1  0.83100394  0.79846646  0.27428075  1
  O2-  O262  1  0.83622296  0.79622453  0.60644122  1
  O2-  O263  1  0.83071059  0.79207874  0.93133089  1
  O2-  O264  1  0.41176988  0.04450896  0.06280363  1
  O2-  O265  1  0.41528128  0.05208327  0.39424556  1
  O2-  O266  1  0.41653165  0.05064124  0.72711740  1
  O2-  O267  1  0.41376477  0.54059733  0.07520320  1
  O2-  O268  1  0.41008497  0.54446707  0.39561147  1
  O2-  O269  1  0.42104488  0.54361183  0.73454946  1
  O2-  O270  1  0.91789490  0.04363038  0.06102397  1
  O2-  O271  1  0.92062585  0.04096398  0.39869904  1
  O2-  O272  1  0.91727351  0.04052966  0.73768456  1
  O2-  O273  1  0.91898188  0.54509127  0.06043715  1
  O2-  O274  1  0.92125931  0.53725547  0.39793597  1
  O2-  O275  1  0.91399192  0.53987460  0.74109654  1
  O2-  O276  1  0.29311198  0.16393984  0.06391200  1
  O2-  O277  1  0.29555512  0.16906027  0.39401699  1
  O2-  O278  1  0.29300173  0.16436084  0.73238514  1
  O2-  O279  1  0.28497147  0.66723518  0.07146323  1
  O2-  O280  1  0.28800493  0.66236180  0.39445517  1
  O2-  O281  1  0.28849448  0.66583981  0.73781265  1
  O2-  O282  1  0.80168952  0.16581892  0.06117443  1
  O2-  O283  1  0.79818578  0.16804874  0.40001150  1
  O2-  O284  1  0.80071827  0.17505805  0.72992739  1
  O2-  O285  1  0.80230908  0.66700650  0.06257334  1
  O2-  O286  1  0.80161888  0.66980377  0.40026652  1
  O2-  O287  1  0.79132849  0.66896314  0.73667581  1
