# generated using pymatgen
data_Ca2Al2SiO7
_symmetry_space_group_name_H-M   'P 1'
_cell_length_a   15.46576120
_cell_length_b   15.46777640
_cell_length_c   15.29013893
_cell_angle_alpha   89.99642165
_cell_angle_beta   89.99678652
_cell_angle_gamma   90.00403857
_symmetry_Int_Tables_number   1
_chemical_formula_structural   Ca2Al2SiO7
_chemical_formula_sum   'Ca48 Al48 Si24 O168'
_cell_volume   3657.72132488
_cell_formula_units_Z   24
loop_
 _symmetry_equiv_pos_site_id
 _symmetry_equiv_pos_as_xyz
  1  'x, y, z'
loop_
 _atom_type_symbol
 _atom_type_oxidation_number
  Ca2+  2.0
  Al0+  0.0
  Si0+  0.0
  O2-  -2.0
loop_
 _atom_site_type_symbol
 _atom_site_label
 _atom_site_symmetry_multiplicity
 _atom_site_fract_x
 _atom_site_fract_y
 _atom_site_fract_z
 _atom_site_occupancy
  Ca2+  Ca0  1  0.16609134  0.07572490  0.17273550  1
  Ca2+  Ca1  1  0.16587793  0.07675125  0.50094476  1
  Ca2+  Ca2  1  0.16284210  0.07606999  0.83769128  1
  Ca2+  Ca3  1  0.17711257  0.58740991  0.17562527  1
  Ca2+  Ca4  1  0.17228978  0.59321783  0.49924384  1
  Ca2+  Ca5  1  0.17287191  0.58172850  0.83918498  1
  Ca2+  Ca6  1  0.67391998  0.06894837  0.17530674  1
  Ca2+  Ca7  1  0.67784761  0.08122742  0.50144778  1
  Ca2+  Ca8  1  0.67613692  0.07673177  0.83738159  1
  Ca2+  Ca9  1  0.66510143  0.58518788  0.17354400  1
  Ca2+  Ca10  1  0.66800280  0.57958217  0.50571466  1
  Ca2+  Ca11  1  0.67282330  0.58110362  0.82964622  1
  Ca2+  Ca12  1  0.08819425  0.31727396  0.16375807  1
  Ca2+  Ca13  1  0.07842399  0.32009614  0.49529087  1
  Ca2+  Ca14  1  0.08101346  0.31809853  0.82497533  1
  Ca2+  Ca15  1  0.08402555  0.83752705  0.16529091  1
  Ca2+  Ca16  1  0.08122155  0.83660838  0.49739012  1
  Ca2+  Ca17  1  0.07594993  0.84204364  0.82917101  1
  Ca2+  Ca18  1  0.57609369  0.32988587  0.16785562  1
  Ca2+  Ca19  1  0.58132662  0.33430824  0.49403306  1
  Ca2+  Ca20  1  0.58319813  0.33313421  0.82743106  1
  Ca2+  Ca21  1  0.58302423  0.83632189  0.16627192  1
  Ca2+  Ca22  1  0.57254167  0.83248352  0.48975726  1
  Ca2+  Ca23  1  0.57461958  0.83882279  0.82772014  1
  Ca2+  Ca24  1  0.33776788  0.42742317  0.17371844  1
  Ca2+  Ca25  1  0.33643479  0.42096770  0.49781855  1
  Ca2+  Ca26  1  0.33229495  0.42522662  0.84008277  1
  Ca2+  Ca27  1  0.32359019  0.92662150  0.17697630  1
  Ca2+  Ca28  1  0.32295299  0.90707851  0.50132616  1
  Ca2+  Ca29  1  0.31986888  0.91827844  0.83981995  1
  Ca2+  Ca30  1  0.83190359  0.41829695  0.17197417  1
  Ca2+  Ca31  1  0.83154514  0.42382929  0.51382460  1
  Ca2+  Ca32  1  0.83591265  0.41699865  0.82793164  1
  Ca2+  Ca33  1  0.82547938  0.91350071  0.17222230  1
  Ca2+  Ca34  1  0.83410279  0.92393579  0.50311455  1
  Ca2+  Ca35  1  0.83710576  0.91778400  0.83706084  1
  Ca2+  Ca36  1  0.40324948  0.16848862  0.16525270  1
  Ca2+  Ca37  1  0.41393868  0.17371013  0.48957401  1
  Ca2+  Ca38  1  0.41759128  0.16091038  0.83146484  1
  Ca2+  Ca39  1  0.41410358  0.67290526  0.17075382  1
  Ca2+  Ca40  1  0.42059881  0.67657715  0.48958995  1
  Ca2+  Ca41  1  0.41517316  0.67348718  0.82763956  1
  Ca2+  Ca42  1  0.92841284  0.15482079  0.16709150  1
  Ca2+  Ca43  1  0.92391342  0.15728906  0.49867869  1
  Ca2+  Ca44  1  0.92803291  0.16429598  0.82209076  1
  Ca2+  Ca45  1  0.92640272  0.67351194  0.16211575  1
  Ca2+  Ca46  1  0.91830426  0.67131788  0.49546865  1
  Ca2+  Ca47  1  0.91461394  0.67926097  0.82635082  1
  Al0+  Al48  1  -0.00001176  0.00031787  -0.00474247  1
  Al0+  Al49  1  -0.00028247  -0.00028303  0.33557227  1
  Al0+  Al50  1  0.00068236  -0.00266083  0.66588609  1
  Al0+  Al51  1  -0.00033836  0.49965358  0.00029741  1
  Al0+  Al52  1  0.00005559  0.49974493  0.32826759  1
  Al0+  Al53  1  0.00261650  0.49930951  0.66989421  1
  Al0+  Al54  1  0.50111613  0.00088519  0.00518902  1
  Al0+  Al55  1  0.50008434  0.00196160  0.33597757  1
  Al0+  Al56  1  0.49898676  0.00176863  0.65963133  1
  Al0+  Al57  1  0.50149392  0.50003783  0.00206660  1
  Al0+  Al58  1  0.49943699  0.50003719  0.32977045  1
  Al0+  Al59  1  0.50052494  0.50009167  0.67157933  1
  Al0+  Al60  1  0.24960598  0.25258698  -0.00634446  1
  Al0+  Al61  1  0.24799340  0.25139239  0.32790276  1
  Al0+  Al62  1  0.25151061  0.25023525  0.66312950  1
  Al0+  Al63  1  0.25098561  0.74956204  0.00676806  1
  Al0+  Al64  1  0.25103092  0.74931666  0.33364118  1
  Al0+  Al65  1  0.24996690  0.75204263  0.66974074  1
  Al0+  Al66  1  0.74831703  0.25111514  0.00058140  1
  Al0+  Al67  1  0.74937968  0.25093025  0.33521712  1
  Al0+  Al68  1  0.74969832  0.25008198  0.67286024  1
  Al0+  Al69  1  0.74998254  0.74784635  -0.00153665  1
  Al0+  Al70  1  0.74874829  0.74869772  0.33433669  1
  Al0+  Al71  1  0.74881406  0.74869743  0.66599192  1
  Al0+  Al72  1  0.92940489  0.81824833  0.98696873  1
  Al0+  Al73  1  0.82438609  0.57312722  0.68206726  1
  Al0+  Al74  1  0.07079534  0.67793984  0.32051341  1
  Al0+  Al75  1  0.06995922  0.18039281  0.98449160  1
  Al0+  Al76  1  0.07150601  0.17736831  0.64878252  1
  Al0+  Al77  1  0.67841564  0.42881416  0.68228781  1
  Al0+  Al78  1  0.92830584  0.32166995  0.65222057  1
  Al0+  Al79  1  0.18012658  0.92834092  0.35038639  1
  Al0+  Al80  1  0.92755171  0.81920127  0.65199519  1
  Al0+  Al81  1  0.18089460  0.92983376  0.68174339  1
  Al0+  Al82  1  0.82067455  0.06810414  0.68165053  1
  Al0+  Al83  1  0.67769188  0.92548655  0.35046942  1
  Al0+  Al84  1  0.32078997  0.56928200  0.34911709  1
  Al0+  Al85  1  0.57120289  0.67977156  0.31842601  1
  Al0+  Al86  1  0.42822364  0.82149368  0.65433201  1
  Al0+  Al87  1  0.42944792  0.31943676  0.31907671  1
  Al0+  Al88  1  0.42865745  0.82426907  0.31607141  1
  Al0+  Al89  1  0.06863757  0.17846471  0.31860915  1
  Al0+  Al90  1  0.82070073  0.07067048  0.34805713  1
  Al0+  Al91  1  0.67990001  0.92751371  0.01182655  1
  Al0+  Al92  1  0.32019982  0.07499335  0.34891276  1
  Al0+  Al93  1  0.32142114  0.07249434  0.01305535  1
  Al0+  Al94  1  0.32188003  0.57038417  0.01492214  1
  Al0+  Al95  1  0.17638660  0.93019840  0.01578310  1
  Si0+  Si96  1  0.07350827  0.67717861  0.65311710  1
  Si0+  Si97  1  0.56983907  0.67680142  0.65160435  1
  Si0+  Si98  1  0.57155591  0.17967784  0.65200201  1
  Si0+  Si99  1  0.32338757  0.07522855  0.68197876  1
  Si0+  Si100  1  0.31974711  0.57039084  0.68132171  1
  Si0+  Si101  1  0.18043883  0.42566658  0.68157897  1
  Si0+  Si102  1  0.57116155  0.67714432  0.98245916  1
  Si0+  Si103  1  0.42992132  0.82138377  0.98622595  1
  Si0+  Si104  1  0.92597959  0.32315775  0.31639399  1
  Si0+  Si105  1  0.92837666  0.82115628  0.31756073  1
  Si0+  Si106  1  0.57188101  0.17874257  0.98464641  1
  Si0+  Si107  1  0.57471591  0.17879380  0.31612685  1
  Si0+  Si108  1  0.43006891  0.32311038  0.65263827  1
  Si0+  Si109  1  0.82311334  0.56994026  0.34638549  1
  Si0+  Si110  1  0.17616073  0.42845373  0.35004947  1
  Si0+  Si111  1  0.92472297  0.32417561  0.98267218  1
  Si0+  Si112  1  0.82059709  0.57035437  0.01597704  1
  Si0+  Si113  1  0.67934693  0.43034657  0.34662100  1
  Si0+  Si114  1  0.67908052  0.42837251  0.01769361  1
  Si0+  Si115  1  0.43141262  0.32237632  0.98334083  1
  Si0+  Si116  1  0.82146574  0.07295514  0.01500858  1
  Si0+  Si117  1  0.07444080  0.67672273  0.98355401  1
  Si0+  Si118  1  0.67507595  0.92818171  0.68186143  1
  Si0+  Si119  1  0.17740023  0.42894211  0.01623850  1
  O2-  O120  1  0.24871259  0.00263591  0.06386515  1
  O2-  O121  1  0.25409155  -0.00111394  0.40055162  1
  O2-  O122  1  0.25508205  0.00668400  0.72573314  1
  O2-  O123  1  0.24359779  0.49917176  0.06117818  1
  O2-  O124  1  0.24315165  0.49783221  0.39656006  1
  O2-  O125  1  0.24959328  0.49900038  0.72384234  1
  O2-  O126  1  0.75535166  0.00153360  0.05799528  1
  O2-  O127  1  0.74928323  -0.00156596  0.39876791  1
  O2-  O128  1  0.74709555  -0.00826025  0.72843099  1
  O2-  O129  1  0.75265615  0.49664703  0.05922752  1
  O2-  O130  1  0.75187317  0.49925342  0.38814647  1
  O2-  O131  1  0.75321237  0.49886120  0.73161209  1
  O2-  O132  1  -0.00797754  0.25239115  0.27209046  1
  O2-  O133  1  -0.00335426  0.24807537  0.60031565  1
  O2-  O134  1  -0.00720507  0.25461076  0.94030095  1
  O2-  O135  1  -0.00163998  0.75395517  0.27301340  1
  O2-  O136  1  -0.00051661  0.73986764  0.60924806  1
  O2-  O137  1  0.00728660  0.74626960  0.93936878  1
  O2-  O138  1  0.49940445  0.24049437  0.27124203  1
  O2-  O139  1  0.50061300  0.25187229  0.61129917  1
  O2-  O140  1  0.49858146  0.24774902  0.94118754  1
  O2-  O141  1  0.50404352  0.75480502  0.26606820  1
  O2-  O142  1  0.50561218  0.74926608  0.60864722  1
  O2-  O143  1  0.50028088  0.74933555  0.94208011  1
  O2-  O144  1  0.06915410  0.18156713  0.09756599  1
  O2-  O145  1  0.06854765  0.18019937  0.43106503  1
  O2-  O146  1  0.07257192  0.18004935  0.76271946  1
  O2-  O147  1  0.07150211  0.67353843  0.08886092  1
  O2-  O148  1  0.06558014  0.67417337  0.43354223  1
  O2-  O149  1  0.07691307  0.67868487  0.75889178  1
  O2-  O150  1  0.57591701  0.18255620  0.08900787  1
  O2-  O151  1  0.57905312  0.18612107  0.42166001  1
  O2-  O152  1  0.56858595  0.17801199  0.75758077  1
  O2-  O153  1  0.57253568  0.67455116  0.08691297  1
  O2-  O154  1  0.56924472  0.67565206  0.43198339  1
  O2-  O155  1  0.56674202  0.67444373  0.75773590  1
  O2-  O156  1  0.17770766  0.43007221  0.24423704  1
  O2-  O157  1  0.18301635  0.42354978  0.57696735  1
  O2-  O158  1  0.18038576  0.43014486  0.91017856  1
  O2-  O159  1  0.17789488  0.93034687  0.23684959  1
  O2-  O160  1  0.18262633  0.92553116  0.56953881  1
  O2-  O161  1  0.17776667  0.93001777  0.90187741  1
  O2-  O162  1  0.68079214  0.43016040  0.24095218  1
  O2-  O163  1  0.67270419  0.43301761  0.56881888  1
  O2-  O164  1  0.67635361  0.42855747  0.91313919  1
  O2-  O165  1  0.68265441  0.92530500  0.23627007  1
  O2-  O166  1  0.67348368  0.93190267  0.57702569  1
  O2-  O167  1  0.67745510  0.93043030  0.89853278  1
  O2-  O168  1  0.43420189  0.32485205  0.08798917  1
  O2-  O169  1  0.43407506  0.32223252  0.43264021  1
  O2-  O170  1  0.43027400  0.32472074  0.75805604  1
  O2-  O171  1  0.43181438  0.82049104  0.09038139  1
  O2-  O172  1  0.42806958  0.81764225  0.42988343  1
  O2-  O173  1  0.42865129  0.81896607  0.76844194  1
  O2-  O174  1  0.92310178  0.32640005  0.08820710  1
  O2-  O175  1  0.92655216  0.32777077  0.42124621  1
  O2-  O176  1  0.93292211  0.32013885  0.76616397  1
  O2-  O177  1  0.92634879  0.81402271  0.09983254  1
  O2-  O178  1  0.92762180  0.81872553  0.42309934  1
  O2-  O179  1  0.92917158  0.81940644  0.76546219  1
  O2-  O180  1  0.31371189  0.07602875  0.23534787  1
  O2-  O181  1  0.32385069  0.07925888  0.57718068  1
  O2-  O182  1  0.32449583  0.06858845  0.89916452  1
  O2-  O183  1  0.32102131  0.56657206  0.23607400  1
  O2-  O184  1  0.32101628  0.56923209  0.57669183  1
  O2-  O185  1  0.32232352  0.56832800  0.90080121  1
  O2-  O186  1  0.81955692  0.07004475  0.23386150  1
  O2-  O187  1  0.81804861  0.06827441  0.56914810  1
  O2-  O188  1  0.81851345  0.07424937  0.90934907  1
  O2-  O189  1  0.82301784  0.56774262  0.24074639  1
  O2-  O190  1  0.82213676  0.57201795  0.56824051  1
  O2-  O191  1  0.81907591  0.57035771  0.91135605  1
  O2-  O192  1  0.03651253  0.08202449  0.26458630  1
  O2-  O193  1  0.04245098  0.07909068  0.59833427  1
  O2-  O194  1  0.03970385  0.08455712  0.92940944  1
  O2-  O195  1  0.03928542  0.58282580  0.26231807  1
  O2-  O196  1  0.05699251  0.58098533  0.60950092  1
  O2-  O197  1  0.04795753  0.58253018  0.93751266  1
  O2-  O198  1  0.55788300  0.08252991  0.27411058  1
  O2-  O199  1  0.54466020  0.08991357  0.60094704  1
  O2-  O200  1  0.54528641  0.08668254  0.93686119  1
  O2-  O201  1  0.54025007  0.58258571  0.26341462  1
  O2-  O202  1  0.53951774  0.58446650  0.60547990  1
  O2-  O203  1  0.54129171  0.58548659  0.93497932  1
  O2-  O204  1  0.16258094  0.21350852  0.26234749  1
  O2-  O205  1  0.16995510  0.20952907  0.59791595  1
  O2-  O206  1  0.16534183  0.21391776  0.92813675  1
  O2-  O207  1  0.16800019  0.70547600  0.26767671  1
  O2-  O208  1  0.16475392  0.70887538  0.60578702  1
  O2-  O209  1  0.17007212  0.69904751  0.93995406  1
  O2-  O210  1  0.66443944  0.21320791  0.26631036  1
  O2-  O211  1  0.66288232  0.20882942  0.60597167  1
  O2-  O212  1  0.66222601  0.21025111  0.93505188  1
  O2-  O213  1  0.67166544  0.70253157  0.26515616  1
  O2-  O214  1  0.66523546  0.69518493  0.60776523  1
  O2-  O215  1  0.66288901  0.70345891  0.93449739  1
  O2-  O216  1  0.08222942  0.44938303  0.06121918  1
  O2-  O217  1  0.08142991  0.45254529  0.39403841  1
  O2-  O218  1  0.08963232  0.45135551  0.73155932  1
  O2-  O219  1  0.07727850  0.95858872  0.06693359  1
  O2-  O220  1  0.08139357  0.95727843  0.40158062  1
  O2-  O221  1  0.08428446  0.96003449  0.73501752  1
  O2-  O222  1  0.58888241  0.45940363  0.06599930  1
  O2-  O223  1  0.58849047  0.45990734  0.39357078  1
  O2-  O224  1  0.58149305  0.46072250  0.73952482  1
  O2-  O225  1  0.58574042  0.96021525  0.06824031  1
  O2-  O226  1  0.57894009  0.95326321  0.40144504  1
  O2-  O227  1  0.58238089  0.95972280  0.72809806  1
  O2-  O228  1  0.20648283  0.33614617  0.06070294  1
  O2-  O229  1  0.20461098  0.33608071  0.39541138  1
  O2-  O230  1  0.21291499  0.33613463  0.73141639  1
  O2-  O231  1  0.20252357  0.83072946  0.06672396  1
  O2-  O232  1  0.20682458  0.82898739  0.40217879  1
  O2-  O233  1  0.21362144  0.83434519  0.73868710  1
  O2-  O234  1  0.70416202  0.33601009  0.06587558  1
  O2-  O235  1  0.70356210  0.33855712  0.39485125  1
  O2-  O236  1  0.70245608  0.33091378  0.73842279  1
  O2-  O237  1  0.70911711  0.82992804  0.06443702  1
  O2-  O238  1  0.70485987  0.82652437  0.40302449  1
  O2-  O239  1  0.69349865  0.83178745  0.72458823  1
  O2-  O240  1  0.46667914  0.41285763  0.26270311  1
  O2-  O241  1  0.45860138  0.41509260  0.60587560  1
  O2-  O242  1  0.46527663  0.41234257  0.93467483  1
  O2-  O243  1  0.45254186  0.92519185  0.26634472  1
  O2-  O244  1  0.45452095  0.91816376  0.59916551  1
  O2-  O245  1  0.46000527  0.91294439  0.93915993  1
  O2-  O246  1  0.95279477  0.41503488  0.26643278  1
  O2-  O247  1  0.95798875  0.42105094  0.60144912  1
  O2-  O248  1  0.95043162  0.41836280  0.93702000  1
  O2-  O249  1  0.95244419  0.91466488  0.27176503  1
  O2-  O250  1  0.96190906  0.91342604  0.59765205  1
  O2-  O251  1  0.95607406  0.91572207  0.93285490  1
  O2-  O252  1  0.33206662  0.29589874  0.26344589  1
  O2-  O253  1  0.33901322  0.29724692  0.60380682  1
  O2-  O254  1  0.33861646  0.30139296  0.93469646  1
  O2-  O255  1  0.33218068  0.78932164  0.26367843  1
  O2-  O256  1  0.33364203  0.78493703  0.60126077  1
  O2-  O257  1  0.33740571  0.79205154  0.94012422  1
  O2-  O258  1  0.83104707  0.30028156  0.27085276  1
  O2-  O259  1  0.82577957  0.30036459  0.60547662  1
  O2-  O260  1  0.82965306  0.30083656  0.93791022  1
  O2-  O261  1  0.83549049  0.79236152  0.27196734  1
  O2-  O262  1  0.82947701  0.79177789  0.59886541  1
  O2-  O263  1  0.83408638  0.78371880  0.93133326  1
  O2-  O264  1  0.42009238  0.04800945  0.06686574  1
  O2-  O265  1  0.42328850  0.05910302  0.39612177  1
  O2-  O266  1  0.41816707  0.04939092  0.72627209  1
  O2-  O267  1  0.41715619  0.53433570  0.06763937  1
  O2-  O268  1  0.41642707  0.53299077  0.40163464  1
  O2-  O269  1  0.41051274  0.54191724  0.73089004  1
  O2-  O270  1  0.91557033  0.04830346  0.05813622  1
  O2-  O271  1  0.91758318  0.04121520  0.40167139  1
  O2-  O272  1  0.91697348  0.03663569  0.73497364  1
  O2-  O273  1  0.91379501  0.54535451  0.06291771  1
  O2-  O274  1  0.91433091  0.54145307  0.39370111  1
  O2-  O275  1  0.92331235  0.54707529  0.73629177  1
  O2-  O276  1  0.29723069  0.17501548  0.05892796  1
  O2-  O277  1  0.28938816  0.17406179  0.39996455  1
  O2-  O278  1  0.30030867  0.16963137  0.72904726  1
  O2-  O279  1  0.29551893  0.66671392  0.06979020  1
  O2-  O280  1  0.29090458  0.66536693  0.40304906  1
  O2-  O281  1  0.29038940  0.66063837  0.73067072  1
  O2-  O282  1  0.79377268  0.16612214  0.06101383  1
  O2-  O283  1  0.79170559  0.16992672  0.40018263  1
  O2-  O284  1  0.78910683  0.16396420  0.73673606  1
  O2-  O285  1  0.78890329  0.65977465  0.06447708  1
  O2-  O286  1  0.79631768  0.66120871  0.39383991  1
  O2-  O287  1  0.79048207  0.66973911  0.73719238  1
