# generated using pymatgen
data_Ca2Al2SiO7
_symmetry_space_group_name_H-M   'P 1'
_cell_length_a   15.46590719
_cell_length_b   15.46249658
_cell_length_c   15.28794818
_cell_angle_alpha   89.99474499
_cell_angle_beta   89.97841430
_cell_angle_gamma   90.00865850
_symmetry_Int_Tables_number   1
_chemical_formula_structural   Ca2Al2SiO7
_chemical_formula_sum   'Ca48 Al48 Si24 O168'
_cell_volume   3655.98311041
_cell_formula_units_Z   24
loop_
 _symmetry_equiv_pos_site_id
 _symmetry_equiv_pos_as_xyz
  1  'x, y, z'
loop_
 _atom_type_symbol
 _atom_type_oxidation_number
  Ca2+  2.0
  Al0+  0.0
  Si0+  0.0
  O2-  -2.0
loop_
 _atom_site_type_symbol
 _atom_site_label
 _atom_site_symmetry_multiplicity
 _atom_site_fract_x
 _atom_site_fract_y
 _atom_site_fract_z
 _atom_site_occupancy
  Ca2+  Ca0  1  0.17261709  0.08545541  0.17038130  1
  Ca2+  Ca1  1  0.17316405  0.08276015  0.49851320  1
  Ca2+  Ca2  1  0.16685923  0.08481371  0.83924558  1
  Ca2+  Ca3  1  0.18075631  0.58670884  0.16851700  1
  Ca2+  Ca4  1  0.17884034  0.58734211  0.50542812  1
  Ca2+  Ca5  1  0.18042392  0.58209892  0.83795514  1
  Ca2+  Ca6  1  0.67199887  0.07968872  0.16754060  1
  Ca2+  Ca7  1  0.67668555  0.07527443  0.50821321  1
  Ca2+  Ca8  1  0.67135660  0.07575797  0.84200750  1
  Ca2+  Ca9  1  0.65813278  0.57533133  0.17125727  1
  Ca2+  Ca10  1  0.67235467  0.58443829  0.49706905  1
  Ca2+  Ca11  1  0.66653383  0.57920054  0.83884789  1
  Ca2+  Ca12  1  0.07931865  0.32549927  0.15943517  1
  Ca2+  Ca13  1  0.07404813  0.33591537  0.50026409  1
  Ca2+  Ca14  1  0.07760368  0.32661324  0.82878429  1
  Ca2+  Ca15  1  0.06996680  0.83506885  0.16278019  1
  Ca2+  Ca16  1  0.07370570  0.83035160  0.49324973  1
  Ca2+  Ca17  1  0.07525862  0.83315714  0.83417177  1
  Ca2+  Ca18  1  0.58505433  0.33100603  0.15636927  1
  Ca2+  Ca19  1  0.58041394  0.33819473  0.49813779  1
  Ca2+  Ca20  1  0.58103107  0.33340793  0.83691313  1
  Ca2+  Ca21  1  0.58241904  0.82024985  0.15627502  1
  Ca2+  Ca22  1  0.58429000  0.82828847  0.49750670  1
  Ca2+  Ca23  1  0.57960218  0.83498639  0.83178962  1
  Ca2+  Ca24  1  0.34308632  0.42794118  0.16697953  1
  Ca2+  Ca25  1  0.33794292  0.42920856  0.50594783  1
  Ca2+  Ca26  1  0.34764196  0.42499466  0.83793185  1
  Ca2+  Ca27  1  0.33679829  0.92102736  0.16871403  1
  Ca2+  Ca28  1  0.33772440  0.92044629  0.50537524  1
  Ca2+  Ca29  1  0.33438471  0.90916800  0.83936034  1
  Ca2+  Ca30  1  0.81673039  0.42108648  0.17421785  1
  Ca2+  Ca31  1  0.82805643  0.42407199  0.50782960  1
  Ca2+  Ca32  1  0.83136547  0.42000233  0.83793117  1
  Ca2+  Ca33  1  0.83376518  0.92145820  0.16753439  1
  Ca2+  Ca34  1  0.83007873  0.92324081  0.50699297  1
  Ca2+  Ca35  1  0.82057084  0.92152315  0.84185248  1
  Ca2+  Ca36  1  0.42437665  0.17296752  0.15511073  1
  Ca2+  Ca37  1  0.41686918  0.17194714  0.49510611  1
  Ca2+  Ca38  1  0.42564263  0.17724836  0.82910195  1
  Ca2+  Ca39  1  0.42453855  0.66490050  0.15807628  1
  Ca2+  Ca40  1  0.41957232  0.66830175  0.49452981  1
  Ca2+  Ca41  1  0.42107071  0.67067996  0.83155299  1
  Ca2+  Ca42  1  0.91947376  0.15914359  0.15809746  1
  Ca2+  Ca43  1  0.90689089  0.16895522  0.49824330  1
  Ca2+  Ca44  1  0.91429231  0.16599813  0.83096195  1
  Ca2+  Ca45  1  0.90487331  0.67881128  0.16543738  1
  Ca2+  Ca46  1  0.90827633  0.67007886  0.49060243  1
  Ca2+  Ca47  1  0.90995024  0.67181867  0.82931272  1
  Al0+  Al48  1  0.00139377  -0.00112947  -0.00605034  1
  Al0+  Al49  1  0.00035093  0.00040223  0.33418064  1
  Al0+  Al50  1  0.00281516  -0.00098373  0.66757495  1
  Al0+  Al51  1  0.00285382  0.50065490  0.00237720  1
  Al0+  Al52  1  0.00065884  0.49982266  0.33173907  1
  Al0+  Al53  1  0.00231882  0.49858172  0.66700365  1
  Al0+  Al54  1  0.50050056  -0.00002434  -0.00207867  1
  Al0+  Al55  1  0.49962211  0.00199684  0.33793563  1
  Al0+  Al56  1  0.49952406  -0.00008455  0.66516197  1
  Al0+  Al57  1  0.50198202  0.50163394  0.00055811  1
  Al0+  Al58  1  0.49787651  0.50043041  0.33910203  1
  Al0+  Al59  1  0.50184041  0.50051713  0.66541077  1
  Al0+  Al60  1  0.24786972  0.25170410  -0.00810165  1
  Al0+  Al61  1  0.24838911  0.25003483  0.33746475  1
  Al0+  Al62  1  0.24966881  0.24995372  0.66054047  1
  Al0+  Al63  1  0.24861090  0.74999695  0.00355520  1
  Al0+  Al64  1  0.24726770  0.75130766  0.33629513  1
  Al0+  Al65  1  0.25112287  0.75031829  0.66650512  1
  Al0+  Al66  1  0.75162591  0.25100982  0.00350623  1
  Al0+  Al67  1  0.74744467  0.24956472  0.34062196  1
  Al0+  Al68  1  0.75118536  0.25005122  0.66532789  1
  Al0+  Al69  1  0.74944043  0.75142105  -0.00636032  1
  Al0+  Al70  1  0.74676015  0.74918942  0.32640363  1
  Al0+  Al71  1  0.74903281  0.74960767  0.67254283  1
  Al0+  Al72  1  0.42956873  0.32182230  0.98673281  1
  Al0+  Al73  1  0.82208155  0.06914843  0.34745358  1
  Al0+  Al74  1  0.56706324  0.67942719  0.31956327  1
  Al0+  Al75  1  0.82202005  0.06933087  0.01503141  1
  Al0+  Al76  1  0.82292977  0.07175082  0.68300297  1
  Al0+  Al77  1  0.32020870  0.57001087  0.01342743  1
  Al0+  Al78  1  0.82323337  0.57005960  0.68038220  1
  Al0+  Al79  1  0.67591952  0.92752308  0.01777813  1
  Al0+  Al80  1  0.42871508  0.82047684  0.65130643  1
  Al0+  Al81  1  0.07041742  0.17893301  0.98674495  1
  Al0+  Al82  1  0.67722398  0.42810846  0.35074957  1
  Al0+  Al83  1  0.68136015  0.43111512  0.01240942  1
  Al0+  Al84  1  0.43022434  0.32153295  0.65039891  1
  Al0+  Al85  1  0.57453392  0.17809212  0.98600579  1
  Al0+  Al86  1  0.67732892  0.92888260  0.68235965  1
  Al0+  Al87  1  0.92927420  0.32027512  0.65294051  1
  Al0+  Al88  1  0.32170281  0.07144994  0.34598361  1
  Al0+  Al89  1  0.42706294  0.82125191  0.98739316  1
  Al0+  Al90  1  0.82048891  0.57185924  0.34546022  1
  Al0+  Al91  1  0.92881610  0.82070787  0.32073442  1
  Al0+  Al92  1  0.32183038  0.57065822  0.68191712  1
  Al0+  Al93  1  0.92961287  0.81946585  0.98435443  1
  Al0+  Al94  1  0.31875140  0.57113717  0.34783438  1
  Al0+  Al95  1  0.57140952  0.67835982  0.98304640  1
  Si0+  Si96  1  0.17652569  0.42622444  0.35088752  1
  Si0+  Si97  1  0.07388517  0.67652018  0.31576169  1
  Si0+  Si98  1  0.57343028  0.67806285  0.64793563  1
  Si0+  Si99  1  0.06986721  0.18089279  0.31890985  1
  Si0+  Si100  1  0.07248105  0.17543082  0.64600570  1
  Si0+  Si101  1  0.17916896  0.92958180  0.01509500  1
  Si0+  Si102  1  0.57182913  0.17766623  0.64796616  1
  Si0+  Si103  1  0.67885725  0.42772248  0.68454281  1
  Si0+  Si104  1  0.17921672  0.42678082  0.68387749  1
  Si0+  Si105  1  0.82558812  0.57351105  0.01588768  1
  Si0+  Si106  1  0.57113530  0.17855421  0.31940684  1
  Si0+  Si107  1  0.17663761  0.42608089  0.01707747  1
  Si0+  Si108  1  0.42559464  0.82452744  0.31790815  1
  Si0+  Si109  1  0.32008570  0.07274259  0.68195288  1
  Si0+  Si110  1  0.92629277  0.32165456  0.31835735  1
  Si0+  Si111  1  0.92921897  0.81917618  0.65189340  1
  Si0+  Si112  1  0.07174080  0.67922247  0.65244866  1
  Si0+  Si113  1  0.42793601  0.31962451  0.31956953  1
  Si0+  Si114  1  0.67732904  0.92724171  0.34895379  1
  Si0+  Si115  1  0.18081766  0.92867067  0.68229445  1
  Si0+  Si116  1  0.17754731  0.92975159  0.35018524  1
  Si0+  Si117  1  0.32015193  0.07372061  0.01120045  1
  Si0+  Si118  1  0.07323968  0.67728734  0.98334599  1
  Si0+  Si119  1  0.92856001  0.32386248  0.98590496  1
  O2-  O120  1  0.25215730  -0.00011974  0.05503315  1
  O2-  O121  1  0.25153822  -0.00717723  0.39420934  1
  O2-  O122  1  0.25100494  0.00029180  0.72481258  1
  O2-  O123  1  0.24693990  0.49322644  0.06051389  1
  O2-  O124  1  0.24207384  0.49808732  0.39462885  1
  O2-  O125  1  0.25154355  0.49115547  0.72817012  1
  O2-  O126  1  0.74883608  -0.00037239  0.06680233  1
  O2-  O127  1  0.74809540  -0.00620289  0.39341876  1
  O2-  O128  1  0.74938349  0.00140190  0.73131537  1
  O2-  O129  1  0.75634261  0.50559337  0.05923677  1
  O2-  O130  1  0.75279771  0.49783838  0.39853947  1
  O2-  O131  1  0.74995309  0.49461390  0.72731600  1
  O2-  O132  1  -0.00348717  0.24918218  0.27629403  1
  O2-  O133  1  0.00032648  0.24176020  0.60400491  1
  O2-  O134  1  -0.00441955  0.25354666  0.94155190  1
  O2-  O135  1  0.00058420  0.74174279  0.27416629  1
  O2-  O136  1  -0.00359008  0.74494231  0.60854218  1
  O2-  O137  1  -0.00037363  0.73955525  0.93783279  1
  O2-  O138  1  0.49994308  0.24992752  0.27761556  1
  O2-  O139  1  0.50409713  0.24694491  0.60195307  1
  O2-  O140  1  0.50046146  0.24871745  0.93682415  1
  O2-  O141  1  0.49150486  0.75432666  0.27384785  1
  O2-  O142  1  0.50376215  0.74672055  0.60447758  1
  O2-  O143  1  0.50058334  0.75276908  0.93523189  1
  O2-  O144  1  0.07242583  0.17986495  0.10046626  1
  O2-  O145  1  0.07167892  0.18190690  0.42385304  1
  O2-  O146  1  0.07606098  0.17628375  0.75130272  1
  O2-  O147  1  0.07614884  0.68065300  0.08873876  1
  O2-  O148  1  0.07746387  0.67930556  0.42161997  1
  O2-  O149  1  0.07301201  0.68274615  0.75740378  1
  O2-  O150  1  0.57153437  0.17938301  0.10043821  1
  O2-  O151  1  0.56916905  0.17721942  0.42446312  1
  O2-  O152  1  0.56920806  0.17752907  0.75316765  1
  O2-  O153  1  0.56729591  0.67605633  0.09692845  1
  O2-  O154  1  0.56748752  0.68164518  0.43290836  1
  O2-  O155  1  0.57249556  0.67641641  0.75305774  1
  O2-  O156  1  0.17776552  0.42213848  0.24553435  1
  O2-  O157  1  0.17753864  0.42957125  0.57807364  1
  O2-  O158  1  0.17228913  0.42740780  0.91186551  1
  O2-  O159  1  0.17529976  0.93257116  0.24471331  1
  O2-  O160  1  0.17947652  0.92916168  0.57713227  1
  O2-  O161  1  0.17872559  0.92905833  0.90966227  1
  O2-  O162  1  0.67684984  0.42639461  0.23728684  1
  O2-  O163  1  0.67892177  0.42896919  0.57887883  1
  O2-  O164  1  0.68345671  0.43116561  0.89922882  1
  O2-  O165  1  0.67530570  0.93005920  0.24397992  1
  O2-  O166  1  0.68088940  0.92756255  0.56785831  1
  O2-  O167  1  0.67740475  0.92886938  0.90439293  1
  O2-  O168  1  0.42863794  0.31953172  0.10101056  1
  O2-  O169  1  0.42785914  0.31754794  0.42486012  1
  O2-  O170  1  0.43103071  0.31992193  0.76293051  1
  O2-  O171  1  0.42394743  0.81935127  0.10125212  1
  O2-  O172  1  0.42677068  0.82428875  0.42369721  1
  O2-  O173  1  0.42495243  0.81811465  0.76363942  1
  O2-  O174  1  0.93144603  0.32479832  0.09169832  1
  O2-  O175  1  0.92944922  0.32177696  0.42346072  1
  O2-  O176  1  0.93379370  0.32202279  0.76584694  1
  O2-  O177  1  0.93322542  0.82084020  0.09771797  1
  O2-  O178  1  0.93190167  0.82097571  0.43444209  1
  O2-  O179  1  0.93314168  0.81951741  0.75663197  1
  O2-  O180  1  0.31884764  0.07378427  0.23279118  1
  O2-  O181  1  0.31719059  0.07195703  0.57649212  1
  O2-  O182  1  0.31616942  0.07431376  0.90610773  1
  O2-  O183  1  0.31862702  0.56948437  0.23487688  1
  O2-  O184  1  0.31797500  0.57139552  0.56853318  1
  O2-  O185  1  0.31791041  0.56998577  0.90040886  1
  O2-  O186  1  0.82440205  0.06885635  0.23498103  1
  O2-  O187  1  0.82206364  0.06766285  0.56877035  1
  O2-  O188  1  0.82276621  0.06762002  0.90185696  1
  O2-  O189  1  0.81934122  0.57009158  0.23221338  1
  O2-  O190  1  0.82242084  0.57100046  0.56734474  1
  O2-  O191  1  0.82839737  0.56899078  0.91007037  1
  O2-  O192  1  0.04550826  0.08803507  0.27229961  1
  O2-  O193  1  0.05123649  0.08005093  0.60076953  1
  O2-  O194  1  0.04327245  0.08328304  0.92984141  1
  O2-  O195  1  0.05598545  0.58081859  0.27087056  1
  O2-  O196  1  0.05129184  0.58541189  0.60638162  1
  O2-  O197  1  0.05512619  0.58100483  0.93946474  1
  O2-  O198  1  0.54248022  0.08668060  0.27237253  1
  O2-  O199  1  0.54422897  0.08503651  0.60061952  1
  O2-  O200  1  0.54567262  0.08085434  0.93246187  1
  O2-  O201  1  0.53397963  0.58183557  0.26837698  1
  O2-  O202  1  0.54822006  0.58468782  0.60155817  1
  O2-  O203  1  0.53999511  0.58185508  0.92910619  1
  O2-  O204  1  0.16132621  0.21119639  0.27111079  1
  O2-  O205  1  0.16427679  0.20450363  0.59731638  1
  O2-  O206  1  0.16417357  0.21020790  0.92733429  1
  O2-  O207  1  0.16511430  0.70871199  0.26749498  1
  O2-  O208  1  0.16051288  0.71365095  0.60264572  1
  O2-  O209  1  0.16351203  0.71029428  0.93522818  1
  O2-  O210  1  0.66339125  0.20630839  0.27314978  1
  O2-  O211  1  0.66611895  0.20228437  0.60291733  1
  O2-  O212  1  0.67218809  0.20917753  0.93370605  1
  O2-  O213  1  0.66248674  0.70760801  0.26255144  1
  O2-  O214  1  0.66713415  0.70649403  0.60256180  1
  O2-  O215  1  0.67023639  0.70199692  0.92981960  1
  O2-  O216  1  0.08455703  0.45259474  0.06721737  1
  O2-  O217  1  0.08176203  0.44940726  0.39592607  1
  O2-  O218  1  0.08792861  0.45579266  0.73216387  1
  O2-  O219  1  0.08916639  0.96111814  0.06289478  1
  O2-  O220  1  0.08779490  0.96216161  0.40022933  1
  O2-  O221  1  0.08934720  0.95572156  0.73094816  1
  O2-  O222  1  0.58550506  0.46169643  0.06782225  1
  O2-  O223  1  0.58046431  0.45919135  0.40479261  1
  O2-  O224  1  0.58619754  0.45607123  0.73005916  1
  O2-  O225  1  0.57651572  0.95466072  0.06991686  1
  O2-  O226  1  0.58500254  0.95473995  0.39741997  1
  O2-  O227  1  0.57780178  0.95673873  0.73291143  1
  O2-  O228  1  0.20063554  0.33126494  0.06171185  1
  O2-  O229  1  0.20373413  0.33468716  0.40044070  1
  O2-  O230  1  0.20019182  0.33029634  0.72560790  1
  O2-  O231  1  0.20406749  0.83855590  0.06522293  1
  O2-  O232  1  0.19582561  0.83475270  0.39640839  1
  O2-  O233  1  0.20883281  0.83778902  0.73071580  1
  O2-  O234  1  0.71134773  0.33547560  0.06916552  1
  O2-  O235  1  0.70295453  0.33014071  0.40565699  1
  O2-  O236  1  0.70236950  0.33315360  0.72832176  1
  O2-  O237  1  0.70689929  0.82780607  0.06673504  1
  O2-  O238  1  0.70177354  0.83294417  0.39286260  1
  O2-  O239  1  0.70538463  0.83124861  0.73570273  1
  O2-  O240  1  0.45417514  0.41270183  0.27535419  1
  O2-  O241  1  0.46171334  0.41839271  0.59653067  1
  O2-  O242  1  0.46243651  0.41811231  0.93397604  1
  O2-  O243  1  0.45123963  0.91942715  0.27426961  1
  O2-  O244  1  0.45605516  0.91888039  0.59786602  1
  O2-  O245  1  0.44896256  0.92113134  0.93491291  1
  O2-  O246  1  0.95505060  0.41263197  0.26963634  1
  O2-  O247  1  0.96545402  0.41553143  0.59738104  1
  O2-  O248  1  0.95665897  0.41708579  0.93938546  1
  O2-  O249  1  0.96625955  0.91558315  0.26682863  1
  O2-  O250  1  0.96238450  0.90998820  0.60477185  1
  O2-  O251  1  0.96884024  0.91170992  0.92827909  1
  O2-  O252  1  0.33555203  0.29090875  0.27410401  1
  O2-  O253  1  0.33296391  0.29136959  0.59615183  1
  O2-  O254  1  0.33105022  0.29768436  0.93223518  1
  O2-  O255  1  0.32906047  0.80383816  0.27582202  1
  O2-  O256  1  0.33147168  0.79017335  0.59656580  1
  O2-  O257  1  0.32785263  0.79172207  0.93536133  1
  O2-  O258  1  0.83295096  0.29430180  0.27476096  1
  O2-  O259  1  0.83199106  0.29405128  0.59729680  1
  O2-  O260  1  0.83556468  0.29994784  0.93963055  1
  O2-  O261  1  0.83271547  0.79307471  0.26495581  1
  O2-  O262  1  0.83592613  0.79399013  0.60700835  1
  O2-  O263  1  0.83367436  0.79322047  0.92837291  1
  O2-  O264  1  0.41230109  0.04960851  0.05879455  1
  O2-  O265  1  0.41770954  0.04523597  0.40373451  1
  O2-  O266  1  0.41311408  0.04840664  0.72644305  1
  O2-  O267  1  0.41589047  0.53847762  0.06772256  1
  O2-  O268  1  0.41238044  0.53792638  0.40482131  1
  O2-  O269  1  0.42003211  0.54201037  0.73249108  1
  O2-  O270  1  0.92167600  0.03727036  0.06511745  1
  O2-  O271  1  0.91933721  0.04088124  0.40191787  1
  O2-  O272  1  0.92368456  0.04486551  0.73142837  1
  O2-  O273  1  0.92004627  0.55094080  0.06240954  1
  O2-  O274  1  0.92253940  0.55004615  0.39494530  1
  O2-  O275  1  0.92107497  0.54169248  0.73345066  1
  O2-  O276  1  0.28783632  0.16442593  0.05856744  1
  O2-  O277  1  0.28486561  0.16504253  0.40313616  1
  O2-  O278  1  0.28941927  0.16431205  0.72780154  1
  O2-  O279  1  0.28537054  0.66484831  0.06925669  1
  O2-  O280  1  0.28901010  0.66885618  0.40126529  1
  O2-  O281  1  0.28472164  0.66573077  0.73417047  1
  O2-  O282  1  0.79963343  0.16963690  0.06668830  1
  O2-  O283  1  0.79011143  0.16474517  0.40223181  1
  O2-  O284  1  0.79856407  0.17243997  0.73191217  1
  O2-  O285  1  0.80032893  0.66850560  0.05686439  1
  O2-  O286  1  0.78850969  0.67017071  0.39748223  1
  O2-  O287  1  0.79260229  0.66572944  0.73509945  1
