# generated using pymatgen
data_Ca2Al2SiO7
_symmetry_space_group_name_H-M   'P 1'
_cell_length_a   15.46194021
_cell_length_b   15.46249395
_cell_length_c   15.28740805
_cell_angle_alpha   89.99996685
_cell_angle_beta   90.01095780
_cell_angle_gamma   89.98537389
_symmetry_Int_Tables_number   1
_chemical_formula_structural   Ca2Al2SiO7
_chemical_formula_sum   'Ca48 Al48 Si24 O168'
_cell_volume   3654.91573068
_cell_formula_units_Z   24
loop_
 _symmetry_equiv_pos_site_id
 _symmetry_equiv_pos_as_xyz
  1  'x, y, z'
loop_
 _atom_type_symbol
 _atom_type_oxidation_number
  Ca2+  2.0
  Al0+  0.0
  Si0+  0.0
  O2-  -2.0
loop_
 _atom_site_type_symbol
 _atom_site_label
 _atom_site_symmetry_multiplicity
 _atom_site_fract_x
 _atom_site_fract_y
 _atom_site_fract_z
 _atom_site_occupancy
  Ca2+  Ca0  1  0.16067081  0.08430006  0.17039412  1
  Ca2+  Ca1  1  0.16957570  0.07609133  0.51074983  1
  Ca2+  Ca2  1  0.16945700  0.07808094  0.83286577  1
  Ca2+  Ca3  1  0.17121210  0.58746326  0.17673813  1
  Ca2+  Ca4  1  0.16405105  0.57781483  0.50191443  1
  Ca2+  Ca5  1  0.16839274  0.58566244  0.83586732  1
  Ca2+  Ca6  1  0.66527336  0.07782656  0.17301415  1
  Ca2+  Ca7  1  0.66606315  0.08599045  0.50151015  1
  Ca2+  Ca8  1  0.67027637  0.07214802  0.84143456  1
  Ca2+  Ca9  1  0.67336772  0.57374211  0.17883319  1
  Ca2+  Ca10  1  0.66858459  0.59153838  0.49815875  1
  Ca2+  Ca11  1  0.66453246  0.58156385  0.83992544  1
  Ca2+  Ca12  1  0.08543097  0.33004159  0.16842043  1
  Ca2+  Ca13  1  0.08506109  0.33218478  0.48872741  1
  Ca2+  Ca14  1  0.09182316  0.32835811  0.82891230  1
  Ca2+  Ca15  1  0.07794167  0.81837278  0.16075008  1
  Ca2+  Ca16  1  0.08868606  0.82326488  0.49832734  1
  Ca2+  Ca17  1  0.07875741  0.82268306  0.82555350  1
  Ca2+  Ca18  1  0.59237852  0.33323177  0.16553681  1
  Ca2+  Ca19  1  0.57742088  0.33031718  0.49260059  1
  Ca2+  Ca20  1  0.57503020  0.33702127  0.82695120  1
  Ca2+  Ca21  1  0.57984277  0.82752224  0.16722371  1
  Ca2+  Ca22  1  0.57212157  0.82298461  0.49579806  1
  Ca2+  Ca23  1  0.57973558  0.82709344  0.82400826  1
  Ca2+  Ca24  1  0.32582117  0.43275856  0.17465191  1
  Ca2+  Ca25  1  0.32287165  0.41744572  0.50424165  1
  Ca2+  Ca26  1  0.33043858  0.42278075  0.83537863  1
  Ca2+  Ca27  1  0.33277806  0.91711158  0.17418672  1
  Ca2+  Ca28  1  0.33349827  0.91923526  0.50805588  1
  Ca2+  Ca29  1  0.33094906  0.91461046  0.83015506  1
  Ca2+  Ca30  1  0.82744983  0.41836340  0.17884063  1
  Ca2+  Ca31  1  0.83396167  0.42209430  0.49582642  1
  Ca2+  Ca32  1  0.82291241  0.42084851  0.83950492  1
  Ca2+  Ca33  1  0.82948538  0.90928543  0.16696106  1
  Ca2+  Ca34  1  0.83476676  0.91574789  0.50647333  1
  Ca2+  Ca35  1  0.83125445  0.90744087  0.84029791  1
  Ca2+  Ca36  1  0.42320820  0.17049841  0.16779468  1
  Ca2+  Ca37  1  0.41384827  0.17259874  0.49719972  1
  Ca2+  Ca38  1  0.41467315  0.17318605  0.82423994  1
  Ca2+  Ca39  1  0.41349572  0.66386548  0.16774476  1
  Ca2+  Ca40  1  0.41835361  0.67477428  0.49157130  1
  Ca2+  Ca41  1  0.42215046  0.66829634  0.82477783  1
  Ca2+  Ca42  1  0.92655834  0.17403809  0.16680908  1
  Ca2+  Ca43  1  0.92504586  0.17583778  0.48881839  1
  Ca2+  Ca44  1  0.92333953  0.16667556  0.83380591  1
  Ca2+  Ca45  1  0.92666356  0.66030777  0.16437680  1
  Ca2+  Ca46  1  0.92633091  0.66668705  0.49649784  1
  Ca2+  Ca47  1  0.92390039  0.67543165  0.82750397  1
  Al0+  Al48  1  0.00000058  0.00234630  -0.00656200  1
  Al0+  Al49  1  -0.00124487  0.00022935  0.33066588  1
  Al0+  Al50  1  0.00020461  0.00143824  0.66924622  1
  Al0+  Al51  1  0.00003597  0.49706195  -0.00561161  1
  Al0+  Al52  1  -0.00210938  0.50018076  0.33220506  1
  Al0+  Al53  1  -0.00207761  0.49930479  0.67145503  1
  Al0+  Al54  1  0.50093175  0.00044842  0.00402545  1
  Al0+  Al55  1  0.49908475  0.00105571  0.32713748  1
  Al0+  Al56  1  0.50322106  0.00051806  0.66951206  1
  Al0+  Al57  1  0.49813655  0.49939110  0.00821137  1
  Al0+  Al58  1  0.49932175  0.50128467  0.33733099  1
  Al0+  Al59  1  0.50000638  0.49681123  0.65748362  1
  Al0+  Al60  1  0.25173073  0.25018407  -0.00295867  1
  Al0+  Al61  1  0.25264877  0.24912429  0.33036370  1
  Al0+  Al62  1  0.25106405  0.25033308  0.66994303  1
  Al0+  Al63  1  0.25057459  0.75225369  -0.00036106  1
  Al0+  Al64  1  0.24839617  0.75306157  0.32967252  1
  Al0+  Al65  1  0.25018944  0.74973175  0.66473493  1
  Al0+  Al66  1  0.75061918  0.24655918  0.00125762  1
  Al0+  Al67  1  0.75042614  0.24832894  0.33024577  1
  Al0+  Al68  1  0.75082628  0.25039263  0.67043212  1
  Al0+  Al69  1  0.74820854  0.74882177  0.00349407  1
  Al0+  Al70  1  0.74630089  0.75057399  0.33572559  1
  Al0+  Al71  1  0.75224830  0.74993859  0.66115656  1
  Al0+  Al72  1  0.32303301  0.07056312  0.68159387  1
  Al0+  Al73  1  0.57070208  0.67744834  0.31523829  1
  Al0+  Al74  1  0.67857052  0.42582546  0.35086903  1
  Al0+  Al75  1  0.82062104  0.57299133  0.34982551  1
  Al0+  Al76  1  0.07402712  0.67678427  0.98394489  1
  Al0+  Al77  1  0.17753229  0.42990183  0.68120677  1
  Al0+  Al78  1  0.42916853  0.82273615  0.65344755  1
  Al0+  Al79  1  0.67883474  0.92773721  0.01548939  1
  Al0+  Al80  1  0.06867623  0.67970810  0.32062162  1
  Al0+  Al81  1  0.07414863  0.17731999  0.32030992  1
  Al0+  Al82  1  0.93004204  0.32167782  0.31911922  1
  Al0+  Al83  1  0.07129849  0.67661794  0.65052979  1
  Al0+  Al84  1  0.07251521  0.18129089  0.98289983  1
  Al0+  Al85  1  0.93018381  0.82320798  0.65076165  1
  Al0+  Al86  1  0.57041230  0.18093783  0.32005294  1
  Al0+  Al87  1  0.31819818  0.57270675  0.01229460  1
  Al0+  Al88  1  0.31974676  0.57542782  0.35083895  1
  Al0+  Al89  1  0.17968309  0.42882680  0.34628439  1
  Al0+  Al90  1  0.92749313  0.81877193  0.98678901  1
  Al0+  Al91  1  0.67898961  0.42845076  0.01243898  1
  Al0+  Al92  1  0.42745997  0.31919796  0.65258441  1
  Al0+  Al93  1  0.17802128  0.92666011  0.68281894  1
  Al0+  Al94  1  0.42828657  0.82088338  0.31651739  1
  Al0+  Al95  1  0.57202943  0.67658384  0.65246760  1
  Si0+  Si96  1  0.43233152  0.32063812  0.98580906  1
  Si0+  Si97  1  0.32249156  0.07016560  0.34652762  1
  Si0+  Si98  1  0.57187807  0.17700958  0.98394844  1
  Si0+  Si99  1  0.17805344  0.42607647  0.01546473  1
  Si0+  Si100  1  0.82223702  0.57065206  0.01514021  1
  Si0+  Si101  1  0.92536865  0.32059300  0.98066420  1
  Si0+  Si102  1  0.57438876  0.17905432  0.65327353  1
  Si0+  Si103  1  0.32374317  0.57070442  0.68123422  1
  Si0+  Si104  1  0.67848145  0.42795796  0.68123804  1
  Si0+  Si105  1  0.07065344  0.18150187  0.65275569  1
  Si0+  Si106  1  0.82159632  0.07358336  0.68273167  1
  Si0+  Si107  1  0.82108043  0.06910089  0.34839008  1
  Si0+  Si108  1  0.82356035  0.07114098  0.01910086  1
  Si0+  Si109  1  0.17910317  0.93166525  0.01525065  1
  Si0+  Si110  1  0.68244198  0.92873905  0.68079564  1
  Si0+  Si111  1  0.42946843  0.82425151  0.98425462  1
  Si0+  Si112  1  0.81962092  0.57159016  0.68354928  1
  Si0+  Si113  1  0.92594364  0.82376755  0.31786305  1
  Si0+  Si114  1  0.92627204  0.32033769  0.65330984  1
  Si0+  Si115  1  0.42734095  0.32348032  0.31486736  1
  Si0+  Si116  1  0.56769069  0.67821309  0.98779226  1
  Si0+  Si117  1  0.17704065  0.93161102  0.34598160  1
  Si0+  Si118  1  0.67681439  0.93068934  0.35045438  1
  Si0+  Si119  1  0.32147926  0.07275735  0.01690352  1
  O2-  O120  1  0.25044509  0.00213226  0.05917934  1
  O2-  O121  1  0.24712021  0.00397340  0.38730491  1
  O2-  O122  1  0.25313511  -0.00314183  0.73273128  1
  O2-  O123  1  0.23708112  0.50356515  0.05767374  1
  O2-  O124  1  0.24983893  0.50060174  0.39949756  1
  O2-  O125  1  0.25139724  0.50627431  0.72701031  1
  O2-  O126  1  0.75629758  0.00028049  0.06215597  1
  O2-  O127  1  0.75105609  -0.00162133  0.39299720  1
  O2-  O128  1  0.75457512  -0.00158692  0.72426565  1
  O2-  O129  1  0.75745123  0.49823943  0.05868933  1
  O2-  O130  1  0.74696940  0.50170936  0.40056527  1
  O2-  O131  1  0.74473802  0.50301847  0.72444665  1
  O2-  O132  1  0.00609584  0.25295773  0.27041455  1
  O2-  O133  1  0.00074842  0.25319536  0.61115090  1
  O2-  O134  1  -0.00086261  0.25751719  0.93565319  1
  O2-  O135  1  -0.00950008  0.75151874  0.27450968  1
  O2-  O136  1  0.00384424  0.75363990  0.60108631  1
  O2-  O137  1  -0.00058895  0.74755897  0.93603342  1
  O2-  O138  1  0.50200948  0.26026366  0.27092851  1
  O2-  O139  1  0.50226107  0.24300233  0.60884971  1
  O2-  O140  1  0.50405254  0.25042485  0.94180613  1
  O2-  O141  1  0.49590392  0.74610861  0.26424817  1
  O2-  O142  1  0.49651137  0.74614162  0.60468111  1
  O2-  O143  1  0.49920471  0.75100871  0.94376999  1
  O2-  O144  1  0.07211747  0.18198806  0.09559269  1
  O2-  O145  1  0.07083312  0.17380238  0.43406341  1
  O2-  O146  1  0.06912847  0.18226716  0.75815897  1
  O2-  O147  1  0.07394773  0.67914288  0.09755563  1
  O2-  O148  1  0.06986370  0.68165627  0.43322254  1
  O2-  O149  1  0.06735538  0.67597235  0.76426569  1
  O2-  O150  1  0.57032085  0.17583297  0.08882386  1
  O2-  O151  1  0.56698904  0.17782386  0.43327211  1
  O2-  O152  1  0.57725567  0.18224747  0.75916527  1
  O2-  O153  1  0.56655370  0.67874855  0.09202448  1
  O2-  O154  1  0.57239617  0.68468424  0.42840306  1
  O2-  O155  1  0.57214940  0.67768721  0.76753052  1
  O2-  O156  1  0.18240838  0.42805510  0.23231816  1
  O2-  O157  1  0.17722831  0.42637161  0.56875917  1
  O2-  O158  1  0.18414974  0.42202008  0.90987254  1
  O2-  O159  1  0.17672175  0.93305332  0.24040532  1
  O2-  O160  1  0.17553991  0.93202614  0.56903494  1
  O2-  O161  1  0.18206892  0.93220251  0.91052916  1
  O2-  O162  1  0.68417371  0.42505815  0.23679387  1
  O2-  O163  1  0.68282523  0.42064562  0.57751673  1
  O2-  O164  1  0.67701660  0.43198094  0.89847872  1
  O2-  O165  1  0.67757082  0.93253374  0.24514270  1
  O2-  O166  1  0.68218649  0.93245478  0.57587513  1
  O2-  O167  1  0.67691440  0.93015407  0.90194147  1
  O2-  O168  1  0.43269587  0.31781813  0.09041946  1
  O2-  O169  1  0.42385188  0.31658981  0.42025169  1
  O2-  O170  1  0.43121243  0.32096444  0.76657315  1
  O2-  O171  1  0.42985414  0.82707061  0.08884437  1
  O2-  O172  1  0.43096162  0.82568288  0.42969406  1
  O2-  O173  1  0.43418467  0.82278743  0.76791993  1
  O2-  O174  1  0.92266998  0.31832379  0.08555167  1
  O2-  O175  1  0.92896799  0.31712153  0.43328737  1
  O2-  O176  1  0.92212852  0.31614997  0.75846146  1
  O2-  O177  1  0.92896020  0.81761606  0.10042369  1
  O2-  O178  1  0.93037105  0.82865491  0.42302564  1
  O2-  O179  1  0.92635141  0.81923785  0.76421722  1
  O2-  O180  1  0.32429559  0.06873814  0.24094407  1
  O2-  O181  1  0.32006222  0.07212217  0.56779629  1
  O2-  O182  1  0.32325766  0.07318993  0.91214774  1
  O2-  O183  1  0.31558523  0.57419817  0.23666429  1
  O2-  O184  1  0.32467654  0.56737836  0.57640352  1
  O2-  O185  1  0.32434980  0.56886726  0.89908529  1
  O2-  O186  1  0.82130296  0.06688619  0.24346136  1
  O2-  O187  1  0.81908520  0.07783129  0.57779015  1
  O2-  O188  1  0.81992860  0.07409786  0.91308972  1
  O2-  O189  1  0.82072752  0.57143508  0.23574443  1
  O2-  O190  1  0.82178205  0.56986173  0.57911815  1
  O2-  O191  1  0.81776362  0.57112732  0.90902859  1
  O2-  O192  1  0.03877389  0.08191707  0.26420757  1
  O2-  O193  1  0.04207095  0.08978247  0.60683960  1
  O2-  O194  1  0.03961997  0.08628605  0.92689113  1
  O2-  O195  1  0.04060728  0.58340499  0.26571472  1
  O2-  O196  1  0.03613756  0.57864674  0.60074305  1
  O2-  O197  1  0.05100083  0.57600648  0.93289667  1
  O2-  O198  1  0.53448199  0.08774206  0.26209211  1
  O2-  O199  1  0.55528405  0.08374181  0.60936503  1
  O2-  O200  1  0.54041949  0.08620501  0.93630857  1
  O2-  O201  1  0.54803726  0.57613256  0.26615753  1
  O2-  O202  1  0.55149175  0.57740834  0.59960885  1
  O2-  O203  1  0.53779684  0.58646108  0.94078101  1
  O2-  O204  1  0.17327839  0.20031488  0.26623074  1
  O2-  O205  1  0.16291231  0.20753648  0.60725629  1
  O2-  O206  1  0.17006134  0.21069746  0.92895125  1
  O2-  O207  1  0.16213890  0.71625263  0.26468033  1
  O2-  O208  1  0.17157520  0.69958624  0.60042619  1
  O2-  O209  1  0.17142486  0.70997116  0.93107044  1
  O2-  O210  1  0.66803889  0.20363191  0.26452128  1
  O2-  O211  1  0.66654580  0.20858950  0.60598038  1
  O2-  O212  1  0.66556803  0.19936280  0.93774567  1
  O2-  O213  1  0.66855921  0.71108638  0.26292576  1
  O2-  O214  1  0.66837011  0.70896670  0.59920542  1
  O2-  O215  1  0.66046318  0.70398428  0.94121565  1
  O2-  O216  1  0.07934068  0.43928042  0.05445536  1
  O2-  O217  1  0.07954340  0.45260307  0.39638217  1
  O2-  O218  1  0.07987294  0.45511785  0.73731879  1
  O2-  O219  1  0.08698933  0.96206504  0.06012295  1
  O2-  O220  1  0.08521474  0.95835371  0.39393251  1
  O2-  O221  1  0.08098768  0.96043246  0.73720600  1
  O2-  O222  1  0.58451869  0.45912050  0.06892574  1
  O2-  O223  1  0.57733309  0.44708315  0.39964602  1
  O2-  O224  1  0.58448802  0.45210849  0.72636067  1
  O2-  O225  1  0.58408901  0.96320030  0.07082318  1
  O2-  O226  1  0.58653744  0.96568887  0.39575132  1
  O2-  O227  1  0.59219182  0.95725822  0.73127344  1
  O2-  O228  1  0.21264429  0.33559079  0.06276052  1
  O2-  O229  1  0.20964291  0.32886316  0.39753364  1
  O2-  O230  1  0.21263339  0.33480129  0.73629422  1
  O2-  O231  1  0.20700719  0.84017070  0.06292117  1
  O2-  O232  1  0.20651167  0.84128111  0.39358391  1
  O2-  O233  1  0.20459281  0.82739639  0.73572583  1
  O2-  O234  1  0.70545738  0.32885101  0.06250515  1
  O2-  O235  1  0.70923956  0.32654586  0.40186098  1
  O2-  O236  1  0.71058131  0.33853567  0.73316427  1
  O2-  O237  1  0.70689167  0.83110359  0.07085831  1
  O2-  O238  1  0.70065725  0.83872844  0.39808189  1
  O2-  O239  1  0.70981513  0.83637194  0.72773855  1
  O2-  O240  1  0.44614266  0.41948576  0.27295104  1
  O2-  O241  1  0.45847586  0.41239598  0.59470622  1
  O2-  O242  1  0.46116644  0.41248756  0.93880039  1
  O2-  O243  1  0.46120073  0.91753209  0.26129992  1
  O2-  O244  1  0.46190925  0.92077314  0.60172550  1
  O2-  O245  1  0.45970362  0.91586453  0.93754822  1
  O2-  O246  1  0.95251315  0.41979388  0.26456647  1
  O2-  O247  1  0.94937592  0.41392006  0.60967893  1
  O2-  O248  1  0.94368268  0.41575712  0.93476699  1
  O2-  O249  1  0.95391334  0.91529408  0.26849972  1
  O2-  O250  1  0.95166692  0.92530368  0.60181958  1
  O2-  O251  1  0.95129567  0.91911833  0.93562530  1
  O2-  O252  1  0.33829870  0.29001912  0.26413741  1
  O2-  O253  1  0.33207732  0.28616855  0.59819300  1
  O2-  O254  1  0.34164732  0.29119421  0.93716971  1
  O2-  O255  1  0.32890259  0.79805569  0.26295320  1
  O2-  O256  1  0.32910370  0.80208718  0.60252021  1
  O2-  O257  1  0.33720321  0.79866883  0.93771481  1
  O2-  O258  1  0.83478494  0.28591184  0.26439681  1
  O2-  O259  1  0.83659110  0.28765127  0.60480660  1
  O2-  O260  1  0.83370778  0.28797596  0.93259813  1
  O2-  O261  1  0.82972025  0.80338523  0.27629528  1
  O2-  O262  1  0.83301127  0.79409610  0.59641808  1
  O2-  O263  1  0.82752699  0.79067469  0.93469434  1
  O2-  O264  1  0.41317297  0.04483244  0.06476118  1
  O2-  O265  1  0.41265340  0.03877604  0.39468613  1
  O2-  O266  1  0.42349031  0.04743773  0.73519504  1
  O2-  O267  1  0.41082853  0.53534972  0.07008954  1
  O2-  O268  1  0.42021418  0.55220927  0.40015433  1
  O2-  O269  1  0.41696063  0.53946715  0.72698058  1
  O2-  O270  1  0.91885308  0.04897607  0.06240636  1
  O2-  O271  1  0.91290636  0.04189024  0.39705678  1
  O2-  O272  1  0.91419613  0.05095930  0.73055138  1
  O2-  O273  1  0.91827683  0.54761125  0.05731245  1
  O2-  O274  1  0.91786425  0.54195373  0.40339763  1
  O2-  O275  1  0.90806005  0.53957045  0.73498473  1
  O2-  O276  1  0.29370131  0.16493252  0.06371825  1
  O2-  O277  1  0.30002946  0.16350578  0.39233949  1
  O2-  O278  1  0.29116518  0.16721997  0.73678802  1
  O2-  O279  1  0.29483788  0.67166745  0.06551578  1
  O2-  O280  1  0.28958034  0.67467983  0.40053431  1
  O2-  O281  1  0.30370673  0.66606237  0.72604609  1
  O2-  O282  1  0.79451112  0.16304813  0.06644658  1
  O2-  O283  1  0.79211770  0.16003647  0.39622869  1
  O2-  O284  1  0.78922014  0.16240940  0.73467924  1
  O2-  O285  1  0.79409420  0.66203609  0.06280617  1
  O2-  O286  1  0.79247701  0.67207454  0.40315601  1
  O2-  O287  1  0.79255319  0.66433889  0.72991851  1
