# generated using pymatgen
data_Ca2Al2SiO7
_symmetry_space_group_name_H-M   'P 1'
_cell_length_a   15.45211954
_cell_length_b   15.45210549
_cell_length_c   15.27932985
_cell_angle_alpha   90.00096580
_cell_angle_beta   89.99344242
_cell_angle_gamma   89.98891566
_symmetry_Int_Tables_number   1
_chemical_formula_structural   Ca2Al2SiO7
_chemical_formula_sum   'Ca48 Al48 Si24 O168'
_cell_volume   3648.21159343
_cell_formula_units_Z   24
loop_
 _symmetry_equiv_pos_site_id
 _symmetry_equiv_pos_as_xyz
  1  'x, y, z'
loop_
 _atom_type_symbol
 _atom_type_oxidation_number
  Ca2+  2.0
  Al0+  0.0
  Si0+  0.0
  O2-  -2.0
loop_
 _atom_site_type_symbol
 _atom_site_label
 _atom_site_symmetry_multiplicity
 _atom_site_fract_x
 _atom_site_fract_y
 _atom_site_fract_z
 _atom_site_occupancy
  Ca2+  Ca0  1  0.15519913  0.07846042  0.16774507  1
  Ca2+  Ca1  1  0.17356960  0.08638983  0.50559876  1
  Ca2+  Ca2  1  0.17093224  0.07933203  0.84064994  1
  Ca2+  Ca3  1  0.16868882  0.58442257  0.17580515  1
  Ca2+  Ca4  1  0.17358566  0.57745703  0.50452697  1
  Ca2+  Ca5  1  0.17160435  0.58105122  0.83357582  1
  Ca2+  Ca6  1  0.68034183  0.08818999  0.17021744  1
  Ca2+  Ca7  1  0.67084060  0.08954177  0.50408350  1
  Ca2+  Ca8  1  0.67013250  0.08552969  0.83884478  1
  Ca2+  Ca9  1  0.67135178  0.58072228  0.16927544  1
  Ca2+  Ca10  1  0.67292220  0.57675438  0.50427262  1
  Ca2+  Ca11  1  0.66042617  0.57225091  0.83947147  1
  Ca2+  Ca12  1  0.07000166  0.32268366  0.15999123  1
  Ca2+  Ca13  1  0.08343353  0.32982035  0.49116024  1
  Ca2+  Ca14  1  0.07991379  0.33238777  0.83220243  1
  Ca2+  Ca15  1  0.08882459  0.82110446  0.16083017  1
  Ca2+  Ca16  1  0.07954685  0.82657081  0.49637254  1
  Ca2+  Ca17  1  0.08374225  0.83161577  0.83350009  1
  Ca2+  Ca18  1  0.57289106  0.34380897  0.16181905  1
  Ca2+  Ca19  1  0.57596474  0.33639691  0.50342613  1
  Ca2+  Ca20  1  0.57597541  0.33495030  0.82699781  1
  Ca2+  Ca21  1  0.57888942  0.82611956  0.16386235  1
  Ca2+  Ca22  1  0.56843516  0.83397819  0.49589300  1
  Ca2+  Ca23  1  0.58232263  0.82391849  0.82572591  1
  Ca2+  Ca24  1  0.33582283  0.42161795  0.17383817  1
  Ca2+  Ca25  1  0.33312799  0.42387122  0.50948638  1
  Ca2+  Ca26  1  0.33393737  0.41521848  0.83338917  1
  Ca2+  Ca27  1  0.32744805  0.91433577  0.17046310  1
  Ca2+  Ca28  1  0.33640145  0.92005878  0.50834345  1
  Ca2+  Ca29  1  0.33517844  0.92351248  0.83587230  1
  Ca2+  Ca30  1  0.82973879  0.41255367  0.17222332  1
  Ca2+  Ca31  1  0.83384316  0.42005091  0.50323591  1
  Ca2+  Ca32  1  0.81930789  0.40927562  0.84063262  1
  Ca2+  Ca33  1  0.83766311  0.92983632  0.17083779  1
  Ca2+  Ca34  1  0.83645336  0.92216906  0.50395525  1
  Ca2+  Ca35  1  0.83671265  0.92175208  0.83935437  1
  Ca2+  Ca36  1  0.41564581  0.18358714  0.16149937  1
  Ca2+  Ca37  1  0.41676005  0.17723004  0.49812894  1
  Ca2+  Ca38  1  0.41998998  0.17637251  0.82214295  1
  Ca2+  Ca39  1  0.41843019  0.66869290  0.16363841  1
  Ca2+  Ca40  1  0.40478934  0.67336569  0.49584709  1
  Ca2+  Ca41  1  0.41936352  0.66950519  0.82889037  1
  Ca2+  Ca42  1  0.91825579  0.16972406  0.16247242  1
  Ca2+  Ca43  1  0.92393511  0.17453211  0.48797393  1
  Ca2+  Ca44  1  0.91828659  0.16649851  0.83619646  1
  Ca2+  Ca45  1  0.92901185  0.65749578  0.16377981  1
  Ca2+  Ca46  1  0.92091019  0.66800651  0.49239256  1
  Ca2+  Ca47  1  0.92390104  0.67193464  0.82878513  1
  Al0+  Al48  1  0.00128435  -0.00063466  0.00573211  1
  Al0+  Al49  1  -0.00049904  -0.00161695  0.33817111  1
  Al0+  Al50  1  0.00029871  -0.00043429  0.66220611  1
  Al0+  Al51  1  0.00064897  0.49958438  -0.01087959  1
  Al0+  Al52  1  -0.00102256  0.49925363  0.33071868  1
  Al0+  Al53  1  0.00108026  0.50020882  0.67110381  1
  Al0+  Al54  1  0.49909338  0.00127318  0.00465043  1
  Al0+  Al55  1  0.49887004  -0.00049839  0.32637956  1
  Al0+  Al56  1  0.50269543  -0.00102962  0.66482431  1
  Al0+  Al57  1  0.50004245  0.50208938  -0.00323466  1
  Al0+  Al58  1  0.49988162  0.50199935  0.33603279  1
  Al0+  Al59  1  0.50185784  0.50079042  0.67018137  1
  Al0+  Al60  1  0.24896807  0.25158430  -0.00637170  1
  Al0+  Al61  1  0.25030853  0.24779842  0.32362482  1
  Al0+  Al62  1  0.25012988  0.24954982  0.67168546  1
  Al0+  Al63  1  0.24998324  0.75131105  -0.00134567  1
  Al0+  Al64  1  0.24901260  0.75080205  0.32995834  1
  Al0+  Al65  1  0.24895794  0.74878523  0.66746727  1
  Al0+  Al66  1  0.74778816  0.25045993  0.00783086  1
  Al0+  Al67  1  0.74873649  0.24890690  0.33759356  1
  Al0+  Al68  1  0.75170561  0.25054216  0.66683390  1
  Al0+  Al69  1  0.74943649  0.74868484  -0.00345075  1
  Al0+  Al70  1  0.74829729  0.75030039  0.33873023  1
  Al0+  Al71  1  0.75178865  0.75208094  0.66164905  1
  Al0+  Al72  1  0.32324218  0.06947066  0.67879504  1
  Al0+  Al73  1  0.67823275  0.43118172  0.01520062  1
  Al0+  Al74  1  0.18164030  0.92998107  0.01434287  1
  Al0+  Al75  1  0.57130047  0.68097347  0.98667907  1
  Al0+  Al76  1  0.42957628  0.32214433  0.98486959  1
  Al0+  Al77  1  0.82267880  0.57059434  0.34612348  1
  Al0+  Al78  1  0.43067022  0.32258841  0.32049167  1
  Al0+  Al79  1  0.57355461  0.17850920  0.65240130  1
  Al0+  Al80  1  0.82067089  0.07019652  0.35061979  1
  Al0+  Al81  1  0.42798829  0.82138896  0.31800990  1
  Al0+  Al82  1  0.92960597  0.82172090  0.65235677  1
  Al0+  Al83  1  0.92569095  0.32000885  0.98326933  1
  Al0+  Al84  1  0.06883846  0.68049880  0.32140164  1
  Al0+  Al85  1  0.42932436  0.81911694  0.65483903  1
  Al0+  Al86  1  0.07198253  0.17656184  0.31871515  1
  Al0+  Al87  1  0.68253263  0.43004307  0.68079043  1
  Al0+  Al88  1  0.06919931  0.17648509  0.98266583  1
  Al0+  Al89  1  0.32130550  0.57263231  0.68349662  1
  Al0+  Al90  1  0.32033027  0.57122704  0.34553520  1
  Al0+  Al91  1  0.07340579  0.67795114  0.98429934  1
  Al0+  Al92  1  0.17785859  0.42711575  0.68268819  1
  Al0+  Al93  1  0.81906249  0.06910106  0.01363522  1
  Al0+  Al94  1  0.42776448  0.32178825  0.65101386  1
  Al0+  Al95  1  0.92725781  0.32144500  0.31983627  1
  Si0+  Si96  1  0.32273985  0.07517979  0.01856177  1
  Si0+  Si97  1  0.67578961  0.92820857  0.35123597  1
  Si0+  Si98  1  0.57321397  0.67715909  0.64805399  1
  Si0+  Si99  1  0.57117719  0.17729611  0.98617022  1
  Si0+  Si100  1  0.82298131  0.57521472  0.68464244  1
  Si0+  Si101  1  0.92897733  0.82156507  0.98638121  1
  Si0+  Si102  1  0.92925648  0.32092583  0.65259070  1
  Si0+  Si103  1  0.18024695  0.92834168  0.34994403  1
  Si0+  Si104  1  0.07070480  0.17866222  0.65262716  1
  Si0+  Si105  1  0.57167899  0.17734566  0.31530638  1
  Si0+  Si106  1  0.82225999  0.07003194  0.68140289  1
  Si0+  Si107  1  0.67574276  0.92415397  0.01674575  1
  Si0+  Si108  1  0.32170114  0.07143176  0.34642805  1
  Si0+  Si109  1  0.57321534  0.67849684  0.31798961  1
  Si0+  Si110  1  0.17686764  0.42846823  0.01599654  1
  Si0+  Si111  1  0.42814863  0.82331772  0.98347636  1
  Si0+  Si112  1  0.17671038  0.92897296  0.68212716  1
  Si0+  Si113  1  0.31909713  0.57013305  0.01519366  1
  Si0+  Si114  1  0.67976484  0.92855269  0.68119004  1
  Si0+  Si115  1  0.17922705  0.42615571  0.34519397  1
  Si0+  Si116  1  0.67672351  0.42830248  0.35192553  1
  Si0+  Si117  1  0.82379880  0.57303081  0.01417237  1
  Si0+  Si118  1  0.07120814  0.67675811  0.64866398  1
  Si0+  Si119  1  0.92521730  0.82154856  0.31679150  1
  O2-  O120  1  0.25438470  0.00603377  0.06304896  1
  O2-  O121  1  0.24976234  0.00164352  0.39033153  1
  O2-  O122  1  0.24857919  -0.00563512  0.72579304  1
  O2-  O123  1  0.24756149  0.50003576  0.05865455  1
  O2-  O124  1  0.24916461  0.49266990  0.39093315  1
  O2-  O125  1  0.25200679  0.49759414  0.73304552  1
  O2-  O126  1  0.74376380  -0.00622744  0.06029696  1
  O2-  O127  1  0.74465082  -0.00386069  0.39696539  1
  O2-  O128  1  0.75062385  -0.00031155  0.72388942  1
  O2-  O129  1  0.75741732  0.50265393  0.05956071  1
  O2-  O130  1  0.74962752  0.49443174  0.39362838  1
  O2-  O131  1  0.75488021  0.50669039  0.72915609  1
  O2-  O132  1  -0.00241779  0.24720507  0.27104282  1
  O2-  O133  1  0.00346019  0.25326112  0.61067217  1
  O2-  O134  1  -0.00166586  0.24906782  0.93179988  1
  O2-  O135  1  -0.00902028  0.75091191  0.27199662  1
  O2-  O136  1  0.00121059  0.74466719  0.60532155  1
  O2-  O137  1  -0.00453722  0.75130044  0.94113457  1
  O2-  O138  1  0.50607798  0.24929158  0.27186421  1
  O2-  O139  1  0.49966779  0.24862739  0.60212367  1
  O2-  O140  1  0.50101340  0.24308919  0.94091837  1
  O2-  O141  1  0.50297133  0.74595271  0.27384979  1
  O2-  O142  1  0.50001289  0.74180812  0.60498079  1
  O2-  O143  1  0.50112969  0.75972250  0.93955892  1
  O2-  O144  1  0.06605304  0.17696446  0.09603719  1
  O2-  O145  1  0.07402019  0.17894925  0.43315994  1
  O2-  O146  1  0.06664290  0.17368255  0.75716773  1
  O2-  O147  1  0.07451299  0.67860249  0.09763917  1
  O2-  O148  1  0.06896995  0.68326567  0.43437156  1
  O2-  O149  1  0.07063920  0.67881786  0.75437065  1
  O2-  O150  1  0.56932504  0.17741989  0.09191792  1
  O2-  O151  1  0.56939326  0.17504392  0.42076773  1
  O2-  O152  1  0.57482843  0.17859060  0.76614801  1
  O2-  O153  1  0.56958741  0.68139414  0.10006109  1
  O2-  O154  1  0.57457717  0.67997012  0.42343129  1
  O2-  O155  1  0.57574530  0.68109338  0.75382805  1
  O2-  O156  1  0.18016947  0.42871085  0.23947549  1
  O2-  O157  1  0.17499466  0.42886892  0.56847078  1
  O2-  O158  1  0.17817301  0.42959989  0.91108241  1
  O2-  O159  1  0.18112606  0.92635074  0.24484826  1
  O2-  O160  1  0.17517526  0.93120309  0.57624002  1
  O2-  O161  1  0.18382243  0.92959969  0.90096406  1
  O2-  O162  1  0.67418031  0.43107914  0.24625765  1
  O2-  O163  1  0.68584812  0.43101596  0.56749272  1
  O2-  O164  1  0.67774988  0.43192166  0.90210035  1
  O2-  O165  1  0.67705960  0.92776630  0.24551426  1
  O2-  O166  1  0.68019247  0.92805620  0.57626785  1
  O2-  O167  1  0.67572062  0.92393473  0.91094948  1
  O2-  O168  1  0.43097419  0.32404541  0.09854760  1
  O2-  O169  1  0.42959075  0.32171969  0.43309072  1
  O2-  O170  1  0.43037654  0.31957765  0.76451819  1
  O2-  O171  1  0.42739012  0.82021711  0.08927802  1
  O2-  O172  1  0.42806799  0.82238023  0.43124050  1
  O2-  O173  1  0.43398105  0.82034483  0.76790626  1
  O2-  O174  1  0.92657413  0.31971712  0.09668286  1
  O2-  O175  1  0.93083036  0.32130261  0.43434778  1
  O2-  O176  1  0.92637440  0.31687006  0.75725370  1
  O2-  O177  1  0.92920972  0.82102748  0.09187275  1
  O2-  O178  1  0.92851127  0.82150107  0.42267391  1
  O2-  O179  1  0.93105328  0.82326915  0.76567009  1
  O2-  O180  1  0.32196629  0.06979862  0.24150540  1
  O2-  O181  1  0.32002394  0.06928291  0.56503132  1
  O2-  O182  1  0.32472816  0.07165430  0.91292940  1
  O2-  O183  1  0.31996813  0.57126436  0.23187815  1
  O2-  O184  1  0.31650776  0.57448527  0.56962944  1
  O2-  O185  1  0.31859984  0.57052060  0.91034708  1
  O2-  O186  1  0.81968906  0.06823867  0.23753528  1
  O2-  O187  1  0.82253891  0.06871162  0.57642868  1
  O2-  O188  1  0.81801485  0.06628930  0.89983258  1
  O2-  O189  1  0.82085833  0.57160054  0.23306707  1
  O2-  O190  1  0.82319176  0.57384607  0.57866879  1
  O2-  O191  1  0.82089498  0.57590371  0.90864253  1
  O2-  O192  1  0.04273131  0.07648119  0.26994588  1
  O2-  O193  1  0.04069412  0.08886678  0.60206641  1
  O2-  O194  1  0.04025693  0.07702303  0.93171562  1
  O2-  O195  1  0.04170948  0.58352301  0.26647022  1
  O2-  O196  1  0.04563249  0.58260458  0.60374185  1
  O2-  O197  1  0.04544849  0.58327847  0.92639526  1
  O2-  O198  1  0.54573520  0.08519681  0.26661893  1
  O2-  O199  1  0.54946075  0.07914281  0.59954189  1
  O2-  O200  1  0.55004145  0.08135798  0.94148724  1
  O2-  O201  1  0.54817706  0.58512397  0.27201838  1
  O2-  O202  1  0.55293993  0.58213565  0.60435166  1
  O2-  O203  1  0.53498513  0.58804030  0.93028650  1
  O2-  O204  1  0.16876057  0.20133859  0.26146378  1
  O2-  O205  1  0.16378711  0.20368251  0.60710169  1
  O2-  O206  1  0.16821853  0.20359448  0.93084358  1
  O2-  O207  1  0.16273702  0.71534536  0.26472247  1
  O2-  O208  1  0.16409360  0.70408372  0.60282080  1
  O2-  O209  1  0.16764244  0.71454325  0.92954168  1
  O2-  O210  1  0.66675518  0.20103608  0.27232983  1
  O2-  O211  1  0.67140764  0.20981668  0.59839340  1
  O2-  O212  1  0.66475383  0.20331624  0.94191489  1
  O2-  O213  1  0.66591837  0.70666666  0.27068408  1
  O2-  O214  1  0.66539985  0.70692505  0.60112073  1
  O2-  O215  1  0.66805766  0.70703819  0.92964786  1
  O2-  O216  1  0.08366317  0.45691039  0.06009050  1
  O2-  O217  1  0.08617855  0.45289950  0.39165458  1
  O2-  O218  1  0.08021474  0.45741204  0.73817970  1
  O2-  O219  1  0.08528201  0.95705989  0.07092533  1
  O2-  O220  1  0.08785875  0.95247210  0.39826638  1
  O2-  O221  1  0.08445874  0.95900331  0.72907471  1
  O2-  O222  1  0.58308222  0.46878491  0.06875255  1
  O2-  O223  1  0.58582076  0.45951019  0.40047410  1
  O2-  O224  1  0.58579926  0.45892911  0.73512530  1
  O2-  O225  1  0.58174834  0.94807120  0.06382687  1
  O2-  O226  1  0.58106676  0.95560403  0.39473905  1
  O2-  O227  1  0.58911020  0.95471177  0.73105074  1
  O2-  O228  1  0.20443832  0.33573485  0.06146725  1
  O2-  O229  1  0.20319619  0.33080228  0.38870952  1
  O2-  O230  1  0.20245948  0.32869632  0.73727793  1
  O2-  O231  1  0.21503133  0.83376490  0.06942492  1
  O2-  O232  1  0.21108630  0.83812124  0.39834196  1
  O2-  O233  1  0.19768671  0.83386023  0.72612439  1
  O2-  O234  1  0.70343605  0.33444413  0.07150922  1
  O2-  O235  1  0.69764713  0.33347886  0.39692375  1
  O2-  O236  1  0.71545335  0.33377717  0.73499535  1
  O2-  O237  1  0.70218236  0.83071856  0.06302873  1
  O2-  O238  1  0.69856654  0.83481572  0.39924262  1
  O2-  O239  1  0.70923859  0.83666938  0.72865954  1
  O2-  O240  1  0.46117251  0.42006608  0.26699416  1
  O2-  O241  1  0.45855062  0.42118570  0.60117064  1
  O2-  O242  1  0.46340575  0.41706850  0.93105994  1
  O2-  O243  1  0.45853935  0.91644354  0.26059413  1
  O2-  O244  1  0.46369070  0.91372925  0.59891821  1
  O2-  O245  1  0.44864272  0.92005973  0.94183562  1
  O2-  O246  1  0.95424710  0.41867294  0.26498443  1
  O2-  O247  1  0.95326966  0.41551804  0.60871123  1
  O2-  O248  1  0.95217775  0.41780861  0.92811044  1
  O2-  O249  1  0.95451224  0.91457057  0.27264767  1
  O2-  O250  1  0.96287324  0.91652625  0.59507915  1
  O2-  O251  1  0.95808588  0.91367440  0.93986033  1
  O2-  O252  1  0.33609971  0.29074707  0.26289494  1
  O2-  O253  1  0.32806194  0.29313956  0.60067936  1
  O2-  O254  1  0.33235825  0.29541305  0.93124751  1
  O2-  O255  1  0.33283885  0.78945579  0.26279317  1
  O2-  O256  1  0.33046127  0.79335569  0.60175997  1
  O2-  O257  1  0.33704903  0.79351024  0.93602329  1
  O2-  O258  1  0.82701485  0.29419426  0.27062291  1
  O2-  O259  1  0.83998965  0.29016822  0.60263291  1
  O2-  O260  1  0.82617050  0.28835393  0.93400592  1
  O2-  O261  1  0.82924912  0.80143196  0.27447603  1
  O2-  O262  1  0.83273657  0.79567812  0.59602392  1
  O2-  O263  1  0.83487122  0.79946702  0.93898024  1
  O2-  O264  1  0.41640763  0.05107087  0.06645806  1
  O2-  O265  1  0.41381568  0.04231451  0.39241346  1
  O2-  O266  1  0.41950699  0.03747962  0.73331248  1
  O2-  O267  1  0.41084829  0.54130767  0.06183638  1
  O2-  O268  1  0.41790292  0.54636508  0.40032283  1
  O2-  O269  1  0.42186831  0.54991383  0.73406532  1
  O2-  O270  1  0.91419340  0.03679277  0.06933561  1
  O2-  O271  1  0.91682860  0.03805798  0.40606010  1
  O2-  O272  1  0.91363626  0.03904583  0.72809317  1
  O2-  O273  1  0.91978729  0.54893985  0.05590829  1
  O2-  O274  1  0.91916732  0.54089195  0.40209670  1
  O2-  O275  1  0.91700891  0.55162943  0.72986637  1
  O2-  O276  1  0.29647211  0.16997641  0.06155761  1
  O2-  O277  1  0.29372543  0.16394432  0.39287577  1
  O2-  O278  1  0.29247353  0.16439884  0.73470972  1
  O2-  O279  1  0.29254255  0.66306974  0.06108687  1
  O2-  O280  1  0.28505577  0.66722879  0.39822461  1
  O2-  O281  1  0.29001465  0.67032936  0.73808738  1
  O2-  O282  1  0.78723400  0.16368805  0.07092839  1
  O2-  O283  1  0.79050988  0.16697676  0.40551504  1
  O2-  O284  1  0.79574912  0.16187018  0.72854245  1
  O2-  O285  1  0.79673271  0.66615940  0.06127844  1
  O2-  O286  1  0.79173532  0.66706239  0.40224851  1
  O2-  O287  1  0.79795896  0.67031677  0.72806583  1
