# generated using pymatgen
data_Ca2Al2SiO7
_symmetry_space_group_name_H-M   'P 1'
_cell_length_a   15.45626247
_cell_length_b   15.45614040
_cell_length_c   15.28280089
_cell_angle_alpha   90.00210463
_cell_angle_beta   90.00672675
_cell_angle_gamma   90.00040217
_symmetry_Int_Tables_number   1
_chemical_formula_structural   Ca2Al2SiO7
_chemical_formula_sum   'Ca48 Al48 Si24 O168'
_cell_volume   3650.97189644
_cell_formula_units_Z   24
loop_
 _symmetry_equiv_pos_site_id
 _symmetry_equiv_pos_as_xyz
  1  'x, y, z'
loop_
 _atom_type_symbol
 _atom_type_oxidation_number
  Ca2+  2.0
  Al0+  0.0
  Si0+  0.0
  O2-  -2.0
loop_
 _atom_site_type_symbol
 _atom_site_label
 _atom_site_symmetry_multiplicity
 _atom_site_fract_x
 _atom_site_fract_y
 _atom_site_fract_z
 _atom_site_occupancy
  Ca2+  Ca0  1  0.16339078  0.07873681  0.16682619  1
  Ca2+  Ca1  1  0.17105806  0.07522804  0.50714508  1
  Ca2+  Ca2  1  0.15850161  0.07139748  0.84018881  1
  Ca2+  Ca3  1  0.16664563  0.57621320  0.17641967  1
  Ca2+  Ca4  1  0.16698400  0.58714536  0.50328744  1
  Ca2+  Ca5  1  0.17064753  0.58827327  0.83114655  1
  Ca2+  Ca6  1  0.67634618  0.09087008  0.16897831  1
  Ca2+  Ca7  1  0.67464523  0.07893349  0.50882056  1
  Ca2+  Ca8  1  0.67433142  0.08874478  0.83317296  1
  Ca2+  Ca9  1  0.66888939  0.57308831  0.17664049  1
  Ca2+  Ca10  1  0.66602753  0.57551654  0.50324254  1
  Ca2+  Ca11  1  0.66623881  0.56994877  0.83855306  1
  Ca2+  Ca12  1  0.07738111  0.32898791  0.16349321  1
  Ca2+  Ca13  1  0.06895473  0.33943014  0.49285935  1
  Ca2+  Ca14  1  0.07532715  0.32249387  0.82619528  1
  Ca2+  Ca15  1  0.08489301  0.82798013  0.16359168  1
  Ca2+  Ca16  1  0.08150433  0.82589963  0.50216711  1
  Ca2+  Ca17  1  0.08062130  0.83462516  0.82335018  1
  Ca2+  Ca18  1  0.58441584  0.33317030  0.15760063  1
  Ca2+  Ca19  1  0.59402363  0.33076807  0.50004398  1
  Ca2+  Ca20  1  0.59138518  0.32546294  0.83095595  1
  Ca2+  Ca21  1  0.57536849  0.82877389  0.16357555  1
  Ca2+  Ca22  1  0.58082259  0.82890743  0.48988869  1
  Ca2+  Ca23  1  0.57780367  0.83920488  0.82709727  1
  Ca2+  Ca24  1  0.32790849  0.41212867  0.17250542  1
  Ca2+  Ca25  1  0.32392740  0.42449129  0.50636786  1
  Ca2+  Ca26  1  0.33910275  0.42340155  0.83718182  1
  Ca2+  Ca27  1  0.33358211  0.91038078  0.16634780  1
  Ca2+  Ca28  1  0.32975993  0.91132645  0.50494356  1
  Ca2+  Ca29  1  0.32150804  0.91322706  0.83935183  1
  Ca2+  Ca30  1  0.82276770  0.41696880  0.17738975  1
  Ca2+  Ca31  1  0.82903712  0.41708405  0.50081116  1
  Ca2+  Ca32  1  0.82422516  0.40693309  0.83224147  1
  Ca2+  Ca33  1  0.83546511  0.93170572  0.17178834  1
  Ca2+  Ca34  1  0.83265316  0.92615275  0.51038544  1
  Ca2+  Ca35  1  0.83327265  0.92514656  0.83567322  1
  Ca2+  Ca36  1  0.42650388  0.17576966  0.15382615  1
  Ca2+  Ca37  1  0.42711426  0.16343303  0.49767905  1
  Ca2+  Ca38  1  0.42881514  0.17249020  0.83042221  1
  Ca2+  Ca39  1  0.42095001  0.67419568  0.16657214  1
  Ca2+  Ca40  1  0.42129049  0.66984508  0.49359946  1
  Ca2+  Ca41  1  0.41442233  0.66989121  0.83031917  1
  Ca2+  Ca42  1  0.91375117  0.16967417  0.16332724  1
  Ca2+  Ca43  1  0.90543205  0.17504877  0.49891875  1
  Ca2+  Ca44  1  0.91360918  0.16498415  0.82917878  1
  Ca2+  Ca45  1  0.92138789  0.65836502  0.16847806  1
  Ca2+  Ca46  1  0.92354603  0.66687133  0.49303834  1
  Ca2+  Ca47  1  0.92460740  0.67645941  0.82048823  1
  Al0+  Al48  1  -0.00002168  -0.00115576  0.00743400  1
  Al0+  Al49  1  0.00206313  -0.00004484  0.33979008  1
  Al0+  Al50  1  0.00109384  0.00020940  0.66867561  1
  Al0+  Al51  1  0.00141282  0.50002592  -0.00336765  1
  Al0+  Al52  1  -0.00180000  0.49856245  0.33040095  1
  Al0+  Al53  1  0.00126981  0.49911378  0.66142799  1
  Al0+  Al54  1  0.49918630  -0.00038419  -0.00849491  1
  Al0+  Al55  1  0.49921690  0.00145200  0.32719802  1
  Al0+  Al56  1  0.49978481  0.00196996  0.66437675  1
  Al0+  Al57  1  0.49928685  0.50211139  0.00328342  1
  Al0+  Al58  1  0.49834967  0.49956682  0.33418259  1
  Al0+  Al59  1  0.49848646  0.50070684  0.67505670  1
  Al0+  Al60  1  0.24943696  0.24907559  -0.00975796  1
  Al0+  Al61  1  0.24962786  0.24780103  0.34002783  1
  Al0+  Al62  1  0.25065254  0.25151290  0.66663209  1
  Al0+  Al63  1  0.25062241  0.74906785  0.00197468  1
  Al0+  Al64  1  0.24841592  0.74972543  0.32521674  1
  Al0+  Al65  1  0.25056107  0.74975076  0.67081294  1
  Al0+  Al66  1  0.75015284  0.25098298  0.00548411  1
  Al0+  Al67  1  0.75104307  0.24974821  0.33605610  1
  Al0+  Al68  1  0.74961569  0.24939623  0.66522163  1
  Al0+  Al69  1  0.75128361  0.74989871  0.00086618  1
  Al0+  Al70  1  0.75055541  0.75055594  0.32926885  1
  Al0+  Al71  1  0.74884929  0.75066382  0.66662863  1
  Al0+  Al72  1  0.92943817  0.31848512  0.65237727  1
  Al0+  Al73  1  0.18246121  0.93151599  0.67950166  1
  Al0+  Al74  1  0.06834453  0.67952625  0.31784934  1
  Al0+  Al75  1  0.07211836  0.68048083  0.65161973  1
  Al0+  Al76  1  0.82141889  0.06977878  0.34906390  1
  Al0+  Al77  1  0.17850635  0.42697309  0.34589236  1
  Al0+  Al78  1  0.42929801  0.81914767  0.98308158  1
  Al0+  Al79  1  0.92907695  0.31850881  0.31829626  1
  Al0+  Al80  1  0.57340505  0.67622477  0.31853560  1
  Al0+  Al81  1  0.68118296  0.43114117  0.68156827  1
  Al0+  Al82  1  0.81970384  0.07025043  0.68241419  1
  Al0+  Al83  1  0.31893269  0.56974812  0.68046577  1
  Al0+  Al84  1  0.56926024  0.18091086  0.65044963  1
  Al0+  Al85  1  0.68083065  0.43126316  0.01453285  1
  Al0+  Al86  1  0.42758389  0.32402698  0.98483249  1
  Al0+  Al87  1  0.06947825  0.17702021  0.98767199  1
  Al0+  Al88  1  0.18000920  0.92873770  0.01649813  1
  Al0+  Al89  1  0.82151571  0.57306242  0.34812958  1
  Al0+  Al90  1  0.57392090  0.18046065  0.98438592  1
  Al0+  Al91  1  0.67634016  0.92604987  0.68012444  1
  Al0+  Al92  1  0.81898208  0.06899086  0.01539250  1
  Al0+  Al93  1  0.67658305  0.42943349  0.34983558  1
  Al0+  Al94  1  0.92665570  0.82320294  0.65190520  1
  Al0+  Al95  1  0.42888807  0.82192558  0.31780449  1
  Si0+  Si96  1  0.82485588  0.57440648  0.01521919  1
  Si0+  Si97  1  0.67497610  0.92558196  0.01712841  1
  Si0+  Si98  1  0.07113142  0.67798337  0.98448664  1
  Si0+  Si99  1  0.17832791  0.42706352  0.01291566  1
  Si0+  Si100  1  0.18094472  0.92719965  0.34900919  1
  Si0+  Si101  1  0.07474936  0.17627798  0.31846962  1
  Si0+  Si102  1  0.42759670  0.32530396  0.64843370  1
  Si0+  Si103  1  0.42964584  0.82006050  0.65342526  1
  Si0+  Si104  1  0.67596704  0.92944469  0.34615769  1
  Si0+  Si105  1  0.31938380  0.57265646  0.34860005  1
  Si0+  Si106  1  0.57042226  0.18115021  0.31811572  1
  Si0+  Si107  1  0.31945442  0.57058988  0.01808311  1
  Si0+  Si108  1  0.32237716  0.07249540  0.01483416  1
  Si0+  Si109  1  0.93014782  0.82119080  0.98745351  1
  Si0+  Si110  1  0.57055231  0.67683529  0.65453886  1
  Si0+  Si111  1  0.32273271  0.07065667  0.34742651  1
  Si0+  Si112  1  0.17529479  0.42683275  0.68503778  1
  Si0+  Si113  1  0.92887289  0.32200666  0.98386058  1
  Si0+  Si114  1  0.07451676  0.17676868  0.64893203  1
  Si0+  Si115  1  0.57326986  0.67873066  0.98237338  1
  Si0+  Si116  1  0.92842340  0.82562933  0.31600099  1
  Si0+  Si117  1  0.82507725  0.57316411  0.68260007  1
  Si0+  Si118  1  0.32396932  0.07551124  0.68440048  1
  Si0+  Si119  1  0.42564998  0.31987674  0.32177809  1
  O2-  O120  1  0.25508473  0.00397655  0.06260488  1
  O2-  O121  1  0.25343044  -0.00223629  0.38947641  1
  O2-  O122  1  0.25268397  0.00966884  0.72811311  1
  O2-  O123  1  0.25092915  0.49564497  0.05747517  1
  O2-  O124  1  0.25159699  0.50335165  0.39276592  1
  O2-  O125  1  0.24543393  0.49420738  0.72908203  1
  O2-  O126  1  0.74143722  -0.00381297  0.06189653  1
  O2-  O127  1  0.74846538  -0.00794915  0.39239224  1
  O2-  O128  1  0.75024540  -0.00488673  0.73165206  1
  O2-  O129  1  0.75548145  0.50677019  0.05896342  1
  O2-  O130  1  0.74585016  0.50506358  0.39832208  1
  O2-  O131  1  0.75639562  0.50553353  0.72879818  1
  O2-  O132  1  0.00489882  0.24328819  0.27385516  1
  O2-  O133  1  0.00731210  0.24637537  0.60503595  1
  O2-  O134  1  -0.00372498  0.25217010  0.93990876  1
  O2-  O135  1  -0.00750089  0.75295909  0.27011063  1
  O2-  O136  1  -0.00462421  0.74759555  0.60209669  1
  O2-  O137  1  -0.00203230  0.74723830  0.94474002  1
  O2-  O138  1  0.50092464  0.25464064  0.27790885  1
  O2-  O139  1  0.49356567  0.25506942  0.60262499  1
  O2-  O140  1  0.50189141  0.25398734  0.93580158  1
  O2-  O141  1  0.50253030  0.75053485  0.26947251  1
  O2-  O142  1  0.50582896  0.75426064  0.61242252  1
  O2-  O143  1  0.50817076  0.74951936  0.93557324  1
  O2-  O144  1  0.06974175  0.17962220  0.10103502  1
  O2-  O145  1  0.07831136  0.17630397  0.42368976  1
  O2-  O146  1  0.07471446  0.17736270  0.75472483  1
  O2-  O147  1  0.07081344  0.67543823  0.08955572  1
  O2-  O148  1  0.07273713  0.68353794  0.43023726  1
  O2-  O149  1  0.07260056  0.68344195  0.76598867  1
  O2-  O150  1  0.57250296  0.18258238  0.09883294  1
  O2-  O151  1  0.56776451  0.17782358  0.42308119  1
  O2-  O152  1  0.56953891  0.18261028  0.76310109  1
  O2-  O153  1  0.57068310  0.67878172  0.08769320  1
  O2-  O154  1  0.56924091  0.67699536  0.43277472  1
  O2-  O155  1  0.56686683  0.67471720  0.75960526  1
  O2-  O156  1  0.18252929  0.42567176  0.23197173  1
  O2-  O157  1  0.17699884  0.42632628  0.57948633  1
  O2-  O158  1  0.17584492  0.43115073  0.90817583  1
  O2-  O159  1  0.17978748  0.92857269  0.24390833  1
  O2-  O160  1  0.18678493  0.93000107  0.56594988  1
  O2-  O161  1  0.17944267  0.92782296  0.90358137  1
  O2-  O162  1  0.67735942  0.42756204  0.23606549  1
  O2-  O163  1  0.67976544  0.43316879  0.56902172  1
  O2-  O164  1  0.68332338  0.43092549  0.90128421  1
  O2-  O165  1  0.67404141  0.93451520  0.24049329  1
  O2-  O166  1  0.67325133  0.92819161  0.56618455  1
  O2-  O167  1  0.67867647  0.92226441  0.91202857  1
  O2-  O168  1  0.42592002  0.32139468  0.09928646  1
  O2-  O169  1  0.42238460  0.31604293  0.42650047  1
  O2-  O170  1  0.42849601  0.32462273  0.75376347  1
  O2-  O171  1  0.42867701  0.81540226  0.09598772  1
  O2-  O172  1  0.42825416  0.82142518  0.43190578  1
  O2-  O173  1  0.42769393  0.81731765  0.75842085  1
  O2-  O174  1  0.93121738  0.32356375  0.08936909  1
  O2-  O175  1  0.92874695  0.31726661  0.43122522  1
  O2-  O176  1  0.93089114  0.31656604  0.76603061  1
  O2-  O177  1  0.93221195  0.82095954  0.09261093  1
  O2-  O178  1  0.93249338  0.82778788  0.42107995  1
  O2-  O179  1  0.93014430  0.82252209  0.76642319  1
  O2-  O180  1  0.32238291  0.07417395  0.24269637  1
  O2-  O181  1  0.32401120  0.07334674  0.57802262  1
  O2-  O182  1  0.32006847  0.07051803  0.90954873  1
  O2-  O183  1  0.31795572  0.57144247  0.24270738  1
  O2-  O184  1  0.31918779  0.56991277  0.56727171  1
  O2-  O185  1  0.31776528  0.57298592  0.91295377  1
  O2-  O186  1  0.82037499  0.07038529  0.23556772  1
  O2-  O187  1  0.81657089  0.07054988  0.56878729  1
  O2-  O188  1  0.82095940  0.06736495  0.90292336  1
  O2-  O189  1  0.82190633  0.56741742  0.23395129  1
  O2-  O190  1  0.82387381  0.57240215  0.57737701  1
  O2-  O191  1  0.82577709  0.57663922  0.90980089  1
  O2-  O192  1  0.05037289  0.08139195  0.27413391  1
  O2-  O193  1  0.05035174  0.08302805  0.60350145  1
  O2-  O194  1  0.03717793  0.07978339  0.93615846  1
  O2-  O195  1  0.03935845  0.58282792  0.26248223  1
  O2-  O196  1  0.05114840  0.57999101  0.60055997  1
  O2-  O197  1  0.04646988  0.58608373  0.93486003  1
  O2-  O198  1  0.54043832  0.09127419  0.26816090  1
  O2-  O199  1  0.53699183  0.08461741  0.59470557  1
  O2-  O200  1  0.54720957  0.08202680  0.93141142  1
  O2-  O201  1  0.54050649  0.57871657  0.26484677  1
  O2-  O202  1  0.53483107  0.58775869  0.60676694  1
  O2-  O203  1  0.54247229  0.58650120  0.93688820  1
  O2-  O204  1  0.16823171  0.20313997  0.27174374  1
  O2-  O205  1  0.17008972  0.19985257  0.60416806  1
  O2-  O206  1  0.16463288  0.20454740  0.92977593  1
  O2-  O207  1  0.16338195  0.71120025  0.26042845  1
  O2-  O208  1  0.16946700  0.71468820  0.59940581  1
  O2-  O209  1  0.16255433  0.70804559  0.93889024  1
  O2-  O210  1  0.66244466  0.20831271  0.27214232  1
  O2-  O211  1  0.66468875  0.21308180  0.59618400  1
  O2-  O212  1  0.67200626  0.21211139  0.93277734  1
  O2-  O213  1  0.67178950  0.70156364  0.26343598  1
  O2-  O214  1  0.66425086  0.69640891  0.60805988  1
  O2-  O215  1  0.66940678  0.69865275  0.93861243  1
  O2-  O216  1  0.08699610  0.45737606  0.06111551  1
  O2-  O217  1  0.08217027  0.45830228  0.39747737  1
  O2-  O218  1  0.08242428  0.45342895  0.73170564  1
  O2-  O219  1  0.08521154  0.95964378  0.07349714  1
  O2-  O220  1  0.09092704  0.95542304  0.39892923  1
  O2-  O221  1  0.08544727  0.95911492  0.73407453  1
  O2-  O222  1  0.58306742  0.46114626  0.06746906  1
  O2-  O223  1  0.57587022  0.45244956  0.40164686  1
  O2-  O224  1  0.58511170  0.46154217  0.73681690  1
  O2-  O225  1  0.57899726  0.94870535  0.05908172  1
  O2-  O226  1  0.58314491  0.95907073  0.39256227  1
  O2-  O227  1  0.57775609  0.95720950  0.73220349  1
  O2-  O228  1  0.20411700  0.33366514  0.05789899  1
  O2-  O229  1  0.20963504  0.33218261  0.40350784  1
  O2-  O230  1  0.19968057  0.33199671  0.73008684  1
  O2-  O231  1  0.21248117  0.83195398  0.07005925  1
  O2-  O232  1  0.21037830  0.83522871  0.39443662  1
  O2-  O233  1  0.21636813  0.83708642  0.73544152  1
  O2-  O234  1  0.71127764  0.33593467  0.07052708  1
  O2-  O235  1  0.70993390  0.33231686  0.40187964  1
  O2-  O236  1  0.71433110  0.33482475  0.73375347  1
  O2-  O237  1  0.70223378  0.83213719  0.06421119  1
  O2-  O238  1  0.69435091  0.83274972  0.38766286  1
  O2-  O239  1  0.69730763  0.82572794  0.73378464  1
  O2-  O240  1  0.44564197  0.41403351  0.27591807  1
  O2-  O241  1  0.45440370  0.41938431  0.60454934  1
  O2-  O242  1  0.45255092  0.42490163  0.93573382  1
  O2-  O243  1  0.45507745  0.92056377  0.26267202  1
  O2-  O244  1  0.44934743  0.91404338  0.60682608  1
  O2-  O245  1  0.45200154  0.91713777  0.92867164  1
  O2-  O246  1  0.95976505  0.41388005  0.26261445  1
  O2-  O247  1  0.95859206  0.41548516  0.59825668  1
  O2-  O248  1  0.95546343  0.41494081  0.93601931  1
  O2-  O249  1  0.96175394  0.91752643  0.26948880  1
  O2-  O250  1  0.96022179  0.92020411  0.59911556  1
  O2-  O251  1  0.96192773  0.91132145  0.94071079  1
  O2-  O252  1  0.33570042  0.28685534  0.27287632  1
  O2-  O253  1  0.33184494  0.30278198  0.60412952  1
  O2-  O254  1  0.33079190  0.29648540  0.92797982  1
  O2-  O255  1  0.33229519  0.79148958  0.26232956  1
  O2-  O256  1  0.34055091  0.78584329  0.60516807  1
  O2-  O257  1  0.33315460  0.78229944  0.93101403  1
  O2-  O258  1  0.83291033  0.28524529  0.26417552  1
  O2-  O259  1  0.83428003  0.28621624  0.59750994  1
  O2-  O260  1  0.83523973  0.29529900  0.94031599  1
  O2-  O261  1  0.83289833  0.80821388  0.27074163  1
  O2-  O262  1  0.82597707  0.80086538  0.60074748  1
  O2-  O263  1  0.83683614  0.79763823  0.94049709  1
  O2-  O264  1  0.41702329  0.04720730  0.05958400  1
  O2-  O265  1  0.41478581  0.04291836  0.39522791  1
  O2-  O266  1  0.41641658  0.04779042  0.72981776  1
  O2-  O267  1  0.41193392  0.54725236  0.06599437  1
  O2-  O268  1  0.41275854  0.54840713  0.39498046  1
  O2-  O269  1  0.41335964  0.54007431  0.73984020  1
  O2-  O270  1  0.91358953  0.03545671  0.07220741  1
  O2-  O271  1  0.91924153  0.04299333  0.40269772  1
  O2-  O272  1  0.92017745  0.04645327  0.73320922  1
  O2-  O273  1  0.91926646  0.54702838  0.05996600  1
  O2-  O274  1  0.91898396  0.54136500  0.40008880  1
  O2-  O275  1  0.91943630  0.54742297  0.72764016  1
  O2-  O276  1  0.29599475  0.16718889  0.05909672  1
  O2-  O277  1  0.29410684  0.15950279  0.40024921  1
  O2-  O278  1  0.30310008  0.17118358  0.72828905  1
  O2-  O279  1  0.28677805  0.65985454  0.06699198  1
  O2-  O280  1  0.29147451  0.66644127  0.39284323  1
  O2-  O281  1  0.28667445  0.66441563  0.73786718  1
  O2-  O282  1  0.79023362  0.16597110  0.07016422  1
  O2-  O283  1  0.78645257  0.16441892  0.40232842  1
  O2-  O284  1  0.78712221  0.16723088  0.73528180  1
  O2-  O285  1  0.80254552  0.66841195  0.06286214  1
  O2-  O286  1  0.80124842  0.67546251  0.39689088  1
  O2-  O287  1  0.80074924  0.66732758  0.72813368  1
