# generated using pymatgen
data_Ca2Al2SiO7
_symmetry_space_group_name_H-M   'P 1'
_cell_length_a   15.45437088
_cell_length_b   15.45406113
_cell_length_c   15.27990483
_cell_angle_alpha   89.99806465
_cell_angle_beta   90.00077680
_cell_angle_gamma   90.00924313
_symmetry_Int_Tables_number   1
_chemical_formula_structural   Ca2Al2SiO7
_chemical_formula_sum   'Ca48 Al48 Si24 O168'
_cell_volume   3649.34228590
_cell_formula_units_Z   24
loop_
 _symmetry_equiv_pos_site_id
 _symmetry_equiv_pos_as_xyz
  1  'x, y, z'
loop_
 _atom_type_symbol
 _atom_type_oxidation_number
  Ca2+  2.0
  Al0+  0.0
  Si0+  0.0
  O2-  -2.0
loop_
 _atom_site_type_symbol
 _atom_site_label
 _atom_site_symmetry_multiplicity
 _atom_site_fract_x
 _atom_site_fract_y
 _atom_site_fract_z
 _atom_site_occupancy
  Ca2+  Ca0  1  0.17877280  0.08786452  0.16918824  1
  Ca2+  Ca1  1  0.17401154  0.07684150  0.50587396  1
  Ca2+  Ca2  1  0.17223182  0.07912506  0.84194923  1
  Ca2+  Ca3  1  0.17735247  0.59144033  0.17093851  1
  Ca2+  Ca4  1  0.17491300  0.59205839  0.50480933  1
  Ca2+  Ca5  1  0.17649651  0.58996549  0.83396319  1
  Ca2+  Ca6  1  0.66063514  0.08010444  0.16568768  1
  Ca2+  Ca7  1  0.66438878  0.07981698  0.50283696  1
  Ca2+  Ca8  1  0.66705348  0.07348088  0.84328275  1
  Ca2+  Ca9  1  0.66727661  0.57331385  0.17210137  1
  Ca2+  Ca10  1  0.65801746  0.57210621  0.50231671  1
  Ca2+  Ca11  1  0.66646776  0.57051881  0.84229241  1
  Ca2+  Ca12  1  0.07608475  0.32999392  0.16068895  1
  Ca2+  Ca13  1  0.07283375  0.33583109  0.49212318  1
  Ca2+  Ca14  1  0.08629456  0.32541577  0.83266930  1
  Ca2+  Ca15  1  0.07734153  0.82965669  0.16125012  1
  Ca2+  Ca16  1  0.09146346  0.82375496  0.50008856  1
  Ca2+  Ca17  1  0.07714972  0.83197504  0.82722600  1
  Ca2+  Ca18  1  0.59102138  0.32444503  0.16299032  1
  Ca2+  Ca19  1  0.58204192  0.33333817  0.49444510  1
  Ca2+  Ca20  1  0.58506290  0.33162826  0.83065637  1
  Ca2+  Ca21  1  0.57990589  0.82729485  0.15803703  1
  Ca2+  Ca22  1  0.57979324  0.82821356  0.49692557  1
  Ca2+  Ca23  1  0.57306803  0.84111059  0.83013349  1
  Ca2+  Ca24  1  0.33435167  0.42915908  0.17073050  1
  Ca2+  Ca25  1  0.34089345  0.43032222  0.50558280  1
  Ca2+  Ca26  1  0.34082284  0.42881661  0.83630779  1
  Ca2+  Ca27  1  0.34443042  0.92843214  0.16543791  1
  Ca2+  Ca28  1  0.33289133  0.92049435  0.50549260  1
  Ca2+  Ca29  1  0.32932274  0.91312512  0.83926637  1
  Ca2+  Ca30  1  0.82476522  0.41422208  0.16848059  1
  Ca2+  Ca31  1  0.82227150  0.41170211  0.50213628  1
  Ca2+  Ca32  1  0.82275463  0.42281816  0.84108966  1
  Ca2+  Ca33  1  0.83325840  0.91851824  0.16159480  1
  Ca2+  Ca34  1  0.82473622  0.91863807  0.50694608  1
  Ca2+  Ca35  1  0.82099040  0.91577302  0.84454585  1
  Ca2+  Ca36  1  0.42487111  0.16199430  0.15867355  1
  Ca2+  Ca37  1  0.42161091  0.17258913  0.49381624  1
  Ca2+  Ca38  1  0.42139325  0.17082507  0.83137687  1
  Ca2+  Ca39  1  0.41902582  0.66678803  0.16220762  1
  Ca2+  Ca40  1  0.41541273  0.67049453  0.49648786  1
  Ca2+  Ca41  1  0.41013975  0.67556321  0.82862232  1
  Ca2+  Ca42  1  0.91797760  0.17034243  0.15755833  1
  Ca2+  Ca43  1  0.91657476  0.17324418  0.49301753  1
  Ca2+  Ca44  1  0.91924581  0.15853598  0.83737800  1
  Ca2+  Ca45  1  0.92107241  0.66767345  0.15805352  1
  Ca2+  Ca46  1  0.93118848  0.66325873  0.49345081  1
  Ca2+  Ca47  1  0.91739203  0.66806863  0.83160347  1
  Al0+  Al48  1  -0.00128200  -0.00233379  -0.00509949  1
  Al0+  Al49  1  -0.00021825  -0.00034016  0.33613240  1
  Al0+  Al50  1  0.00147833  -0.00047329  0.66721891  1
  Al0+  Al51  1  0.00035384  0.49863022  0.00008231  1
  Al0+  Al52  1  -0.00005242  0.50080811  0.32167293  1
  Al0+  Al53  1  0.00136638  0.49877034  0.66245569  1
  Al0+  Al54  1  0.49908323  -0.00070541  -0.00231938  1
  Al0+  Al55  1  0.49978188  0.00129223  0.33711575  1
  Al0+  Al56  1  0.50061090  0.00160611  0.66456856  1
  Al0+  Al57  1  0.49918607  0.49901741  0.00959834  1
  Al0+  Al58  1  0.49959859  0.50086517  0.33772230  1
  Al0+  Al59  1  0.50002649  0.49981350  0.67279423  1
  Al0+  Al60  1  0.24972388  0.25018278  -0.00092635  1
  Al0+  Al61  1  0.25003452  0.25142411  0.33987847  1
  Al0+  Al62  1  0.25091200  0.25176705  0.65937219  1
  Al0+  Al63  1  0.24975429  0.74983174  0.00171964  1
  Al0+  Al64  1  0.24941834  0.75246130  0.33127413  1
  Al0+  Al65  1  0.25024301  0.75252973  0.66652268  1
  Al0+  Al66  1  0.75064534  0.24840506  -0.00060589  1
  Al0+  Al67  1  0.74987593  0.24958113  0.33012926  1
  Al0+  Al68  1  0.75153468  0.24968591  0.67104986  1
  Al0+  Al69  1  0.74999594  0.74769612  0.00283802  1
  Al0+  Al70  1  0.74988897  0.74927622  0.33102585  1
  Al0+  Al71  1  0.74992338  0.75041748  0.66935480  1
  Al0+  Al72  1  0.43022529  0.81927325  0.98670986  1
  Al0+  Al73  1  0.92898144  0.31963952  0.31839665  1
  Al0+  Al74  1  0.31963947  0.07130358  0.01101139  1
  Al0+  Al75  1  0.57125861  0.17943305  0.98508558  1
  Al0+  Al76  1  0.31936292  0.57182142  0.34848078  1
  Al0+  Al77  1  0.56878059  0.17951750  0.31980079  1
  Al0+  Al78  1  0.92772006  0.81907396  0.98540574  1
  Al0+  Al79  1  0.68184989  0.42871788  0.34865611  1
  Al0+  Al80  1  0.82292877  0.57127311  0.01517080  1
  Al0+  Al81  1  0.82204476  0.06878052  0.01522383  1
  Al0+  Al82  1  0.18111686  0.93021525  0.68121245  1
  Al0+  Al83  1  0.31872493  0.57213520  0.01474310  1
  Al0+  Al84  1  0.06936196  0.68044057  0.65395499  1
  Al0+  Al85  1  0.67623504  0.92844751  0.01644771  1
  Al0+  Al86  1  0.07179870  0.68119147  0.31737852  1
  Al0+  Al87  1  0.43011106  0.32293794  0.65291089  1
  Al0+  Al88  1  0.67936146  0.42930307  0.68089733  1
  Al0+  Al89  1  0.31904566  0.57059104  0.68031507  1
  Al0+  Al90  1  0.57058277  0.67757612  0.32049904  1
  Al0+  Al91  1  0.32259558  0.07239646  0.34893127  1
  Al0+  Al92  1  0.42940815  0.82205073  0.65241118  1
  Al0+  Al93  1  0.07202646  0.17895574  0.98683462  1
  Al0+  Al94  1  0.67813008  0.92856187  0.67958843  1
  Al0+  Al95  1  0.67852001  0.42778228  0.01724619  1
  Si0+  Si96  1  0.17638517  0.93018450  0.35014693  1
  Si0+  Si97  1  0.57351046  0.17997531  0.64993708  1
  Si0+  Si98  1  0.07217855  0.67685512  0.98190419  1
  Si0+  Si99  1  0.82129323  0.07029605  0.34788102  1
  Si0+  Si100  1  0.57279285  0.67771043  0.65261495  1
  Si0+  Si101  1  0.92600505  0.82311725  0.64877248  1
  Si0+  Si102  1  0.42906687  0.82230338  0.31690481  1
  Si0+  Si103  1  0.82350692  0.57331566  0.35012427  1
  Si0+  Si104  1  0.42669702  0.32310390  0.31699784  1
  Si0+  Si105  1  0.07295736  0.17673455  0.31850645  1
  Si0+  Si106  1  0.92827955  0.32182120  0.97998523  1
  Si0+  Si107  1  0.17702118  0.92785872  0.01672002  1
  Si0+  Si108  1  0.82285045  0.07174906  0.68293944  1
  Si0+  Si109  1  0.57134934  0.67511432  0.98420500  1
  Si0+  Si110  1  0.17811535  0.42640484  0.01606756  1
  Si0+  Si111  1  0.82577844  0.57057038  0.68053874  1
  Si0+  Si112  1  0.92965994  0.31941933  0.65222842  1
  Si0+  Si113  1  0.32171175  0.07503936  0.68341060  1
  Si0+  Si114  1  0.17561397  0.42903966  0.34942846  1
  Si0+  Si115  1  0.07197392  0.17713348  0.64962922  1
  Si0+  Si116  1  0.42773055  0.32331699  0.98496186  1
  Si0+  Si117  1  0.17542870  0.42650504  0.68199460  1
  Si0+  Si118  1  0.92617309  0.82375786  0.31706707  1
  Si0+  Si119  1  0.67890261  0.92737528  0.34872657  1
  O2-  O120  1  0.24520604  -0.00281060  0.06035341  1
  O2-  O121  1  0.24519000  -0.00054184  0.39366323  1
  O2-  O122  1  0.25478598  0.00537469  0.72826214  1
  O2-  O123  1  0.24352964  0.49757077  0.06084529  1
  O2-  O124  1  0.24400587  0.49708484  0.39501946  1
  O2-  O125  1  0.24486783  0.49414429  0.72602275  1
  O2-  O126  1  0.74822919  0.00026085  0.06757633  1
  O2-  O127  1  0.75144323  -0.00191359  0.39014427  1
  O2-  O128  1  0.75494904  0.00163328  0.72464220  1
  O2-  O129  1  0.75063319  0.50046624  0.06598496  1
  O2-  O130  1  0.75487327  0.50558639  0.39630621  1
  O2-  O131  1  0.75292804  0.50646115  0.72448108  1
  O2-  O132  1  0.00586288  0.24601444  0.27358386  1
  O2-  O133  1  0.00052967  0.24838401  0.60874120  1
  O2-  O134  1  -0.00298073  0.25228645  0.93667963  1
  O2-  O135  1  -0.00560427  0.75429958  0.27362679  1
  O2-  O136  1  -0.00703736  0.75291775  0.60453408  1
  O2-  O137  1  0.00093658  0.74286738  0.93826717  1
  O2-  O138  1  0.49246924  0.25240553  0.27230326  1
  O2-  O139  1  0.50542388  0.24898807  0.60551768  1
  O2-  O140  1  0.49784594  0.25628052  0.94007507  1
  O2-  O141  1  0.49610393  0.75208195  0.27339742  1
  O2-  O142  1  0.50615019  0.74838679  0.60748052  1
  O2-  O143  1  0.50442719  0.74456254  0.93854800  1
  O2-  O144  1  0.07263307  0.18269362  0.10006425  1
  O2-  O145  1  0.06948638  0.17653290  0.42458272  1
  O2-  O146  1  0.07292499  0.17715938  0.75458355  1
  O2-  O147  1  0.07327539  0.67963796  0.08761869  1
  O2-  O148  1  0.07195997  0.68263641  0.43092266  1
  O2-  O149  1  0.06740075  0.68125252  0.76674909  1
  O2-  O150  1  0.56800926  0.17900994  0.09833509  1
  O2-  O151  1  0.56941312  0.17941974  0.43336253  1
  O2-  O152  1  0.57316201  0.17991996  0.75524010  1
  O2-  O153  1  0.56820722  0.67588586  0.09012565  1
  O2-  O154  1  0.57010667  0.68005474  0.43413296  1
  O2-  O155  1  0.57220136  0.67694574  0.75788666  1
  O2-  O156  1  0.17762957  0.42693481  0.24398993  1
  O2-  O157  1  0.17205696  0.42720233  0.57648647  1
  O2-  O158  1  0.17899497  0.42514628  0.91032912  1
  O2-  O159  1  0.17209836  0.93174683  0.24504726  1
  O2-  O160  1  0.18170293  0.93246041  0.56773300  1
  O2-  O161  1  0.17870463  0.92778380  0.91080977  1
  O2-  O162  1  0.68399495  0.42742362  0.23645840  1
  O2-  O163  1  0.68156271  0.42748119  0.56750137  1
  O2-  O164  1  0.67918740  0.42944228  0.90311146  1
  O2-  O165  1  0.67784318  0.92770722  0.24424975  1
  O2-  O166  1  0.68045400  0.93021088  0.56555772  1
  O2-  O167  1  0.67650959  0.93118037  0.90263494  1
  O2-  O168  1  0.42530817  0.32224171  0.09053032  1
  O2-  O169  1  0.42977975  0.32271378  0.42299414  1
  O2-  O170  1  0.42975826  0.32163622  0.76593287  1
  O2-  O171  1  0.43077479  0.81907767  0.10001768  1
  O2-  O172  1  0.43010406  0.82259870  0.42295480  1
  O2-  O173  1  0.42810377  0.82081788  0.76530200  1
  O2-  O174  1  0.93030061  0.32144538  0.08570060  1
  O2-  O175  1  0.92901132  0.31666149  0.43255357  1
  O2-  O176  1  0.93056441  0.31965290  0.75684824  1
  O2-  O177  1  0.93314052  0.82033194  0.09882083  1
  O2-  O178  1  0.92515238  0.82468772  0.42281227  1
  O2-  O179  1  0.92644996  0.82331469  0.75406042  1
  O2-  O180  1  0.32269721  0.07068697  0.23578325  1
  O2-  O181  1  0.31902201  0.07413454  0.57743374  1
  O2-  O182  1  0.31745677  0.07196849  0.89799917  1
  O2-  O183  1  0.31794137  0.57099379  0.23542729  1
  O2-  O184  1  0.31784665  0.57060329  0.56710447  1
  O2-  O185  1  0.31744533  0.57207170  0.90149226  1
  O2-  O186  1  0.82465989  0.06957862  0.24367312  1
  O2-  O187  1  0.82283298  0.07360567  0.57659202  1
  O2-  O188  1  0.82155449  0.06575021  0.90129136  1
  O2-  O189  1  0.82190564  0.57321110  0.24499226  1
  O2-  O190  1  0.82952052  0.56732503  0.57497311  1
  O2-  O191  1  0.82298402  0.56814707  0.90080966  1
  O2-  O192  1  0.04694682  0.08295988  0.27382538  1
  O2-  O193  1  0.04313266  0.08581514  0.60112446  1
  O2-  O194  1  0.04162620  0.08303983  0.93114299  1
  O2-  O195  1  0.04535259  0.58506289  0.26103818  1
  O2-  O196  1  0.04256763  0.58267089  0.59827441  1
  O2-  O197  1  0.05049955  0.58148087  0.93745995  1
  O2-  O198  1  0.53867736  0.08177910  0.26761730  1
  O2-  O199  1  0.54741587  0.08704002  0.60226752  1
  O2-  O200  1  0.53722430  0.08438248  0.93038920  1
  O2-  O201  1  0.53893514  0.58121287  0.26714385  1
  O2-  O202  1  0.54379582  0.58485506  0.60692588  1
  O2-  O203  1  0.54330840  0.58082190  0.94063382  1
  O2-  O204  1  0.16818380  0.20165863  0.27569658  1
  O2-  O205  1  0.16277460  0.20452281  0.60010261  1
  O2-  O206  1  0.16693635  0.21218457  0.92954621  1
  O2-  O207  1  0.16670180  0.71583312  0.26230984  1
  O2-  O208  1  0.16421977  0.71599379  0.59936214  1
  O2-  O209  1  0.16469989  0.70645996  0.93633512  1
  O2-  O210  1  0.66516847  0.20940234  0.26620416  1
  O2-  O211  1  0.66850844  0.20472109  0.60514840  1
  O2-  O212  1  0.66876588  0.20709163  0.93094503  1
  O2-  O213  1  0.66763783  0.70678006  0.26672459  1
  O2-  O214  1  0.66752998  0.70066308  0.60608444  1
  O2-  O215  1  0.66652971  0.69596226  0.94041493  1
  O2-  O216  1  0.08330642  0.44823992  0.06095616  1
  O2-  O217  1  0.08049341  0.45552343  0.39239944  1
  O2-  O218  1  0.08227192  0.45141900  0.72961172  1
  O2-  O219  1  0.08330976  0.95293908  0.06103180  1
  O2-  O220  1  0.08328386  0.95406266  0.40006023  1
  O2-  O221  1  0.08303696  0.95911941  0.73376843  1
  O2-  O222  1  0.58077525  0.45337939  0.07232151  1
  O2-  O223  1  0.58467728  0.45932234  0.40229595  1
  O2-  O224  1  0.58433421  0.45882845  0.73730760  1
  O2-  O225  1  0.57872603  0.95870249  0.06940397  1
  O2-  O226  1  0.58878876  0.95768821  0.39808726  1
  O2-  O227  1  0.58188702  0.96161833  0.73259170  1
  O2-  O228  1  0.20530388  0.33447730  0.06440829  1
  O2-  O229  1  0.19692484  0.33508171  0.39788412  1
  O2-  O230  1  0.20088230  0.33158916  0.72557878  1
  O2-  O231  1  0.20272424  0.83489356  0.06336284  1
  O2-  O232  1  0.20535285  0.83740227  0.39595842  1
  O2-  O233  1  0.21189114  0.83506137  0.73628106  1
  O2-  O234  1  0.70945401  0.32933298  0.06738946  1
  O2-  O235  1  0.71541610  0.33204469  0.40232402  1
  O2-  O236  1  0.71244438  0.33350250  0.73508096  1
  O2-  O237  1  0.70370848  0.82931024  0.06726419  1
  O2-  O238  1  0.70695008  0.83562672  0.39684588  1
  O2-  O239  1  0.70513664  0.83127857  0.73420873  1
  O2-  O240  1  0.45350074  0.41658913  0.27261288  1
  O2-  O241  1  0.46242857  0.41979391  0.59983972  1
  O2-  O242  1  0.45401424  0.41778446  0.94062470  1
  O2-  O243  1  0.45841748  0.91540824  0.27264717  1
  O2-  O244  1  0.45874329  0.91941049  0.59781464  1
  O2-  O245  1  0.45919656  0.91517720  0.93072608  1
  O2-  O246  1  0.95732611  0.41486234  0.26125719  1
  O2-  O247  1  0.95726541  0.40992942  0.60188148  1
  O2-  O248  1  0.95572666  0.41502951  0.93346281  1
  O2-  O249  1  0.95415650  0.91740070  0.27164095  1
  O2-  O250  1  0.95332009  0.91690375  0.60274089  1
  O2-  O251  1  0.95934248  0.91367615  0.92811857  1
  O2-  O252  1  0.33042312  0.30128613  0.27482911  1
  O2-  O253  1  0.33364800  0.29493456  0.59557532  1
  O2-  O254  1  0.33500006  0.29728726  0.93733744  1
  O2-  O255  1  0.33477424  0.80071069  0.27153650  1
  O2-  O256  1  0.33410851  0.78983602  0.59703004  1
  O2-  O257  1  0.33234823  0.78818646  0.93415754  1
  O2-  O258  1  0.83512120  0.28497830  0.26343502  1
  O2-  O259  1  0.83815617  0.28939375  0.60437558  1
  O2-  O260  1  0.83530845  0.29568236  0.93387165  1
  O2-  O261  1  0.83278547  0.80029742  0.27031934  1
  O2-  O262  1  0.83136733  0.79971518  0.60307161  1
  O2-  O263  1  0.83010575  0.78964132  0.93197938  1
  O2-  O264  1  0.41460720  0.03778629  0.06556229  1
  O2-  O265  1  0.41711634  0.03884263  0.40596648  1
  O2-  O266  1  0.41727783  0.05273956  0.72526435  1
  O2-  O267  1  0.41365117  0.54108141  0.07111723  1
  O2-  O268  1  0.41520050  0.54095557  0.40400290  1
  O2-  O269  1  0.41463697  0.54076040  0.73604367  1
  O2-  O270  1  0.92045385  0.03803607  0.06758817  1
  O2-  O271  1  0.91291769  0.04427356  0.39861514  1
  O2-  O272  1  0.91748285  0.04813113  0.72721898  1
  O2-  O273  1  0.92237491  0.54323229  0.06724552  1
  O2-  O274  1  0.91873449  0.54564268  0.39212486  1
  O2-  O275  1  0.91714338  0.54014492  0.72864533  1
  O2-  O276  1  0.28931044  0.16756516  0.06632555  1
  O2-  O277  1  0.29405746  0.16939775  0.40453346  1
  O2-  O278  1  0.29366613  0.16899525  0.72688464  1
  O2-  O279  1  0.28701271  0.66761105  0.07064595  1
  O2-  O280  1  0.28859494  0.67020402  0.39957549  1
  O2-  O281  1  0.28542887  0.66631174  0.73330735  1
  O2-  O282  1  0.79884860  0.16917613  0.06483923  1
  O2-  O283  1  0.79106810  0.16088612  0.39636546  1
  O2-  O284  1  0.79838373  0.16444475  0.73069954  1
  O2-  O285  1  0.79889712  0.66967714  0.06893266  1
  O2-  O286  1  0.80065715  0.66804634  0.39602248  1
  O2-  O287  1  0.80532337  0.66636533  0.72386765  1
