# generated using pymatgen
data_Ca2Al2SiO7
_symmetry_space_group_name_H-M   'P 1'
_cell_length_a   15.46107095
_cell_length_b   15.46113055
_cell_length_c   15.28732702
_cell_angle_alpha   90.00080072
_cell_angle_beta   89.99015331
_cell_angle_gamma   89.99773200
_symmetry_Int_Tables_number   1
_chemical_formula_structural   Ca2Al2SiO7
_chemical_formula_sum   'Ca48 Al48 Si24 O168'
_cell_volume   3654.36875922
_cell_formula_units_Z   24
loop_
 _symmetry_equiv_pos_site_id
 _symmetry_equiv_pos_as_xyz
  1  'x, y, z'
loop_
 _atom_type_symbol
 _atom_type_oxidation_number
  Ca2+  2.0
  Al0+  0.0
  Si0+  0.0
  O2-  -2.0
loop_
 _atom_site_type_symbol
 _atom_site_label
 _atom_site_symmetry_multiplicity
 _atom_site_fract_x
 _atom_site_fract_y
 _atom_site_fract_z
 _atom_site_occupancy
  Ca2+  Ca0  1  0.16840309  0.08073203  0.16519948  1
  Ca2+  Ca1  1  0.15900395  0.08831065  0.50298149  1
  Ca2+  Ca2  1  0.16686281  0.07828117  0.84134319  1
  Ca2+  Ca3  1  0.17759042  0.58032344  0.17092163  1
  Ca2+  Ca4  1  0.17336645  0.58135242  0.50901746  1
  Ca2+  Ca5  1  0.17185433  0.57409185  0.83618311  1
  Ca2+  Ca6  1  0.67048834  0.07636498  0.17841511  1
  Ca2+  Ca7  1  0.67872365  0.08041776  0.50441236  1
  Ca2+  Ca8  1  0.67463210  0.08640532  0.83326789  1
  Ca2+  Ca9  1  0.66512372  0.58625073  0.16868882  1
  Ca2+  Ca10  1  0.67703703  0.57524210  0.51071350  1
  Ca2+  Ca11  1  0.66868067  0.58121543  0.83059599  1
  Ca2+  Ca12  1  0.08153155  0.33190634  0.16621471  1
  Ca2+  Ca13  1  0.07649545  0.32887054  0.49747140  1
  Ca2+  Ca14  1  0.08675070  0.33010788  0.82223307  1
  Ca2+  Ca15  1  0.08905485  0.82828602  0.16427004  1
  Ca2+  Ca16  1  0.07721181  0.82106868  0.50144789  1
  Ca2+  Ca17  1  0.08441065  0.82764580  0.82342323  1
  Ca2+  Ca18  1  0.56932114  0.33393928  0.16129729  1
  Ca2+  Ca19  1  0.57348037  0.34421742  0.49933310  1
  Ca2+  Ca20  1  0.57035199  0.34097850  0.82806835  1
  Ca2+  Ca21  1  0.57881241  0.82859748  0.15655937  1
  Ca2+  Ca22  1  0.58411712  0.83323313  0.49629721  1
  Ca2+  Ca23  1  0.57629043  0.82798410  0.83398181  1
  Ca2+  Ca24  1  0.33478590  0.42202119  0.16879372  1
  Ca2+  Ca25  1  0.33162722  0.42428081  0.50924122  1
  Ca2+  Ca26  1  0.32415664  0.41802025  0.83798527  1
  Ca2+  Ca27  1  0.33358187  0.91724237  0.16532225  1
  Ca2+  Ca28  1  0.32932755  0.92120425  0.50475242  1
  Ca2+  Ca29  1  0.32702995  0.92340398  0.84540575  1
  Ca2+  Ca30  1  0.83048341  0.41447139  0.17292993  1
  Ca2+  Ca31  1  0.83183484  0.41353692  0.51240463  1
  Ca2+  Ca32  1  0.83410138  0.41815855  0.83029016  1
  Ca2+  Ca33  1  0.82408781  0.92257552  0.17909256  1
  Ca2+  Ca34  1  0.83984002  0.92637878  0.50435137  1
  Ca2+  Ca35  1  0.84300235  0.92279414  0.83308918  1
  Ca2+  Ca36  1  0.40866105  0.17693262  0.16082128  1
  Ca2+  Ca37  1  0.41639215  0.18390086  0.49586304  1
  Ca2+  Ca38  1  0.40956348  0.17792654  0.83002530  1
  Ca2+  Ca39  1  0.41854487  0.66702235  0.15631366  1
  Ca2+  Ca40  1  0.41366627  0.66198186  0.49593147  1
  Ca2+  Ca41  1  0.41288718  0.66269908  0.83364563  1
  Ca2+  Ca42  1  0.91698487  0.16712165  0.17050970  1
  Ca2+  Ca43  1  0.92108031  0.17183197  0.49640673  1
  Ca2+  Ca44  1  0.92516413  0.17216764  0.81937934  1
  Ca2+  Ca45  1  0.92646934  0.66563794  0.16443226  1
  Ca2+  Ca46  1  0.93124722  0.65491346  0.50009776  1
  Ca2+  Ca47  1  0.92398025  0.67315808  0.81944090  1
  Al0+  Al48  1  0.00007765  0.00114308  0.00665152  1
  Al0+  Al49  1  -0.00007059  -0.00073968  0.33258980  1
  Al0+  Al50  1  0.00009968  -0.00140965  0.66388762  1
  Al0+  Al51  1  -0.00127276  0.50043138  0.00339884  1
  Al0+  Al52  1  0.00170670  0.49924704  0.32252867  1
  Al0+  Al53  1  0.00107254  0.49939996  0.66741766  1
  Al0+  Al54  1  0.50251993  0.00050671  -0.00061260  1
  Al0+  Al55  1  0.49809640  -0.00002340  0.33879476  1
  Al0+  Al56  1  0.50042010  -0.00007055  0.66630680  1
  Al0+  Al57  1  0.50205763  0.49864754  -0.00508763  1
  Al0+  Al58  1  0.49990271  0.50263289  0.33200090  1
  Al0+  Al59  1  0.50156562  0.50278378  0.66919019  1
  Al0+  Al60  1  0.24723041  0.24897581  0.00336623  1
  Al0+  Al61  1  0.24803347  0.25005059  0.32543261  1
  Al0+  Al62  1  0.25269080  0.25113943  0.65990569  1
  Al0+  Al63  1  0.25007824  0.74942681  0.00181020  1
  Al0+  Al64  1  0.25088180  0.75011496  0.33367274  1
  Al0+  Al65  1  0.25071465  0.75221737  0.66563623  1
  Al0+  Al66  1  0.75015499  0.25180297  0.00108469  1
  Al0+  Al67  1  0.74788186  0.24893842  0.33420993  1
  Al0+  Al68  1  0.74809420  0.24683598  0.67437781  1
  Al0+  Al69  1  0.75107694  0.75042865  -0.00404983  1
  Al0+  Al70  1  0.74956801  0.74824074  0.33781110  1
  Al0+  Al71  1  0.74719495  0.75263537  0.66646633  1
  Al0+  Al72  1  0.92671911  0.82142327  0.65186029  1
  Al0+  Al73  1  0.17601144  0.42753551  0.01747115  1
  Al0+  Al74  1  0.67663882  0.92639514  0.34941494  1
  Al0+  Al75  1  0.32317673  0.07087882  0.01433414  1
  Al0+  Al76  1  0.82086408  0.07119002  0.35049586  1
  Al0+  Al77  1  0.42755903  0.82212293  0.98458700  1
  Al0+  Al78  1  0.07309770  0.67901424  0.31730667  1
  Al0+  Al79  1  0.17971767  0.42693333  0.67853230  1
  Al0+  Al80  1  0.32086025  0.57034793  0.34725223  1
  Al0+  Al81  1  0.67916211  0.42749072  0.68274169  1
  Al0+  Al82  1  0.92713535  0.32091010  0.65488834  1
  Al0+  Al83  1  0.07228116  0.67773181  0.65338882  1
  Al0+  Al84  1  0.92586460  0.32079657  0.31756739  1
  Al0+  Al85  1  0.07278844  0.17848354  0.65315267  1
  Al0+  Al86  1  0.43148899  0.32302047  0.65297159  1
  Al0+  Al87  1  0.57293887  0.67836417  0.98243067  1
  Al0+  Al88  1  0.32118066  0.57378385  0.68248031  1
  Al0+  Al89  1  0.82159772  0.06815782  0.68221033  1
  Al0+  Al90  1  0.42979420  0.32321918  0.31855316  1
  Al0+  Al91  1  0.82317003  0.57251047  0.68065992  1
  Al0+  Al92  1  0.32253327  0.56861211  0.01503764  1
  Al0+  Al93  1  0.07029936  0.17633915  0.31413465  1
  Al0+  Al94  1  0.42742525  0.31855605  0.98509335  1
  Al0+  Al95  1  0.17808785  0.92776431  0.01526361  1
  Si0+  Si96  1  0.57141097  0.68088378  0.31999163  1
  Si0+  Si97  1  0.56903919  0.17709183  0.31819353  1
  Si0+  Si98  1  0.06758178  0.17901416  0.98535675  1
  Si0+  Si99  1  0.17744129  0.42746068  0.34969721  1
  Si0+  Si100  1  0.32282103  0.07142006  0.67878594  1
  Si0+  Si101  1  0.07099384  0.67855933  0.98498625  1
  Si0+  Si102  1  0.42938380  0.82273372  0.65029053  1
  Si0+  Si103  1  0.92693434  0.32179445  0.98424138  1
  Si0+  Si104  1  0.82308301  0.56958512  0.34599424  1
  Si0+  Si105  1  0.92782457  0.81954335  0.31663050  1
  Si0+  Si106  1  0.42908180  0.82270450  0.31957173  1
  Si0+  Si107  1  0.93028286  0.82144887  0.98739125  1
  Si0+  Si108  1  0.57028136  0.68020340  0.64933145  1
  Si0+  Si109  1  0.31977477  0.07298109  0.34974131  1
  Si0+  Si110  1  0.67464689  0.92833744  0.68720419  1
  Si0+  Si111  1  0.18032554  0.93141487  0.67931922  1
  Si0+  Si112  1  0.57115626  0.17554580  0.65005554  1
  Si0+  Si113  1  0.68056327  0.42934857  0.01646704  1
  Si0+  Si114  1  0.82009027  0.57315630  0.01585211  1
  Si0+  Si115  1  0.67873196  0.43017499  0.34575888  1
  Si0+  Si116  1  0.57528011  0.17820795  0.98367350  1
  Si0+  Si117  1  0.68140180  0.92852356  0.01389573  1
  Si0+  Si118  1  0.82082834  0.07235299  0.01636205  1
  Si0+  Si119  1  0.17989274  0.92830602  0.35016021  1
  O2-  O120  1  0.25472086  -0.00459495  0.06516538  1
  O2-  O121  1  0.24699382  0.00359981  0.39217122  1
  O2-  O122  1  0.24849165  0.00472434  0.72124203  1
  O2-  O123  1  0.25068288  0.49754173  0.06688599  1
  O2-  O124  1  0.24681892  0.49544636  0.39350521  1
  O2-  O125  1  0.24985527  0.50025543  0.72978460  1
  O2-  O126  1  0.74886329  0.00202378  0.05748619  1
  O2-  O127  1  0.74990986  -0.00318099  0.39897043  1
  O2-  O128  1  0.74773290  -0.00735087  0.73098805  1
  O2-  O129  1  0.74954893  0.50213294  0.05947510  1
  O2-  O130  1  0.75675420  0.49377352  0.38689374  1
  O2-  O131  1  0.75446088  0.49742058  0.73182075  1
  O2-  O132  1  -0.00264335  0.24886448  0.26578512  1
  O2-  O133  1  0.00036669  0.25075005  0.60458262  1
  O2-  O134  1  -0.00052525  0.25240450  0.94321539  1
  O2-  O135  1  -0.00319936  0.75278919  0.27003932  1
  O2-  O136  1  -0.00702020  0.74309264  0.60357991  1
  O2-  O137  1  0.00334264  0.75368086  0.94437484  1
  O2-  O138  1  0.50177854  0.24542631  0.27169411  1
  O2-  O139  1  0.50775587  0.24912553  0.60600405  1
  O2-  O140  1  0.50127025  0.24114535  0.94011256  1
  O2-  O141  1  0.50344480  0.75483982  0.27877339  1
  O2-  O142  1  0.49813908  0.75026547  0.60699771  1
  O2-  O143  1  0.49625257  0.74688899  0.93403754  1
  O2-  O144  1  0.06394391  0.17620425  0.09005122  1
  O2-  O145  1  0.07054718  0.17801410  0.42734897  1
  O2-  O146  1  0.07207790  0.17578643  0.76737278  1
  O2-  O147  1  0.06752655  0.67889094  0.09038493  1
  O2-  O148  1  0.07267224  0.67972305  0.42995424  1
  O2-  O149  1  0.07446842  0.68313361  0.76721633  1
  O2-  O150  1  0.58106642  0.18182043  0.08922905  1
  O2-  O151  1  0.56721169  0.17712916  0.42354387  1
  O2-  O152  1  0.56663696  0.17064338  0.75558390  1
  O2-  O153  1  0.57714718  0.68281124  0.09680056  1
  O2-  O154  1  0.57049633  0.67905004  0.42493737  1
  O2-  O155  1  0.57121830  0.68183862  0.75400835  1
  O2-  O156  1  0.17828725  0.42994009  0.24394239  1
  O2-  O157  1  0.18238599  0.42568070  0.56483890  1
  O2-  O158  1  0.17347224  0.42805016  0.90418300  1
  O2-  O159  1  0.18335328  0.92612882  0.24525521  1
  O2-  O160  1  0.18350525  0.92951073  0.57394883  1
  O2-  O161  1  0.17352739  0.93205956  0.90146766  1
  O2-  O162  1  0.67709368  0.43384542  0.24028498  1
  O2-  O163  1  0.67719647  0.43171810  0.56836968  1
  O2-  O164  1  0.68370971  0.42654281  0.91213618  1
  O2-  O165  1  0.67735340  0.92695793  0.23499912  1
  O2-  O166  1  0.66939455  0.93214047  0.58199482  1
  O2-  O167  1  0.68368764  0.92800214  0.90908567  1
  O2-  O168  1  0.43190303  0.31872218  0.09850064  1
  O2-  O169  1  0.43302418  0.32376497  0.43152581  1
  O2-  O170  1  0.43017481  0.31919258  0.76593839  1
  O2-  O171  1  0.43292473  0.82364567  0.09873374  1
  O2-  O172  1  0.42822081  0.82269892  0.42498639  1
  O2-  O173  1  0.43061864  0.82642252  0.75468734  1
  O2-  O174  1  0.92306394  0.31921166  0.08919424  1
  O2-  O175  1  0.92470502  0.32264936  0.43041851  1
  O2-  O176  1  0.92820720  0.31748381  0.76908896  1
  O2-  O177  1  0.92727022  0.81841784  0.09254287  1
  O2-  O178  1  0.92852667  0.81812024  0.42167567  1
  O2-  O179  1  0.93352294  0.82377534  0.76623654  1
  O2-  O180  1  0.32318754  0.06989368  0.24500940  1
  O2-  O181  1  0.32487032  0.06719353  0.57339582  1
  O2-  O182  1  0.31818801  0.07141456  0.90027522  1
  O2-  O183  1  0.32341854  0.57086013  0.23456927  1
  O2-  O184  1  0.32049679  0.57342887  0.56834789  1
  O2-  O185  1  0.31911071  0.56770865  0.90201714  1
  O2-  O186  1  0.81663827  0.06892676  0.23582648  1
  O2-  O187  1  0.82053316  0.06735291  0.56978782  1
  O2-  O188  1  0.82257601  0.07089746  0.91137814  1
  O2-  O189  1  0.81829551  0.57327181  0.24045878  1
  O2-  O190  1  0.81972240  0.57164245  0.56643646  1
  O2-  O191  1  0.82132707  0.57337091  0.91143995  1
  O2-  O192  1  0.04239199  0.07682150  0.26175061  1
  O2-  O193  1  0.04383572  0.08067364  0.59997733  1
  O2-  O194  1  0.03682397  0.08712704  0.93879461  1
  O2-  O195  1  0.04233504  0.58477130  0.25926497  1
  O2-  O196  1  0.04892401  0.57876417  0.59987897  1
  O2-  O197  1  0.03771813  0.58795530  0.93905190  1
  O2-  O198  1  0.54288153  0.08273627  0.27276650  1
  O2-  O199  1  0.54084449  0.08439809  0.60084197  1
  O2-  O200  1  0.55807310  0.08228816  0.93975254  1
  O2-  O201  1  0.54165068  0.59119165  0.26960558  1
  O2-  O202  1  0.54416542  0.58862020  0.60116340  1
  O2-  O203  1  0.55105075  0.57860018  0.93099030  1
  O2-  O204  1  0.16853665  0.20333362  0.25997347  1
  O2-  O205  1  0.17090651  0.20354914  0.59807108  1
  O2-  O206  1  0.16062566  0.20270251  0.93970524  1
  O2-  O207  1  0.16854878  0.71458540  0.26362077  1
  O2-  O208  1  0.16734345  0.71570556  0.59842899  1
  O2-  O209  1  0.16358311  0.70258013  0.93920669  1
  O2-  O210  1  0.66289864  0.20066368  0.27208953  1
  O2-  O211  1  0.66705012  0.19597477  0.60824975  1
  O2-  O212  1  0.66680163  0.20975427  0.93530688  1
  O2-  O213  1  0.66436573  0.70504336  0.27201015  1
  O2-  O214  1  0.66103370  0.70936903  0.60030413  1
  O2-  O215  1  0.66957126  0.71279813  0.92826794  1
  O2-  O216  1  0.07769962  0.45824466  0.07096270  1
  O2-  O217  1  0.08238863  0.45442307  0.39136332  1
  O2-  O218  1  0.08084470  0.45075356  0.73205426  1
  O2-  O219  1  0.08201108  0.96064842  0.07229884  1
  O2-  O220  1  0.08625989  0.95176797  0.39495589  1
  O2-  O221  1  0.08842622  0.95580785  0.72708835  1
  O2-  O222  1  0.58841206  0.45567005  0.06320034  1
  O2-  O223  1  0.59072545  0.46670133  0.39458741  1
  O2-  O224  1  0.58408895  0.46399129  0.73702455  1
  O2-  O225  1  0.58891372  0.95266369  0.06140509  1
  O2-  O226  1  0.57829119  0.95461544  0.40328316  1
  O2-  O227  1  0.58289967  0.95951577  0.73510642  1
  O2-  O228  1  0.20064043  0.32826607  0.06939375  1
  O2-  O229  1  0.20139888  0.33197177  0.39145040  1
  O2-  O230  1  0.21185298  0.32872192  0.73165810  1
  O2-  O231  1  0.20191529  0.82856037  0.06799151  1
  O2-  O232  1  0.21352582  0.83926532  0.39917467  1
  O2-  O233  1  0.21166505  0.84167122  0.72814306  1
  O2-  O234  1  0.71089291  0.33873615  0.06618157  1
  O2-  O235  1  0.69628636  0.33577045  0.39122927  1
  O2-  O236  1  0.69862752  0.32796173  0.73689153  1
  O2-  O237  1  0.71320739  0.83791037  0.06197944  1
  O2-  O238  1  0.70266777  0.82719521  0.40230018  1
  O2-  O239  1  0.69411313  0.83301764  0.73090433  1
  O2-  O240  1  0.46595109  0.41818964  0.26414266  1
  O2-  O241  1  0.46395514  0.41987470  0.59990874  1
  O2-  O242  1  0.46261888  0.41305642  0.93132341  1
  O2-  O243  1  0.45379499  0.91586601  0.27315535  1
  O2-  O244  1  0.45962376  0.91353404  0.60078296  1
  O2-  O245  1  0.45973972  0.92018999  0.93141562  1
  O2-  O246  1  0.95320466  0.41812509  0.26033248  1
  O2-  O247  1  0.95016004  0.42044850  0.60301522  1
  O2-  O248  1  0.95094712  0.41613673  0.94079532  1
  O2-  O249  1  0.95162781  0.91347042  0.27070923  1
  O2-  O250  1  0.96400008  0.91501093  0.59591677  1
  O2-  O251  1  0.95548721  0.91569313  0.94336405  1
  O2-  O252  1  0.33353821  0.29338222  0.26475335  1
  O2-  O253  1  0.33812782  0.28994825  0.59476461  1
  O2-  O254  1  0.32960558  0.28755331  0.93376139  1
  O2-  O255  1  0.33897576  0.79269657  0.27138444  1
  O2-  O256  1  0.33754739  0.79763077  0.60165494  1
  O2-  O257  1  0.32701893  0.79863538  0.93369444  1
  O2-  O258  1  0.82590493  0.29294771  0.26440847  1
  O2-  O259  1  0.82704696  0.29091904  0.60599576  1
  O2-  O260  1  0.83572265  0.29225568  0.93668726  1
  O2-  O261  1  0.83355138  0.79171729  0.27149841  1
  O2-  O262  1  0.82403052  0.80597800  0.60369437  1
  O2-  O263  1  0.84043653  0.79286470  0.93726014  1
  O2-  O264  1  0.42431013  0.04851601  0.06588859  1
  O2-  O265  1  0.40989296  0.04345230  0.39970955  1
  O2-  O266  1  0.41245556  0.03976665  0.72787324  1
  O2-  O267  1  0.42350558  0.54177203  0.06483055  1
  O2-  O268  1  0.41861717  0.54094171  0.40070180  1
  O2-  O269  1  0.42077770  0.54902958  0.73248863  1
  O2-  O270  1  0.91078556  0.04367062  0.06609731  1
  O2-  O271  1  0.92017930  0.04194071  0.40036127  1
  O2-  O272  1  0.91826877  0.03523198  0.73627800  1
  O2-  O273  1  0.91085780  0.54498435  0.06519295  1
  O2-  O274  1  0.91766992  0.54563370  0.38823741  1
  O2-  O275  1  0.92221862  0.54961886  0.73411089  1
  O2-  O276  1  0.28871634  0.16591732  0.06949477  1
  O2-  O277  1  0.29272974  0.16613977  0.39452458  1
  O2-  O278  1  0.29948284  0.16480558  0.72320205  1
  O2-  O279  1  0.29631017  0.66851807  0.06636940  1
  O2-  O280  1  0.29170135  0.66815046  0.40013140  1
  O2-  O281  1  0.29377675  0.67356199  0.73338722  1
  O2-  O282  1  0.79252004  0.16445569  0.06280423  1
  O2-  O283  1  0.78986270  0.16921939  0.40251516  1
  O2-  O284  1  0.78942910  0.16218413  0.74048629  1
  O2-  O285  1  0.79159339  0.66500311  0.06369923  1
  O2-  O286  1  0.79211078  0.65873333  0.39577334  1
  O2-  O287  1  0.79047825  0.67108004  0.73229236  1
