# generated using pymatgen
data_Ca2Al2SiO7
_symmetry_space_group_name_H-M   'P 1'
_cell_length_a   15.45955878
_cell_length_b   15.45918446
_cell_length_c   15.28397127
_cell_angle_alpha   89.98636217
_cell_angle_beta   89.99618795
_cell_angle_gamma   89.98808980
_symmetry_Int_Tables_number   1
_chemical_formula_structural   Ca2Al2SiO7
_chemical_formula_sum   'Ca48 Al48 Si24 O168'
_cell_volume   3652.74928142
_cell_formula_units_Z   24
loop_
 _symmetry_equiv_pos_site_id
 _symmetry_equiv_pos_as_xyz
  1  'x, y, z'
loop_
 _atom_type_symbol
 _atom_type_oxidation_number
  Ca2+  2.0
  Al0+  0.0
  Si0+  0.0
  O2-  -2.0
loop_
 _atom_site_type_symbol
 _atom_site_label
 _atom_site_symmetry_multiplicity
 _atom_site_fract_x
 _atom_site_fract_y
 _atom_site_fract_z
 _atom_site_occupancy
  Ca2+  Ca0  1  0.17835256  0.09095558  0.16922872  1
  Ca2+  Ca1  1  0.18140803  0.08113347  0.50630067  1
  Ca2+  Ca2  1  0.17618580  0.08871026  0.83931420  1
  Ca2+  Ca3  1  0.17026947  0.58513042  0.17031202  1
  Ca2+  Ca4  1  0.17040229  0.58314787  0.50752721  1
  Ca2+  Ca5  1  0.17832481  0.57863953  0.83594050  1
  Ca2+  Ca6  1  0.65546604  0.07862587  0.16811730  1
  Ca2+  Ca7  1  0.66251890  0.08353143  0.50480762  1
  Ca2+  Ca8  1  0.66015054  0.07816234  0.84168621  1
  Ca2+  Ca9  1  0.66595897  0.57966271  0.16937154  1
  Ca2+  Ca10  1  0.66688717  0.58334127  0.50550933  1
  Ca2+  Ca11  1  0.65880377  0.57107600  0.83917208  1
  Ca2+  Ca12  1  0.07559868  0.32868586  0.15584422  1
  Ca2+  Ca13  1  0.07892209  0.34340613  0.50096655  1
  Ca2+  Ca14  1  0.07560181  0.33586009  0.83121074  1
  Ca2+  Ca15  1  0.07973329  0.83017812  0.16745780  1
  Ca2+  Ca16  1  0.07342893  0.82811830  0.49297204  1
  Ca2+  Ca17  1  0.07633621  0.83437772  0.82748535  1
  Ca2+  Ca18  1  0.58098404  0.32274419  0.15534224  1
  Ca2+  Ca19  1  0.58695133  0.32381642  0.50077307  1
  Ca2+  Ca20  1  0.58338783  0.32801109  0.83054067  1
  Ca2+  Ca21  1  0.58244586  0.82361454  0.16495909  1
  Ca2+  Ca22  1  0.57804381  0.81868996  0.49350436  1
  Ca2+  Ca23  1  0.58924470  0.82023018  0.83130191  1
  Ca2+  Ca24  1  0.34065255  0.42051699  0.16331379  1
  Ca2+  Ca25  1  0.32445063  0.42485656  0.51181577  1
  Ca2+  Ca26  1  0.33961700  0.42545008  0.83793368  1
  Ca2+  Ca27  1  0.34145912  0.92832376  0.17236163  1
  Ca2+  Ca28  1  0.34448076  0.92425903  0.50080571  1
  Ca2+  Ca29  1  0.33848731  0.93029455  0.83818256  1
  Ca2+  Ca30  1  0.82647413  0.41641312  0.17006027  1
  Ca2+  Ca31  1  0.82864296  0.42411466  0.50760996  1
  Ca2+  Ca32  1  0.82411910  0.40762169  0.83632292  1
  Ca2+  Ca33  1  0.82699931  0.91441972  0.16944984  1
  Ca2+  Ca34  1  0.83645875  0.91439654  0.50389495  1
  Ca2+  Ca35  1  0.82773583  0.91716469  0.84003657  1
  Ca2+  Ca36  1  0.42054017  0.16945372  0.15938331  1
  Ca2+  Ca37  1  0.42454894  0.16039849  0.49533315  1
  Ca2+  Ca38  1  0.42222919  0.16628895  0.83172282  1
  Ca2+  Ca39  1  0.42554491  0.66745584  0.15849838  1
  Ca2+  Ca40  1  0.42450603  0.66519319  0.49405154  1
  Ca2+  Ca41  1  0.42482580  0.65790216  0.83015587  1
  Ca2+  Ca42  1  0.92501417  0.17241285  0.15538975  1
  Ca2+  Ca43  1  0.91745562  0.17585445  0.49925900  1
  Ca2+  Ca44  1  0.92001851  0.17747557  0.83164688  1
  Ca2+  Ca45  1  0.91663122  0.66490252  0.17039211  1
  Ca2+  Ca46  1  0.91753865  0.67510118  0.48977124  1
  Ca2+  Ca47  1  0.91577780  0.67401441  0.82688520  1
  Al0+  Al48  1  0.00049463  -0.00070185  -0.00317971  1
  Al0+  Al49  1  -0.00019009  0.00090529  0.33078967  1
  Al0+  Al50  1  0.00018820  0.00210330  0.66258045  1
  Al0+  Al51  1  0.00028391  0.50260253  -0.00494384  1
  Al0+  Al52  1  -0.00271182  0.50150174  0.33356689  1
  Al0+  Al53  1  -0.00024740  0.50175668  0.66746499  1
  Al0+  Al54  1  0.49897878  -0.00204639  0.00662069  1
  Al0+  Al55  1  0.50182561  -0.00096204  0.33223683  1
  Al0+  Al56  1  0.50203426  -0.00120448  0.66825420  1
  Al0+  Al57  1  0.50193301  0.49925861  0.00355658  1
  Al0+  Al58  1  0.49892437  0.49667202  0.33294836  1
  Al0+  Al59  1  0.50167292  0.49730776  0.66702233  1
  Al0+  Al60  1  0.24973497  0.25173168  -0.00298661  1
  Al0+  Al61  1  0.25033439  0.25007932  0.34063726  1
  Al0+  Al62  1  0.24924813  0.25007267  0.67430834  1
  Al0+  Al63  1  0.24996154  0.75092742  0.00337466  1
  Al0+  Al64  1  0.24821269  0.75211980  0.32795883  1
  Al0+  Al65  1  0.25001609  0.75307860  0.67117886  1
  Al0+  Al66  1  0.75090157  0.24852319  -0.00107704  1
  Al0+  Al67  1  0.74944802  0.24813488  0.33032361  1
  Al0+  Al68  1  0.75202691  0.24994222  0.66104938  1
  Al0+  Al69  1  0.74945439  0.75013829  0.00120897  1
  Al0+  Al70  1  0.74953461  0.74973775  0.33055335  1
  Al0+  Al71  1  0.74905465  0.75068091  0.65844446  1
  Al0+  Al72  1  0.32142105  0.57069283  0.01591017  1
  Al0+  Al73  1  0.07053713  0.67740032  0.31795248  1
  Al0+  Al74  1  0.68164380  0.42770983  0.67965891  1
  Al0+  Al75  1  0.57104757  0.68020394  0.98582123  1
  Al0+  Al76  1  0.67930293  0.92792094  0.01482348  1
  Al0+  Al77  1  0.92876668  0.82205805  0.65348767  1
  Al0+  Al78  1  0.07236038  0.17790981  0.98462186  1
  Al0+  Al79  1  0.93039930  0.32185486  0.65074718  1
  Al0+  Al80  1  0.57074556  0.18023746  0.31923165  1
  Al0+  Al81  1  0.92815458  0.32324947  0.98510922  1
  Al0+  Al82  1  0.31884878  0.07199717  0.01520347  1
  Al0+  Al83  1  0.43001070  0.32226089  0.98444458  1
  Al0+  Al84  1  0.56866525  0.67600725  0.65310489  1
  Al0+  Al85  1  0.68114321  0.42713468  0.01429296  1
  Al0+  Al86  1  0.56968092  0.17809787  0.65306748  1
  Al0+  Al87  1  0.57017339  0.67511313  0.31688933  1
  Al0+  Al88  1  0.81836902  0.56982149  0.34748246  1
  Al0+  Al89  1  0.92802094  0.82322499  0.31552357  1
  Al0+  Al90  1  0.32235032  0.57253339  0.68069800  1
  Al0+  Al91  1  0.17566365  0.42954105  0.68362986  1
  Al0+  Al92  1  0.32348436  0.06947893  0.68168221  1
  Al0+  Al93  1  0.32138614  0.06932712  0.34864680  1
  Al0+  Al94  1  0.42890743  0.82093632  0.31854242  1
  Al0+  Al95  1  0.56975713  0.17584910  0.98504093  1
  Si0+  Si96  1  0.07393356  0.17868414  0.64779845  1
  Si0+  Si97  1  0.68087256  0.92994453  0.35039817  1
  Si0+  Si98  1  0.42653557  0.82134396  0.98302764  1
  Si0+  Si99  1  0.42436396  0.32053925  0.31874910  1
  Si0+  Si100  1  0.17537664  0.92796371  0.35061438  1
  Si0+  Si101  1  0.07234379  0.18059764  0.32110472  1
  Si0+  Si102  1  0.67716255  0.42467270  0.35087198  1
  Si0+  Si103  1  0.68156397  0.92887552  0.68013212  1
  Si0+  Si104  1  0.42641750  0.32112620  0.64976377  1
  Si0+  Si105  1  0.92930688  0.81961237  0.98501279  1
  Si0+  Si106  1  0.82330397  0.07227627  0.34890588  1
  Si0+  Si107  1  0.17777502  0.42999187  0.34687529  1
  Si0+  Si108  1  0.17601509  0.43053556  0.01728727  1
  Si0+  Si109  1  0.17545800  0.93035603  0.68320818  1
  Si0+  Si110  1  0.32097979  0.57225365  0.34644949  1
  Si0+  Si111  1  0.82305075  0.07033448  0.01619113  1
  Si0+  Si112  1  0.92945339  0.32086276  0.31891695  1
  Si0+  Si113  1  0.82266782  0.07154681  0.68055845  1
  Si0+  Si114  1  0.07307539  0.68028909  0.65201046  1
  Si0+  Si115  1  0.07378718  0.67972930  0.98282834  1
  Si0+  Si116  1  0.42809957  0.82257070  0.65286679  1
  Si0+  Si117  1  0.82025619  0.57473911  0.68242365  1
  Si0+  Si118  1  0.17526393  0.92759114  0.01813994  1
  Si0+  Si119  1  0.82359267  0.57357726  0.01558175  1
  O2-  O120  1  0.24251242  -0.00208462  0.06155402  1
  O2-  O121  1  0.24767597  -0.00715157  0.39518580  1
  O2-  O122  1  0.24611015  -0.00332825  0.72745521  1
  O2-  O123  1  0.24582709  0.49679966  0.06360737  1
  O2-  O124  1  0.24838809  0.50223738  0.38811901  1
  O2-  O125  1  0.25154289  0.49901645  0.73108418  1
  O2-  O126  1  0.75134438  0.00572640  0.06181856  1
  O2-  O127  1  0.75342695  0.00036854  0.39216009  1
  O2-  O128  1  0.75262002  -0.00029963  0.72253869  1
  O2-  O129  1  0.75850471  0.50086983  0.05866348  1
  O2-  O130  1  0.74127622  0.49786625  0.39485922  1
  O2-  O131  1  0.75411801  0.50462350  0.72734931  1
  O2-  O132  1  0.00064488  0.25005948  0.27757248  1
  O2-  O133  1  0.00885642  0.25093811  0.60279616  1
  O2-  O134  1  0.00083669  0.25108556  0.93607782  1
  O2-  O135  1  -0.00039204  0.75026977  0.26670346  1
  O2-  O136  1  0.00353992  0.74770984  0.60742682  1
  O2-  O137  1  0.00144443  0.75036483  0.94195938  1
  O2-  O138  1  0.49631432  0.25530180  0.27511356  1
  O2-  O139  1  0.49225801  0.24965940  0.60509850  1
  O2-  O140  1  0.49994216  0.24857378  0.93362441  1
  O2-  O141  1  0.49460327  0.74383425  0.26766667  1
  O2-  O142  1  0.48918830  0.74704788  0.60881941  1
  O2-  O143  1  0.49416445  0.75229865  0.93789135  1
  O2-  O144  1  0.07020861  0.17928311  0.09940002  1
  O2-  O145  1  0.07160966  0.18210955  0.42615232  1
  O2-  O146  1  0.06948133  0.17443043  0.75273281  1
  O2-  O147  1  0.07353074  0.67924542  0.08767026  1
  O2-  O148  1  0.06954469  0.67730953  0.43178056  1
  O2-  O149  1  0.07193465  0.68308729  0.75785016  1
  O2-  O150  1  0.56723201  0.17697294  0.09880982  1
  O2-  O151  1  0.57173578  0.18068061  0.43275794  1
  O2-  O152  1  0.57017982  0.17545554  0.76530565  1
  O2-  O153  1  0.57155375  0.68150718  0.09863634  1
  O2-  O154  1  0.56903097  0.67590853  0.43093334  1
  O2-  O155  1  0.57227617  0.67885119  0.76599902  1
  O2-  O156  1  0.17734236  0.42726027  0.24209934  1
  O2-  O157  1  0.17650873  0.43336822  0.56876817  1
  O2-  O158  1  0.17341809  0.43514521  0.91226281  1
  O2-  O159  1  0.17168980  0.93204491  0.24539144  1
  O2-  O160  1  0.17292889  0.93150480  0.57777415  1
  O2-  O161  1  0.17422814  0.92620041  0.91233073  1
  O2-  O162  1  0.68060004  0.42179032  0.24552567  1
  O2-  O163  1  0.68378423  0.42758503  0.56627951  1
  O2-  O164  1  0.68133232  0.42808006  0.90109010  1
  O2-  O165  1  0.68148069  0.93160677  0.24537196  1
  O2-  O166  1  0.68181113  0.92973109  0.57487429  1
  O2-  O167  1  0.68406966  0.92526787  0.90112415  1
  O2-  O168  1  0.43139583  0.32075622  0.09874696  1
  O2-  O169  1  0.42130262  0.32017328  0.42437938  1
  O2-  O170  1  0.42933456  0.32232816  0.75484704  1
  O2-  O171  1  0.42702223  0.81976327  0.08854610  1
  O2-  O172  1  0.43287068  0.82004270  0.43276517  1
  O2-  O173  1  0.43230301  0.82645879  0.75812173  1
  O2-  O174  1  0.93065634  0.32221494  0.09970542  1
  O2-  O175  1  0.93013461  0.32035990  0.42416295  1
  O2-  O176  1  0.92869520  0.31758605  0.76300514  1
  O2-  O177  1  0.92968236  0.81970464  0.08959053  1
  O2-  O178  1  0.93068633  0.82339728  0.42926274  1
  O2-  O179  1  0.92869932  0.82101003  0.76714704  1
  O2-  O180  1  0.31842469  0.07233092  0.23599258  1
  O2-  O181  1  0.32426225  0.06600989  0.56821138  1
  O2-  O182  1  0.31964412  0.06809676  0.90204394  1
  O2-  O183  1  0.32137910  0.56945998  0.24157725  1
  O2-  O184  1  0.31979602  0.57240150  0.56618401  1
  O2-  O185  1  0.31954540  0.57139065  0.90311022  1
  O2-  O186  1  0.82505489  0.07400559  0.24425092  1
  O2-  O187  1  0.82272810  0.07087213  0.57493731  1
  O2-  O188  1  0.82529816  0.06625057  0.91033237  1
  O2-  O189  1  0.82114403  0.56429772  0.23446641  1
  O2-  O190  1  0.81872550  0.57468801  0.57663176  1
  O2-  O191  1  0.82289957  0.57813707  0.91001880  1
  O2-  O192  1  0.04606791  0.08921088  0.27324188  1
  O2-  O193  1  0.04394488  0.08734418  0.59878281  1
  O2-  O194  1  0.04399817  0.07941578  0.93118630  1
  O2-  O195  1  0.03939110  0.57995071  0.26354567  1
  O2-  O196  1  0.04951903  0.58636895  0.60674857  1
  O2-  O197  1  0.04666594  0.58907076  0.93364025  1
  O2-  O198  1  0.54046273  0.08354180  0.26743226  1
  O2-  O199  1  0.54077843  0.08029399  0.59897909  1
  O2-  O200  1  0.54096324  0.07590459  0.93529432  1
  O2-  O201  1  0.54574305  0.57438370  0.26687801  1
  O2-  O202  1  0.54261321  0.57882674  0.59803366  1
  O2-  O203  1  0.54034122  0.58302453  0.93488804  1
  O2-  O204  1  0.16374412  0.21074443  0.27457058  1
  O2-  O205  1  0.16970817  0.20060171  0.60456050  1
  O2-  O206  1  0.16942839  0.20603813  0.93109057  1
  O2-  O207  1  0.16825615  0.70461063  0.26322754  1
  O2-  O208  1  0.16655624  0.70722399  0.60575736  1
  O2-  O209  1  0.16475653  0.70990190  0.93542009  1
  O2-  O210  1  0.66802978  0.20747044  0.26440043  1
  O2-  O211  1  0.66575079  0.20972651  0.59778833  1
  O2-  O212  1  0.67075662  0.19904169  0.93607723  1
  O2-  O213  1  0.66728231  0.70731589  0.26528849  1
  O2-  O214  1  0.66235210  0.71265454  0.59653269  1
  O2-  O215  1  0.66712288  0.71372879  0.93201335  1
  O2-  O216  1  0.08271350  0.45919970  0.06396330  1
  O2-  O217  1  0.08599559  0.45788766  0.39469675  1
  O2-  O218  1  0.07822857  0.46055071  0.73732774  1
  O2-  O219  1  0.08064717  0.95111626  0.06359335  1
  O2-  O220  1  0.08301504  0.95796608  0.39820974  1
  O2-  O221  1  0.08235173  0.95847709  0.73022257  1
  O2-  O222  1  0.58667095  0.45983488  0.07054539  1
  O2-  O223  1  0.58090290  0.44397542  0.39466130  1
  O2-  O224  1  0.58440597  0.45508325  0.73266279  1
  O2-  O225  1  0.58304553  0.95476227  0.07089555  1
  O2-  O226  1  0.59040579  0.96004192  0.39875003  1
  O2-  O227  1  0.59090877  0.95611751  0.72911206  1
  O2-  O228  1  0.19844348  0.33541044  0.06101228  1
  O2-  O229  1  0.20550082  0.33983103  0.39818798  1
  O2-  O230  1  0.19639168  0.32908772  0.73426831  1
  O2-  O231  1  0.20104818  0.83457933  0.06514527  1
  O2-  O232  1  0.19609910  0.83218145  0.39464469  1
  O2-  O233  1  0.19687752  0.83635838  0.73030297  1
  O2-  O234  1  0.71143929  0.33007379  0.06904218  1
  O2-  O235  1  0.70898181  0.33247793  0.39724174  1
  O2-  O236  1  0.71606715  0.33136290  0.73192189  1
  O2-  O237  1  0.71564551  0.83380406  0.07059303  1
  O2-  O238  1  0.70763876  0.83750552  0.39692988  1
  O2-  O239  1  0.71109076  0.83697910  0.72669785  1
  O2-  O240  1  0.44659477  0.41487795  0.27322326  1
  O2-  O241  1  0.45504510  0.41298693  0.60141826  1
  O2-  O242  1  0.46107692  0.41991933  0.93273009  1
  O2-  O243  1  0.46441593  0.91643869  0.26480838  1
  O2-  O244  1  0.46272898  0.91191930  0.60339776  1
  O2-  O245  1  0.45441436  0.91475024  0.93909365  1
  O2-  O246  1  0.95704172  0.41198325  0.27173646  1
  O2-  O247  1  0.95818605  0.42063442  0.59809051  1
  O2-  O248  1  0.95475289  0.42192647  0.93156859  1
  O2-  O249  1  0.95626834  0.92215602  0.26274364  1
  O2-  O250  1  0.95823622  0.91889101  0.59872660  1
  O2-  O251  1  0.95530246  0.91128888  0.93633801  1
  O2-  O252  1  0.33182068  0.29210058  0.27190862  1
  O2-  O253  1  0.33021961  0.29923568  0.60709736  1
  O2-  O254  1  0.32991339  0.29991242  0.93360230  1
  O2-  O255  1  0.32736207  0.80511101  0.26821834  1
  O2-  O256  1  0.33099476  0.80722688  0.60994055  1
  O2-  O257  1  0.33158004  0.79903255  0.93815281  1
  O2-  O258  1  0.83850911  0.29144188  0.27166765  1
  O2-  O259  1  0.83731067  0.28601089  0.59284844  1
  O2-  O260  1  0.83168241  0.29122624  0.93158497  1
  O2-  O261  1  0.82995138  0.79472089  0.26379579  1
  O2-  O262  1  0.83391113  0.79230381  0.59609318  1
  O2-  O263  1  0.83863373  0.78969474  0.93687419  1
  O2-  O264  1  0.41381373  0.03860554  0.07079968  1
  O2-  O265  1  0.41850582  0.03662392  0.40152880  1
  O2-  O266  1  0.41861585  0.03465857  0.73628678  1
  O2-  O267  1  0.41667857  0.53814815  0.07110384  1
  O2-  O268  1  0.41219999  0.54289443  0.39508178  1
  O2-  O269  1  0.42037329  0.54189516  0.73249699  1
  O2-  O270  1  0.91562383  0.04048482  0.06318370  1
  O2-  O271  1  0.91550310  0.04623273  0.39737666  1
  O2-  O272  1  0.91456094  0.04435954  0.72781565  1
  O2-  O273  1  0.91933470  0.55236155  0.05972096  1
  O2-  O274  1  0.91458810  0.53760397  0.40299737  1
  O2-  O275  1  0.91532971  0.55367638  0.72649435  1
  O2-  O276  1  0.28854166  0.16974865  0.06797526  1
  O2-  O277  1  0.28855641  0.16481196  0.40496876  1
  O2-  O278  1  0.29551944  0.16640490  0.73496967  1
  O2-  O279  1  0.28992350  0.66778799  0.06911326  1
  O2-  O280  1  0.29464326  0.66540232  0.39174772  1
  O2-  O281  1  0.29607273  0.67174873  0.73402326  1
  O2-  O282  1  0.80336585  0.16529278  0.06112252  1
  O2-  O283  1  0.79354963  0.16378094  0.39705732  1
  O2-  O284  1  0.79435537  0.16299199  0.72659935  1
  O2-  O285  1  0.79424555  0.66484497  0.06422521  1
  O2-  O286  1  0.79196939  0.66888766  0.39940326  1
  O2-  O287  1  0.79325761  0.66888423  0.72699565  1
