# generated using pymatgen
data_Ca2Al2SiO7
_symmetry_space_group_name_H-M   'P 1'
_cell_length_a   15.45900315
_cell_length_b   15.45874054
_cell_length_c   15.28491577
_cell_angle_alpha   90.00289987
_cell_angle_beta   90.00463239
_cell_angle_gamma   90.00431505
_symmetry_Int_Tables_number   1
_chemical_formula_structural   Ca2Al2SiO7
_chemical_formula_sum   'Ca48 Al48 Si24 O168'
_cell_volume   3652.73898777
_cell_formula_units_Z   24
loop_
 _symmetry_equiv_pos_site_id
 _symmetry_equiv_pos_as_xyz
  1  'x, y, z'
loop_
 _atom_type_symbol
 _atom_type_oxidation_number
  Ca2+  2.0
  Al0+  0.0
  Si0+  0.0
  O2-  -2.0
loop_
 _atom_site_type_symbol
 _atom_site_label
 _atom_site_symmetry_multiplicity
 _atom_site_fract_x
 _atom_site_fract_y
 _atom_site_fract_z
 _atom_site_occupancy
  Ca2+  Ca0  1  0.17031280  0.07565318  0.16545630  1
  Ca2+  Ca1  1  0.17383399  0.07805261  0.51463104  1
  Ca2+  Ca2  1  0.16846653  0.07690051  0.83179279  1
  Ca2+  Ca3  1  0.16909058  0.57854554  0.16720262  1
  Ca2+  Ca4  1  0.17586306  0.57248660  0.50878075  1
  Ca2+  Ca5  1  0.18027853  0.57612150  0.84176908  1
  Ca2+  Ca6  1  0.65927440  0.07143821  0.17152926  1
  Ca2+  Ca7  1  0.66298651  0.08271393  0.50541069  1
  Ca2+  Ca8  1  0.67044642  0.08429726  0.83636920  1
  Ca2+  Ca9  1  0.66957672  0.58278389  0.17232371  1
  Ca2+  Ca10  1  0.66763542  0.58336896  0.50263363  1
  Ca2+  Ca11  1  0.66133059  0.58918240  0.83762808  1
  Ca2+  Ca12  1  0.08842459  0.33819739  0.16236339  1
  Ca2+  Ca13  1  0.09399497  0.32924321  0.49949032  1
  Ca2+  Ca14  1  0.08837209  0.33096558  0.82572867  1
  Ca2+  Ca15  1  0.07594139  0.82492264  0.15142954  1
  Ca2+  Ca16  1  0.08369333  0.83480742  0.49757089  1
  Ca2+  Ca17  1  0.08668361  0.83635114  0.83265885  1
  Ca2+  Ca18  1  0.58417267  0.32959727  0.16166569  1
  Ca2+  Ca19  1  0.58035697  0.32335147  0.49700170  1
  Ca2+  Ca20  1  0.56759303  0.33084484  0.82428301  1
  Ca2+  Ca21  1  0.57618998  0.83346925  0.15824513  1
  Ca2+  Ca22  1  0.57648482  0.83224554  0.49311927  1
  Ca2+  Ca23  1  0.58138631  0.82505353  0.83449535  1
  Ca2+  Ca24  1  0.32978577  0.42064732  0.16432659  1
  Ca2+  Ca25  1  0.32752979  0.41677809  0.51048344  1
  Ca2+  Ca26  1  0.33397933  0.42077436  0.83898083  1
  Ca2+  Ca27  1  0.33244434  0.90571587  0.16736221  1
  Ca2+  Ca28  1  0.33100154  0.92140406  0.50819593  1
  Ca2+  Ca29  1  0.32890515  0.92001774  0.83800372  1
  Ca2+  Ca30  1  0.82614272  0.42655807  0.17740109  1
  Ca2+  Ca31  1  0.82592261  0.41860355  0.49759896  1
  Ca2+  Ca32  1  0.82870752  0.41731141  0.83628472  1
  Ca2+  Ca33  1  0.81975451  0.90756288  0.16687724  1
  Ca2+  Ca34  1  0.82295377  0.92273181  0.50599732  1
  Ca2+  Ca35  1  0.82920093  0.91989588  0.83922541  1
  Ca2+  Ca36  1  0.42265073  0.17418959  0.16297211  1
  Ca2+  Ca37  1  0.42095260  0.16710536  0.49950795  1
  Ca2+  Ca38  1  0.41321475  0.17676599  0.82482130  1
  Ca2+  Ca39  1  0.42109972  0.67487408  0.15583384  1
  Ca2+  Ca40  1  0.41643183  0.67034605  0.50022078  1
  Ca2+  Ca41  1  0.42189931  0.66217396  0.83000776  1
  Ca2+  Ca42  1  0.91892109  0.17088152  0.16338185  1
  Ca2+  Ca43  1  0.92149214  0.16260853  0.50256366  1
  Ca2+  Ca44  1  0.92234542  0.16417443  0.82405818  1
  Ca2+  Ca45  1  0.92088421  0.66725337  0.15698435  1
  Ca2+  Ca46  1  0.91841733  0.66413832  0.49586911  1
  Ca2+  Ca47  1  0.92523908  0.67332244  0.83530497  1
  Al0+  Al48  1  0.00087640  0.00242597  0.00247769  1
  Al0+  Al49  1  -0.00023105  -0.00025160  0.32953001  1
  Al0+  Al50  1  -0.00390009  0.00124476  0.66792284  1
  Al0+  Al51  1  -0.00094177  0.49968002  -0.00228987  1
  Al0+  Al52  1  0.00109630  0.49860082  0.34143003  1
  Al0+  Al53  1  -0.00265229  0.50175918  0.66886100  1
  Al0+  Al54  1  0.50218157  0.00054314  -0.00037082  1
  Al0+  Al55  1  0.49896338  0.00063744  0.32878232  1
  Al0+  Al56  1  0.49925029  -0.00169902  0.66960201  1
  Al0+  Al57  1  0.49966966  0.49827441  -0.00101023  1
  Al0+  Al58  1  0.49927129  0.50012167  0.33699642  1
  Al0+  Al59  1  0.50105881  0.50030938  0.65891448  1
  Al0+  Al60  1  0.25036977  0.24939548  0.00137009  1
  Al0+  Al61  1  0.25126424  0.24833893  0.33372082  1
  Al0+  Al62  1  0.24800891  0.24764138  0.66400493  1
  Al0+  Al63  1  0.25023353  0.74976184  0.00094602  1
  Al0+  Al64  1  0.24827747  0.74885927  0.33010855  1
  Al0+  Al65  1  0.24883973  0.74705300  0.67201403  1
  Al0+  Al66  1  0.75287113  0.24986327  0.00083433  1
  Al0+  Al67  1  0.75251169  0.24984247  0.33118223  1
  Al0+  Al68  1  0.75037268  0.25071386  0.66749451  1
  Al0+  Al69  1  0.75122063  0.75195768  -0.00386285  1
  Al0+  Al70  1  0.75021550  0.75205040  0.34316739  1
  Al0+  Al71  1  0.75026796  0.74985652  0.66214710  1
  Al0+  Al72  1  0.68047794  0.93015385  0.01271004  1
  Al0+  Al73  1  0.57173367  0.68023834  0.64976301  1
  Al0+  Al74  1  0.17969016  0.92919707  0.01500469  1
  Al0+  Al75  1  0.42738842  0.82357556  0.98341009  1
  Al0+  Al76  1  0.32405336  0.56916937  0.68215744  1
  Al0+  Al77  1  0.32404918  0.57144154  0.01680556  1
  Al0+  Al78  1  0.67719745  0.93167295  0.34781618  1
  Al0+  Al79  1  0.57229087  0.18063592  0.31816068  1
  Al0+  Al80  1  0.17712038  0.92778746  0.68041707  1
  Al0+  Al81  1  0.67658727  0.42671416  0.34857458  1
  Al0+  Al82  1  0.18164040  0.42859462  0.34845241  1
  Al0+  Al83  1  0.42713997  0.32021378  0.64976302  1
  Al0+  Al84  1  0.42992715  0.31906613  0.98775614  1
  Al0+  Al85  1  0.07201705  0.67675006  0.98411092  1
  Al0+  Al86  1  0.57074963  0.67886846  0.98759661  1
  Al0+  Al87  1  0.42887686  0.81998502  0.32019836  1
  Al0+  Al88  1  0.57230832  0.17739741  0.65337954  1
  Al0+  Al89  1  0.17831986  0.42814143  0.01507144  1
  Al0+  Al90  1  0.82055981  0.57206042  0.34896430  1
  Al0+  Al91  1  0.92953414  0.82281618  0.98474414  1
  Al0+  Al92  1  0.81751200  0.07148922  0.67966528  1
  Al0+  Al93  1  0.17783324  0.42799276  0.68186970  1
  Al0+  Al94  1  0.32324634  0.07043997  0.68161691  1
  Al0+  Al95  1  0.06844659  0.17965665  0.65325874  1
  Si0+  Si96  1  0.93161310  0.32124101  0.31829450  1
  Si0+  Si97  1  0.57377896  0.67831518  0.31837570  1
  Si0+  Si98  1  0.42546379  0.82097381  0.65132464  1
  Si0+  Si99  1  0.57469479  0.17830658  0.98354512  1
  Si0+  Si100  1  0.92838088  0.82202292  0.31924076  1
  Si0+  Si101  1  0.07060772  0.18032589  0.98570612  1
  Si0+  Si102  1  0.06854000  0.67815014  0.31991056  1
  Si0+  Si103  1  0.67724421  0.92567687  0.68381636  1
  Si0+  Si104  1  0.82045481  0.57388934  0.68465215  1
  Si0+  Si105  1  0.82311026  0.07416626  0.01934742  1
  Si0+  Si106  1  0.81989577  0.57039289  0.01198645  1
  Si0+  Si107  1  0.82474263  0.07213102  0.34937415  1
  Si0+  Si108  1  0.32121772  0.57486149  0.35007721  1
  Si0+  Si109  1  0.42645941  0.32268201  0.31589169  1
  Si0+  Si110  1  0.07054239  0.67861061  0.65069618  1
  Si0+  Si111  1  0.92775352  0.32142296  0.98538776  1
  Si0+  Si112  1  0.68065542  0.43027093  0.68147594  1
  Si0+  Si113  1  0.17743837  0.92808385  0.34599361  1
  Si0+  Si114  1  0.31941433  0.06949685  0.34678250  1
  Si0+  Si115  1  0.92668751  0.32531247  0.64830301  1
  Si0+  Si116  1  0.32278401  0.07229612  0.01818643  1
  Si0+  Si117  1  0.92943572  0.82125286  0.64931482  1
  Si0+  Si118  1  0.67930028  0.42742444  0.01280853  1
  Si0+  Si119  1  0.07285609  0.17783609  0.31667469  1
  O2-  O120  1  0.25933945  -0.00154135  0.06349936  1
  O2-  O121  1  0.24825738  -0.00190116  0.38852687  1
  O2-  O122  1  0.25163227  -0.00286126  0.72991633  1
  O2-  O123  1  0.24805321  0.50193596  0.06559214  1
  O2-  O124  1  0.25869590  0.50050414  0.39407231  1
  O2-  O125  1  0.25337457  0.49547405  0.73148077  1
  O2-  O126  1  0.75416115  0.00559883  0.06213175  1
  O2-  O127  1  0.75223491  0.00738487  0.39274446  1
  O2-  O128  1  0.74043412  0.00015054  0.72677047  1
  O2-  O129  1  0.74811215  0.50069134  0.05477951  1
  O2-  O130  1  0.74496986  0.50301121  0.39835637  1
  O2-  O131  1  0.74890155  0.50335290  0.72606280  1
  O2-  O132  1  0.00310440  0.25065106  0.27498668  1
  O2-  O133  1  -0.00154054  0.25902529  0.60509156  1
  O2-  O134  1  0.00076764  0.25286661  0.94431474  1
  O2-  O135  1  -0.00328859  0.74842354  0.27756281  1
  O2-  O136  1  0.00223859  0.75200144  0.60648934  1
  O2-  O137  1  0.00585853  0.75535458  0.93448692  1
  O2-  O138  1  0.50184221  0.26038287  0.27228987  1
  O2-  O139  1  0.49834423  0.24601554  0.60135568  1
  O2-  O140  1  0.50465945  0.24491776  0.94034809  1
  O2-  O141  1  0.50387962  0.74493656  0.27410757  1
  O2-  O142  1  0.49587235  0.75468771  0.60536324  1
  O2-  O143  1  0.49619588  0.74723447  0.93563995  1
  O2-  O144  1  0.06873245  0.18017545  0.09155819  1
  O2-  O145  1  0.07150200  0.17456133  0.42126407  1
  O2-  O146  1  0.06427895  0.17783013  0.76642449  1
  O2-  O147  1  0.06521042  0.67442031  0.09869132  1
  O2-  O148  1  0.06931808  0.68151434  0.42520053  1
  O2-  O149  1  0.06690497  0.67762570  0.75506065  1
  O2-  O150  1  0.57596611  0.18074378  0.08957329  1
  O2-  O151  1  0.56935943  0.17894813  0.43079049  1
  O2-  O152  1  0.57569748  0.18348127  0.76676356  1
  O2-  O153  1  0.57448227  0.67943172  0.10147732  1
  O2-  O154  1  0.57291919  0.68115459  0.42397292  1
  O2-  O155  1  0.57526756  0.68239662  0.76241815  1
  O2-  O156  1  0.17948410  0.43044404  0.23565094  1
  O2-  O157  1  0.17820078  0.43208316  0.56779285  1
  O2-  O158  1  0.17794329  0.42597786  0.90241965  1
  O2-  O159  1  0.17598033  0.92953394  0.24127977  1
  O2-  O160  1  0.17735047  0.92917154  0.56551201  1
  O2-  O161  1  0.17535119  0.93639532  0.90280711  1
  O2-  O162  1  0.68106328  0.42697438  0.23426537  1
  O2-  O163  1  0.68465334  0.42979191  0.57660806  1
  O2-  O164  1  0.68309301  0.42424436  0.90779158  1
  O2-  O165  1  0.67952594  0.93004431  0.23474766  1
  O2-  O166  1  0.68026607  0.92453296  0.57786097  1
  O2-  O167  1  0.68349056  0.93162706  0.89986193  1
  O2-  O168  1  0.43244288  0.31766710  0.10138283  1
  O2-  O169  1  0.42224535  0.31757044  0.42081283  1
  O2-  O170  1  0.42981717  0.32085688  0.76352259  1
  O2-  O171  1  0.43249381  0.82269567  0.09755056  1
  O2-  O172  1  0.42725070  0.82017788  0.43348153  1
  O2-  O173  1  0.42582967  0.82075118  0.75624525  1
  O2-  O174  1  0.92427668  0.32017601  0.09059466  1
  O2-  O175  1  0.93094936  0.32018801  0.42300617  1
  O2-  O176  1  0.92455503  0.32479058  0.75426785  1
  O2-  O177  1  0.92740382  0.81723887  0.09905729  1
  O2-  O178  1  0.93236955  0.82551243  0.42433260  1
  O2-  O179  1  0.92739647  0.81970535  0.75398984  1
  O2-  O180  1  0.31651653  0.07186008  0.24172275  1
  O2-  O181  1  0.32200747  0.06752647  0.56697943  1
  O2-  O182  1  0.31891029  0.07539899  0.91317870  1
  O2-  O183  1  0.31801895  0.57766704  0.24500517  1
  O2-  O184  1  0.31979395  0.57199586  0.56784453  1
  O2-  O185  1  0.32702965  0.56609577  0.90381249  1
  O2-  O186  1  0.82931247  0.07021523  0.24393330  1
  O2-  O187  1  0.81943461  0.06785712  0.56637388  1
  O2-  O188  1  0.82215684  0.07800198  0.91392214  1
  O2-  O189  1  0.82249944  0.57079830  0.23479628  1
  O2-  O190  1  0.82162716  0.57367271  0.57970739  1
  O2-  O191  1  0.82008531  0.56762987  0.90682000  1
  O2-  O192  1  0.04249415  0.08712555  0.26691797  1
  O2-  O193  1  0.03154108  0.08485620  0.59742234  1
  O2-  O194  1  0.04019363  0.09014599  0.93797489  1
  O2-  O195  1  0.04040328  0.58543897  0.27502764  1
  O2-  O196  1  0.03721907  0.58843317  0.60215507  1
  O2-  O197  1  0.03542383  0.58162508  0.92924664  1
  O2-  O198  1  0.53554418  0.08671403  0.26229680  1
  O2-  O199  1  0.54837221  0.07611911  0.60337205  1
  O2-  O200  1  0.55319825  0.08410260  0.93906672  1
  O2-  O201  1  0.55279193  0.58203437  0.27531306  1
  O2-  O202  1  0.54454051  0.58381243  0.59404708  1
  O2-  O203  1  0.54775548  0.57884250  0.93524457  1
  O2-  O204  1  0.16471919  0.20459237  0.26891823  1
  O2-  O205  1  0.16490604  0.20432223  0.59610858  1
  O2-  O206  1  0.16263625  0.20598236  0.93934478  1
  O2-  O207  1  0.15911037  0.70633072  0.27075748  1
  O2-  O208  1  0.16320562  0.70355207  0.60329832  1
  O2-  O209  1  0.17216829  0.69912236  0.93500427  1
  O2-  O210  1  0.67133214  0.20560064  0.26470442  1
  O2-  O211  1  0.67015297  0.20916263  0.59956306  1
  O2-  O212  1  0.66900871  0.20526180  0.93923057  1
  O2-  O213  1  0.66904072  0.70467177  0.27602155  1
  O2-  O214  1  0.66863842  0.71102269  0.59470898  1
  O2-  O215  1  0.66787692  0.70941759  0.93258639  1
  O2-  O216  1  0.07713662  0.45430707  0.06594441  1
  O2-  O217  1  0.08586896  0.45824096  0.40389191  1
  O2-  O218  1  0.07806972  0.45724732  0.73200680  1
  O2-  O219  1  0.08438353  0.96565886  0.07103686  1
  O2-  O220  1  0.08526719  0.95658589  0.39272920  1
  O2-  O221  1  0.07933239  0.95928437  0.73165285  1
  O2-  O222  1  0.58795330  0.45170831  0.06104612  1
  O2-  O223  1  0.57656273  0.44819647  0.40083235  1
  O2-  O224  1  0.58790421  0.45706008  0.72577404  1
  O2-  O225  1  0.58428205  0.96089257  0.06850485  1
  O2-  O226  1  0.58029199  0.96306292  0.40031043  1
  O2-  O227  1  0.58188040  0.94271907  0.72772385  1
  O2-  O228  1  0.20765566  0.32977567  0.06923426  1
  O2-  O229  1  0.20952415  0.32952636  0.39940856  1
  O2-  O230  1  0.19812308  0.32621580  0.72873040  1
  O2-  O231  1  0.20222589  0.83062301  0.06883200  1
  O2-  O232  1  0.20283762  0.83531995  0.39261375  1
  O2-  O233  1  0.20015351  0.82861108  0.73229168  1
  O2-  O234  1  0.71135833  0.33721663  0.06209954  1
  O2-  O235  1  0.71316690  0.33019369  0.40085053  1
  O2-  O236  1  0.71175001  0.34063662  0.73090078  1
  O2-  O237  1  0.71444611  0.83404975  0.06705876  1
  O2-  O238  1  0.70884007  0.83736852  0.40532318  1
  O2-  O239  1  0.71252682  0.83480806  0.72910435  1
  O2-  O240  1  0.44459501  0.41993745  0.27433963  1
  O2-  O241  1  0.45838236  0.41680858  0.59499172  1
  O2-  O242  1  0.46212615  0.41378246  0.93265394  1
  O2-  O243  1  0.45765299  0.91613127  0.26486355  1
  O2-  O244  1  0.44990798  0.91524070  0.60544483  1
  O2-  O245  1  0.45929914  0.92159566  0.93158464  1
  O2-  O246  1  0.96009908  0.41365422  0.27189214  1
  O2-  O247  1  0.94755217  0.42067089  0.60344292  1
  O2-  O248  1  0.95044529  0.41341931  0.93678806  1
  O2-  O249  1  0.95719882  0.91224624  0.26889004  1
  O2-  O250  1  0.95513619  0.91317067  0.60138196  1
  O2-  O251  1  0.95345851  0.92417754  0.93622949  1
  O2-  O252  1  0.33606584  0.28843361  0.26714471  1
  O2-  O253  1  0.32870605  0.29249715  0.59707045  1
  O2-  O254  1  0.33340475  0.28734203  0.93481622  1
  O2-  O255  1  0.33142131  0.78948973  0.26622069  1
  O2-  O256  1  0.33184410  0.79350661  0.60478672  1
  O2-  O257  1  0.32594009  0.80384549  0.93553491  1
  O2-  O258  1  0.84107388  0.29364806  0.26765084  1
  O2-  O259  1  0.83511843  0.29486440  0.60126075  1
  O2-  O260  1  0.83753473  0.29108494  0.93501696  1
  O2-  O261  1  0.83449273  0.79574724  0.27574115  1
  O2-  O262  1  0.83937052  0.79018082  0.59985254  1
  O2-  O263  1  0.83454927  0.79018973  0.92853269  1
  O2-  O264  1  0.41915647  0.05346764  0.06119830  1
  O2-  O265  1  0.41079035  0.04126195  0.39311382  1
  O2-  O266  1  0.42147450  0.04568022  0.73660728  1
  O2-  O267  1  0.42107815  0.53798050  0.07162931  1
  O2-  O268  1  0.41742162  0.55725154  0.39337256  1
  O2-  O269  1  0.42478418  0.54343858  0.73074531  1
  O2-  O270  1  0.91674521  0.05089056  0.06583800  1
  O2-  O271  1  0.91729776  0.04160968  0.39645818  1
  O2-  O272  1  0.91163049  0.03735279  0.73572182  1
  O2-  O273  1  0.91003784  0.54012490  0.06109437  1
  O2-  O274  1  0.91640215  0.53871755  0.40493448  1
  O2-  O275  1  0.91127513  0.54547920  0.73311966  1
  O2-  O276  1  0.28974914  0.16231286  0.06794856  1
  O2-  O277  1  0.29083125  0.16010263  0.39557695  1
  O2-  O278  1  0.29089140  0.16763605  0.73297374  1
  O2-  O279  1  0.29893978  0.67110739  0.06819216  1
  O2-  O280  1  0.28768092  0.66558929  0.39848633  1
  O2-  O281  1  0.29400932  0.66629488  0.73554042  1
  O2-  O282  1  0.79760825  0.16804056  0.06685411  1
  O2-  O283  1  0.80521941  0.16760361  0.39274467  1
  O2-  O284  1  0.79320682  0.16955850  0.73494560  1
  O2-  O285  1  0.79433867  0.66262211  0.05885557  1
  O2-  O286  1  0.79791534  0.67036557  0.40498303  1
  O2-  O287  1  0.79262840  0.66618713  0.73035019  1
