# generated using pymatgen
data_Ca2Al2SiO7
_symmetry_space_group_name_H-M   'P 1'
_cell_length_a   15.46171628
_cell_length_b   15.46105856
_cell_length_c   15.28601410
_cell_angle_alpha   89.99536308
_cell_angle_beta   89.98966300
_cell_angle_gamma   90.01497161
_symmetry_Int_Tables_number   1
_chemical_formula_structural   Ca2Al2SiO7
_chemical_formula_sum   'Ca48 Al48 Si24 O168'
_cell_volume   3654.19027647
_cell_formula_units_Z   24
loop_
 _symmetry_equiv_pos_site_id
 _symmetry_equiv_pos_as_xyz
  1  'x, y, z'
loop_
 _atom_type_symbol
 _atom_type_oxidation_number
  Ca2+  2.0
  Al0+  0.0
  Si0+  0.0
  O2-  -2.0
loop_
 _atom_site_type_symbol
 _atom_site_label
 _atom_site_symmetry_multiplicity
 _atom_site_fract_x
 _atom_site_fract_y
 _atom_site_fract_z
 _atom_site_occupancy
  Ca2+  Ca0  1  0.15694554  0.08029336  0.16785672  1
  Ca2+  Ca1  1  0.16235899  0.07714386  0.50033636  1
  Ca2+  Ca2  1  0.15801676  0.07388436  0.83946003  1
  Ca2+  Ca3  1  0.17317638  0.57345068  0.17090863  1
  Ca2+  Ca4  1  0.17725751  0.58383264  0.50207280  1
  Ca2+  Ca5  1  0.17714421  0.57888337  0.84289861  1
  Ca2+  Ca6  1  0.68225297  0.07529089  0.17453450  1
  Ca2+  Ca7  1  0.66817865  0.07797018  0.50159288  1
  Ca2+  Ca8  1  0.67151838  0.08419104  0.84050445  1
  Ca2+  Ca9  1  0.67259649  0.59409429  0.16914850  1
  Ca2+  Ca10  1  0.67709658  0.59174937  0.49916698  1
  Ca2+  Ca11  1  0.67640245  0.58588654  0.83979785  1
  Ca2+  Ca12  1  0.08581685  0.32612247  0.15858437  1
  Ca2+  Ca13  1  0.08139561  0.33109189  0.49226317  1
  Ca2+  Ca14  1  0.07441012  0.33937555  0.83422341  1
  Ca2+  Ca15  1  0.07217540  0.83497902  0.15916308  1
  Ca2+  Ca16  1  0.07842471  0.83262487  0.49390559  1
  Ca2+  Ca17  1  0.08130221  0.83880899  0.83460749  1
  Ca2+  Ca18  1  0.58295674  0.33370358  0.16273094  1
  Ca2+  Ca19  1  0.58498398  0.32735584  0.49962101  1
  Ca2+  Ca20  1  0.58503779  0.32653889  0.82788989  1
  Ca2+  Ca21  1  0.57651689  0.82543931  0.16376040  1
  Ca2+  Ca22  1  0.57677149  0.82769790  0.48475739  1
  Ca2+  Ca23  1  0.57754575  0.82674054  0.83648809  1
  Ca2+  Ca24  1  0.32475771  0.42519759  0.17204374  1
  Ca2+  Ca25  1  0.32991098  0.42747939  0.50107469  1
  Ca2+  Ca26  1  0.32943331  0.42676449  0.84399439  1
  Ca2+  Ca27  1  0.33043188  0.90788431  0.16670192  1
  Ca2+  Ca28  1  0.32714301  0.91178855  0.50524400  1
  Ca2+  Ca29  1  0.32118494  0.91400722  0.84103189  1
  Ca2+  Ca30  1  0.84058973  0.42901922  0.16715238  1
  Ca2+  Ca31  1  0.83932293  0.42884703  0.50437882  1
  Ca2+  Ca32  1  0.84039400  0.42338946  0.83921589  1
  Ca2+  Ca33  1  0.83683308  0.92239226  0.17491456  1
  Ca2+  Ca34  1  0.83097889  0.91741734  0.49454223  1
  Ca2+  Ca35  1  0.83439210  0.92509475  0.84538925  1
  Ca2+  Ca36  1  0.41849408  0.16806367  0.16282829  1
  Ca2+  Ca37  1  0.42413682  0.16336250  0.49631620  1
  Ca2+  Ca38  1  0.42379278  0.16718893  0.82832519  1
  Ca2+  Ca39  1  0.42319154  0.66685289  0.15996351  1
  Ca2+  Ca40  1  0.41862461  0.66863017  0.48782714  1
  Ca2+  Ca41  1  0.41411215  0.66410705  0.83389071  1
  Ca2+  Ca42  1  0.92427141  0.16710397  0.15771080  1
  Ca2+  Ca43  1  0.92091488  0.17310671  0.49182252  1
  Ca2+  Ca44  1  0.91714209  0.17799283  0.83474016  1
  Ca2+  Ca45  1  0.90728229  0.67673542  0.16103386  1
  Ca2+  Ca46  1  0.91388604  0.66957670  0.49123008  1
  Ca2+  Ca47  1  0.91292178  0.66858608  0.83215554  1
  Al0+  Al48  1  0.00037645  0.00071723  -0.00058863  1
  Al0+  Al49  1  0.00022034  0.00161171  0.33243840  1
  Al0+  Al50  1  -0.00249565  0.00056664  0.66913916  1
  Al0+  Al51  1  0.00013924  0.50082986  0.00524906  1
  Al0+  Al52  1  0.00001486  0.49902059  0.34125136  1
  Al0+  Al53  1  0.00119393  0.50264499  0.66530062  1
  Al0+  Al54  1  0.49900141  -0.00201058  -0.00436542  1
  Al0+  Al55  1  0.49990124  -0.00051317  0.33162149  1
  Al0+  Al56  1  0.49958614  -0.00118159  0.66325021  1
  Al0+  Al57  1  0.50255711  0.49933444  -0.00204628  1
  Al0+  Al58  1  0.50087568  0.49855518  0.33361923  1
  Al0+  Al59  1  0.50222045  0.49953183  0.66905946  1
  Al0+  Al60  1  0.25120849  0.24728279  -0.00377843  1
  Al0+  Al61  1  0.24984490  0.24806710  0.33477786  1
  Al0+  Al62  1  0.24985743  0.24928889  0.66616961  1
  Al0+  Al63  1  0.24923511  0.75148375  0.00512700  1
  Al0+  Al64  1  0.24826083  0.74967738  0.33343387  1
  Al0+  Al65  1  0.24831768  0.74999213  0.67449557  1
  Al0+  Al66  1  0.75196954  0.25007384  0.00149045  1
  Al0+  Al67  1  0.75180480  0.25074483  0.33621771  1
  Al0+  Al68  1  0.75064553  0.25006187  0.65617712  1
  Al0+  Al69  1  0.74719283  0.75094150  -0.00696779  1
  Al0+  Al70  1  0.74871672  0.75172209  0.33425718  1
  Al0+  Al71  1  0.74869821  0.75175992  0.67075703  1
  Al0+  Al72  1  0.82118379  0.57185758  0.68151079  1
  Al0+  Al73  1  0.81974788  0.57244595  0.01309607  1
  Al0+  Al74  1  0.32345381  0.57141544  0.01675863  1
  Al0+  Al75  1  0.92873460  0.82091731  0.98578497  1
  Al0+  Al76  1  0.92936842  0.32325649  0.98645912  1
  Al0+  Al77  1  0.07268204  0.17859693  0.98273465  1
  Al0+  Al78  1  0.42547349  0.82233415  0.31863273  1
  Al0+  Al79  1  0.56999576  0.17798432  0.65176863  1
  Al0+  Al80  1  0.57043936  0.67732711  0.31893655  1
  Al0+  Al81  1  0.42624531  0.82060462  0.98210465  1
  Al0+  Al82  1  0.07076483  0.18091757  0.31984337  1
  Al0+  Al83  1  0.93084239  0.81899992  0.32133715  1
  Al0+  Al84  1  0.81877082  0.57134491  0.34601209  1
  Al0+  Al85  1  0.32232644  0.56963897  0.68140869  1
  Al0+  Al86  1  0.82029679  0.07116517  0.01273799  1
  Al0+  Al87  1  0.17910625  0.93099020  0.01591074  1
  Al0+  Al88  1  0.82381824  0.07185312  0.35052450  1
  Al0+  Al89  1  0.17942007  0.42609497  0.35006798  1
  Al0+  Al90  1  0.57029792  0.67715599  0.98139089  1
  Al0+  Al91  1  0.17880433  0.42682986  0.01432359  1
  Al0+  Al92  1  0.17797851  0.93123432  0.68000899  1
  Al0+  Al93  1  0.32137880  0.57157045  0.34804329  1
  Al0+  Al94  1  0.67848289  0.93028064  0.34776207  1
  Al0+  Al95  1  0.93151655  0.32309208  0.65059562  1
  Si0+  Si96  1  0.17828757  0.42679252  0.68326327  1
  Si0+  Si97  1  0.42771624  0.81770089  0.65225859  1
  Si0+  Si98  1  0.42734359  0.32318677  0.64981088  1
  Si0+  Si99  1  0.92703301  0.82257154  0.65158979  1
  Si0+  Si100  1  0.07132469  0.68180475  0.65274210  1
  Si0+  Si101  1  0.32387205  0.07191261  0.68236586  1
  Si0+  Si102  1  0.67626328  0.92864732  0.01555834  1
  Si0+  Si103  1  0.32227115  0.07115287  0.34793595  1
  Si0+  Si104  1  0.67665379  0.92952924  0.68347725  1
  Si0+  Si105  1  0.57293071  0.17834098  0.31704812  1
  Si0+  Si106  1  0.07132279  0.67839859  0.98474132  1
  Si0+  Si107  1  0.43005652  0.31884106  0.31924347  1
  Si0+  Si108  1  0.57174662  0.17907802  0.98739508  1
  Si0+  Si109  1  0.07204418  0.67544310  0.31740247  1
  Si0+  Si110  1  0.92736621  0.32426732  0.31608073  1
  Si0+  Si111  1  0.07113946  0.17601471  0.64918337  1
  Si0+  Si112  1  0.57232274  0.67913695  0.65105493  1
  Si0+  Si113  1  0.68043423  0.42621661  0.68232354  1
  Si0+  Si114  1  0.67645592  0.42558910  0.35130450  1
  Si0+  Si115  1  0.42959758  0.32041030  0.98526560  1
  Si0+  Si116  1  0.32503257  0.07146932  0.01580067  1
  Si0+  Si117  1  0.67882942  0.42626966  0.01539096  1
  Si0+  Si118  1  0.81849391  0.07172277  0.68177240  1
  Si0+  Si119  1  0.17858865  0.92956009  0.34734396  1
  O2-  O120  1  0.25530366  0.00517667  0.06113951  1
  O2-  O121  1  0.25437873  -0.00359833  0.38898505  1
  O2-  O122  1  0.25131208  0.00806920  0.72617405  1
  O2-  O123  1  0.25096516  0.49868198  0.06402931  1
  O2-  O124  1  0.24827926  0.50143252  0.39976521  1
  O2-  O125  1  0.25150099  0.49064644  0.72678574  1
  O2-  O126  1  0.74786164  -0.00577074  0.05886935  1
  O2-  O127  1  0.74912627  0.00246459  0.40081448  1
  O2-  O128  1  0.74735705  0.00115254  0.72505054  1
  O2-  O129  1  0.74548576  0.49663643  0.05875963  1
  O2-  O130  1  0.74485410  0.49554547  0.39356601  1
  O2-  O131  1  0.74829077  0.49470520  0.72726163  1
  O2-  O132  1  -0.00357400  0.25571830  0.27358644  1
  O2-  O133  1  0.00817269  0.24935992  0.60470717  1
  O2-  O134  1  0.00310923  0.25380481  0.93433373  1
  O2-  O135  1  0.00175875  0.74192593  0.27307727  1
  O2-  O136  1  -0.00228760  0.75073343  0.61037123  1
  O2-  O137  1  0.00163856  0.74504455  0.93765345  1
  O2-  O138  1  0.50351676  0.25074883  0.27488572  1
  O2-  O139  1  0.49319532  0.25141102  0.60516459  1
  O2-  O140  1  0.50096684  0.24928770  0.94348439  1
  O2-  O141  1  0.49491753  0.74687625  0.27088370  1
  O2-  O142  1  0.49772463  0.74650674  0.60911867  1
  O2-  O143  1  0.49435721  0.74534186  0.93101013  1
  O2-  O144  1  0.07092711  0.17885063  0.09631957  1
  O2-  O145  1  0.07049401  0.18025553  0.43359660  1
  O2-  O146  1  0.06836810  0.17306880  0.75407488  1
  O2-  O147  1  0.06991206  0.68027132  0.09019863  1
  O2-  O148  1  0.07322878  0.67957293  0.42378290  1
  O2-  O149  1  0.07201051  0.68219151  0.75757632  1
  O2-  O150  1  0.57008417  0.18063793  0.09250514  1
  O2-  O151  1  0.57004036  0.17824756  0.42231561  1
  O2-  O152  1  0.56965619  0.17933431  0.76537112  1
  O2-  O153  1  0.57196740  0.67918676  0.09441212  1
  O2-  O154  1  0.56996247  0.67972877  0.43361992  1
  O2-  O155  1  0.57388399  0.68147899  0.75566099  1
  O2-  O156  1  0.18309963  0.42416110  0.23701549  1
  O2-  O157  1  0.17921283  0.42777091  0.57783955  1
  O2-  O158  1  0.18141740  0.42908489  0.90003939  1
  O2-  O159  1  0.17645410  0.93170986  0.24287915  1
  O2-  O160  1  0.17925855  0.93087831  0.56636372  1
  O2-  O161  1  0.17910520  0.93308457  0.90236945  1
  O2-  O162  1  0.67567268  0.42109190  0.24602318  1
  O2-  O163  1  0.67916350  0.42700999  0.57689437  1
  O2-  O164  1  0.67862701  0.42271004  0.90973388  1
  O2-  O165  1  0.67856053  0.93317790  0.23453016  1
  O2-  O166  1  0.67603259  0.92880477  0.57872312  1
  O2-  O167  1  0.67576437  0.93334810  0.90899914  1
  O2-  O168  1  0.43081817  0.31885437  0.09060449  1
  O2-  O169  1  0.43131367  0.31586725  0.42447163  1
  O2-  O170  1  0.42951253  0.32199511  0.75546032  1
  O2-  O171  1  0.43094182  0.82407725  0.09488638  1
  O2-  O172  1  0.42592867  0.82261546  0.43343182  1
  O2-  O173  1  0.42883909  0.81859088  0.75683180  1
  O2-  O174  1  0.92700069  0.32126301  0.09951319  1
  O2-  O175  1  0.92828609  0.32338056  0.42216386  1
  O2-  O176  1  0.93072087  0.32229598  0.76339509  1
  O2-  O177  1  0.92906930  0.82108154  0.09876472  1
  O2-  O178  1  0.93358683  0.81868325  0.43538703  1
  O2-  O179  1  0.92712232  0.82412545  0.75651443  1
  O2-  O180  1  0.32322068  0.07537015  0.24329852  1
  O2-  O181  1  0.32672337  0.06942086  0.57667735  1
  O2-  O182  1  0.32875429  0.07064092  0.91015304  1
  O2-  O183  1  0.32171823  0.56831123  0.23528770  1
  O2-  O184  1  0.32073215  0.57139468  0.56856190  1
  O2-  O185  1  0.32150357  0.56755137  0.90247795  1
  O2-  O186  1  0.82285937  0.07077377  0.23714570  1
  O2-  O187  1  0.81898534  0.06925551  0.57701489  1
  O2-  O188  1  0.81543859  0.07258608  0.89871673  1
  O2-  O189  1  0.81830524  0.57147638  0.23327877  1
  O2-  O190  1  0.81868619  0.57428577  0.56841526  1
  O2-  O191  1  0.81874158  0.57092748  0.89964829  1
  O2-  O192  1  0.03967108  0.08477714  0.26620808  1
  O2-  O193  1  0.03966281  0.08404458  0.60192920  1
  O2-  O194  1  0.03847237  0.08237174  0.92938696  1
  O2-  O195  1  0.04878903  0.57997740  0.27559392  1
  O2-  O196  1  0.04688932  0.59007797  0.60382732  1
  O2-  O197  1  0.04745066  0.58434860  0.93899738  1
  O2-  O198  1  0.54248405  0.08841462  0.26890373  1
  O2-  O199  1  0.53827665  0.08176593  0.59609386  1
  O2-  O200  1  0.54438903  0.08826677  0.93779282  1
  O2-  O201  1  0.54852834  0.57654083  0.26770888  1
  O2-  O202  1  0.55059334  0.58440053  0.60699689  1
  O2-  O203  1  0.54811486  0.57644620  0.92871047  1
  O2-  O204  1  0.16899092  0.20750328  0.26683267  1
  O2-  O205  1  0.16864355  0.19416115  0.60658756  1
  O2-  O206  1  0.17364415  0.19876869  0.92989973  1
  O2-  O207  1  0.16453893  0.70210840  0.27091844  1
  O2-  O208  1  0.16201604  0.71394566  0.60458469  1
  O2-  O209  1  0.16448895  0.70614854  0.93899694  1
  O2-  O210  1  0.66561729  0.20589711  0.27171811  1
  O2-  O211  1  0.66408783  0.20945522  0.59382168  1
  O2-  O212  1  0.66233526  0.20819911  0.93864997  1
  O2-  O213  1  0.66716477  0.71061639  0.26658371  1
  O2-  O214  1  0.66296548  0.71231868  0.60397750  1
  O2-  O215  1  0.66524079  0.71177468  0.92412757  1
  O2-  O216  1  0.08145434  0.45411951  0.06879077  1
  O2-  O217  1  0.08085403  0.45146337  0.40387304  1
  O2-  O218  1  0.08676888  0.45881908  0.72879553  1
  O2-  O219  1  0.08336816  0.96366579  0.06957735  1
  O2-  O220  1  0.09002293  0.96297725  0.39777473  1
  O2-  O221  1  0.08067087  0.96054489  0.73403252  1
  O2-  O222  1  0.58453083  0.44874784  0.06122629  1
  O2-  O223  1  0.58268108  0.44828838  0.39849415  1
  O2-  O224  1  0.58634866  0.44921064  0.72915563  1
  O2-  O225  1  0.58376532  0.95780080  0.06098239  1
  O2-  O226  1  0.57985159  0.96013717  0.40160191  1
  O2-  O227  1  0.58452891  0.95816970  0.73011477  1
  O2-  O228  1  0.20910639  0.32716328  0.06344025  1
  O2-  O229  1  0.21278815  0.32918954  0.40456648  1
  O2-  O230  1  0.19726291  0.33028201  0.72693263  1
  O2-  O231  1  0.20620384  0.83453979  0.07088676  1
  O2-  O232  1  0.20089178  0.83670591  0.39568236  1
  O2-  O233  1  0.20964746  0.83663890  0.73638223  1
  O2-  O234  1  0.70387580  0.33375209  0.06423932  1
  O2-  O235  1  0.70238644  0.33273492  0.39952865  1
  O2-  O236  1  0.70548834  0.33113666  0.72592723  1
  O2-  O237  1  0.69868479  0.83369467  0.05705506  1
  O2-  O238  1  0.70798908  0.83357234  0.40342949  1
  O2-  O239  1  0.70513766  0.83896786  0.73226358  1
  O2-  O240  1  0.45626339  0.41029430  0.27119589  1
  O2-  O241  1  0.45765908  0.41527007  0.60290092  1
  O2-  O242  1  0.45839836  0.41061770  0.93602163  1
  O2-  O243  1  0.45415480  0.92087649  0.26580184  1
  O2-  O244  1  0.45468095  0.91017441  0.60524329  1
  O2-  O245  1  0.45805863  0.91841857  0.92674030  1
  O2-  O246  1  0.95255031  0.41905119  0.27304273  1
  O2-  O247  1  0.96147450  0.42066288  0.59715227  1
  O2-  O248  1  0.95702411  0.42264455  0.93377619  1
  O2-  O249  1  0.96428236  0.91485811  0.26855863  1
  O2-  O250  1  0.95577620  0.91428384  0.60422371  1
  O2-  O251  1  0.96235147  0.91618598  0.93085067  1
  O2-  O252  1  0.34040485  0.28601684  0.27166925  1
  O2-  O253  1  0.33235126  0.30084424  0.60455414  1
  O2-  O254  1  0.33996048  0.29197369  0.93459411  1
  O2-  O255  1  0.32514602  0.79886560  0.26826574  1
  O2-  O256  1  0.33446607  0.79068790  0.60708484  1
  O2-  O257  1  0.32553642  0.79568858  0.93209054  1
  O2-  O258  1  0.83248989  0.30042978  0.27231054  1
  O2-  O259  1  0.83607644  0.29175138  0.59484629  1
  O2-  O260  1  0.83119355  0.29175233  0.93221089  1
  O2-  O261  1  0.83320832  0.79250098  0.26901614  1
  O2-  O262  1  0.83427776  0.79490098  0.60584063  1
  O2-  O263  1  0.83199607  0.79453018  0.92987687  1
  O2-  O264  1  0.41852327  0.04555769  0.06291801  1
  O2-  O265  1  0.41474836  0.04657232  0.39593027  1
  O2-  O266  1  0.41645697  0.04321642  0.72942194  1
  O2-  O267  1  0.42272935  0.54070231  0.06561957  1
  O2-  O268  1  0.41946348  0.53981509  0.40097592  1
  O2-  O269  1  0.42055295  0.54193499  0.73409428  1
  O2-  O270  1  0.91648284  0.04091634  0.06511295  1
  O2-  O271  1  0.92057417  0.03949520  0.40490644  1
  O2-  O272  1  0.90951876  0.04330278  0.72972820  1
  O2-  O273  1  0.91591091  0.54485656  0.06857700  1
  O2-  O274  1  0.91510417  0.54290292  0.40300576  1
  O2-  O275  1  0.91985479  0.54462772  0.73265761  1
  O2-  O276  1  0.30321620  0.16630987  0.06058144  1
  O2-  O277  1  0.29197868  0.16004349  0.39960615  1
  O2-  O278  1  0.30495677  0.16833781  0.72612006  1
  O2-  O279  1  0.29648238  0.66993057  0.06744589  1
  O2-  O280  1  0.29237796  0.67049421  0.40157030  1
  O2-  O281  1  0.28712865  0.66387927  0.73659807  1
  O2-  O282  1  0.78763722  0.16607181  0.06832108  1
  O2-  O283  1  0.79609990  0.17111583  0.40237743  1
  O2-  O284  1  0.78903008  0.16455268  0.72560709  1
  O2-  O285  1  0.78616474  0.66996369  0.06341406  1
  O2-  O286  1  0.78758175  0.66693660  0.40216439  1
  O2-  O287  1  0.78833210  0.66824232  0.73536094  1
