# generated using pymatgen
data_Ca2Al2SiO7
_symmetry_space_group_name_H-M   'P 1'
_cell_length_a   15.46275197
_cell_length_b   15.46378425
_cell_length_c   15.28890094
_cell_angle_alpha   90.00311768
_cell_angle_beta   90.01498680
_cell_angle_gamma   90.00517606
_symmetry_Int_Tables_number   1
_chemical_formula_structural   Ca2Al2SiO7
_chemical_formula_sum   'Ca48 Al48 Si24 O168'
_cell_volume   3655.76963270
_cell_formula_units_Z   24
loop_
 _symmetry_equiv_pos_site_id
 _symmetry_equiv_pos_as_xyz
  1  'x, y, z'
loop_
 _atom_type_symbol
 _atom_type_oxidation_number
  Ca2+  2.0
  Al0+  0.0
  Si0+  0.0
  O2-  -2.0
loop_
 _atom_site_type_symbol
 _atom_site_label
 _atom_site_symmetry_multiplicity
 _atom_site_fract_x
 _atom_site_fract_y
 _atom_site_fract_z
 _atom_site_occupancy
  Ca2+  Ca0  1  0.17106522  0.07885116  0.17637854  1
  Ca2+  Ca1  1  0.17373064  0.07267931  0.50217443  1
  Ca2+  Ca2  1  0.16658302  0.07415476  0.84286607  1
  Ca2+  Ca3  1  0.16401992  0.57489069  0.17710846  1
  Ca2+  Ca4  1  0.16736782  0.58434049  0.50303446  1
  Ca2+  Ca5  1  0.17157102  0.59044653  0.83199909  1
  Ca2+  Ca6  1  0.66650050  0.08077383  0.17452788  1
  Ca2+  Ca7  1  0.67101396  0.07767277  0.50195728  1
  Ca2+  Ca8  1  0.67170470  0.07557336  0.83629473  1
  Ca2+  Ca9  1  0.66728030  0.58254806  0.17320984  1
  Ca2+  Ca10  1  0.66045326  0.57688660  0.50578524  1
  Ca2+  Ca11  1  0.66798821  0.57379157  0.83486382  1
  Ca2+  Ca12  1  0.08053707  0.32574405  0.15890553  1
  Ca2+  Ca13  1  0.07745162  0.33532774  0.49551104  1
  Ca2+  Ca14  1  0.07338495  0.32381540  0.82992629  1
  Ca2+  Ca15  1  0.09324188  0.83184248  0.16626391  1
  Ca2+  Ca16  1  0.09021282  0.82789985  0.49698539  1
  Ca2+  Ca17  1  0.08298986  0.83428719  0.82030919  1
  Ca2+  Ca18  1  0.57446223  0.31832388  0.16595683  1
  Ca2+  Ca19  1  0.57842455  0.32885250  0.49093348  1
  Ca2+  Ca20  1  0.58605327  0.32570348  0.82872438  1
  Ca2+  Ca21  1  0.57898257  0.84471985  0.16695511  1
  Ca2+  Ca22  1  0.58124913  0.83292040  0.48818046  1
  Ca2+  Ca23  1  0.58533958  0.83818733  0.82920582  1
  Ca2+  Ca24  1  0.32713760  0.41374875  0.17713119  1
  Ca2+  Ca25  1  0.32942776  0.41987492  0.50222352  1
  Ca2+  Ca26  1  0.33397398  0.42590744  0.83389934  1
  Ca2+  Ca27  1  0.32642706  0.92697643  0.17204212  1
  Ca2+  Ca28  1  0.32992649  0.91374637  0.49783659  1
  Ca2+  Ca29  1  0.31950138  0.91953775  0.83958647  1
  Ca2+  Ca30  1  0.83624741  0.41571132  0.17000632  1
  Ca2+  Ca31  1  0.82723395  0.41735855  0.50893419  1
  Ca2+  Ca32  1  0.83531721  0.41028013  0.83229346  1
  Ca2+  Ca33  1  0.82266534  0.92566862  0.17620985  1
  Ca2+  Ca34  1  0.82582286  0.92536818  0.50672993  1
  Ca2+  Ca35  1  0.82823487  0.91620156  0.83369689  1
  Ca2+  Ca36  1  0.42218709  0.15454088  0.16459781  1
  Ca2+  Ca37  1  0.42241968  0.16974072  0.48631333  1
  Ca2+  Ca38  1  0.42225644  0.15559876  0.83607230  1
  Ca2+  Ca39  1  0.42238957  0.67495594  0.17156967  1
  Ca2+  Ca40  1  0.42003085  0.67178463  0.49058236  1
  Ca2+  Ca41  1  0.41607422  0.66851289  0.82533269  1
  Ca2+  Ca42  1  0.92051765  0.16894308  0.16047175  1
  Ca2+  Ca43  1  0.90741898  0.16745978  0.49897439  1
  Ca2+  Ca44  1  0.91507416  0.17090524  0.82844792  1
  Ca2+  Ca45  1  0.92282631  0.67016310  0.16615843  1
  Ca2+  Ca46  1  0.92565097  0.67681375  0.49761137  1
  Ca2+  Ca47  1  0.92645088  0.67735499  0.82160598  1
  Al0+  Al48  1  -0.00271853  -0.00257023  0.00096399  1
  Al0+  Al49  1  -0.00115163  0.00077680  0.34175970  1
  Al0+  Al50  1  -0.00030656  0.00148216  0.66924285  1
  Al0+  Al51  1  0.00032660  0.50263822  -0.00539978  1
  Al0+  Al52  1  -0.00022215  0.50125892  0.33403296  1
  Al0+  Al53  1  0.00056119  0.49794238  0.66045378  1
  Al0+  Al54  1  0.49775354  -0.00177811  -0.00076350  1
  Al0+  Al55  1  0.49960382  -0.00022033  0.33274468  1
  Al0+  Al56  1  0.50101557  -0.00031572  0.66746732  1
  Al0+  Al57  1  0.50204769  0.50020941  0.00146894  1
  Al0+  Al58  1  0.49933480  0.50000771  0.32464494  1
  Al0+  Al59  1  0.49903451  0.49931586  0.67543110  1
  Al0+  Al60  1  0.25105425  0.25270383  -0.00343410  1
  Al0+  Al61  1  0.24627118  0.25112198  0.34052321  1
  Al0+  Al62  1  0.25093357  0.25163400  0.66817951  1
  Al0+  Al63  1  0.25318021  0.74977134  0.00402998  1
  Al0+  Al64  1  0.25151120  0.74748388  0.32557231  1
  Al0+  Al65  1  0.25296422  0.74972645  0.66995168  1
  Al0+  Al66  1  0.74665274  0.25062922  -0.00609680  1
  Al0+  Al67  1  0.74832901  0.25293009  0.33155077  1
  Al0+  Al68  1  0.74917936  0.24927200  0.66959458  1
  Al0+  Al69  1  0.75023691  0.74726691  0.00332717  1
  Al0+  Al70  1  0.75340486  0.74914400  0.33278360  1
  Al0+  Al71  1  0.75131522  0.74753392  0.66613449  1
  Al0+  Al72  1  0.32147937  0.07176297  0.34897848  1
  Al0+  Al73  1  0.17652176  0.42821837  0.34682247  1
  Al0+  Al74  1  0.67824458  0.92582081  0.68135017  1
  Al0+  Al75  1  0.92872670  0.31767879  0.65052396  1
  Al0+  Al76  1  0.57480032  0.67842344  0.31898171  1
  Al0+  Al77  1  0.56765290  0.17723535  0.98380393  1
  Al0+  Al78  1  0.18194654  0.93025117  0.67875759  1
  Al0+  Al79  1  0.57021458  0.17940806  0.31931355  1
  Al0+  Al80  1  0.82037108  0.07484308  0.34772145  1
  Al0+  Al81  1  0.17503187  0.92805904  0.01533590  1
  Al0+  Al82  1  0.92907343  0.32213108  0.98470737  1
  Al0+  Al83  1  0.82052193  0.07121786  0.68341800  1
  Al0+  Al84  1  0.67893215  0.42959084  0.68016112  1
  Al0+  Al85  1  0.42465285  0.32075477  0.31990193  1
  Al0+  Al86  1  0.07028762  0.68004312  0.31827544  1
  Al0+  Al87  1  0.68023152  0.92797411  0.01429083  1
  Al0+  Al88  1  0.67852788  0.92792757  0.34774551  1
  Al0+  Al89  1  0.31845629  0.07265040  0.01391400  1
  Al0+  Al90  1  0.42947260  0.82199498  0.31679159  1
  Al0+  Al91  1  0.31903911  0.56974983  0.67877695  1
  Al0+  Al92  1  0.07413591  0.68100225  0.65120233  1
  Al0+  Al93  1  0.92708509  0.82426926  0.65067863  1
  Al0+  Al94  1  0.07221264  0.17616137  0.98665571  1
  Al0+  Al95  1  0.17959998  0.92591122  0.34941361  1
  Si0+  Si96  1  0.43179008  0.82023798  0.65346236  1
  Si0+  Si97  1  0.92921616  0.82431781  0.31580311  1
  Si0+  Si98  1  0.17933226  0.43321275  0.01262186  1
  Si0+  Si99  1  0.32229827  0.56908542  0.34767648  1
  Si0+  Si100  1  0.67912642  0.43279138  0.34587331  1
  Si0+  Si101  1  0.17590726  0.42676541  0.68551890  1
  Si0+  Si102  1  0.82123578  0.56866687  0.01479300  1
  Si0+  Si103  1  0.82338434  0.57139908  0.34875509  1
  Si0+  Si104  1  0.07500109  0.17762438  0.64834202  1
  Si0+  Si105  1  0.67843308  0.42755103  0.01762595  1
  Si0+  Si106  1  0.32310358  0.07494886  0.68318420  1
  Si0+  Si107  1  0.43057612  0.81827340  0.98234774  1
  Si0+  Si108  1  0.07230884  0.68118915  0.98495082  1
  Si0+  Si109  1  0.57274578  0.67751815  0.98270287  1
  Si0+  Si110  1  0.32417713  0.57152716  0.01807238  1
  Si0+  Si111  1  0.42790954  0.32597517  0.98062225  1
  Si0+  Si112  1  0.82426043  0.57038661  0.68323818  1
  Si0+  Si113  1  0.92837498  0.32196443  0.31926558  1
  Si0+  Si114  1  0.06907981  0.17866794  0.32212701  1
  Si0+  Si115  1  0.92641206  0.81876257  0.98707431  1
  Si0+  Si116  1  0.82024144  0.07399775  0.01634065  1
  Si0+  Si117  1  0.57095291  0.67630614  0.65517201  1
  Si0+  Si118  1  0.56895553  0.17928980  0.65145493  1
  Si0+  Si119  1  0.42959875  0.32368291  0.65309219  1
  O2-  O120  1  0.23888011  0.00850395  0.06288392  1
  O2-  O121  1  0.25299336  -0.00338982  0.39912777  1
  O2-  O122  1  0.25149715  0.00918566  0.72634662  1
  O2-  O123  1  0.25297737  0.50005626  0.05790856  1
  O2-  O124  1  0.25392631  0.50072259  0.39224418  1
  O2-  O125  1  0.24269517  0.49806726  0.72885336  1
  O2-  O126  1  0.75226838  0.00499072  0.06046987  1
  O2-  O127  1  0.74909365  0.00150164  0.39650458  1
  O2-  O128  1  0.75232342  -0.00513882  0.73246099  1
  O2-  O129  1  0.75350749  0.49506595  0.05845580  1
  O2-  O130  1  0.74588790  0.50687027  0.38952549  1
  O2-  O131  1  0.75524596  0.50235246  0.72843778  1
  O2-  O132  1  -0.00261539  0.24900702  0.27866068  1
  O2-  O133  1  0.00454052  0.24470830  0.60336094  1
  O2-  O134  1  -0.00260356  0.24588742  0.93610508  1
  O2-  O135  1  0.00037400  0.75837660  0.26975259  1
  O2-  O136  1  0.00282608  0.75436082  0.60223514  1
  O2-  O137  1  0.00678134  0.75764062  0.94473504  1
  O2-  O138  1  0.49131322  0.24457817  0.26891966  1
  O2-  O139  1  0.49484357  0.24808248  0.61091699  1
  O2-  O140  1  0.49271239  0.25319225  0.93698419  1
  O2-  O141  1  0.50840801  0.75507793  0.26774970  1
  O2-  O142  1  0.50776690  0.75347955  0.61311424  1
  O2-  O143  1  0.50219881  0.74768780  0.93918261  1
  O2-  O144  1  0.07122644  0.18059770  0.10083527  1
  O2-  O145  1  0.06904063  0.18145115  0.42699683  1
  O2-  O146  1  0.07685024  0.18096339  0.75398137  1
  O2-  O147  1  0.06933101  0.67581142  0.08975919  1
  O2-  O148  1  0.06806165  0.67737473  0.43070715  1
  O2-  O149  1  0.07362455  0.68247637  0.76580444  1
  O2-  O150  1  0.56818369  0.17964751  0.09635704  1
  O2-  O151  1  0.57293427  0.18563732  0.43318296  1
  O2-  O152  1  0.56727062  0.17911372  0.75678747  1
  O2-  O153  1  0.57253554  0.67512134  0.08717208  1
  O2-  O154  1  0.56962070  0.67302338  0.43288088  1
  O2-  O155  1  0.56751555  0.67376443  0.76059170  1
  O2-  O156  1  0.17382542  0.43095687  0.23299946  1
  O2-  O157  1  0.17826482  0.42535798  0.58017567  1
  O2-  O158  1  0.17953800  0.43776558  0.90768401  1
  O2-  O159  1  0.17887581  0.92983912  0.23599377  1
  O2-  O160  1  0.18796287  0.92715461  0.56640380  1
  O2-  O161  1  0.17965940  0.92296135  0.90155265  1
  O2-  O162  1  0.68305425  0.43228086  0.24070251  1
  O2-  O163  1  0.67681164  0.43267709  0.56678125  1
  O2-  O164  1  0.67520940  0.43093803  0.91256821  1
  O2-  O165  1  0.68216176  0.92960793  0.23380384  1
  O2-  O166  1  0.67377348  0.92801271  0.56861385  1
  O2-  O167  1  0.68357621  0.92588082  0.90136356  1
  O2-  O168  1  0.43006964  0.33273290  0.08541035  1
  O2-  O169  1  0.43068028  0.32474285  0.43391915  1
  O2-  O170  1  0.43195694  0.32653515  0.75819409  1
  O2-  O171  1  0.43095641  0.81613275  0.08682269  1
  O2-  O172  1  0.42794438  0.81621214  0.43099741  1
  O2-  O173  1  0.43067145  0.81793627  0.75891838  1
  O2-  O174  1  0.93214846  0.32559172  0.09874085  1
  O2-  O175  1  0.92722190  0.32377602  0.42407172  1
  O2-  O176  1  0.93051011  0.31749064  0.76349156  1
  O2-  O177  1  0.92236368  0.81246535  0.09168912  1
  O2-  O178  1  0.92754227  0.82026055  0.42078756  1
  O2-  O179  1  0.92764345  0.81889180  0.76533999  1
  O2-  O180  1  0.31665375  0.07341913  0.23560258  1
  O2-  O181  1  0.32460082  0.07569597  0.57807788  1
  O2-  O182  1  0.32008028  0.06575049  0.89984147  1
  O2-  O183  1  0.32108657  0.56698461  0.24165900  1
  O2-  O184  1  0.32273910  0.56711587  0.56630554  1
  O2-  O185  1  0.32408074  0.57259710  0.91264603  1
  O2-  O186  1  0.82117906  0.07592939  0.23362512  1
  O2-  O187  1  0.81344209  0.07479069  0.57035731  1
  O2-  O188  1  0.81963566  0.07323873  0.91102575  1
  O2-  O189  1  0.82645583  0.56715380  0.24313073  1
  O2-  O190  1  0.82226287  0.56951862  0.57768200  1
  O2-  O191  1  0.81917432  0.56965459  0.90999057  1
  O2-  O192  1  0.04246994  0.08643014  0.27526485  1
  O2-  O193  1  0.05246039  0.08300884  0.60475236  1
  O2-  O194  1  0.04670780  0.07578123  0.93578457  1
  O2-  O195  1  0.03280387  0.58474662  0.26352300  1
  O2-  O196  1  0.04736247  0.58126569  0.60089078  1
  O2-  O197  1  0.03962979  0.59271788  0.93402002  1
  O2-  O198  1  0.54842022  0.07972906  0.26752199  1
  O2-  O199  1  0.54300187  0.08688696  0.60436448  1
  O2-  O200  1  0.53525946  0.08116692  0.92880111  1
  O2-  O201  1  0.54135807  0.58340626  0.26063247  1
  O2-  O202  1  0.53591804  0.58643227  0.60820255  1
  O2-  O203  1  0.54390060  0.58533038  0.93545605  1
  O2-  O204  1  0.15973543  0.20875715  0.27457102  1
  O2-  O205  1  0.16871440  0.20613408  0.60303834  1
  O2-  O206  1  0.16943219  0.20786747  0.93188311  1
  O2-  O207  1  0.16727744  0.70293017  0.26164358  1
  O2-  O208  1  0.17364310  0.70857349  0.59990191  1
  O2-  O209  1  0.16764214  0.70296733  0.94152284  1
  O2-  O210  1  0.66524593  0.21712038  0.26383710  1
  O2-  O211  1  0.65924048  0.21149110  0.60569673  1
  O2-  O212  1  0.66302078  0.20996777  0.92852872  1
  O2-  O213  1  0.67679037  0.69621227  0.26841216  1
  O2-  O214  1  0.66557766  0.69298780  0.60994093  1
  O2-  O215  1  0.66543562  0.70375470  0.93614318  1
  O2-  O216  1  0.08842033  0.46558765  0.05966651  1
  O2-  O217  1  0.08181954  0.46330894  0.40212339  1
  O2-  O218  1  0.08113801  0.45021608  0.72931631  1
  O2-  O219  1  0.07259660  0.94296899  0.06505932  1
  O2-  O220  1  0.08168610  0.95398867  0.40258482  1
  O2-  O221  1  0.08348321  0.95505230  0.73133452  1
  O2-  O222  1  0.58873389  0.46081566  0.06582231  1
  O2-  O223  1  0.58578064  0.45843891  0.39120190  1
  O2-  O224  1  0.58571791  0.46317246  0.73939026  1
  O2-  O225  1  0.58178891  0.95700109  0.06353216  1
  O2-  O226  1  0.57891430  0.95160864  0.39845333  1
  O2-  O227  1  0.58034221  0.95763203  0.73547017  1
  O2-  O228  1  0.20286948  0.33979496  0.05830897  1
  O2-  O229  1  0.20174597  0.33359471  0.40588940  1
  O2-  O230  1  0.20561868  0.33492150  0.73346481  1
  O2-  O231  1  0.21276042  0.83178111  0.06821471  1
  O2-  O232  1  0.20915625  0.82518375  0.39679156  1
  O2-  O233  1  0.21715547  0.83586652  0.73499613  1
  O2-  O234  1  0.70323641  0.33467072  0.06333942  1
  O2-  O235  1  0.70981631  0.34302866  0.39462113  1
  O2-  O236  1  0.70899172  0.33416149  0.73545123  1
  O2-  O237  1  0.71062292  0.83061292  0.06741689  1
  O2-  O238  1  0.70687057  0.82794081  0.39803815  1
  O2-  O239  1  0.70210175  0.82479749  0.73259230  1
  O2-  O240  1  0.45695571  0.41601667  0.26255149  1
  O2-  O241  1  0.46260691  0.41395682  0.60603451  1
  O2-  O242  1  0.46039378  0.41820289  0.93325867  1
  O2-  O243  1  0.45264789  0.92120539  0.26376099  1
  O2-  O244  1  0.45457474  0.91334124  0.60652064  1
  O2-  O245  1  0.45713757  0.90915847  0.93364017  1
  O2-  O246  1  0.95859199  0.41264957  0.27107669  1
  O2-  O247  1  0.95671198  0.41504032  0.59614317  1
  O2-  O248  1  0.96075593  0.41970990  0.93013381  1
  O2-  O249  1  0.95115449  0.91993311  0.27270815  1
  O2-  O250  1  0.94940957  0.92508580  0.60181814  1
  O2-  O251  1  0.94219235  0.91375940  0.94222572  1
  O2-  O252  1  0.32240156  0.30034103  0.27189262  1
  O2-  O253  1  0.33500814  0.30258469  0.60831467  1
  O2-  O254  1  0.33267839  0.30816532  0.93484264  1
  O2-  O255  1  0.33561756  0.78586126  0.25930182  1
  O2-  O256  1  0.34296588  0.78598046  0.60567462  1
  O2-  O257  1  0.33911846  0.78633695  0.93508876  1
  O2-  O258  1  0.83663263  0.29750759  0.27001848  1
  O2-  O259  1  0.83035734  0.28857705  0.59843499  1
  O2-  O260  1  0.82849866  0.29994034  0.93388341  1
  O2-  O261  1  0.83784406  0.79373293  0.26729994  1
  O2-  O262  1  0.83004255  0.79012173  0.59723499  1
  O2-  O263  1  0.83906605  0.78022587  0.93720274  1
  O2-  O264  1  0.41381949  0.03433331  0.06613162  1
  O2-  O265  1  0.42111591  0.04737875  0.40044777  1
  O2-  O266  1  0.41554608  0.04501309  0.72908991  1
  O2-  O267  1  0.41673295  0.54448024  0.06372927  1
  O2-  O268  1  0.41651543  0.54366022  0.39257229  1
  O2-  O269  1  0.41241748  0.53646390  0.73913328  1
  O2-  O270  1  0.91402682  0.04908673  0.06213364  1
  O2-  O271  1  0.91767507  0.04897945  0.40329831  1
  O2-  O272  1  0.92112643  0.05059831  0.73521300  1
  O2-  O273  1  0.91451189  0.54341245  0.06155836  1
  O2-  O274  1  0.91068984  0.53624809  0.39889153  1
  O2-  O275  1  0.91781241  0.54303199  0.72866717  1
  O2-  O276  1  0.30463022  0.17682316  0.06047074  1
  O2-  O277  1  0.29091117  0.16867782  0.40397778  1
  O2-  O278  1  0.30264971  0.17009193  0.72925386  1
  O2-  O279  1  0.29659768  0.66255933  0.06576025  1
  O2-  O280  1  0.29594291  0.66255640  0.39177048  1
  O2-  O281  1  0.29062930  0.66491365  0.73773083  1
  O2-  O282  1  0.79422774  0.16882952  0.05980787  1
  O2-  O283  1  0.79088913  0.17411409  0.39943193  1
  O2-  O284  1  0.78653845  0.16725501  0.73820913  1
  O2-  O285  1  0.78983455  0.65755579  0.06552823  1
  O2-  O286  1  0.80395306  0.66500523  0.39478341  1
  O2-  O287  1  0.79880361  0.66321139  0.73078446  1
