# generated using pymatgen
data_Ca2Al2SiO7
_symmetry_space_group_name_H-M   'P 1'
_cell_length_a   15.46996358
_cell_length_b   15.46972473
_cell_length_c   15.29215821
_cell_angle_alpha   89.98817036
_cell_angle_beta   89.99295371
_cell_angle_gamma   90.01908527
_symmetry_Int_Tables_number   1
_chemical_formula_structural   Ca2Al2SiO7
_chemical_formula_sum   'Ca48 Al48 Si24 O168'
_cell_volume   3659.65902043
_cell_formula_units_Z   24
loop_
 _symmetry_equiv_pos_site_id
 _symmetry_equiv_pos_as_xyz
  1  'x, y, z'
loop_
 _atom_type_symbol
 _atom_type_oxidation_number
  Ca2+  2.0
  Al0+  0.0
  Si0+  0.0
  O2-  -2.0
loop_
 _atom_site_type_symbol
 _atom_site_label
 _atom_site_symmetry_multiplicity
 _atom_site_fract_x
 _atom_site_fract_y
 _atom_site_fract_z
 _atom_site_occupancy
  Ca2+  Ca0  1  0.17459684  0.08336382  0.16808142  1
  Ca2+  Ca1  1  0.17313716  0.07748974  0.51525867  1
  Ca2+  Ca2  1  0.17380332  0.08335601  0.83092790  1
  Ca2+  Ca3  1  0.17296271  0.58203609  0.17360515  1
  Ca2+  Ca4  1  0.17469521  0.58394090  0.51246840  1
  Ca2+  Ca5  1  0.16705355  0.58490784  0.82622493  1
  Ca2+  Ca6  1  0.67157902  0.07919966  0.16845880  1
  Ca2+  Ca7  1  0.66709238  0.07818669  0.50211483  1
  Ca2+  Ca8  1  0.66726316  0.07954017  0.84150122  1
  Ca2+  Ca9  1  0.67412644  0.57372826  0.17367027  1
  Ca2+  Ca10  1  0.67380144  0.58512009  0.50693859  1
  Ca2+  Ca11  1  0.67759047  0.58538095  0.83754432  1
  Ca2+  Ca12  1  0.07861564  0.33108708  0.16144552  1
  Ca2+  Ca13  1  0.08070072  0.33667706  0.50490885  1
  Ca2+  Ca14  1  0.07700198  0.32871012  0.81834662  1
  Ca2+  Ca15  1  0.07828844  0.82974060  0.16332968  1
  Ca2+  Ca16  1  0.08027519  0.83357811  0.50414934  1
  Ca2+  Ca17  1  0.07456437  0.82967226  0.81989061  1
  Ca2+  Ca18  1  0.59056773  0.33144276  0.15945140  1
  Ca2+  Ca19  1  0.59172992  0.32682941  0.49810594  1
  Ca2+  Ca20  1  0.59222516  0.32038916  0.82995897  1
  Ca2+  Ca21  1  0.58229542  0.84224400  0.16582603  1
  Ca2+  Ca22  1  0.57368265  0.82791932  0.49905543  1
  Ca2+  Ca23  1  0.58251738  0.82914500  0.82304106  1
  Ca2+  Ca24  1  0.33305016  0.42392934  0.17392807  1
  Ca2+  Ca25  1  0.32911156  0.42984606  0.51024719  1
  Ca2+  Ca26  1  0.32859409  0.41729292  0.82862584  1
  Ca2+  Ca27  1  0.33787568  0.92204706  0.17008937  1
  Ca2+  Ca28  1  0.33154567  0.91563918  0.51231922  1
  Ca2+  Ca29  1  0.33488792  0.92415201  0.82829999  1
  Ca2+  Ca30  1  0.82203262  0.42268259  0.17010790  1
  Ca2+  Ca31  1  0.83151804  0.42463830  0.50449459  1
  Ca2+  Ca32  1  0.83258426  0.42508127  0.83481760  1
  Ca2+  Ca33  1  0.81896817  0.92548598  0.17203209  1
  Ca2+  Ca34  1  0.83074944  0.91734599  0.50382460  1
  Ca2+  Ca35  1  0.82882697  0.92026768  0.84019033  1
  Ca2+  Ca36  1  0.42525096  0.16889610  0.15592623  1
  Ca2+  Ca37  1  0.42101859  0.16328006  0.50196773  1
  Ca2+  Ca38  1  0.42527705  0.15928811  0.82666932  1
  Ca2+  Ca39  1  0.41646172  0.67202735  0.16662770  1
  Ca2+  Ca40  1  0.41020138  0.67332077  0.49588013  1
  Ca2+  Ca41  1  0.42548507  0.67340173  0.81920656  1
  Ca2+  Ca42  1  0.91064967  0.16215442  0.16218030  1
  Ca2+  Ca43  1  0.91997672  0.16915881  0.49930209  1
  Ca2+  Ca44  1  0.91823014  0.17295709  0.82085541  1
  Ca2+  Ca45  1  0.91127774  0.66097307  0.16400476  1
  Ca2+  Ca46  1  0.91712377  0.66435038  0.50295508  1
  Ca2+  Ca47  1  0.91651042  0.66944826  0.81866775  1
  Al0+  Al48  1  0.00272209  -0.00194831  0.00258003  1
  Al0+  Al49  1  0.00135373  -0.00062146  0.33216355  1
  Al0+  Al50  1  -0.00003720  0.00095030  0.66328413  1
  Al0+  Al51  1  0.00269416  0.49869187  0.00249467  1
  Al0+  Al52  1  -0.00079396  0.49752472  0.33209420  1
  Al0+  Al53  1  -0.00119163  0.50039037  0.66607352  1
  Al0+  Al54  1  0.49727466  0.00200839  0.00279658  1
  Al0+  Al55  1  0.50044317  0.00095060  0.33156955  1
  Al0+  Al56  1  0.50149949  -0.00112550  0.66165847  1
  Al0+  Al57  1  0.49770013  0.50144943  0.00104642  1
  Al0+  Al58  1  0.49864884  0.49958287  0.33985182  1
  Al0+  Al59  1  0.50248662  0.49678685  0.66945092  1
  Al0+  Al60  1  0.24964633  0.25054314  0.00413692  1
  Al0+  Al61  1  0.25009578  0.24912523  0.33057113  1
  Al0+  Al62  1  0.25218956  0.25032352  0.67001204  1
  Al0+  Al63  1  0.24856694  0.75012490  -0.00121148  1
  Al0+  Al64  1  0.24968876  0.75108638  0.32900865  1
  Al0+  Al65  1  0.24837657  0.75142076  0.67080767  1
  Al0+  Al66  1  0.75093749  0.25130939  0.00030894  1
  Al0+  Al67  1  0.75266333  0.24971823  0.33758231  1
  Al0+  Al68  1  0.75061033  0.24937740  0.65673412  1
  Al0+  Al69  1  0.74958485  0.75167475  0.00799046  1
  Al0+  Al70  1  0.74943766  0.75018808  0.33805211  1
  Al0+  Al71  1  0.74842003  0.75058056  0.66219005  1
  Al0+  Al72  1  0.17861622  0.42992794  0.68144785  1
  Al0+  Al73  1  0.82313640  0.57165281  0.01380798  1
  Al0+  Al74  1  0.42946721  0.81870923  0.65380392  1
  Al0+  Al75  1  0.57063143  0.17860093  0.65157584  1
  Al0+  Al76  1  0.92883720  0.32190676  0.64995547  1
  Al0+  Al77  1  0.07008932  0.67925646  0.65219700  1
  Al0+  Al78  1  0.67668551  0.92927567  0.01326657  1
  Al0+  Al79  1  0.82217700  0.57099391  0.35072944  1
  Al0+  Al80  1  0.57213378  0.67525387  0.65314993  1
  Al0+  Al81  1  0.32400488  0.57321089  0.68331658  1
  Al0+  Al82  1  0.67772255  0.42834031  0.35015424  1
  Al0+  Al83  1  0.07363080  0.17922949  0.65237037  1
  Al0+  Al84  1  0.42893065  0.82075212  0.31751467  1
  Al0+  Al85  1  0.57056848  0.18094542  0.98711611  1
  Al0+  Al86  1  0.17585877  0.92872945  0.68212309  1
  Al0+  Al87  1  0.82294421  0.06978503  0.35069515  1
  Al0+  Al88  1  0.31915515  0.07111999  0.01465585  1
  Al0+  Al89  1  0.32395480  0.07055234  0.68038598  1
  Al0+  Al90  1  0.82356970  0.07161137  0.01097677  1
  Al0+  Al91  1  0.31837661  0.57177065  0.34584431  1
  Al0+  Al92  1  0.67765780  0.42974619  0.01223713  1
  Al0+  Al93  1  0.92644900  0.82302199  0.65193377  1
  Al0+  Al94  1  0.81768719  0.57096213  0.67995670  1
  Al0+  Al95  1  0.67607783  0.92978475  0.35196033  1
  Si0+  Si96  1  0.93096440  0.32032147  0.98553190  1
  Si0+  Si97  1  0.68032964  0.93050064  0.68045242  1
  Si0+  Si98  1  0.92801239  0.82221185  0.31595605  1
  Si0+  Si99  1  0.42781517  0.82155905  0.98484183  1
  Si0+  Si100  1  0.92922398  0.81983140  0.98806937  1
  Si0+  Si101  1  0.32031883  0.07206051  0.34750891  1
  Si0+  Si102  1  0.42752388  0.32145374  0.31866061  1
  Si0+  Si103  1  0.07299528  0.17809746  0.98570752  1
  Si0+  Si104  1  0.17896185  0.92618832  0.01913433  1
  Si0+  Si105  1  0.42537155  0.32432989  0.98310907  1
  Si0+  Si106  1  0.57071579  0.67955636  0.98794486  1
  Si0+  Si107  1  0.17811225  0.42595160  0.34857060  1
  Si0+  Si108  1  0.67887800  0.42340219  0.68385427  1
  Si0+  Si109  1  0.93027578  0.31972366  0.31456517  1
  Si0+  Si110  1  0.07235629  0.17734661  0.31546457  1
  Si0+  Si111  1  0.07102814  0.67757827  0.98531558  1
  Si0+  Si112  1  0.57138502  0.18119782  0.31658616  1
  Si0+  Si113  1  0.06943399  0.67897913  0.31742528  1
  Si0+  Si114  1  0.57180793  0.67651372  0.31598070  1
  Si0+  Si115  1  0.82059980  0.07213393  0.67978105  1
  Si0+  Si116  1  0.31973678  0.57307573  0.01554079  1
  Si0+  Si117  1  0.42753367  0.32209312  0.64981126  1
  Si0+  Si118  1  0.18019167  0.92946777  0.34676186  1
  Si0+  Si119  1  0.18011171  0.42883905  0.01644294  1
  O2-  O120  1  0.24688961  -0.00479213  0.06397643  1
  O2-  O121  1  0.25108871  -0.00006740  0.38858940  1
  O2-  O122  1  0.24871001  0.00139114  0.73000705  1
  O2-  O123  1  0.25097406  0.49989038  0.05845204  1
  O2-  O124  1  0.24547845  0.49551830  0.39108646  1
  O2-  O125  1  0.25060607  0.50163159  0.73304032  1
  O2-  O126  1  0.74928713  0.00219614  0.06115531  1
  O2-  O127  1  0.75120473  -0.00135715  0.40176141  1
  O2-  O128  1  0.75209808  0.00010836  0.72325729  1
  O2-  O129  1  0.74840880  0.50238556  0.06294917  1
  O2-  O130  1  0.74586925  0.50360248  0.39981730  1
  O2-  O131  1  0.74237821  0.49716671  0.72716346  1
  O2-  O132  1  0.00037446  0.24698117  0.27201448  1
  O2-  O133  1  0.00309374  0.25124564  0.60039158  1
  O2-  O134  1  -0.00246953  0.24432125  0.94482283  1
  O2-  O135  1  -0.00503954  0.74610906  0.27386079  1
  O2-  O136  1  -0.00062660  0.75185289  0.60135911  1
  O2-  O137  1  -0.00523214  0.74377041  0.94595783  1
  O2-  O138  1  0.50136869  0.25411447  0.27488950  1
  O2-  O139  1  0.49681115  0.25434634  0.60483377  1
  O2-  O140  1  0.49648199  0.25738804  0.94073784  1
  O2-  O141  1  0.50546428  0.74753815  0.26990505  1
  O2-  O142  1  0.49242777  0.73893854  0.60350264  1
  O2-  O143  1  0.50237436  0.75331838  0.94530265  1
  O2-  O144  1  0.07506532  0.18136115  0.09135628  1
  O2-  O145  1  0.07569692  0.17752373  0.41954827  1
  O2-  O146  1  0.06946792  0.17975068  0.76677776  1
  O2-  O147  1  0.07468516  0.67906395  0.09097799  1
  O2-  O148  1  0.07226835  0.68049010  0.42147001  1
  O2-  O149  1  0.06619304  0.67979611  0.76656284  1
  O2-  O150  1  0.56853164  0.18224549  0.10065824  1
  O2-  O151  1  0.56853835  0.18014918  0.42151819  1
  O2-  O152  1  0.57232026  0.17810412  0.76487910  1
  O2-  O153  1  0.56712491  0.67718187  0.09293676  1
  O2-  O154  1  0.56819955  0.67633477  0.42093316  1
  O2-  O155  1  0.57504117  0.68165418  0.76772893  1
  O2-  O156  1  0.17934016  0.42612820  0.24197569  1
  O2-  O157  1  0.18185221  0.43047583  0.56759418  1
  O2-  O158  1  0.17834209  0.42737095  0.91234564  1
  O2-  O159  1  0.18002683  0.93078874  0.24108109  1
  O2-  O160  1  0.17704393  0.93048904  0.56784659  1
  O2-  O161  1  0.17727579  0.92475934  0.91469106  1
  O2-  O162  1  0.67981691  0.42787492  0.23608987  1
  O2-  O163  1  0.68204348  0.42144012  0.57853734  1
  O2-  O164  1  0.68006347  0.42939129  0.89923489  1
  O2-  O165  1  0.67625372  0.93477143  0.23802519  1
  O2-  O166  1  0.67964681  0.93252596  0.57574408  1
  O2-  O167  1  0.67888841  0.92742241  0.89955343  1
  O2-  O168  1  0.42296080  0.32352885  0.08927025  1
  O2-  O169  1  0.42169018  0.31690885  0.42275804  1
  O2-  O170  1  0.42777076  0.32138520  0.75555431  1
  O2-  O171  1  0.42524522  0.81888591  0.09026257  1
  O2-  O172  1  0.42415489  0.81946869  0.42944965  1
  O2-  O173  1  0.43575154  0.82229656  0.76799257  1
  O2-  O174  1  0.93467981  0.32209317  0.09096455  1
  O2-  O175  1  0.93355408  0.32165589  0.41883874  1
  O2-  O176  1  0.92744539  0.31884651  0.76443620  1
  O2-  O177  1  0.93354295  0.82065537  0.09333847  1
  O2-  O178  1  0.93248962  0.82638692  0.42015317  1
  O2-  O179  1  0.92488202  0.82166400  0.76641599  1
  O2-  O180  1  0.31761361  0.07320430  0.24203311  1
  O2-  O181  1  0.32392780  0.06778518  0.56624052  1
  O2-  O182  1  0.31869852  0.07103015  0.90257655  1
  O2-  O183  1  0.31584122  0.57006889  0.23161531  1
  O2-  O184  1  0.32087255  0.57157670  0.56958066  1
  O2-  O185  1  0.31888149  0.57477962  0.91144442  1
  O2-  O186  1  0.82189798  0.06885964  0.23663260  1
  O2-  O187  1  0.81881867  0.07166715  0.57494454  1
  O2-  O188  1  0.82563898  0.06943279  0.89747146  1
  O2-  O189  1  0.82345213  0.56625831  0.23663765  1
  O2-  O190  1  0.81704430  0.57016952  0.56746911  1
  O2-  O191  1  0.82461375  0.57170890  0.90061500  1
  O2-  O192  1  0.04668050  0.08511402  0.26670897  1
  O2-  O193  1  0.04462624  0.08234116  0.59792552  1
  O2-  O194  1  0.05264731  0.08300598  0.94242187  1
  O2-  O195  1  0.04564809  0.58521047  0.26983971  1
  O2-  O196  1  0.04257553  0.58167220  0.59863301  1
  O2-  O197  1  0.05003022  0.58325504  0.94062051  1
  O2-  O198  1  0.54082263  0.09056680  0.26863991  1
  O2-  O199  1  0.53804140  0.08429131  0.59497899  1
  O2-  O200  1  0.53737044  0.08410525  0.93460534  1
  O2-  O201  1  0.54236300  0.58282639  0.27052331  1
  O2-  O202  1  0.55644695  0.57237507  0.60584872  1
  O2-  O203  1  0.54106842  0.58888070  0.93936261  1
  O2-  O204  1  0.16348121  0.20774465  0.26554343  1
  O2-  O205  1  0.17336798  0.20537893  0.60125534  1
  O2-  O206  1  0.16312713  0.21142577  0.93915066  1
  O2-  O207  1  0.15854817  0.71156237  0.26594487  1
  O2-  O208  1  0.16932352  0.70652333  0.60150406  1
  O2-  O209  1  0.16100859  0.70968736  0.93717420  1
  O2-  O210  1  0.66489140  0.20790198  0.27199113  1
  O2-  O211  1  0.66509162  0.20905725  0.59387192  1
  O2-  O212  1  0.66823336  0.20953616  0.93315463  1
  O2-  O213  1  0.66747944  0.69914706  0.27221025  1
  O2-  O214  1  0.66462777  0.71281176  0.59603008  1
  O2-  O215  1  0.66437865  0.70586108  0.94343744  1
  O2-  O216  1  0.08981307  0.45740090  0.06711342  1
  O2-  O217  1  0.08406729  0.44989189  0.39166393  1
  O2-  O218  1  0.08041933  0.45765421  0.73486602  1
  O2-  O219  1  0.08634933  0.95210119  0.06776447  1
  O2-  O220  1  0.08860543  0.95661680  0.39291025  1
  O2-  O221  1  0.07735612  0.95836647  0.73533845  1
  O2-  O222  1  0.57756998  0.45489107  0.06504835  1
  O2-  O223  1  0.57708393  0.44775477  0.40121853  1
  O2-  O224  1  0.58315670  0.43897754  0.72842158  1
  O2-  O225  1  0.57886955  0.95739940  0.06676922  1
  O2-  O226  1  0.57820623  0.96220570  0.40328831  1
  O2-  O227  1  0.58970067  0.96061476  0.72780865  1
  O2-  O228  1  0.20701238  0.33815591  0.06710541  1
  O2-  O229  1  0.20420683  0.33213209  0.39268018  1
  O2-  O230  1  0.20804584  0.33225935  0.73605110  1
  O2-  O231  1  0.20605303  0.83282014  0.06639606  1
  O2-  O232  1  0.20728690  0.83743236  0.39188923  1
  O2-  O233  1  0.20172959  0.83151770  0.73765003  1
  O2-  O234  1  0.70886849  0.33292074  0.06679159  1
  O2-  O235  1  0.71033001  0.33139873  0.40197821  1
  O2-  O236  1  0.71177404  0.33109397  0.72904609  1
  O2-  O237  1  0.70459605  0.83315958  0.07139173  1
  O2-  O238  1  0.69973400  0.82950535  0.40066332  1
  O2-  O239  1  0.70700805  0.83858066  0.72739814  1
  O2-  O240  1  0.45079955  0.41538492  0.27257841  1
  O2-  O241  1  0.45154177  0.41612049  0.60426481  1
  O2-  O242  1  0.44611396  0.41959643  0.93860000  1
  O2-  O243  1  0.45882603  0.91888317  0.26357401  1
  O2-  O244  1  0.46450101  0.91320724  0.59770390  1
  O2-  O245  1  0.45070871  0.91528418  0.94069878  1
  O2-  O246  1  0.96076712  0.41016392  0.26439012  1
  O2-  O247  1  0.95786466  0.41919689  0.59670788  1
  O2-  O248  1  0.96480972  0.41065541  0.93865715  1
  O2-  O249  1  0.96261874  0.91129392  0.26593977  1
  O2-  O250  1  0.95439960  0.92053094  0.59751033  1
  O2-  O251  1  0.96167517  0.91008710  0.94000024  1
  O2-  O252  1  0.33692631  0.29146595  0.26721329  1
  O2-  O253  1  0.33478689  0.29665314  0.60260965  1
  O2-  O254  1  0.33185246  0.29580702  0.93854592  1
  O2-  O255  1  0.33291927  0.78870283  0.26017973  1
  O2-  O256  1  0.32785788  0.79953424  0.60523547  1
  O2-  O257  1  0.33678835  0.79018345  0.93824197  1
  O2-  O258  1  0.83796646  0.29148730  0.26816281  1
  O2-  O259  1  0.83399460  0.29025760  0.59308868  1
  O2-  O260  1  0.83833388  0.29806977  0.93863097  1
  O2-  O261  1  0.83420539  0.79806678  0.27071055  1
  O2-  O262  1  0.83020141  0.79376225  0.59675768  1
  O2-  O263  1  0.83452845  0.79896867  0.94388711  1
  O2-  O264  1  0.41442200  0.04143251  0.07135390  1
  O2-  O265  1  0.41331492  0.04749631  0.39150628  1
  O2-  O266  1  0.42101951  0.03610444  0.73337993  1
  O2-  O267  1  0.41143629  0.54749492  0.06411685  1
  O2-  O268  1  0.41416438  0.54394994  0.40012138  1
  O2-  O269  1  0.42256767  0.54295061  0.73626476  1
  O2-  O270  1  0.92167155  0.04279889  0.06592775  1
  O2-  O271  1  0.92311738  0.04219993  0.39973786  1
  O2-  O272  1  0.91330454  0.04796309  0.72588789  1
  O2-  O273  1  0.92152074  0.54121907  0.06706377  1
  O2-  O274  1  0.92061537  0.53803819  0.40035928  1
  O2-  O275  1  0.91432423  0.54040220  0.73308975  1
  O2-  O276  1  0.28694878  0.16695334  0.07101271  1
  O2-  O277  1  0.29097046  0.16351071  0.39397460  1
  O2-  O278  1  0.30107846  0.16960612  0.73340017  1
  O2-  O279  1  0.28753326  0.66340348  0.06429119  1
  O2-  O280  1  0.28436075  0.66796014  0.39671513  1
  O2-  O281  1  0.29556227  0.67069847  0.73727673  1
  O2-  O282  1  0.79780018  0.17028107  0.06411156  1
  O2-  O283  1  0.79749892  0.16876641  0.40142277  1
  O2-  O284  1  0.79030954  0.16396922  0.72528161  1
  O2-  O285  1  0.79759821  0.66971218  0.06835700  1
  O2-  O286  1  0.80202003  0.67205205  0.39945876  1
  O2-  O287  1  0.78647631  0.66851562  0.73281195  1
