# generated using pymatgen
data_Ca2Al2SiO7
_symmetry_space_group_name_H-M   'P 1'
_cell_length_a   15.45341201
_cell_length_b   15.45392339
_cell_length_c   15.28042529
_cell_angle_alpha   90.00429643
_cell_angle_beta   89.99986368
_cell_angle_gamma   90.00742863
_symmetry_Int_Tables_number   1
_chemical_formula_structural   Ca2Al2SiO7
_chemical_formula_sum   'Ca48 Al48 Si24 O168'
_cell_volume   3649.20763975
_cell_formula_units_Z   24
loop_
 _symmetry_equiv_pos_site_id
 _symmetry_equiv_pos_as_xyz
  1  'x, y, z'
loop_
 _atom_type_symbol
 _atom_type_oxidation_number
  Ca2+  2.0
  Al0+  0.0
  Si0+  0.0
  O2-  -2.0
loop_
 _atom_site_type_symbol
 _atom_site_label
 _atom_site_symmetry_multiplicity
 _atom_site_fract_x
 _atom_site_fract_y
 _atom_site_fract_z
 _atom_site_occupancy
  Ca2+  Ca0  1  0.16233591  0.07766489  0.16428849  1
  Ca2+  Ca1  1  0.16172339  0.07733712  0.50229643  1
  Ca2+  Ca2  1  0.16759147  0.08343940  0.84185554  1
  Ca2+  Ca3  1  0.18025015  0.57965925  0.17487460  1
  Ca2+  Ca4  1  0.17489134  0.58096034  0.50635442  1
  Ca2+  Ca5  1  0.17822455  0.58889238  0.83600381  1
  Ca2+  Ca6  1  0.67159163  0.07714782  0.17176634  1
  Ca2+  Ca7  1  0.67431242  0.08107211  0.50584081  1
  Ca2+  Ca8  1  0.66303322  0.06835971  0.83791710  1
  Ca2+  Ca9  1  0.66988866  0.57379850  0.16849517  1
  Ca2+  Ca10  1  0.66172683  0.58417049  0.50067166  1
  Ca2+  Ca11  1  0.67129207  0.58120847  0.84168256  1
  Ca2+  Ca12  1  0.08114911  0.33166041  0.16169968  1
  Ca2+  Ca13  1  0.07338272  0.33301796  0.49407133  1
  Ca2+  Ca14  1  0.08165942  0.32096528  0.82439383  1
  Ca2+  Ca15  1  0.07984354  0.83986383  0.15933325  1
  Ca2+  Ca16  1  0.09154738  0.82613517  0.49718996  1
  Ca2+  Ca17  1  0.07957816  0.83140841  0.83155953  1
  Ca2+  Ca18  1  0.58136887  0.33752279  0.16071656  1
  Ca2+  Ca19  1  0.57695859  0.34180060  0.49557119  1
  Ca2+  Ca20  1  0.57347366  0.34018161  0.83281834  1
  Ca2+  Ca21  1  0.58705810  0.82531954  0.16144205  1
  Ca2+  Ca22  1  0.58138465  0.82424957  0.49917346  1
  Ca2+  Ca23  1  0.58005567  0.82963225  0.82229045  1
  Ca2+  Ca24  1  0.33080470  0.42291157  0.17047341  1
  Ca2+  Ca25  1  0.33298009  0.42691806  0.50455174  1
  Ca2+  Ca26  1  0.34184424  0.42651614  0.83860579  1
  Ca2+  Ca27  1  0.32080175  0.92210668  0.16842164  1
  Ca2+  Ca28  1  0.33152612  0.91325791  0.50429161  1
  Ca2+  Ca29  1  0.32903964  0.92258679  0.84231119  1
  Ca2+  Ca30  1  0.82490669  0.41407989  0.17297523  1
  Ca2+  Ca31  1  0.82927818  0.40796301  0.50266985  1
  Ca2+  Ca32  1  0.82995862  0.42160888  0.83997214  1
  Ca2+  Ca33  1  0.83278954  0.92005431  0.16772011  1
  Ca2+  Ca34  1  0.82877174  0.92326431  0.50444363  1
  Ca2+  Ca35  1  0.82167069  0.90813727  0.83956073  1
  Ca2+  Ca36  1  0.41289900  0.17440947  0.15604220  1
  Ca2+  Ca37  1  0.41790980  0.17379037  0.49977437  1
  Ca2+  Ca38  1  0.40935059  0.17955801  0.83072766  1
  Ca2+  Ca39  1  0.42019063  0.65677595  0.16545886  1
  Ca2+  Ca40  1  0.42190230  0.66372536  0.49910593  1
  Ca2+  Ca41  1  0.41967797  0.67076664  0.82310387  1
  Ca2+  Ca42  1  0.91882238  0.16881931  0.16353281  1
  Ca2+  Ca43  1  0.91657646  0.17381316  0.49576472  1
  Ca2+  Ca44  1  0.92899883  0.16967340  0.82733921  1
  Ca2+  Ca45  1  0.91731677  0.67228701  0.15725248  1
  Ca2+  Ca46  1  0.92540294  0.66561216  0.49842122  1
  Ca2+  Ca47  1  0.91973975  0.66833129  0.83151777  1
  Al0+  Al48  1  -0.00222227  -0.00088488  -0.00813099  1
  Al0+  Al49  1  -0.00017820  0.00027128  0.34299704  1
  Al0+  Al50  1  -0.00052043  0.00089477  0.66442178  1
  Al0+  Al51  1  0.00124489  0.50190368  0.00131061  1
  Al0+  Al52  1  -0.00042395  0.50035696  0.32910063  1
  Al0+  Al53  1  -0.00032467  0.49954726  0.66043995  1
  Al0+  Al54  1  0.49958670  -0.00055834  0.01002432  1
  Al0+  Al55  1  0.49894755  -0.00107132  0.33239092  1
  Al0+  Al56  1  0.49882999  0.00061790  0.66647755  1
  Al0+  Al57  1  0.50172604  0.49990566  0.00295208  1
  Al0+  Al58  1  0.50154915  0.50102487  0.33508487  1
  Al0+  Al59  1  0.49986882  0.50057738  0.66361945  1
  Al0+  Al60  1  0.25071671  0.25149733  -0.00572277  1
  Al0+  Al61  1  0.24893356  0.24894892  0.33572382  1
  Al0+  Al62  1  0.24927200  0.24933277  0.65564561  1
  Al0+  Al63  1  0.25127083  0.75029448  0.00896274  1
  Al0+  Al64  1  0.25187439  0.75162148  0.33869609  1
  Al0+  Al65  1  0.24995305  0.75031164  0.66479434  1
  Al0+  Al66  1  0.74817021  0.24797639  -0.00020900  1
  Al0+  Al67  1  0.74989755  0.24964340  0.33727550  1
  Al0+  Al68  1  0.75057603  0.24905874  0.66941906  1
  Al0+  Al69  1  0.75104193  0.74903466  0.00400371  1
  Al0+  Al70  1  0.74897802  0.74874659  0.32860538  1
  Al0+  Al71  1  0.75020615  0.74925870  0.66569419  1
  Al0+  Al72  1  0.81918986  0.06984169  0.34721294  1
  Al0+  Al73  1  0.32020483  0.56966898  0.68227572  1
  Al0+  Al74  1  0.56968289  0.67941456  0.31554100  1
  Al0+  Al75  1  0.06919818  0.18067004  0.98701905  1
  Al0+  Al76  1  0.32140664  0.57121535  0.01303851  1
  Al0+  Al77  1  0.57255061  0.67900224  0.65282703  1
  Al0+  Al78  1  0.17983889  0.93153060  0.34878451  1
  Al0+  Al79  1  0.32152185  0.56951760  0.35115140  1
  Al0+  Al80  1  0.82381979  0.57097820  0.01489301  1
  Al0+  Al81  1  0.42812750  0.82332546  0.65330734  1
  Al0+  Al82  1  0.67785838  0.92754028  0.01501114  1
  Al0+  Al83  1  0.92794409  0.32105009  0.65217128  1
  Al0+  Al84  1  0.32015891  0.07443730  0.01352369  1
  Al0+  Al85  1  0.17677545  0.92986016  0.01239844  1
  Al0+  Al86  1  0.68039524  0.42811902  0.01386276  1
  Al0+  Al87  1  0.07185866  0.17710091  0.64756655  1
  Al0+  Al88  1  0.67983133  0.92925445  0.67885597  1
  Al0+  Al89  1  0.43147297  0.32118533  0.98746265  1
  Al0+  Al90  1  0.07125792  0.68069376  0.65397517  1
  Al0+  Al91  1  0.92820557  0.32044849  0.31705233  1
  Al0+  Al92  1  0.68175552  0.43029207  0.34870783  1
  Al0+  Al93  1  0.17610303  0.42725690  0.34850988  1
  Al0+  Al94  1  0.92886720  0.81965912  0.98634709  1
  Al0+  Al95  1  0.43073032  0.32195704  0.65128322  1
  Si0+  Si96  1  0.07323240  0.68001981  0.31739089  1
  Si0+  Si97  1  0.82311402  0.57081754  0.68011480  1
  Si0+  Si98  1  0.67676497  0.92551859  0.35036002  1
  Si0+  Si99  1  0.42660831  0.82367637  0.31271206  1
  Si0+  Si100  1  0.82252606  0.57450554  0.35048828  1
  Si0+  Si101  1  0.93060823  0.82139335  0.32005246  1
  Si0+  Si102  1  0.57110712  0.17756106  0.31923968  1
  Si0+  Si103  1  0.56959314  0.68050543  0.98558026  1
  Si0+  Si104  1  0.92684067  0.82131638  0.64901163  1
  Si0+  Si105  1  0.32038463  0.07269518  0.68068793  1
  Si0+  Si106  1  0.07106160  0.17628305  0.31558544  1
  Si0+  Si107  1  0.57310655  0.17419137  0.98413753  1
  Si0+  Si108  1  0.17795525  0.42707044  0.01304584  1
  Si0+  Si109  1  0.17856575  0.92895773  0.68252983  1
  Si0+  Si110  1  0.32455320  0.07312245  0.35177381  1
  Si0+  Si111  1  0.42809388  0.82206578  0.98800091  1
  Si0+  Si112  1  0.82148199  0.07085154  0.01420638  1
  Si0+  Si113  1  0.42950486  0.31951964  0.31832230  1
  Si0+  Si114  1  0.67875315  0.42858671  0.68182508  1
  Si0+  Si115  1  0.07547803  0.67768296  0.98545724  1
  Si0+  Si116  1  0.17701439  0.42731549  0.68262685  1
  Si0+  Si117  1  0.82262840  0.07227946  0.68666216  1
  Si0+  Si118  1  0.92536780  0.32399725  0.98443698  1
  Si0+  Si119  1  0.57161952  0.17722323  0.65142152  1
  O2-  O120  1  0.24748358  0.00296229  0.06287218  1
  O2-  O121  1  0.25600862  0.00447723  0.39612241  1
  O2-  O122  1  0.24848833  0.00203112  0.72289217  1
  O2-  O123  1  0.24370319  0.49856482  0.05731530  1
  O2-  O124  1  0.24739272  0.49899772  0.40012609  1
  O2-  O125  1  0.24625532  0.49399820  0.72967903  1
  O2-  O126  1  0.75086154  0.00479651  0.05977210  1
  O2-  O127  1  0.74366238  -0.00427597  0.39426611  1
  O2-  O128  1  0.75484219  0.00197969  0.72936342  1
  O2-  O129  1  0.75762640  0.49376757  0.06467234  1
  O2-  O130  1  0.75744089  0.50350410  0.39655638  1
  O2-  O131  1  0.75121457  0.49961824  0.72134837  1
  O2-  O132  1  0.00636369  0.24859479  0.27089566  1
  O2-  O133  1  -0.00071451  0.24956169  0.60031405  1
  O2-  O134  1  -0.00427384  0.25716849  0.94048265  1
  O2-  O135  1  0.00106973  0.75058508  0.27622869  1
  O2-  O136  1  -0.00183799  0.75599462  0.60427461  1
  O2-  O137  1  0.00458868  0.74465439  0.94157556  1
  O2-  O138  1  0.49739922  0.24530148  0.27631760  1
  O2-  O139  1  0.50740919  0.24882836  0.60484400  1
  O2-  O140  1  0.50478640  0.24395209  0.94083400  1
  O2-  O141  1  0.49554543  0.75508955  0.26844727  1
  O2-  O142  1  0.49990389  0.75098107  0.60359387  1
  O2-  O143  1  0.49942610  0.75237141  0.94374409  1
  O2-  O144  1  0.06680188  0.18046945  0.10032170  1
  O2-  O145  1  0.06812766  0.17489459  0.42085095  1
  O2-  O146  1  0.07190507  0.17691189  0.76156096  1
  O2-  O147  1  0.07569556  0.67854227  0.09112802  1
  O2-  O148  1  0.07207645  0.68123480  0.42276864  1
  O2-  O149  1  0.07051237  0.68264664  0.76718396  1
  O2-  O150  1  0.57429036  0.17465011  0.09001102  1
  O2-  O151  1  0.56970746  0.17736393  0.42452095  1
  O2-  O152  1  0.56896268  0.17569996  0.75685739  1
  O2-  O153  1  0.56822505  0.68032542  0.09074374  1
  O2-  O154  1  0.57095582  0.68204355  0.42838237  1
  O2-  O155  1  0.57321855  0.67953594  0.76698703  1
  O2-  O156  1  0.17925438  0.42779293  0.23422137  1
  O2-  O157  1  0.17774922  0.43099305  0.57719343  1
  O2-  O158  1  0.17834161  0.42702399  0.90740540  1
  O2-  O159  1  0.17692376  0.93392402  0.23593358  1
  O2-  O160  1  0.17978846  0.92924087  0.57722152  1
  O2-  O161  1  0.17938394  0.92869097  0.89862213  1
  O2-  O162  1  0.68131425  0.42940648  0.23594427  1
  O2-  O163  1  0.67908098  0.42771817  0.57671197  1
  O2-  O164  1  0.67848258  0.43263879  0.89982481  1
  O2-  O165  1  0.67872737  0.92642937  0.24464728  1
  O2-  O166  1  0.68289479  0.93182091  0.56567150  1
  O2-  O167  1  0.67732347  0.92652950  0.90168939  1
  O2-  O168  1  0.43219186  0.32076909  0.10089577  1
  O2-  O169  1  0.43196349  0.31859240  0.42358696  1
  O2-  O170  1  0.43174449  0.32219501  0.76450559  1
  O2-  O171  1  0.42877487  0.82070382  0.09295344  1
  O2-  O172  1  0.42840709  0.82596061  0.41825313  1
  O2-  O173  1  0.42841753  0.82390070  0.76762775  1
  O2-  O174  1  0.92514506  0.32114152  0.09002434  1
  O2-  O175  1  0.92665223  0.31684633  0.42977722  1
  O2-  O176  1  0.92869439  0.32030376  0.76615493  1
  O2-  O177  1  0.93048521  0.82089485  0.10004527  1
  O2-  O178  1  0.93053646  0.81922415  0.42529484  1
  O2-  O179  1  0.92547362  0.81862645  0.75458473  1
  O2-  O180  1  0.32525303  0.07387575  0.24648584  1
  O2-  O181  1  0.32166956  0.07125745  0.57541762  1
  O2-  O182  1  0.31982856  0.07334564  0.89948407  1
  O2-  O183  1  0.32120271  0.56639991  0.23710284  1
  O2-  O184  1  0.31972207  0.56871560  0.56970052  1
  O2-  O185  1  0.32256589  0.57297367  0.89977994  1
  O2-  O186  1  0.81916848  0.06711203  0.23379557  1
  O2-  O187  1  0.82055126  0.07238235  0.58081074  1
  O2-  O188  1  0.82002205  0.06989181  0.90875785  1
  O2-  O189  1  0.82020948  0.57584794  0.24520750  1
  O2-  O190  1  0.82353860  0.57244947  0.57506742  1
  O2-  O191  1  0.82138274  0.57161079  0.90053863  1
  O2-  O192  1  0.03928624  0.08316685  0.27161384  1
  O2-  O193  1  0.04199545  0.07834699  0.59536860  1
  O2-  O194  1  0.03740771  0.08593041  0.92971593  1
  O2-  O195  1  0.04729840  0.58855314  0.26886219  1
  O2-  O196  1  0.03978243  0.58565403  0.59773967  1
  O2-  O197  1  0.05295156  0.58359719  0.93813824  1
  O2-  O198  1  0.54767965  0.08403912  0.27202945  1
  O2-  O199  1  0.54286417  0.08620033  0.60186419  1
  O2-  O200  1  0.54619483  0.07972374  0.94022072  1
  O2-  O201  1  0.53772053  0.58224288  0.26256700  1
  O2-  O202  1  0.54391373  0.58178417  0.59861181  1
  O2-  O203  1  0.54161541  0.58878791  0.93879290  1
  O2-  O204  1  0.16745845  0.19648348  0.27247722  1
  O2-  O205  1  0.16925718  0.20203734  0.59191231  1
  O2-  O206  1  0.16524565  0.21038276  0.93104454  1
  O2-  O207  1  0.16553276  0.70961779  0.27230592  1
  O2-  O208  1  0.16576741  0.71267054  0.59732822  1
  O2-  O209  1  0.16872439  0.70678738  0.94000065  1
  O2-  O210  1  0.66181210  0.20780825  0.27188173  1
  O2-  O211  1  0.66720696  0.19904241  0.60833056  1
  O2-  O212  1  0.66676046  0.19675267  0.93611016  1
  O2-  O213  1  0.66689879  0.70965418  0.26076287  1
  O2-  O214  1  0.67039053  0.70733852  0.59801714  1
  O2-  O215  1  0.66227196  0.70784722  0.94041174  1
  O2-  O216  1  0.08346368  0.44807665  0.05937713  1
  O2-  O217  1  0.07655811  0.45599023  0.39884447  1
  O2-  O218  1  0.08255806  0.45279663  0.72704340  1
  O2-  O219  1  0.07734486  0.95904193  0.06298033  1
  O2-  O220  1  0.08498762  0.96076376  0.40706506  1
  O2-  O221  1  0.08471587  0.95470834  0.72728732  1
  O2-  O222  1  0.58545203  0.46262341  0.06954768  1
  O2-  O223  1  0.58597215  0.46326333  0.40231955  1
  O2-  O224  1  0.58747156  0.45821038  0.72860509  1
  O2-  O225  1  0.58304329  0.95559019  0.07337969  1
  O2-  O226  1  0.58181929  0.94942177  0.39382939  1
  O2-  O227  1  0.58296153  0.96119373  0.73276228  1
  O2-  O228  1  0.20689166  0.33551296  0.06049577  1
  O2-  O229  1  0.20143932  0.32748386  0.40007181  1
  O2-  O230  1  0.20219324  0.33108698  0.72315106  1
  O2-  O231  1  0.20582470  0.83387563  0.06967674  1
  O2-  O232  1  0.21054187  0.83533928  0.40349342  1
  O2-  O233  1  0.20648277  0.83768721  0.72988959  1
  O2-  O234  1  0.70024564  0.32643741  0.06463602  1
  O2-  O235  1  0.70917336  0.33337811  0.40365242  1
  O2-  O236  1  0.70409682  0.33626895  0.72994044  1
  O2-  O237  1  0.71268979  0.83354478  0.07035857  1
  O2-  O238  1  0.70578265  0.83252954  0.39504449  1
  O2-  O239  1  0.71071840  0.83219997  0.73293116  1
  O2-  O240  1  0.46099686  0.41053637  0.27247895  1
  O2-  O241  1  0.46300628  0.41663306  0.59550360  1
  O2-  O242  1  0.46685352  0.41663560  0.93257251  1
  O2-  O243  1  0.45081069  0.91831021  0.26692387  1
  O2-  O244  1  0.45593289  0.92128047  0.59844579  1
  O2-  O245  1  0.45437091  0.91556612  0.94316319  1
  O2-  O246  1  0.95363212  0.41908957  0.26352652  1
  O2-  O247  1  0.95283646  0.41899812  0.59681867  1
  O2-  O248  1  0.94842526  0.41938439  0.94061586  1
  O2-  O249  1  0.96014264  0.91383458  0.27505045  1
  O2-  O250  1  0.94898885  0.91646613  0.60544537  1
  O2-  O251  1  0.95663572  0.91421112  0.92724593  1
  O2-  O252  1  0.33612410  0.29389741  0.27258893  1
  O2-  O253  1  0.33618535  0.29011507  0.59482775  1
  O2-  O254  1  0.33570610  0.29332825  0.93014258  1
  O2-  O255  1  0.33194187  0.79784315  0.26899929  1
  O2-  O256  1  0.33067844  0.79511623  0.59933623  1
  O2-  O257  1  0.33573354  0.79399933  0.94171318  1
  O2-  O258  1  0.83173058  0.28462641  0.26493687  1
  O2-  O259  1  0.82853079  0.29134699  0.60060945  1
  O2-  O260  1  0.83167827  0.29792365  0.93822466  1
  O2-  O261  1  0.83842977  0.79572368  0.27201529  1
  O2-  O262  1  0.83539168  0.79296846  0.60064297  1
  O2-  O263  1  0.83265701  0.78562824  0.93240062  1
  O2-  O264  1  0.41708859  0.04741601  0.06997708  1
  O2-  O265  1  0.41848512  0.04733957  0.39817866  1
  O2-  O266  1  0.41203904  0.04650676  0.72879471  1
  O2-  O267  1  0.41586929  0.53651290  0.06769996  1
  O2-  O268  1  0.41903795  0.53838599  0.40309893  1
  O2-  O269  1  0.41818307  0.53856650  0.73412092  1
  O2-  O270  1  0.91357923  0.04133619  0.06019829  1
  O2-  O271  1  0.91300984  0.03813653  0.40543465  1
  O2-  O272  1  0.91736009  0.04700835  0.73038102  1
  O2-  O273  1  0.92508008  0.55250167  0.06654854  1
  O2-  O274  1  0.91841938  0.55314872  0.39272972  1
  O2-  O275  1  0.91456112  0.54261768  0.72833306  1
  O2-  O276  1  0.29153027  0.17297310  0.06594274  1
  O2-  O277  1  0.29983203  0.16662672  0.39821026  1
  O2-  O278  1  0.29172966  0.16567406  0.72551034  1
  O2-  O279  1  0.29364179  0.66606082  0.07161152  1
  O2-  O280  1  0.29622168  0.66945924  0.40125728  1
  O2-  O281  1  0.28791087  0.66737530  0.73417240  1
  O2-  O282  1  0.79870796  0.16491209  0.06089925  1
  O2-  O283  1  0.78580119  0.16395853  0.40376256  1
  O2-  O284  1  0.79673060  0.16525290  0.73383312  1
  O2-  O285  1  0.79059453  0.66632956  0.07034387  1
  O2-  O286  1  0.79391591  0.66747075  0.39696954  1
  O2-  O287  1  0.79562137  0.66251875  0.72810862  1
