# generated using pymatgen
data_Ca2Al2SiO7
_symmetry_space_group_name_H-M   'P 1'
_cell_length_a   15.46630739
_cell_length_b   15.46548685
_cell_length_c   15.28997273
_cell_angle_alpha   89.99200791
_cell_angle_beta   90.00562287
_cell_angle_gamma   90.02153045
_symmetry_Int_Tables_number   1
_chemical_formula_structural   Ca2Al2SiO7
_chemical_formula_sum   'Ca48 Al48 Si24 O168'
_cell_volume   3657.26902072
_cell_formula_units_Z   24
loop_
 _symmetry_equiv_pos_site_id
 _symmetry_equiv_pos_as_xyz
  1  'x, y, z'
loop_
 _atom_type_symbol
 _atom_type_oxidation_number
  Ca2+  2.0
  Al0+  0.0
  Si0+  0.0
  O2-  -2.0
loop_
 _atom_site_type_symbol
 _atom_site_label
 _atom_site_symmetry_multiplicity
 _atom_site_fract_x
 _atom_site_fract_y
 _atom_site_fract_z
 _atom_site_occupancy
  Ca2+  Ca0  1  0.17440948  0.09438200  0.16562993  1
  Ca2+  Ca1  1  0.17535756  0.08176336  0.50633982  1
  Ca2+  Ca2  1  0.17833254  0.08954400  0.83964123  1
  Ca2+  Ca3  1  0.17258391  0.57300610  0.17199012  1
  Ca2+  Ca4  1  0.17274431  0.58014898  0.50082188  1
  Ca2+  Ca5  1  0.18285213  0.57769237  0.84244109  1
  Ca2+  Ca6  1  0.65906294  0.07777837  0.17491037  1
  Ca2+  Ca7  1  0.65706522  0.07410833  0.49976404  1
  Ca2+  Ca8  1  0.65361630  0.07022359  0.83951578  1
  Ca2+  Ca9  1  0.67578617  0.57957910  0.17639680  1
  Ca2+  Ca10  1  0.66352056  0.57769460  0.50572732  1
  Ca2+  Ca11  1  0.66995219  0.58001425  0.83287351  1
  Ca2+  Ca12  1  0.08479737  0.33553555  0.15961704  1
  Ca2+  Ca13  1  0.08051309  0.33769677  0.49347088  1
  Ca2+  Ca14  1  0.08950493  0.33301973  0.83727701  1
  Ca2+  Ca15  1  0.08091343  0.82469130  0.16422851  1
  Ca2+  Ca16  1  0.07883729  0.82307593  0.48914613  1
  Ca2+  Ca17  1  0.07832082  0.83151351  0.82809551  1
  Ca2+  Ca18  1  0.58084493  0.32519325  0.16092421  1
  Ca2+  Ca19  1  0.57400926  0.33849323  0.48996851  1
  Ca2+  Ca20  1  0.57239922  0.33470297  0.82636481  1
  Ca2+  Ca21  1  0.59540498  0.82973956  0.16712135  1
  Ca2+  Ca22  1  0.59361698  0.82396869  0.49777196  1
  Ca2+  Ca23  1  0.58813036  0.82881379  0.82847350  1
  Ca2+  Ca24  1  0.32668393  0.40516981  0.16633433  1
  Ca2+  Ca25  1  0.33280845  0.41430208  0.50420985  1
  Ca2+  Ca26  1  0.33825655  0.42252921  0.83934623  1
  Ca2+  Ca27  1  0.33698140  0.92602641  0.16789215  1
  Ca2+  Ca28  1  0.33694331  0.92546684  0.50615480  1
  Ca2+  Ca29  1  0.34012354  0.93213034  0.83831728  1
  Ca2+  Ca30  1  0.82759833  0.42362233  0.17488939  1
  Ca2+  Ca31  1  0.81651825  0.42498501  0.50131815  1
  Ca2+  Ca32  1  0.82710732  0.42583973  0.83484412  1
  Ca2+  Ca33  1  0.82284344  0.92665285  0.17277487  1
  Ca2+  Ca34  1  0.82257683  0.92095601  0.49853489  1
  Ca2+  Ca35  1  0.82000083  0.91537439  0.83737785  1
  Ca2+  Ca36  1  0.42551652  0.17608259  0.16077387  1
  Ca2+  Ca37  1  0.42109030  0.17732431  0.49470056  1
  Ca2+  Ca38  1  0.41370001  0.17590138  0.83293745  1
  Ca2+  Ca39  1  0.42357149  0.66563522  0.16393567  1
  Ca2+  Ca40  1  0.42960681  0.66182194  0.49814656  1
  Ca2+  Ca41  1  0.42073989  0.66216531  0.82424191  1
  Ca2+  Ca42  1  0.92137718  0.16548009  0.16107894  1
  Ca2+  Ca43  1  0.91666991  0.16611822  0.49278052  1
  Ca2+  Ca44  1  0.92625510  0.16481059  0.83163841  1
  Ca2+  Ca45  1  0.91910716  0.65576143  0.16447672  1
  Ca2+  Ca46  1  0.91806287  0.65792544  0.49220158  1
  Ca2+  Ca47  1  0.91237354  0.66067656  0.82942979  1
  Al0+  Al48  1  -0.00144356  -0.00204956  -0.00676928  1
  Al0+  Al49  1  0.00077108  -0.00139394  0.33549865  1
  Al0+  Al50  1  -0.00084467  -0.00160436  0.66365637  1
  Al0+  Al51  1  0.00154574  0.50009336  0.00256048  1
  Al0+  Al52  1  0.00291335  0.49839037  0.33544813  1
  Al0+  Al53  1  -0.00064937  0.49794946  0.66836512  1
  Al0+  Al54  1  0.49840299  -0.00252230  0.00707260  1
  Al0+  Al55  1  0.49834516  0.00078286  0.33650702  1
  Al0+  Al56  1  0.49845745  0.00083359  0.67501625  1
  Al0+  Al57  1  0.50244743  0.50121021  0.00006635  1
  Al0+  Al58  1  0.49688270  0.50342844  0.32407775  1
  Al0+  Al59  1  0.49854598  0.49952493  0.66540172  1
  Al0+  Al60  1  0.25030653  0.24956408  -0.00074890  1
  Al0+  Al61  1  0.24907570  0.25055242  0.33662900  1
  Al0+  Al62  1  0.24970766  0.24840460  0.66523978  1
  Al0+  Al63  1  0.25015249  0.75010948  0.00151221  1
  Al0+  Al64  1  0.24811934  0.74957352  0.32762496  1
  Al0+  Al65  1  0.24829905  0.75017609  0.66827754  1
  Al0+  Al66  1  0.75181740  0.24752189  -0.00846389  1
  Al0+  Al67  1  0.75116997  0.25126092  0.33600327  1
  Al0+  Al68  1  0.75148935  0.24821994  0.66990081  1
  Al0+  Al69  1  0.75112557  0.75103288  0.00748134  1
  Al0+  Al70  1  0.75253736  0.75431236  0.33456403  1
  Al0+  Al71  1  0.75132985  0.75199576  0.66848380  1
  Al0+  Al72  1  0.18208718  0.42865835  0.34858770  1
  Al0+  Al73  1  0.42967863  0.32009584  0.65192212  1
  Al0+  Al74  1  0.32004483  0.57073516  0.67744803  1
  Al0+  Al75  1  0.68071747  0.93124512  0.68153660  1
  Al0+  Al76  1  0.42638091  0.32270319  0.31722043  1
  Al0+  Al77  1  0.81919932  0.56935831  0.01420517  1
  Al0+  Al78  1  0.06969037  0.67709347  0.31776400  1
  Al0+  Al79  1  0.57213221  0.17516105  0.98399055  1
  Al0+  Al80  1  0.43121115  0.32131261  0.98327577  1
  Al0+  Al81  1  0.18259857  0.43002331  0.01448871  1
  Al0+  Al82  1  0.57046304  0.68133698  0.65500378  1
  Al0+  Al83  1  0.82345278  0.07330436  0.34720103  1
  Al0+  Al84  1  0.57205533  0.17962036  0.32049292  1
  Al0+  Al85  1  0.82137209  0.57120320  0.34727381  1
  Al0+  Al86  1  0.31867664  0.06995884  0.01607831  1
  Al0+  Al87  1  0.67705053  0.93116251  0.35076216  1
  Al0+  Al88  1  0.31899442  0.07076969  0.68131055  1
  Al0+  Al89  1  0.67951992  0.93139449  0.01563674  1
  Al0+  Al90  1  0.06987629  0.17915965  0.98644917  1
  Al0+  Al91  1  0.32579736  0.57399848  0.01719865  1
  Al0+  Al92  1  0.57281031  0.68149727  0.31908694  1
  Al0+  Al93  1  0.67463405  0.43040824  0.34507222  1
  Al0+  Al94  1  0.82098908  0.57051281  0.68077564  1
  Al0+  Al95  1  0.67581313  0.42682848  0.68161252  1
  Si0+  Si96  1  0.31874011  0.07057772  0.34954441  1
  Si0+  Si97  1  0.17406828  0.92725588  0.01639679  1
  Si0+  Si98  1  0.07149146  0.67788129  0.98290431  1
  Si0+  Si99  1  0.67848835  0.42447654  0.01480269  1
  Si0+  Si100  1  0.42722383  0.82002505  0.98535826  1
  Si0+  Si101  1  0.92934642  0.82071989  0.64949337  1
  Si0+  Si102  1  0.92808817  0.32135122  0.64993365  1
  Si0+  Si103  1  0.06979008  0.17901449  0.64998147  1
  Si0+  Si104  1  0.07068410  0.17700039  0.32031611  1
  Si0+  Si105  1  0.17603160  0.92760831  0.68266929  1
  Si0+  Si106  1  0.92894608  0.81847429  0.98360064  1
  Si0+  Si107  1  0.17713595  0.42725902  0.68318813  1
  Si0+  Si108  1  0.92803893  0.32496306  0.98134390  1
  Si0+  Si109  1  0.57262945  0.17562192  0.65148137  1
  Si0+  Si110  1  0.92995015  0.82384812  0.31419764  1
  Si0+  Si111  1  0.57304895  0.68165128  0.98577128  1
  Si0+  Si112  1  0.32101689  0.57626738  0.34988911  1
  Si0+  Si113  1  0.42643354  0.82423104  0.65261703  1
  Si0+  Si114  1  0.07123035  0.67797093  0.65238282  1
  Si0+  Si115  1  0.82488677  0.07210030  0.01344550  1
  Si0+  Si116  1  0.82582035  0.07200034  0.68543191  1
  Si0+  Si117  1  0.93035435  0.32025769  0.31966743  1
  Si0+  Si118  1  0.42620690  0.82314134  0.31720219  1
  Si0+  Si119  1  0.17908019  0.92696989  0.34731923  1
  O2-  O120  1  0.24129137  -0.00364897  0.06189649  1
  O2-  O121  1  0.25001945  -0.00336006  0.39119527  1
  O2-  O122  1  0.24521768  -0.00566191  0.72771243  1
  O2-  O123  1  0.25604463  0.49935894  0.06606488  1
  O2-  O124  1  0.25832105  0.50184092  0.39416469  1
  O2-  O125  1  0.24626209  0.49582802  0.72534080  1
  O2-  O126  1  0.74871591  0.01310527  0.05816016  1
  O2-  O127  1  0.74681943  0.00706433  0.39834403  1
  O2-  O128  1  0.75205546  0.00905170  0.72908616  1
  O2-  O129  1  0.74815541  0.49169630  0.05957202  1
  O2-  O130  1  0.74195505  0.50720480  0.39611549  1
  O2-  O131  1  0.74821505  0.49965357  0.73063382  1
  O2-  O132  1  -0.00269475  0.24468610  0.27827885  1
  O2-  O133  1  -0.00162380  0.24874215  0.60722515  1
  O2-  O134  1  -0.00462500  0.25348262  0.93826915  1
  O2-  O135  1  -0.00760815  0.74908965  0.27016954  1
  O2-  O136  1  -0.00085634  0.74751201  0.60902443  1
  O2-  O137  1  0.00001186  0.74807474  0.93952705  1
  O2-  O138  1  0.50412920  0.25516672  0.27005207  1
  O2-  O139  1  0.50951851  0.24924807  0.60729559  1
  O2-  O140  1  0.50512030  0.25106646  0.93270791  1
  O2-  O141  1  0.49774681  0.75740887  0.27323366  1
  O2-  O142  1  0.49404133  0.75538876  0.60811897  1
  O2-  O143  1  0.49585028  0.74650447  0.94371880  1
  O2-  O144  1  0.06703069  0.17830989  0.09977178  1
  O2-  O145  1  0.07126094  0.17682831  0.42579720  1
  O2-  O146  1  0.06941662  0.17825035  0.75490191  1
  O2-  O147  1  0.07047194  0.67920932  0.08774450  1
  O2-  O148  1  0.07114591  0.68067122  0.43151681  1
  O2-  O149  1  0.07182353  0.68107276  0.75751674  1
  O2-  O150  1  0.57088334  0.17567460  0.09745248  1
  O2-  O151  1  0.56605851  0.17599243  0.43421485  1
  O2-  O152  1  0.56821477  0.17300325  0.75673905  1
  O2-  O153  1  0.57520552  0.68538664  0.09066299  1
  O2-  O154  1  0.57121494  0.68185799  0.43243872  1
  O2-  O155  1  0.57044233  0.68363190  0.76851468  1
  O2-  O156  1  0.18004114  0.42695629  0.23617903  1
  O2-  O157  1  0.17518254  0.42844351  0.57748814  1
  O2-  O158  1  0.18109154  0.43339789  0.90058126  1
  O2-  O159  1  0.17872079  0.92768436  0.24251223  1
  O2-  O160  1  0.17516056  0.92875759  0.57681485  1
  O2-  O161  1  0.17421653  0.92666058  0.91059934  1
  O2-  O162  1  0.68097506  0.42846659  0.23139950  1
  O2-  O163  1  0.67590590  0.42869318  0.56823510  1
  O2-  O164  1  0.67888954  0.42778723  0.90914565  1
  O2-  O165  1  0.67959696  0.93203606  0.23730046  1
  O2-  O166  1  0.68227167  0.93079245  0.56906602  1
  O2-  O167  1  0.68222144  0.92751074  0.90234486  1
  O2-  O168  1  0.43058169  0.31759641  0.09646391  1
  O2-  O169  1  0.42334144  0.31773874  0.43120524  1
  O2-  O170  1  0.42630094  0.31881758  0.76457871  1
  O2-  O171  1  0.42603390  0.82106480  0.09031397  1
  O2-  O172  1  0.42162655  0.82250242  0.42280725  1
  O2-  O173  1  0.42639433  0.82406940  0.75823541  1
  O2-  O174  1  0.92814571  0.32556871  0.08692209  1
  O2-  O175  1  0.93436913  0.32092996  0.42495553  1
  O2-  O176  1  0.93058328  0.32158721  0.75487739  1
  O2-  O177  1  0.93151607  0.81988408  0.08812755  1
  O2-  O178  1  0.93537722  0.82756699  0.41989137  1
  O2-  O179  1  0.93194941  0.82346265  0.75484500  1
  O2-  O180  1  0.31638991  0.07047033  0.24468974  1
  O2-  O181  1  0.31604657  0.06885010  0.56782320  1
  O2-  O182  1  0.31691368  0.06822871  0.90295278  1
  O2-  O183  1  0.31601279  0.58214948  0.24499067  1
  O2-  O184  1  0.31722132  0.57263045  0.56461428  1
  O2-  O185  1  0.32214646  0.57663409  0.90317814  1
  O2-  O186  1  0.83144909  0.06859787  0.23394604  1
  O2-  O187  1  0.83225998  0.06867537  0.58043043  1
  O2-  O188  1  0.83116621  0.06535176  0.90816308  1
  O2-  O189  1  0.82242488  0.56585677  0.23361107  1
  O2-  O190  1  0.82383850  0.56829407  0.56795985  1
  O2-  O191  1  0.81709442  0.57091511  0.90110243  1
  O2-  O192  1  0.04739419  0.08411019  0.27308559  1
  O2-  O193  1  0.04355913  0.08593072  0.60294518  1
  O2-  O194  1  0.03987998  0.08261606  0.92967310  1
  O2-  O195  1  0.04085752  0.57991137  0.26437000  1
  O2-  O196  1  0.04520188  0.58487615  0.60673773  1
  O2-  O197  1  0.04378488  0.58634039  0.93546033  1
  O2-  O198  1  0.53826520  0.08144860  0.26884032  1
  O2-  O199  1  0.53958894  0.08343798  0.60592903  1
  O2-  O200  1  0.53641580  0.07656056  0.93497350  1
  O2-  O201  1  0.54278416  0.58714446  0.26063672  1
  O2-  O202  1  0.53836498  0.58567716  0.60058182  1
  O2-  O203  1  0.55255520  0.58775672  0.93958336  1
  O2-  O204  1  0.16117486  0.20831191  0.27346374  1
  O2-  O205  1  0.16090791  0.20644698  0.60137867  1
  O2-  O206  1  0.16514730  0.21086108  0.93087720  1
  O2-  O207  1  0.16363232  0.71295105  0.26143022  1
  O2-  O208  1  0.16197480  0.70769380  0.60326997  1
  O2-  O209  1  0.16323856  0.70783202  0.93585678  1
  O2-  O210  1  0.67355223  0.20073729  0.27010400  1
  O2-  O211  1  0.67067229  0.19107206  0.61087126  1
  O2-  O212  1  0.67424389  0.19163238  0.93212997  1
  O2-  O213  1  0.66997753  0.71418703  0.26598934  1
  O2-  O214  1  0.66696585  0.71431198  0.60203534  1
  O2-  O215  1  0.66301575  0.71713549  0.93918424  1
  O2-  O216  1  0.08410466  0.45914566  0.06705914  1
  O2-  O217  1  0.08695497  0.46178700  0.40392498  1
  O2-  O218  1  0.08410002  0.45195879  0.73009234  1
  O2-  O219  1  0.07949566  0.95121589  0.06051173  1
  O2-  O220  1  0.08888182  0.95544887  0.39735847  1
  O2-  O221  1  0.08252328  0.95448004  0.72852167  1
  O2-  O222  1  0.58588986  0.45081428  0.06062441  1
  O2-  O223  1  0.57371848  0.45659641  0.39360382  1
  O2-  O224  1  0.57889788  0.45778855  0.73481035  1
  O2-  O225  1  0.58196148  0.95357833  0.07025050  1
  O2-  O226  1  0.57717057  0.95507785  0.40394761  1
  O2-  O227  1  0.58319527  0.95713969  0.73651932  1
  O2-  O228  1  0.20589092  0.33018238  0.06631142  1
  O2-  O229  1  0.20837259  0.33156209  0.40526301  1
  O2-  O230  1  0.20145314  0.33262276  0.72656317  1
  O2-  O231  1  0.20032912  0.83406167  0.06239161  1
  O2-  O232  1  0.20537736  0.83478653  0.39477665  1
  O2-  O233  1  0.19750636  0.83350056  0.72894393  1
  O2-  O234  1  0.70352281  0.32882628  0.05670996  1
  O2-  O235  1  0.70665961  0.33401450  0.39972292  1
  O2-  O236  1  0.70506935  0.32810743  0.73408655  1
  O2-  O237  1  0.71864834  0.83875239  0.07121866  1
  O2-  O238  1  0.71188364  0.83499276  0.40401796  1
  O2-  O239  1  0.71620723  0.83686148  0.73672736  1
  O2-  O240  1  0.44163779  0.42379281  0.26610341  1
  O2-  O241  1  0.45567413  0.41756936  0.59775782  1
  O2-  O242  1  0.45760634  0.42219093  0.93225277  1
  O2-  O243  1  0.44912697  0.91806415  0.27283162  1
  O2-  O244  1  0.45267586  0.91825508  0.60759848  1
  O2-  O245  1  0.45866496  0.91075685  0.93832005  1
  O2-  O246  1  0.96454729  0.40898767  0.27068384  1
  O2-  O247  1  0.95930532  0.41187031  0.60168675  1
  O2-  O248  1  0.95893486  0.41682609  0.93390549  1
  O2-  O249  1  0.96467342  0.91413292  0.26597443  1
  O2-  O250  1  0.95968509  0.91120723  0.60004472  1
  O2-  O251  1  0.95598395  0.90877222  0.93193739  1
  O2-  O252  1  0.32955400  0.28440342  0.26607829  1
  O2-  O253  1  0.33310818  0.28540210  0.59834168  1
  O2-  O254  1  0.33257517  0.29036378  0.93187814  1
  O2-  O255  1  0.33396745  0.79695602  0.26796583  1
  O2-  O256  1  0.33108679  0.80217052  0.60737794  1
  O2-  O257  1  0.33383532  0.79807342  0.93728674  1
  O2-  O258  1  0.83823982  0.29762456  0.27123076  1
  O2-  O259  1  0.83585209  0.29423996  0.60300260  1
  O2-  O260  1  0.83519456  0.30189603  0.93252174  1
  O2-  O261  1  0.83443400  0.80664049  0.27050643  1
  O2-  O262  1  0.83774154  0.79515600  0.60235542  1
  O2-  O263  1  0.83727965  0.78809904  0.93708545  1
  O2-  O264  1  0.41188752  0.03417094  0.07228146  1
  O2-  O265  1  0.40938802  0.04348298  0.39854019  1
  O2-  O266  1  0.41343711  0.04065120  0.73867542  1
  O2-  O267  1  0.42655912  0.55176343  0.06659224  1
  O2-  O268  1  0.41736122  0.55654457  0.39063952  1
  O2-  O269  1  0.41552180  0.54133675  0.73252315  1
  O2-  O270  1  0.91521571  0.03778027  0.06153260  1
  O2-  O271  1  0.92036736  0.03888385  0.40304081  1
  O2-  O272  1  0.91778342  0.03955065  0.73248789  1
  O2-  O273  1  0.91759484  0.54181125  0.06535948  1
  O2-  O274  1  0.91780685  0.53632047  0.39978722  1
  O2-  O275  1  0.91920380  0.53997446  0.73501837  1
  O2-  O276  1  0.28569189  0.16518112  0.06954964  1
  O2-  O277  1  0.28563292  0.15941208  0.39885135  1
  O2-  O278  1  0.28291969  0.16538933  0.73511849  1
  O2-  O279  1  0.29380815  0.67204700  0.06900677  1
  O2-  O280  1  0.28824073  0.66745891  0.39740242  1
  O2-  O281  1  0.28986713  0.66776686  0.73257492  1
  O2-  O282  1  0.81136309  0.17026604  0.05319614  1
  O2-  O283  1  0.80475109  0.17354710  0.39941148  1
  O2-  O284  1  0.80936135  0.16784184  0.72925418  1
  O2-  O285  1  0.78897977  0.66479829  0.06972321  1
  O2-  O286  1  0.80600842  0.67437042  0.39375163  1
  O2-  O287  1  0.79661564  0.67017830  0.73247348  1
