# generated using pymatgen
data_Ca2Al2SiO7
_symmetry_space_group_name_H-M   'P 1'
_cell_length_a   15.45580131
_cell_length_b   15.45607421
_cell_length_c   15.28183120
_cell_angle_alpha   90.01089743
_cell_angle_beta   90.00673538
_cell_angle_gamma   89.99544711
_symmetry_Int_Tables_number   1
_chemical_formula_structural   Ca2Al2SiO7
_chemical_formula_sum   'Ca48 Al48 Si24 O168'
_cell_volume   3650.61560949
_cell_formula_units_Z   24
loop_
 _symmetry_equiv_pos_site_id
 _symmetry_equiv_pos_as_xyz
  1  'x, y, z'
loop_
 _atom_type_symbol
 _atom_type_oxidation_number
  Ca2+  2.0
  Al0+  0.0
  Si0+  0.0
  O2-  -2.0
loop_
 _atom_site_type_symbol
 _atom_site_label
 _atom_site_symmetry_multiplicity
 _atom_site_fract_x
 _atom_site_fract_y
 _atom_site_fract_z
 _atom_site_occupancy
  Ca2+  Ca0  1  0.17480937  0.08210658  0.17179601  1
  Ca2+  Ca1  1  0.17018701  0.07605111  0.50585836  1
  Ca2+  Ca2  1  0.18132054  0.08768196  0.83941540  1
  Ca2+  Ca3  1  0.15875846  0.57764306  0.16759546  1
  Ca2+  Ca4  1  0.15724210  0.58170662  0.49991067  1
  Ca2+  Ca5  1  0.16585414  0.58120522  0.84047276  1
  Ca2+  Ca6  1  0.66178758  0.07434148  0.16808173  1
  Ca2+  Ca7  1  0.66496229  0.07546420  0.50566862  1
  Ca2+  Ca8  1  0.65145723  0.07572307  0.83615275  1
  Ca2+  Ca9  1  0.66806619  0.57328391  0.16701720  1
  Ca2+  Ca10  1  0.66886634  0.57505284  0.50213447  1
  Ca2+  Ca11  1  0.67498453  0.57790522  0.84834947  1
  Ca2+  Ca12  1  0.07434069  0.34648860  0.16254225  1
  Ca2+  Ca13  1  0.07265377  0.33542497  0.49283535  1
  Ca2+  Ca14  1  0.07235033  0.34167067  0.83273980  1
  Ca2+  Ca15  1  0.08294497  0.82615514  0.16343944  1
  Ca2+  Ca16  1  0.08243470  0.82467509  0.48722358  1
  Ca2+  Ca17  1  0.08585083  0.81884585  0.82800402  1
  Ca2+  Ca18  1  0.58084953  0.33069706  0.15364400  1
  Ca2+  Ca19  1  0.58106466  0.32807219  0.49573373  1
  Ca2+  Ca20  1  0.57645692  0.32479875  0.82834799  1
  Ca2+  Ca21  1  0.58982905  0.82974178  0.15947275  1
  Ca2+  Ca22  1  0.57949714  0.84358012  0.49949865  1
  Ca2+  Ca23  1  0.58493135  0.83278211  0.83079524  1
  Ca2+  Ca24  1  0.32190591  0.41277068  0.16901935  1
  Ca2+  Ca25  1  0.32692311  0.41574832  0.50415341  1
  Ca2+  Ca26  1  0.32811875  0.40867739  0.84184618  1
  Ca2+  Ca27  1  0.32973976  0.92417704  0.16939418  1
  Ca2+  Ca28  1  0.32968334  0.91892947  0.50813853  1
  Ca2+  Ca29  1  0.34349436  0.92826932  0.83506273  1
  Ca2+  Ca30  1  0.82856814  0.41631913  0.16756035  1
  Ca2+  Ca31  1  0.83290455  0.41077251  0.50035696  1
  Ca2+  Ca32  1  0.83061688  0.41816388  0.84408628  1
  Ca2+  Ca33  1  0.82466447  0.91313605  0.17316133  1
  Ca2+  Ca34  1  0.82436581  0.90961745  0.50338700  1
  Ca2+  Ca35  1  0.82087148  0.91918258  0.84086592  1
  Ca2+  Ca36  1  0.42142707  0.17183624  0.15529802  1
  Ca2+  Ca37  1  0.41874049  0.16423584  0.50597475  1
  Ca2+  Ca38  1  0.42045544  0.17110431  0.83094287  1
  Ca2+  Ca39  1  0.42513765  0.66917301  0.15967029  1
  Ca2+  Ca40  1  0.41718367  0.67407630  0.49921129  1
  Ca2+  Ca41  1  0.42595808  0.67140504  0.83007019  1
  Ca2+  Ca42  1  0.91690425  0.17864941  0.16208383  1
  Ca2+  Ca43  1  0.91200299  0.17748534  0.49556802  1
  Ca2+  Ca44  1  0.91257207  0.18091754  0.83083624  1
  Ca2+  Ca45  1  0.92321004  0.66621498  0.16301712  1
  Ca2+  Ca46  1  0.92717598  0.67233141  0.49293060  1
  Ca2+  Ca47  1  0.92625434  0.65770575  0.83285574  1
  Al0+  Al48  1  -0.00051102  -0.00007264  -0.00159417  1
  Al0+  Al49  1  0.00064870  0.00152894  0.33394515  1
  Al0+  Al50  1  -0.00204413  -0.00093694  0.67033247  1
  Al0+  Al51  1  0.00034724  0.50179458  -0.00081090  1
  Al0+  Al52  1  -0.00021304  0.50053011  0.33092488  1
  Al0+  Al53  1  -0.00058049  0.49996501  0.65772384  1
  Al0+  Al54  1  0.49868239  0.00081212  0.00825445  1
  Al0+  Al55  1  0.50100254  0.00135983  0.33625316  1
  Al0+  Al56  1  0.49893801  -0.00072714  0.66593262  1
  Al0+  Al57  1  0.49911493  0.50199493  -0.00542209  1
  Al0+  Al58  1  0.49988472  0.50004695  0.33858810  1
  Al0+  Al59  1  0.49840208  0.49967632  0.66353935  1
  Al0+  Al60  1  0.24916456  0.24965169  0.00803780  1
  Al0+  Al61  1  0.25114970  0.25227589  0.34029664  1
  Al0+  Al62  1  0.24853791  0.24933110  0.66729343  1
  Al0+  Al63  1  0.24968497  0.75065356  -0.00460489  1
  Al0+  Al64  1  0.25273158  0.75135278  0.33099016  1
  Al0+  Al65  1  0.25147519  0.74681260  0.65935621  1
  Al0+  Al66  1  0.74958990  0.24759625  -0.00558810  1
  Al0+  Al67  1  0.74862568  0.24893584  0.33221405  1
  Al0+  Al68  1  0.74903739  0.24885284  0.65899629  1
  Al0+  Al69  1  0.75137408  0.75004016  0.00362417  1
  Al0+  Al70  1  0.74981379  0.74897190  0.33661567  1
  Al0+  Al71  1  0.75199152  0.74704178  0.67213550  1
  Al0+  Al72  1  0.68055033  0.92961746  0.68171661  1
  Al0+  Al73  1  0.17936195  0.92936024  0.34576429  1
  Al0+  Al74  1  0.07048289  0.68057862  0.65086297  1
  Al0+  Al75  1  0.18054772  0.43114057  0.01214250  1
  Al0+  Al76  1  0.07253482  0.68055316  0.31505838  1
  Al0+  Al77  1  0.56889257  0.17862573  0.64916015  1
  Al0+  Al78  1  0.93060827  0.32032787  0.98703764  1
  Al0+  Al79  1  0.92691911  0.82348931  0.31855216  1
  Al0+  Al80  1  0.67694289  0.42670511  0.01149053  1
  Al0+  Al81  1  0.43291904  0.81941522  0.65370320  1
  Al0+  Al82  1  0.92895534  0.31925327  0.31714636  1
  Al0+  Al83  1  0.42634185  0.32217244  0.98758789  1
  Al0+  Al84  1  0.68058661  0.92804999  0.34876929  1
  Al0+  Al85  1  0.68024947  0.93107537  0.01461866  1
  Al0+  Al86  1  0.31803306  0.06962573  0.68144266  1
  Al0+  Al87  1  0.06988096  0.68089930  0.98481690  1
  Al0+  Al88  1  0.67820670  0.42731387  0.34765151  1
  Al0+  Al89  1  0.17830886  0.43182944  0.34891881  1
  Al0+  Al90  1  0.82237117  0.57011987  0.01608524  1
  Al0+  Al91  1  0.57053171  0.17737657  0.98613828  1
  Al0+  Al92  1  0.31961094  0.07039468  0.01549562  1
  Al0+  Al93  1  0.42576731  0.32265985  0.64954400  1
  Al0+  Al94  1  0.93023027  0.31954435  0.65152048  1
  Al0+  Al95  1  0.57325206  0.67923297  0.98783564  1
  Si0+  Si96  1  0.57584227  0.67672791  0.64951980  1
  Si0+  Si97  1  0.17671442  0.92412991  0.68297865  1
  Si0+  Si98  1  0.57042456  0.67768914  0.32008431  1
  Si0+  Si99  1  0.07273370  0.17541602  0.98469339  1
  Si0+  Si100  1  0.32297333  0.57576516  0.01453891  1
  Si0+  Si101  1  0.07546100  0.17872005  0.31783738  1
  Si0+  Si102  1  0.82204943  0.07273866  0.34934128  1
  Si0+  Si103  1  0.43119069  0.82321941  0.31741365  1
  Si0+  Si104  1  0.32412620  0.57291138  0.35089148  1
  Si0+  Si105  1  0.92681553  0.82269721  0.65228209  1
  Si0+  Si106  1  0.82124747  0.57042269  0.35169145  1
  Si0+  Si107  1  0.17853795  0.43116170  0.68070787  1
  Si0+  Si108  1  0.92699139  0.82419699  0.98193128  1
  Si0+  Si109  1  0.42884409  0.82201114  0.98504810  1
  Si0+  Si110  1  0.17645623  0.92603303  0.01475379  1
  Si0+  Si111  1  0.32232602  0.07245852  0.35300663  1
  Si0+  Si112  1  0.82133462  0.56733620  0.68089465  1
  Si0+  Si113  1  0.82269143  0.07472039  0.68434497  1
  Si0+  Si114  1  0.32190552  0.57216671  0.68205170  1
  Si0+  Si115  1  0.67766399  0.42737480  0.68068138  1
  Si0+  Si116  1  0.07248194  0.17567664  0.65152612  1
  Si0+  Si117  1  0.82549019  0.07297871  0.01695039  1
  Si0+  Si118  1  0.42873851  0.32278346  0.31865467  1
  Si0+  Si119  1  0.56891479  0.17924764  0.31710242  1
  O2-  O120  1  0.24247610  -0.00323261  0.05969171  1
  O2-  O121  1  0.25191232  0.00465623  0.39539763  1
  O2-  O122  1  0.24172416  -0.00450000  0.72841650  1
  O2-  O123  1  0.25770821  0.50402124  0.05869817  1
  O2-  O124  1  0.25163252  0.50812618  0.39555234  1
  O2-  O125  1  0.25365203  0.49784822  0.72319933  1
  O2-  O126  1  0.75622778  0.00473332  0.06102299  1
  O2-  O127  1  0.75921572  -0.00112358  0.39459104  1
  O2-  O128  1  0.75521337  0.00464358  0.72818646  1
  O2-  O129  1  0.74881450  0.49796863  0.06371024  1
  O2-  O130  1  0.75412052  0.49999063  0.39642800  1
  O2-  O131  1  0.74757654  0.49922336  0.72281343  1
  O2-  O132  1  0.00710048  0.24688830  0.27232638  1
  O2-  O133  1  0.00180077  0.24121902  0.60578235  1
  O2-  O134  1  0.00394259  0.24385058  0.94011470  1
  O2-  O135  1  0.00094173  0.75433475  0.26724620  1
  O2-  O136  1  0.00137821  0.76152559  0.60701530  1
  O2-  O137  1  -0.00344080  0.75651833  0.93719490  1
  O2-  O138  1  0.49906191  0.25172849  0.27616442  1
  O2-  O139  1  0.49962194  0.25328261  0.59816845  1
  O2-  O140  1  0.50180324  0.25363218  0.93787857  1
  O2-  O141  1  0.50278147  0.75204753  0.27707773  1
  O2-  O142  1  0.50943906  0.74726063  0.60448489  1
  O2-  O143  1  0.49800134  0.75363839  0.94140703  1
  O2-  O144  1  0.07092606  0.17289398  0.09025139  1
  O2-  O145  1  0.07497257  0.17986001  0.42370559  1
  O2-  O146  1  0.07349723  0.17854745  0.75699076  1
  O2-  O147  1  0.07077406  0.68252843  0.09724044  1
  O2-  O148  1  0.07017905  0.68135845  0.42902554  1
  O2-  O149  1  0.06902930  0.67727193  0.76394506  1
  O2-  O150  1  0.56758475  0.17582303  0.10040912  1
  O2-  O151  1  0.56768525  0.17762106  0.42211243  1
  O2-  O152  1  0.56699533  0.17909218  0.76228288  1
  O2-  O153  1  0.57061841  0.68049519  0.10158123  1
  O2-  O154  1  0.56774911  0.67648638  0.42539394  1
  O2-  O155  1  0.57484176  0.67629251  0.75487343  1
  O2-  O156  1  0.18046205  0.43129248  0.23607031  1
  O2-  O157  1  0.17789744  0.43375748  0.57551108  1
  O2-  O158  1  0.17914249  0.43282455  0.89844042  1
  O2-  O159  1  0.18392336  0.93084433  0.23262366  1
  O2-  O160  1  0.17860485  0.92530843  0.57717057  1
  O2-  O161  1  0.17795930  0.92492128  0.90911959  1
  O2-  O162  1  0.67523789  0.42898166  0.23517486  1
  O2-  O163  1  0.67920773  0.42953378  0.57512421  1
  O2-  O164  1  0.67930163  0.42866989  0.89736331  1
  O2-  O165  1  0.67765171  0.93004838  0.23599142  1
  O2-  O166  1  0.68253487  0.93031131  0.56843175  1
  O2-  O167  1  0.67953873  0.93149815  0.90138982  1
  O2-  O168  1  0.42537432  0.31931439  0.10185843  1
  O2-  O169  1  0.42921461  0.32225150  0.42368259  1
  O2-  O170  1  0.42535033  0.32282583  0.76261567  1
  O2-  O171  1  0.42753228  0.82044982  0.09109595  1
  O2-  O172  1  0.43121513  0.82342732  0.42265386  1
  O2-  O173  1  0.43359628  0.81744106  0.76670881  1
  O2-  O174  1  0.93199133  0.31973903  0.10005235  1
  O2-  O175  1  0.92952265  0.31682574  0.43060817  1
  O2-  O176  1  0.93188741  0.32264078  0.76446681  1
  O2-  O177  1  0.92842236  0.82543482  0.08728562  1
  O2-  O178  1  0.92676251  0.81939502  0.43271476  1
  O2-  O179  1  0.92563117  0.82002463  0.75766813  1
  O2-  O180  1  0.32336321  0.07205984  0.24744934  1
  O2-  O181  1  0.31562534  0.06674098  0.56809539  1
  O2-  O182  1  0.32011289  0.06872471  0.90236656  1
  O2-  O183  1  0.32981432  0.57022316  0.24564900  1
  O2-  O184  1  0.32158906  0.57399280  0.57689116  1
  O2-  O185  1  0.31999290  0.57934812  0.90883456  1
  O2-  O186  1  0.81774595  0.07551515  0.24401105  1
  O2-  O187  1  0.82376457  0.07443974  0.57867318  1
  O2-  O188  1  0.82930582  0.07045447  0.91146047  1
  O2-  O189  1  0.81907728  0.57111338  0.24656917  1
  O2-  O190  1  0.82060803  0.56795054  0.57572069  1
  O2-  O191  1  0.82310485  0.56744360  0.90150133  1
  O2-  O192  1  0.05241851  0.08471877  0.27183027  1
  O2-  O193  1  0.05025006  0.07963506  0.60766360  1
  O2-  O194  1  0.05044673  0.08178630  0.93618784  1
  O2-  O195  1  0.04153965  0.58231555  0.26444169  1
  O2-  O196  1  0.03321700  0.58752786  0.59442856  1
  O2-  O197  1  0.03756357  0.58548007  0.92951320  1
  O2-  O198  1  0.53859038  0.08770193  0.27005931  1
  O2-  O199  1  0.53634251  0.08160715  0.59567105  1
  O2-  O200  1  0.53449180  0.08001334  0.93538270  1
  O2-  O201  1  0.53848082  0.58707706  0.27254492  1
  O2-  O202  1  0.54679400  0.58453291  0.60209541  1
  O2-  O203  1  0.54310871  0.58497322  0.92918433  1
  O2-  O204  1  0.17028400  0.20468917  0.27406852  1
  O2-  O205  1  0.16434314  0.20259162  0.60334305  1
  O2-  O206  1  0.16627805  0.20346126  0.94106245  1
  O2-  O207  1  0.17311685  0.70622571  0.26484111  1
  O2-  O208  1  0.16798885  0.70436374  0.59590110  1
  O2-  O209  1  0.16687874  0.71052426  0.92916682  1
  O2-  O210  1  0.66110455  0.20468122  0.27070043  1
  O2-  O211  1  0.66768815  0.20381143  0.59491500  1
  O2-  O212  1  0.67007140  0.19649801  0.93200157  1
  O2-  O213  1  0.66321899  0.70251159  0.27484395  1
  O2-  O214  1  0.67095160  0.69909891  0.60528806  1
  O2-  O215  1  0.66963619  0.71043094  0.93379544  1
  O2-  O216  1  0.08616301  0.46672756  0.06639559  1
  O2-  O217  1  0.08097237  0.46171317  0.40254079  1
  O2-  O218  1  0.08717982  0.46450529  0.72589803  1
  O2-  O219  1  0.08159990  0.94859156  0.05943145  1
  O2-  O220  1  0.08198185  0.95695250  0.40089582  1
  O2-  O221  1  0.08083390  0.94363613  0.72752790  1
  O2-  O222  1  0.57783365  0.45669225  0.06311258  1
  O2-  O223  1  0.58333641  0.46097841  0.40455582  1
  O2-  O224  1  0.58423498  0.45339958  0.72510883  1
  O2-  O225  1  0.58468869  0.96070050  0.07138057  1
  O2-  O226  1  0.58472601  0.96395880  0.40229298  1
  O2-  O227  1  0.58320348  0.95991647  0.73343318  1
  O2-  O228  1  0.20617000  0.33508971  0.06985615  1
  O2-  O229  1  0.20971469  0.33575375  0.40485567  1
  O2-  O230  1  0.20037352  0.33746184  0.72650615  1
  O2-  O231  1  0.20603895  0.83383687  0.06170111  1
  O2-  O232  1  0.21319332  0.83322987  0.39956007  1
  O2-  O233  1  0.20660794  0.83034349  0.72603796  1
  O2-  O234  1  0.70406492  0.32682839  0.06212066  1
  O2-  O235  1  0.70840147  0.33026688  0.40132419  1
  O2-  O236  1  0.70633106  0.33464561  0.72439579  1
  O2-  O237  1  0.71065936  0.83460302  0.06860080  1
  O2-  O238  1  0.70540290  0.83005598  0.40368133  1
  O2-  O239  1  0.70987069  0.83146403  0.73469784  1
  O2-  O240  1  0.45572711  0.41553716  0.27356546  1
  O2-  O241  1  0.45104090  0.42252623  0.59665376  1
  O2-  O242  1  0.44585705  0.42230863  0.93480110  1
  O2-  O243  1  0.45921988  0.91546670  0.27099530  1
  O2-  O244  1  0.46138389  0.91485056  0.59701711  1
  O2-  O245  1  0.45703612  0.91538853  0.94154751  1
  O2-  O246  1  0.95833475  0.41671133  0.26584154  1
  O2-  O247  1  0.96419862  0.41315543  0.59402942  1
  O2-  O248  1  0.96439751  0.41546092  0.93225941  1
  O2-  O249  1  0.94983988  0.92450055  0.26837565  1
  O2-  O250  1  0.94263516  0.91965345  0.60908874  1
  O2-  O251  1  0.95028323  0.91826859  0.93479238  1
  O2-  O252  1  0.33575340  0.29465563  0.27387004  1
  O2-  O253  1  0.32712163  0.29193427  0.59747535  1
  O2-  O254  1  0.32814809  0.28883558  0.93647413  1
  O2-  O255  1  0.34064902  0.79555267  0.26818006  1
  O2-  O256  1  0.33796896  0.78625361  0.59685461  1
  O2-  O257  1  0.33613782  0.79803272  0.93660200  1
  O2-  O258  1  0.83226450  0.28619771  0.26478035  1
  O2-  O259  1  0.83381101  0.29092253  0.59603014  1
  O2-  O260  1  0.83477466  0.29044723  0.93082904  1
  O2-  O261  1  0.82800389  0.79222872  0.26740334  1
  O2-  O262  1  0.83568215  0.78902376  0.60528488  1
  O2-  O263  1  0.83380133  0.79712005  0.93667789  1
  O2-  O264  1  0.41246935  0.03632449  0.07445464  1
  O2-  O265  1  0.41471064  0.04297343  0.39910660  1
  O2-  O266  1  0.41381274  0.03543599  0.73377129  1
  O2-  O267  1  0.41794639  0.55489750  0.05923786  1
  O2-  O268  1  0.41465738  0.54409633  0.40219749  1
  O2-  O269  1  0.41581905  0.54908551  0.72812291  1
  O2-  O270  1  0.91920976  0.04842714  0.06442944  1
  O2-  O271  1  0.91822060  0.05656050  0.39397019  1
  O2-  O272  1  0.91715489  0.05267426  0.73174598  1
  O2-  O273  1  0.91946667  0.54032477  0.06931277  1
  O2-  O274  1  0.91502218  0.54483394  0.39709499  1
  O2-  O275  1  0.91290643  0.53530847  0.72642125  1
  O2-  O276  1  0.28859822  0.16469005  0.07373431  1
  O2-  O277  1  0.29886474  0.16620223  0.39962065  1
  O2-  O278  1  0.28774657  0.16683173  0.73537992  1
  O2-  O279  1  0.29502098  0.66850612  0.06214554  1
  O2-  O280  1  0.30262289  0.66868949  0.39445103  1
  O2-  O281  1  0.29114449  0.66280654  0.72994013  1
  O2-  O282  1  0.79993297  0.16685421  0.06151591  1
  O2-  O283  1  0.78877707  0.16298184  0.39840161  1
  O2-  O284  1  0.79528039  0.16878904  0.72857440  1
  O2-  O285  1  0.79590956  0.66868352  0.06847590  1
  O2-  O286  1  0.79308923  0.66244283  0.40031137  1
  O2-  O287  1  0.79826621  0.65918893  0.73064762  1
