# generated using pymatgen
data_Ca2Al2SiO7
_symmetry_space_group_name_H-M   'P 1'
_cell_length_a   15.46167044
_cell_length_b   15.46282213
_cell_length_c   15.28735961
_cell_angle_alpha   89.98849188
_cell_angle_beta   90.00272631
_cell_angle_gamma   89.98385242
_symmetry_Int_Tables_number   1
_chemical_formula_structural   Ca2Al2SiO7
_chemical_formula_sum   'Ca48 Al48 Si24 O168'
_cell_volume   3654.91791526
_cell_formula_units_Z   24
loop_
 _symmetry_equiv_pos_site_id
 _symmetry_equiv_pos_as_xyz
  1  'x, y, z'
loop_
 _atom_type_symbol
 _atom_type_oxidation_number
  Ca2+  2.0
  Al0+  0.0
  Si0+  0.0
  O2-  -2.0
loop_
 _atom_site_type_symbol
 _atom_site_label
 _atom_site_symmetry_multiplicity
 _atom_site_fract_x
 _atom_site_fract_y
 _atom_site_fract_z
 _atom_site_occupancy
  Ca2+  Ca0  1  0.16555881  0.09117110  0.16780181  1
  Ca2+  Ca1  1  0.16920613  0.08882673  0.50796720  1
  Ca2+  Ca2  1  0.17548707  0.09215616  0.83519328  1
  Ca2+  Ca3  1  0.16617726  0.57158556  0.17549572  1
  Ca2+  Ca4  1  0.16484963  0.57153103  0.50768777  1
  Ca2+  Ca5  1  0.17543452  0.57907873  0.83832451  1
  Ca2+  Ca6  1  0.67283571  0.08549348  0.17911781  1
  Ca2+  Ca7  1  0.67366496  0.09494987  0.49986304  1
  Ca2+  Ca8  1  0.66876837  0.07900181  0.83797932  1
  Ca2+  Ca9  1  0.67170263  0.58663100  0.17482823  1
  Ca2+  Ca10  1  0.67055596  0.58135289  0.50266271  1
  Ca2+  Ca11  1  0.66295793  0.57721832  0.83558024  1
  Ca2+  Ca12  1  0.07764099  0.33302807  0.16398858  1
  Ca2+  Ca13  1  0.08876567  0.32683329  0.49186734  1
  Ca2+  Ca14  1  0.09457036  0.32861384  0.83240324  1
  Ca2+  Ca15  1  0.08433247  0.82617751  0.16774545  1
  Ca2+  Ca16  1  0.08340044  0.81858433  0.50044232  1
  Ca2+  Ca17  1  0.08115850  0.82587073  0.82146957  1
  Ca2+  Ca18  1  0.57729131  0.33165099  0.16838412  1
  Ca2+  Ca19  1  0.57041707  0.33790026  0.49566636  1
  Ca2+  Ca20  1  0.57433135  0.33528811  0.82358573  1
  Ca2+  Ca21  1  0.58516309  0.82076386  0.16447952  1
  Ca2+  Ca22  1  0.57531621  0.82831378  0.49641620  1
  Ca2+  Ca23  1  0.57560552  0.82476527  0.82858636  1
  Ca2+  Ca24  1  0.32167362  0.41527978  0.16896501  1
  Ca2+  Ca25  1  0.32597454  0.41564207  0.50812236  1
  Ca2+  Ca26  1  0.32322536  0.42175796  0.83352334  1
  Ca2+  Ca27  1  0.33341991  0.92483324  0.16750957  1
  Ca2+  Ca28  1  0.33443458  0.92390543  0.50853262  1
  Ca2+  Ca29  1  0.33975112  0.92803951  0.83470873  1
  Ca2+  Ca30  1  0.83716384  0.41657414  0.17627781  1
  Ca2+  Ca31  1  0.82995078  0.41711415  0.50007384  1
  Ca2+  Ca32  1  0.82668628  0.41030930  0.83534690  1
  Ca2+  Ca33  1  0.83230471  0.92589530  0.17697555  1
  Ca2+  Ca34  1  0.83702391  0.92157087  0.50297792  1
  Ca2+  Ca35  1  0.83741387  0.91511705  0.83517409  1
  Ca2+  Ca36  1  0.41404086  0.17278877  0.16757899  1
  Ca2+  Ca37  1  0.41581888  0.18014245  0.49534602  1
  Ca2+  Ca38  1  0.40978365  0.17179583  0.82506409  1
  Ca2+  Ca39  1  0.42814184  0.65769112  0.16106754  1
  Ca2+  Ca40  1  0.41632756  0.66735558  0.49726770  1
  Ca2+  Ca41  1  0.41481903  0.66279155  0.82635197  1
  Ca2+  Ca42  1  0.92400597  0.17608369  0.16256889  1
  Ca2+  Ca43  1  0.92792514  0.17335123  0.49029184  1
  Ca2+  Ca44  1  0.93180111  0.17312628  0.82945477  1
  Ca2+  Ca45  1  0.92376658  0.65656455  0.16932009  1
  Ca2+  Ca46  1  0.92629562  0.66195421  0.49623372  1
  Ca2+  Ca47  1  0.92659773  0.67282469  0.82374021  1
  Al0+  Al48  1  0.00043418  0.00137675  -0.00273165  1
  Al0+  Al49  1  0.00010585  -0.00107126  0.33566985  1
  Al0+  Al50  1  0.00057797  0.00092409  0.66059532  1
  Al0+  Al51  1  -0.00315506  0.50074100  -0.00337510  1
  Al0+  Al52  1  0.00040948  0.49991447  0.33584189  1
  Al0+  Al53  1  -0.00266292  0.49769029  0.66952411  1
  Al0+  Al54  1  0.50050452  -0.00220930  0.00674184  1
  Al0+  Al55  1  0.49940728  -0.00091775  0.33074418  1
  Al0+  Al56  1  0.50337573  -0.00177926  0.66716882  1
  Al0+  Al57  1  0.50181351  0.49811558  -0.00093815  1
  Al0+  Al58  1  0.49880420  0.50164031  0.32414793  1
  Al0+  Al59  1  0.50116002  0.49866590  0.66896745  1
  Al0+  Al60  1  0.25089059  0.25039495  0.00567651  1
  Al0+  Al61  1  0.25066406  0.24967671  0.32899300  1
  Al0+  Al62  1  0.25187950  0.25046633  0.66600141  1
  Al0+  Al63  1  0.25240400  0.75286998  0.00414192  1
  Al0+  Al64  1  0.24922116  0.75183633  0.32812636  1
  Al0+  Al65  1  0.25041891  0.75089425  0.66102690  1
  Al0+  Al66  1  0.74996186  0.24898447  -0.00285880  1
  Al0+  Al67  1  0.74897364  0.25041469  0.33361836  1
  Al0+  Al68  1  0.75234293  0.24890296  0.67432338  1
  Al0+  Al69  1  0.74761531  0.74855966  -0.00477482  1
  Al0+  Al70  1  0.74889472  0.75121655  0.33633296  1
  Al0+  Al71  1  0.74988782  0.75199917  0.66491948  1
  Al0+  Al72  1  0.57031461  0.17879267  0.31998909  1
  Al0+  Al73  1  0.92765382  0.82196484  0.65059439  1
  Al0+  Al74  1  0.17722911  0.43142628  0.01700880  1
  Al0+  Al75  1  0.32295176  0.57289663  0.01612200  1
  Al0+  Al76  1  0.18105854  0.42906343  0.34761692  1
  Al0+  Al77  1  0.92691072  0.32343210  0.98235411  1
  Al0+  Al78  1  0.42738432  0.32269914  0.31592243  1
  Al0+  Al79  1  0.17672068  0.42738937  0.68110800  1
  Al0+  Al80  1  0.68036419  0.42946086  0.67948858  1
  Al0+  Al81  1  0.07146029  0.67568982  0.65262898  1
  Al0+  Al82  1  0.07039317  0.67864953  0.31925478  1
  Al0+  Al83  1  0.82083359  0.07230273  0.34800650  1
  Al0+  Al84  1  0.43086749  0.32047226  0.65497963  1
  Al0+  Al85  1  0.32211257  0.06996195  0.67757085  1
  Al0+  Al86  1  0.07170590  0.18323201  0.65263360  1
  Al0+  Al87  1  0.56976328  0.67811749  0.98366908  1
  Al0+  Al88  1  0.82052646  0.57144549  0.34724504  1
  Al0+  Al89  1  0.42923018  0.82230202  0.65363268  1
  Al0+  Al90  1  0.32058585  0.57298232  0.67854696  1
  Al0+  Al91  1  0.07213245  0.18020796  0.98287241  1
  Al0+  Al92  1  0.92943990  0.32181324  0.32105456  1
  Al0+  Al93  1  0.07165774  0.17637280  0.31784249  1
  Al0+  Al94  1  0.32104100  0.07066545  0.01545913  1
  Al0+  Al95  1  0.57055384  0.68076304  0.32098311  1
  Si0+  Si96  1  0.07228887  0.67988180  0.98665448  1
  Si0+  Si97  1  0.32291486  0.57395980  0.34822153  1
  Si0+  Si98  1  0.67705419  0.92846854  0.35209393  1
  Si0+  Si99  1  0.82283011  0.06938922  0.68421069  1
  Si0+  Si100  1  0.67510990  0.42869528  0.34857354  1
  Si0+  Si101  1  0.57152353  0.17587490  0.98539704  1
  Si0+  Si102  1  0.57109480  0.67708683  0.64981879  1
  Si0+  Si103  1  0.17789804  0.92900675  0.68115929  1
  Si0+  Si104  1  0.17846088  0.92662781  0.35001306  1
  Si0+  Si105  1  0.17498784  0.92771322  0.01709221  1
  Si0+  Si106  1  0.42663404  0.82305238  0.31386530  1
  Si0+  Si107  1  0.42867954  0.82360695  0.98344716  1
  Si0+  Si108  1  0.32068328  0.06912778  0.34904302  1
  Si0+  Si109  1  0.92768096  0.82135330  0.31696415  1
  Si0+  Si110  1  0.67957608  0.42680005  0.01619189  1
  Si0+  Si111  1  0.57496763  0.17659445  0.65346557  1
  Si0+  Si112  1  0.92368194  0.32085231  0.64944449  1
  Si0+  Si113  1  0.92903713  0.82118282  0.98782246  1
  Si0+  Si114  1  0.82116365  0.57433080  0.68481011  1
  Si0+  Si115  1  0.81796541  0.57229300  0.01354173  1
  Si0+  Si116  1  0.67950892  0.92750154  0.68392261  1
  Si0+  Si117  1  0.82069940  0.06979338  0.01455967  1
  Si0+  Si118  1  0.43098208  0.31834349  0.98371747  1
  Si0+  Si119  1  0.68044121  0.92737959  0.01604847  1
  O2-  O120  1  0.24327421  -0.00234967  0.06043652  1
  O2-  O121  1  0.24749430  0.00028521  0.39113587  1
  O2-  O122  1  0.24777269  -0.00437121  0.72658528  1
  O2-  O123  1  0.24697881  0.50617198  0.06713882  1
  O2-  O124  1  0.25609653  0.50459148  0.39271002  1
  O2-  O125  1  0.24478319  0.50499711  0.72874952  1
  O2-  O126  1  0.74992801  -0.00075275  0.05843697  1
  O2-  O127  1  0.74322576  -0.00016469  0.39586773  1
  O2-  O128  1  0.75230643  -0.00293560  0.72644346  1
  O2-  O129  1  0.75211320  0.49677647  0.05675250  1
  O2-  O130  1  0.74465231  0.49695000  0.39215163  1
  O2-  O131  1  0.75375647  0.50442711  0.72927820  1
  O2-  O132  1  -0.00072521  0.24869097  0.26977490  1
  O2-  O133  1  -0.00089043  0.25981839  0.60646553  1
  O2-  O134  1  0.00337255  0.25569093  0.93308223  1
  O2-  O135  1  -0.00607899  0.75168380  0.27081954  1
  O2-  O136  1  -0.00374274  0.74594588  0.60317578  1
  O2-  O137  1  0.00301779  0.75366075  0.94569117  1
  O2-  O138  1  0.50014132  0.24995204  0.26675364  1
  O2-  O139  1  0.50634874  0.24501734  0.61037894  1
  O2-  O140  1  0.50004331  0.24458489  0.94141044  1
  O2-  O141  1  0.49386977  0.75213120  0.27153917  1
  O2-  O142  1  0.49981471  0.74363279  0.60691577  1
  O2-  O143  1  0.49009177  0.74848174  0.93898307  1
  O2-  O144  1  0.06655634  0.17606195  0.09574936  1
  O2-  O145  1  0.07195307  0.17683851  0.43150092  1
  O2-  O146  1  0.07114378  0.18098789  0.76563144  1
  O2-  O147  1  0.06926352  0.67988771  0.09179930  1
  O2-  O148  1  0.07083115  0.67998495  0.43159904  1
  O2-  O149  1  0.07078296  0.68059187  0.76720382  1
  O2-  O150  1  0.57367927  0.17745085  0.09003436  1
  O2-  O151  1  0.56806040  0.17899418  0.43363958  1
  O2-  O152  1  0.57478056  0.17606732  0.75970572  1
  O2-  O153  1  0.57466578  0.68241539  0.09653914  1
  O2-  O154  1  0.57002612  0.68285059  0.43394322  1
  O2-  O155  1  0.57239125  0.67923819  0.75565211  1
  O2-  O156  1  0.17950156  0.43068964  0.23456724  1
  O2-  O157  1  0.18031383  0.42571836  0.56757516  1
  O2-  O158  1  0.18082296  0.43203485  0.90352943  1
  O2-  O159  1  0.18008054  0.92429113  0.24468895  1
  O2-  O160  1  0.17881792  0.93096477  0.57549877  1
  O2-  O161  1  0.17357692  0.92441237  0.91187222  1
  O2-  O162  1  0.67544133  0.42974675  0.24258995  1
  O2-  O163  1  0.68030790  0.43060530  0.56663050  1
  O2-  O164  1  0.67859542  0.42726095  0.91100459  1
  O2-  O165  1  0.67992155  0.92700405  0.24596940  1
  O2-  O166  1  0.67722867  0.92724432  0.57940352  1
  O2-  O167  1  0.68088398  0.92813959  0.91083970  1
  O2-  O168  1  0.43378984  0.31791136  0.08862190  1
  O2-  O169  1  0.42838352  0.32243615  0.42964816  1
  O2-  O170  1  0.43180526  0.31852129  0.76851796  1
  O2-  O171  1  0.43392321  0.82790054  0.08876671  1
  O2-  O172  1  0.42738344  0.82527752  0.41946214  1
  O2-  O173  1  0.43462546  0.82648739  0.76656487  1
  O2-  O174  1  0.92218020  0.32011041  0.09545207  1
  O2-  O175  1  0.92944199  0.32033116  0.43459786  1
  O2-  O176  1  0.91717672  0.31430501  0.75462216  1
  O2-  O177  1  0.92717515  0.82140358  0.09270762  1
  O2-  O178  1  0.92936398  0.82132058  0.42202363  1
  O2-  O179  1  0.92939135  0.82125834  0.76542858  1
  O2-  O180  1  0.32186854  0.06595842  0.24374939  1
  O2-  O181  1  0.32206210  0.06920149  0.56454953  1
  O2-  O182  1  0.32466883  0.06862198  0.90234440  1
  O2-  O183  1  0.32134007  0.57395402  0.24255447  1
  O2-  O184  1  0.32316224  0.57073194  0.56502274  1
  O2-  O185  1  0.32156396  0.57240116  0.90262999  1
  O2-  O186  1  0.81943268  0.06793347  0.23430288  1
  O2-  O187  1  0.82030448  0.07076780  0.57943266  1
  O2-  O188  1  0.81882138  0.06636897  0.90929110  1
  O2-  O189  1  0.81835942  0.57191109  0.23344555  1
  O2-  O190  1  0.81909648  0.57546633  0.57938781  1
  O2-  O191  1  0.81462434  0.57648746  0.90876825  1
  O2-  O192  1  0.04401446  0.07668461  0.26683480  1
  O2-  O193  1  0.04022149  0.08679165  0.59924627  1
  O2-  O194  1  0.04105388  0.08159798  0.92957887  1
  O2-  O195  1  0.03689249  0.58386531  0.26468908  1
  O2-  O196  1  0.04229703  0.57651673  0.60174766  1
  O2-  O197  1  0.04150320  0.59055608  0.93752276  1
  O2-  O198  1  0.54436296  0.07941141  0.26640452  1
  O2-  O199  1  0.55334199  0.08268635  0.60769953  1
  O2-  O200  1  0.54645396  0.08160888  0.94121439  1
  O2-  O201  1  0.54470014  0.58539705  0.26244358  1
  O2-  O202  1  0.54883836  0.58311009  0.60477621  1
  O2-  O203  1  0.54453794  0.57937579  0.93145318  1
  O2-  O204  1  0.16969739  0.20334110  0.26540475  1
  O2-  O205  1  0.16856188  0.21084629  0.59873385  1
  O2-  O206  1  0.17338232  0.20662692  0.93444981  1
  O2-  O207  1  0.16510788  0.71270982  0.26286342  1
  O2-  O208  1  0.16741349  0.70695231  0.59726047  1
  O2-  O209  1  0.16540604  0.70745152  0.94205792  1
  O2-  O210  1  0.66874847  0.20560208  0.26640084  1
  O2-  O211  1  0.66919742  0.20333700  0.60999753  1
  O2-  O212  1  0.66288861  0.20266781  0.93639445  1
  O2-  O213  1  0.66638909  0.71536467  0.26625400  1
  O2-  O214  1  0.66375499  0.70667360  0.60464665  1
  O2-  O215  1  0.66372297  0.71472759  0.92710695  1
  O2-  O216  1  0.07582890  0.45831516  0.06532422  1
  O2-  O217  1  0.08505582  0.46047740  0.40139005  1
  O2-  O218  1  0.07518560  0.44585101  0.73237744  1
  O2-  O219  1  0.08099794  0.95265400  0.06378452  1
  O2-  O220  1  0.08568733  0.94981745  0.39669258  1
  O2-  O221  1  0.08387754  0.95494786  0.72674417  1
  O2-  O222  1  0.58877962  0.45583226  0.06388296  1
  O2-  O223  1  0.58148543  0.45797860  0.39268828  1
  O2-  O224  1  0.58533677  0.46024663  0.73700591  1
  O2-  O225  1  0.58923782  0.95244315  0.06531626  1
  O2-  O226  1  0.58142065  0.95076723  0.39547640  1
  O2-  O227  1  0.59012525  0.95783616  0.73515249  1
  O2-  O228  1  0.20857337  0.33377390  0.06936544  1
  O2-  O229  1  0.21279813  0.33121618  0.39867583  1
  O2-  O230  1  0.21482485  0.33267896  0.73555489  1
  O2-  O231  1  0.20225669  0.83584547  0.06687339  1
  O2-  O232  1  0.20977334  0.83584459  0.39793072  1
  O2-  O233  1  0.20164011  0.83473872  0.72601922  1
  O2-  O234  1  0.70492518  0.33345779  0.06200652  1
  O2-  O235  1  0.69833543  0.33518304  0.39506020  1
  O2-  O236  1  0.70998980  0.33322408  0.73722084  1
  O2-  O237  1  0.71116172  0.83588096  0.06260295  1
  O2-  O238  1  0.70492578  0.83693904  0.40053565  1
  O2-  O239  1  0.70594766  0.83563521  0.73315126  1
  O2-  O240  1  0.45533308  0.41951181  0.26002124  1
  O2-  O241  1  0.46398268  0.41575036  0.60032910  1
  O2-  O242  1  0.46298262  0.40862810  0.93652594  1
  O2-  O243  1  0.45576142  0.91478260  0.26587575  1
  O2-  O244  1  0.46691522  0.91613495  0.59731611  1
  O2-  O245  1  0.46345757  0.91449556  0.93624326  1
  O2-  O246  1  0.95792478  0.41953035  0.26719055  1
  O2-  O247  1  0.93811372  0.41875693  0.61018972  1
  O2-  O248  1  0.94583603  0.42460925  0.93056114  1
  O2-  O249  1  0.95620360  0.91369086  0.26971333  1
  O2-  O250  1  0.95722300  0.91878636  0.59643976  1
  O2-  O251  1  0.95270266  0.91343333  0.93915007  1
  O2-  O252  1  0.33254598  0.28853785  0.26036103  1
  O2-  O253  1  0.33696158  0.28728127  0.59902043  1
  O2-  O254  1  0.33841130  0.29109465  0.93920569  1
  O2-  O255  1  0.33294667  0.80150405  0.26692488  1
  O2-  O256  1  0.33243084  0.79911727  0.59749373  1
  O2-  O257  1  0.33164996  0.80832247  0.94099296  1
  O2-  O258  1  0.82950138  0.29691054  0.26952763  1
  O2-  O259  1  0.83273039  0.28749614  0.60228333  1
  O2-  O260  1  0.82946646  0.28872588  0.92875134  1
  O2-  O261  1  0.83255976  0.79983159  0.27257885  1
  O2-  O262  1  0.82701670  0.80018404  0.59943552  1
  O2-  O263  1  0.83869469  0.79078409  0.93846028  1
  O2-  O264  1  0.41643511  0.03641169  0.07167002  1
  O2-  O265  1  0.41224073  0.03863017  0.39557326  1
  O2-  O266  1  0.41950092  0.03954585  0.73185981  1
  O2-  O267  1  0.42141234  0.53900793  0.06658637  1
  O2-  O268  1  0.41865979  0.55110342  0.39079814  1
  O2-  O269  1  0.41850258  0.54292840  0.73217244  1
  O2-  O270  1  0.91237076  0.04136524  0.06125389  1
  O2-  O271  1  0.91620928  0.03789476  0.40253250  1
  O2-  O272  1  0.91447838  0.03944673  0.73090570  1
  O2-  O273  1  0.91165124  0.54982412  0.05924794  1
  O2-  O274  1  0.91564140  0.54017832  0.40263128  1
  O2-  O275  1  0.91472972  0.55106921  0.73163001  1
  O2-  O276  1  0.29300183  0.16645996  0.07117020  1
  O2-  O277  1  0.29547200  0.16236231  0.39349937  1
  O2-  O278  1  0.29019896  0.16499266  0.73301264  1
  O2-  O279  1  0.30482594  0.67528351  0.06604377  1
  O2-  O280  1  0.29808318  0.66946329  0.39092804  1
  O2-  O281  1  0.29715958  0.67393192  0.73027893  1
  O2-  O282  1  0.79107145  0.16148491  0.06039567  1
  O2-  O283  1  0.78979770  0.16837724  0.40331829  1
  O2-  O284  1  0.79367531  0.15887204  0.73533319  1
  O2-  O285  1  0.78548793  0.66255719  0.06207290  1
  O2-  O286  1  0.78962234  0.66796224  0.40156623  1
  O2-  O287  1  0.79432084  0.66837213  0.73062139  1
