# generated using pymatgen
data_Ca2Al2SiO7
_symmetry_space_group_name_H-M   'P 1'
_cell_length_a   15.47305191
_cell_length_b   15.47072686
_cell_length_c   15.29341095
_cell_angle_alpha   89.99972553
_cell_angle_beta   90.00928878
_cell_angle_gamma   89.98204127
_symmetry_Int_Tables_number   1
_chemical_formula_structural   Ca2Al2SiO7
_chemical_formula_sum   'Ca48 Al48 Si24 O168'
_cell_volume   3660.92669454
_cell_formula_units_Z   24
loop_
 _symmetry_equiv_pos_site_id
 _symmetry_equiv_pos_as_xyz
  1  'x, y, z'
loop_
 _atom_type_symbol
 _atom_type_oxidation_number
  Ca2+  2.0
  Al0+  0.0
  Si0+  0.0
  O2-  -2.0
loop_
 _atom_site_type_symbol
 _atom_site_label
 _atom_site_symmetry_multiplicity
 _atom_site_fract_x
 _atom_site_fract_y
 _atom_site_fract_z
 _atom_site_occupancy
  Ca2+  Ca0  1  0.15974728  0.07990897  0.16890305  1
  Ca2+  Ca1  1  0.16130180  0.07129608  0.50122126  1
  Ca2+  Ca2  1  0.16753849  0.07326082  0.84415030  1
  Ca2+  Ca3  1  0.17387745  0.58059621  0.16491280  1
  Ca2+  Ca4  1  0.17794273  0.58078771  0.51074598  1
  Ca2+  Ca5  1  0.17063498  0.57999835  0.84109780  1
  Ca2+  Ca6  1  0.66401405  0.08018146  0.16296230  1
  Ca2+  Ca7  1  0.67471963  0.08575582  0.51051267  1
  Ca2+  Ca8  1  0.66973238  0.08751324  0.84122664  1
  Ca2+  Ca9  1  0.66714554  0.58510457  0.17288649  1
  Ca2+  Ca10  1  0.66522116  0.58575608  0.50018531  1
  Ca2+  Ca11  1  0.67180307  0.58150907  0.84092121  1
  Ca2+  Ca12  1  0.08423412  0.32461885  0.15525565  1
  Ca2+  Ca13  1  0.09183288  0.32492997  0.49716205  1
  Ca2+  Ca14  1  0.08814539  0.33489001  0.83456195  1
  Ca2+  Ca15  1  0.07778860  0.83601384  0.15815381  1
  Ca2+  Ca16  1  0.08578745  0.83187671  0.49427643  1
  Ca2+  Ca17  1  0.09930353  0.82351037  0.83259285  1
  Ca2+  Ca18  1  0.56973062  0.32828408  0.15972800  1
  Ca2+  Ca19  1  0.57655577  0.32784658  0.49531099  1
  Ca2+  Ca20  1  0.57328819  0.32320048  0.83459405  1
  Ca2+  Ca21  1  0.57754438  0.83157374  0.16302453  1
  Ca2+  Ca22  1  0.57069554  0.82537186  0.48881680  1
  Ca2+  Ca23  1  0.58178436  0.83711116  0.83339603  1
  Ca2+  Ca24  1  0.33892827  0.42224496  0.16909715  1
  Ca2+  Ca25  1  0.33285853  0.42546321  0.50362599  1
  Ca2+  Ca26  1  0.32534638  0.42659032  0.84182921  1
  Ca2+  Ca27  1  0.32112328  0.92172256  0.16843553  1
  Ca2+  Ca28  1  0.32173714  0.90835391  0.49999583  1
  Ca2+  Ca29  1  0.32277529  0.92130421  0.84097694  1
  Ca2+  Ca30  1  0.83415336  0.41301120  0.16632563  1
  Ca2+  Ca31  1  0.82941390  0.41791894  0.50626521  1
  Ca2+  Ca32  1  0.83456584  0.41442151  0.84152868  1
  Ca2+  Ca33  1  0.83036741  0.90606715  0.16902610  1
  Ca2+  Ca34  1  0.83533338  0.92185703  0.50385482  1
  Ca2+  Ca35  1  0.82663304  0.91911617  0.84068415  1
  Ca2+  Ca36  1  0.41419023  0.17635389  0.15417741  1
  Ca2+  Ca37  1  0.41930950  0.17292695  0.49419557  1
  Ca2+  Ca38  1  0.42344325  0.15830165  0.83318768  1
  Ca2+  Ca39  1  0.41249834  0.66665729  0.16719471  1
  Ca2+  Ca40  1  0.41483540  0.66685961  0.49015557  1
  Ca2+  Ca41  1  0.40712856  0.66542437  0.83150131  1
  Ca2+  Ca42  1  0.92961796  0.17142483  0.16051571  1
  Ca2+  Ca43  1  0.92179889  0.16410650  0.49649375  1
  Ca2+  Ca44  1  0.92143011  0.16657605  0.83636847  1
  Ca2+  Ca45  1  0.92680555  0.67681655  0.15765187  1
  Ca2+  Ca46  1  0.92771839  0.67382614  0.49544826  1
  Ca2+  Ca47  1  0.93308229  0.67333794  0.83457968  1
  Al0+  Al48  1  -0.00535405  0.00280816  -0.00383093  1
  Al0+  Al49  1  -0.00133107  0.00027056  0.33073235  1
  Al0+  Al50  1  -0.00255080  0.00078057  0.67645188  1
  Al0+  Al51  1  0.00039189  0.50331031  -0.00171984  1
  Al0+  Al52  1  -0.00149196  0.49941140  0.33638247  1
  Al0+  Al53  1  -0.00105332  0.50132707  0.66300004  1
  Al0+  Al54  1  0.50136131  -0.00187089  0.00480381  1
  Al0+  Al55  1  0.50045849  -0.00145029  0.33169412  1
  Al0+  Al56  1  0.50111248  -0.00176739  0.65753702  1
  Al0+  Al57  1  0.50227099  0.49916666  -0.00107393  1
  Al0+  Al58  1  0.50157387  0.49775079  0.33182440  1
  Al0+  Al59  1  0.50161922  0.49957233  0.67043007  1
  Al0+  Al60  1  0.24934778  0.25224735  -0.00506242  1
  Al0+  Al61  1  0.25083931  0.24872843  0.32625125  1
  Al0+  Al62  1  0.25064898  0.25057674  0.66708136  1
  Al0+  Al63  1  0.25176515  0.75104281  0.00500580  1
  Al0+  Al64  1  0.25064378  0.74908997  0.33628666  1
  Al0+  Al65  1  0.25058414  0.74953567  0.66753671  1
  Al0+  Al66  1  0.74879089  0.25011159  -0.00323524  1
  Al0+  Al67  1  0.75020187  0.24986882  0.33564010  1
  Al0+  Al68  1  0.75022197  0.24971784  0.66688660  1
  Al0+  Al69  1  0.75038065  0.75007602  -0.00007019  1
  Al0+  Al70  1  0.75050626  0.74891139  0.33150033  1
  Al0+  Al71  1  0.75030505  0.75079905  0.66569575  1
  Al0+  Al72  1  0.32026999  0.56788296  0.34743380  1
  Al0+  Al73  1  0.92614448  0.82282402  0.98351122  1
  Al0+  Al74  1  0.42648623  0.32412715  0.98237330  1
  Al0+  Al75  1  0.56987037  0.67874599  0.31825065  1
  Al0+  Al76  1  0.17615890  0.93112790  0.01559582  1
  Al0+  Al77  1  0.32226447  0.57050632  0.68150757  1
  Al0+  Al78  1  0.06919272  0.18025128  0.32213631  1
  Al0+  Al79  1  0.07177260  0.68025631  0.65114198  1
  Al0+  Al80  1  0.57112487  0.17897150  0.65142203  1
  Al0+  Al81  1  0.17665062  0.42978354  0.01568174  1
  Al0+  Al82  1  0.07264845  0.17883462  0.98239823  1
  Al0+  Al83  1  0.56745102  0.17728554  0.98614047  1
  Al0+  Al84  1  0.32377426  0.57035052  0.01790073  1
  Al0+  Al85  1  0.68063189  0.92796725  0.01513572  1
  Al0+  Al86  1  0.92994795  0.32222370  0.98582571  1
  Al0+  Al87  1  0.81955290  0.07206233  0.68238056  1
  Al0+  Al88  1  0.17959040  0.93030722  0.67953486  1
  Al0+  Al89  1  0.42557218  0.82205941  0.31525425  1
  Al0+  Al90  1  0.43053675  0.31848361  0.32053940  1
  Al0+  Al91  1  0.07376858  0.68379098  0.98606138  1
  Al0+  Al92  1  0.32155016  0.07193070  0.01282075  1
  Al0+  Al93  1  0.17816626  0.93140709  0.34644604  1
  Al0+  Al94  1  0.93149466  0.82008792  0.32175802  1
  Al0+  Al95  1  0.17693150  0.42740728  0.68079465  1
  Si0+  Si96  1  0.82187308  0.57255344  0.35029082  1
  Si0+  Si97  1  0.82047357  0.57255132  0.68165980  1
  Si0+  Si98  1  0.57244836  0.67859735  0.98451869  1
  Si0+  Si99  1  0.67802189  0.92610905  0.35007022  1
  Si0+  Si100  1  0.81821930  0.06997681  0.34796377  1
  Si0+  Si101  1  0.17610250  0.42535887  0.34910130  1
  Si0+  Si102  1  0.67715955  0.92798130  0.68088512  1
  Si0+  Si103  1  0.57539830  0.17687226  0.31749704  1
  Si0+  Si104  1  0.07323628  0.67527193  0.31784323  1
  Si0+  Si105  1  0.81930761  0.07496955  0.01977991  1
  Si0+  Si106  1  0.92550784  0.32341025  0.31971297  1
  Si0+  Si107  1  0.43091250  0.81971567  0.98505844  1
  Si0+  Si108  1  0.68049361  0.42901964  0.68290614  1
  Si0+  Si109  1  0.07095544  0.17749245  0.65205117  1
  Si0+  Si110  1  0.42872991  0.32299259  0.64897413  1
  Si0+  Si111  1  0.68057429  0.42840478  0.01585073  1
  Si0+  Si112  1  0.42953189  0.81913804  0.65183638  1
  Si0+  Si113  1  0.68108909  0.42887526  0.34936098  1
  Si0+  Si114  1  0.82017743  0.57126217  0.01557172  1
  Si0+  Si115  1  0.92662955  0.82274058  0.65009058  1
  Si0+  Si116  1  0.32430709  0.07192250  0.67860682  1
  Si0+  Si117  1  0.92848335  0.32125910  0.65076379  1
  Si0+  Si118  1  0.32361729  0.07402258  0.34948864  1
  Si0+  Si119  1  0.57380178  0.67767677  0.65319305  1
  O2-  O120  1  0.24325683  0.00812502  0.06502833  1
  O2-  O121  1  0.25664221  0.00326570  0.39382279  1
  O2-  O122  1  0.25254915  0.00758711  0.72314951  1
  O2-  O123  1  0.25341549  0.49618859  0.06672232  1
  O2-  O124  1  0.24225712  0.49615954  0.39379322  1
  O2-  O125  1  0.24867700  0.49990155  0.72948616  1
  O2-  O126  1  0.75593452  0.00105713  0.06374387  1
  O2-  O127  1  0.74554188  0.00088806  0.39182994  1
  O2-  O128  1  0.74289288  -0.00194958  0.72601976  1
  O2-  O129  1  0.75210114  0.49810765  0.05919856  1
  O2-  O130  1  0.75237933  0.49951404  0.39272087  1
  O2-  O131  1  0.75026076  0.50131487  0.72497685  1
  O2-  O132  1  -0.00042198  0.26089841  0.27793753  1
  O2-  O133  1  0.00227224  0.25216150  0.60975323  1
  O2-  O134  1  0.00303205  0.25413077  0.93264057  1
  O2-  O135  1  0.00637167  0.74626431  0.27531999  1
  O2-  O136  1  -0.00159104  0.75762402  0.60563165  1
  O2-  O137  1  0.00692483  0.76074771  0.93426656  1
  O2-  O138  1  0.50059710  0.23862263  0.27528397  1
  O2-  O139  1  0.49494499  0.25153372  0.60416372  1
  O2-  O140  1  0.49191846  0.24442111  0.93441388  1
  O2-  O141  1  0.49884435  0.74998306  0.26670125  1
  O2-  O142  1  0.50013207  0.74573815  0.61220209  1
  O2-  O143  1  0.49917129  0.74602463  0.94129518  1
  O2-  O144  1  0.06736239  0.17830744  0.09631447  1
  O2-  O145  1  0.06592345  0.17901344  0.43617840  1
  O2-  O146  1  0.06963583  0.17646068  0.75616576  1
  O2-  O147  1  0.07032886  0.68185262  0.09987567  1
  O2-  O148  1  0.06996692  0.67454549  0.42386389  1
  O2-  O149  1  0.07100241  0.68052713  0.76348376  1
  O2-  O150  1  0.56955029  0.18066462  0.09992374  1
  O2-  O151  1  0.57952698  0.18117084  0.42342897  1
  O2-  O152  1  0.57073599  0.17888561  0.76367892  1
  O2-  O153  1  0.57546154  0.67989758  0.08911849  1
  O2-  O154  1  0.57063456  0.68004209  0.43269040  1
  O2-  O155  1  0.57910466  0.67910193  0.75794996  1
  O2-  O156  1  0.17364564  0.42619060  0.24442527  1
  O2-  O157  1  0.17978637  0.42651748  0.56644111  1
  O2-  O158  1  0.17434097  0.43645864  0.90226891  1
  O2-  O159  1  0.17432452  0.93448925  0.23447148  1
  O2-  O160  1  0.17924853  0.93046310  0.56588155  1
  O2-  O161  1  0.18354332  0.92832513  0.90185972  1
  O2-  O162  1  0.68416176  0.42700142  0.24472471  1
  O2-  O163  1  0.68135306  0.43001601  0.57728584  1
  O2-  O164  1  0.68156813  0.43100527  0.91037358  1
  O2-  O165  1  0.67979216  0.92453922  0.24544294  1
  O2-  O166  1  0.67913204  0.92692318  0.57513772  1
  O2-  O167  1  0.68062113  0.92684152  0.90167229  1
  O2-  O168  1  0.43476835  0.32667999  0.09605494  1
  O2-  O169  1  0.43411652  0.31848350  0.43427406  1
  O2-  O170  1  0.43176602  0.32478159  0.75356532  1
  O2-  O171  1  0.43279941  0.81967268  0.08963034  1
  O2-  O172  1  0.42811036  0.82044467  0.42984574  1
  O2-  O173  1  0.43184255  0.82225227  0.75685223  1
  O2-  O174  1  0.92710406  0.31907493  0.09990524  1
  O2-  O175  1  0.92008341  0.32141305  0.42543630  1
  O2-  O176  1  0.92445908  0.32146734  0.75500010  1
  O2-  O177  1  0.92335208  0.81501784  0.09713439  1
  O2-  O178  1  0.93146581  0.81981498  0.43544924  1
  O2-  O179  1  0.91904010  0.81817530  0.75441440  1
  O2-  O180  1  0.32260518  0.07569051  0.24469558  1
  O2-  O181  1  0.32437890  0.07098657  0.57276252  1
  O2-  O182  1  0.32570667  0.06290304  0.89877763  1
  O2-  O183  1  0.32180858  0.56592121  0.23529555  1
  O2-  O184  1  0.32431596  0.56923727  0.56758166  1
  O2-  O185  1  0.32396185  0.57075504  0.90433308  1
  O2-  O186  1  0.81614778  0.07279619  0.24377756  1
  O2-  O187  1  0.81998642  0.07092976  0.56820573  1
  O2-  O188  1  0.81434675  0.07801699  0.91422036  1
  O2-  O189  1  0.82197578  0.57205380  0.24564024  1
  O2-  O190  1  0.81776812  0.57167355  0.57619176  1
  O2-  O191  1  0.81561309  0.57130079  0.91010813  1
  O2-  O192  1  0.03079275  0.08803437  0.26672938  1
  O2-  O193  1  0.03717278  0.08643258  0.60575642  1
  O2-  O194  1  0.03849155  0.08252430  0.92801773  1
  O2-  O195  1  0.04347688  0.58221078  0.27295145  1
  O2-  O196  1  0.03693667  0.58507078  0.59547561  1
  O2-  O197  1  0.03707351  0.58844412  0.93247476  1
  O2-  O198  1  0.55911101  0.07998000  0.27665479  1
  O2-  O199  1  0.54546763  0.08168501  0.59477019  1
  O2-  O200  1  0.54481062  0.07671438  0.93423889  1
  O2-  O201  1  0.54670792  0.57910001  0.26705717  1
  O2-  O202  1  0.55042573  0.58389003  0.60712831  1
  O2-  O203  1  0.55031550  0.58569301  0.93708263  1
  O2-  O204  1  0.16609198  0.20365106  0.26730388  1
  O2-  O205  1  0.16395832  0.20218639  0.60418957  1
  O2-  O206  1  0.17163691  0.20038092  0.92886017  1
  O2-  O207  1  0.16756273  0.69752342  0.27520580  1
  O2-  O208  1  0.16877368  0.71081719  0.59746396  1
  O2-  O209  1  0.17346996  0.70922394  0.93346858  1
  O2-  O210  1  0.66635697  0.20953368  0.27051266  1
  O2-  O211  1  0.66707392  0.21423692  0.59740076  1
  O2-  O212  1  0.66379232  0.21208027  0.93286730  1
  O2-  O213  1  0.66909563  0.70585085  0.26690685  1
  O2-  O214  1  0.66409621  0.70726668  0.60254260  1
  O2-  O215  1  0.66236107  0.70935668  0.93502130  1
  O2-  O216  1  0.07866956  0.46156610  0.06931985  1
  O2-  O217  1  0.08043646  0.44597454  0.39556669  1
  O2-  O218  1  0.07602839  0.45344358  0.72859687  1
  O2-  O219  1  0.07356689  0.95432368  0.06190791  1
  O2-  O220  1  0.08217420  0.96570284  0.40172089  1
  O2-  O221  1  0.08298268  0.95606298  0.73416928  1
  O2-  O222  1  0.59053230  0.45873780  0.06394160  1
  O2-  O223  1  0.59091083  0.45775981  0.39878946  1
  O2-  O224  1  0.58951399  0.45585960  0.73123840  1
  O2-  O225  1  0.58577786  0.95870373  0.07180874  1
  O2-  O226  1  0.58456302  0.94976431  0.39673292  1
  O2-  O227  1  0.58187886  0.95070741  0.72416428  1
  O2-  O228  1  0.19723526  0.32766708  0.06275481  1
  O2-  O229  1  0.20516900  0.33169282  0.39392195  1
  O2-  O230  1  0.20332815  0.32801712  0.73237701  1
  O2-  O231  1  0.20969367  0.83485283  0.06904301  1
  O2-  O232  1  0.20723019  0.83373137  0.40054321  1
  O2-  O233  1  0.21573368  0.83571449  0.73245189  1
  O2-  O234  1  0.70848164  0.33721578  0.06383978  1
  O2-  O235  1  0.70979294  0.33775801  0.39961293  1
  O2-  O236  1  0.71117839  0.33872563  0.72971642  1
  O2-  O237  1  0.71116247  0.83097422  0.06939452  1
  O2-  O238  1  0.70924072  0.83545523  0.39840689  1
  O2-  O239  1  0.70369971  0.83454507  0.72754259  1
  O2-  O240  1  0.46892273  0.41138381  0.26620980  1
  O2-  O241  1  0.46086978  0.41550686  0.60281627  1
  O2-  O242  1  0.46751459  0.41835413  0.92802025  1
  O2-  O243  1  0.45488801  0.92104906  0.26454601  1
  O2-  O244  1  0.45794497  0.90838137  0.59940418  1
  O2-  O245  1  0.46403173  0.90911902  0.93688438  1
  O2-  O246  1  0.94304142  0.41971278  0.27644860  1
  O2-  O247  1  0.95025888  0.41410698  0.60184936  1
  O2-  O248  1  0.95110137  0.42279628  0.93438855  1
  O2-  O249  1  0.95738269  0.91645411  0.26669782  1
  O2-  O250  1  0.94965486  0.91903247  0.60866854  1
  O2-  O251  1  0.93688431  0.92583415  0.93704120  1
  O2-  O252  1  0.33389291  0.29427753  0.26516750  1
  O2-  O253  1  0.33434202  0.29950898  0.60294412  1
  O2-  O254  1  0.32618136  0.30755042  0.93162206  1
  O2-  O255  1  0.32719664  0.79301454  0.26465141  1
  O2-  O256  1  0.33890022  0.79071674  0.60326717  1
  O2-  O257  1  0.33911879  0.79337620  0.93767103  1
  O2-  O258  1  0.83402852  0.29295192  0.27187454  1
  O2-  O259  1  0.83794080  0.29033945  0.60141793  1
  O2-  O260  1  0.83155391  0.29250627  0.93243547  1
  O2-  O261  1  0.83529992  0.78790525  0.26895380  1
  O2-  O262  1  0.83422656  0.79377289  0.60070610  1
  O2-  O263  1  0.83145725  0.78355824  0.92898593  1
  O2-  O264  1  0.41715294  0.03849482  0.06845488  1
  O2-  O265  1  0.41939900  0.05155892  0.39427830  1
  O2-  O266  1  0.41758168  0.04128476  0.72252996  1
  O2-  O267  1  0.42483177  0.54409608  0.06742669  1
  O2-  O268  1  0.41791334  0.53479776  0.40027412  1
  O2-  O269  1  0.42210270  0.54545313  0.73400071  1
  O2-  O270  1  0.91461125  0.05513290  0.06298320  1
  O2-  O271  1  0.90862668  0.03932737  0.39645250  1
  O2-  O272  1  0.91359808  0.04247985  0.73982982  1
  O2-  O273  1  0.91178094  0.54667270  0.06331620  1
  O2-  O274  1  0.91325803  0.54584628  0.40042671  1
  O2-  O275  1  0.91198755  0.54463170  0.72758460  1
  O2-  O276  1  0.30341212  0.17488162  0.05845981  1
  O2-  O277  1  0.29629241  0.16727100  0.39644529  1
  O2-  O278  1  0.30515182  0.16704399  0.72292094  1
  O2-  O279  1  0.29524519  0.66877085  0.06994764  1
  O2-  O280  1  0.29371493  0.66570325  0.40170927  1
  O2-  O281  1  0.29534310  0.66934276  0.73284663  1
  O2-  O282  1  0.78716507  0.16635509  0.06725000  1
  O2-  O283  1  0.79224832  0.16228497  0.39777402  1
  O2-  O284  1  0.78793947  0.16844096  0.73528908  1
  O2-  O285  1  0.78718038  0.66045308  0.06420481  1
  O2-  O286  1  0.79076335  0.66252902  0.39990974  1
  O2-  O287  1  0.79034364  0.66355811  0.72887598  1
