# generated using pymatgen
data_Ca2Al2SiO7
_symmetry_space_group_name_H-M   'P 1'
_cell_length_a   15.46168366
_cell_length_b   15.46198073
_cell_length_c   15.28522269
_cell_angle_alpha   90.00792715
_cell_angle_beta   90.01380224
_cell_angle_gamma   89.98972342
_symmetry_Int_Tables_number   1
_chemical_formula_structural   Ca2Al2SiO7
_chemical_formula_sum   'Ca48 Al48 Si24 O168'
_cell_volume   3654.21131390
_cell_formula_units_Z   24
loop_
 _symmetry_equiv_pos_site_id
 _symmetry_equiv_pos_as_xyz
  1  'x, y, z'
loop_
 _atom_type_symbol
 _atom_type_oxidation_number
  Ca2+  2.0
  Al0+  0.0
  Si0+  0.0
  O2-  -2.0
loop_
 _atom_site_type_symbol
 _atom_site_label
 _atom_site_symmetry_multiplicity
 _atom_site_fract_x
 _atom_site_fract_y
 _atom_site_fract_z
 _atom_site_occupancy
  Ca2+  Ca0  1  0.16937191  0.08451367  0.17124093  1
  Ca2+  Ca1  1  0.16711116  0.08683515  0.50640814  1
  Ca2+  Ca2  1  0.17512257  0.08697599  0.83794207  1
  Ca2+  Ca3  1  0.16426832  0.57490662  0.17297153  1
  Ca2+  Ca4  1  0.15581232  0.57903975  0.49959269  1
  Ca2+  Ca5  1  0.17329026  0.57937709  0.84231674  1
  Ca2+  Ca6  1  0.66563652  0.07968102  0.17226668  1
  Ca2+  Ca7  1  0.66499937  0.07816358  0.50407783  1
  Ca2+  Ca8  1  0.66434847  0.06953226  0.83865641  1
  Ca2+  Ca9  1  0.67147352  0.57036145  0.17814214  1
  Ca2+  Ca10  1  0.67190118  0.58940261  0.49990743  1
  Ca2+  Ca11  1  0.66743502  0.57728376  0.83938378  1
  Ca2+  Ca12  1  0.07551077  0.34277243  0.16503283  1
  Ca2+  Ca13  1  0.07570969  0.32551113  0.49234290  1
  Ca2+  Ca14  1  0.07555062  0.33487822  0.82628457  1
  Ca2+  Ca15  1  0.08100595  0.83103555  0.16463887  1
  Ca2+  Ca16  1  0.07990530  0.82136284  0.48947087  1
  Ca2+  Ca17  1  0.09044904  0.82746188  0.82938954  1
  Ca2+  Ca18  1  0.59427292  0.32912520  0.16362379  1
  Ca2+  Ca19  1  0.57654605  0.33063659  0.49170369  1
  Ca2+  Ca20  1  0.57517823  0.33523564  0.82850770  1
  Ca2+  Ca21  1  0.57979729  0.82866687  0.16639725  1
  Ca2+  Ca22  1  0.58272342  0.82560781  0.49262696  1
  Ca2+  Ca23  1  0.58638151  0.82947751  0.82634933  1
  Ca2+  Ca24  1  0.32120318  0.42157762  0.16960533  1
  Ca2+  Ca25  1  0.32665485  0.41137240  0.50268203  1
  Ca2+  Ca26  1  0.32816975  0.42101841  0.84208329  1
  Ca2+  Ca27  1  0.33098663  0.91885344  0.16779228  1
  Ca2+  Ca28  1  0.33705855  0.92222129  0.50418319  1
  Ca2+  Ca29  1  0.32755163  0.93055692  0.84153835  1
  Ca2+  Ca30  1  0.82929873  0.41496954  0.17669659  1
  Ca2+  Ca31  1  0.83395065  0.41455655  0.49663219  1
  Ca2+  Ca32  1  0.83155664  0.41316017  0.83902459  1
  Ca2+  Ca33  1  0.82988829  0.91310882  0.17304988  1
  Ca2+  Ca34  1  0.83024294  0.91360828  0.50406967  1
  Ca2+  Ca35  1  0.82127076  0.91445575  0.83734686  1
  Ca2+  Ca36  1  0.42111443  0.16561399  0.16606855  1
  Ca2+  Ca37  1  0.41880750  0.16900370  0.49835558  1
  Ca2+  Ca38  1  0.40945662  0.17060345  0.82810252  1
  Ca2+  Ca39  1  0.41779402  0.66543231  0.16534236  1
  Ca2+  Ca40  1  0.42993742  0.67285418  0.49079644  1
  Ca2+  Ca41  1  0.42214291  0.66510731  0.82716928  1
  Ca2+  Ca42  1  0.92181095  0.17872515  0.16400949  1
  Ca2+  Ca43  1  0.92512342  0.17425727  0.49271756  1
  Ca2+  Ca44  1  0.92387485  0.17958129  0.82653011  1
  Ca2+  Ca45  1  0.91701242  0.66313695  0.17284622  1
  Ca2+  Ca46  1  0.92287465  0.66912525  0.49102444  1
  Ca2+  Ca47  1  0.92640346  0.66727617  0.82694956  1
  Al0+  Al48  1  -0.00095576  0.00061715  -0.00149733  1
  Al0+  Al49  1  0.00045844  0.00000511  0.32791741  1
  Al0+  Al50  1  -0.00123170  -0.00001463  0.66726193  1
  Al0+  Al51  1  -0.00057092  0.50225077  -0.00382025  1
  Al0+  Al52  1  -0.00116488  0.50022978  0.33579533  1
  Al0+  Al53  1  -0.00213868  0.50112523  0.66130589  1
  Al0+  Al54  1  0.50044962  -0.00154207  0.00645158  1
  Al0+  Al55  1  0.49960830  0.00101717  0.32728988  1
  Al0+  Al56  1  0.49855412  0.00013774  0.67728348  1
  Al0+  Al57  1  0.50206952  0.49876262  0.00710421  1
  Al0+  Al58  1  0.49776252  0.49930155  0.33310313  1
  Al0+  Al59  1  0.49976455  0.50007526  0.65759735  1
  Al0+  Al60  1  0.25135234  0.25091366  0.00867944  1
  Al0+  Al61  1  0.25194994  0.24926924  0.33517462  1
  Al0+  Al62  1  0.24914720  0.25100106  0.66488411  1
  Al0+  Al63  1  0.25287221  0.75310202  0.00382557  1
  Al0+  Al64  1  0.25003439  0.75135752  0.32741840  1
  Al0+  Al65  1  0.25185158  0.74919678  0.66236942  1
  Al0+  Al66  1  0.75083679  0.24779920  -0.00513014  1
  Al0+  Al67  1  0.74977662  0.24760096  0.33208667  1
  Al0+  Al68  1  0.74870308  0.25001033  0.66561982  1
  Al0+  Al69  1  0.74985126  0.74965057  0.00259032  1
  Al0+  Al70  1  0.74846870  0.74802135  0.32990775  1
  Al0+  Al71  1  0.75104693  0.74783207  0.66972376  1
  Al0+  Al72  1  0.07341739  0.68077391  0.65419383  1
  Al0+  Al73  1  0.07063637  0.67796322  0.31611065  1
  Al0+  Al74  1  0.17991541  0.42960671  0.35000127  1
  Al0+  Al75  1  0.68013910  0.92747578  0.01692565  1
  Al0+  Al76  1  0.32066362  0.07274780  0.01851339  1
  Al0+  Al77  1  0.92814810  0.82150689  0.31879401  1
  Al0+  Al78  1  0.42882311  0.32120798  0.65470719  1
  Al0+  Al79  1  0.92956420  0.32220009  0.98476901  1
  Al0+  Al80  1  0.57077285  0.67672584  0.31546550  1
  Al0+  Al81  1  0.92590630  0.32210782  0.64957027  1
  Al0+  Al82  1  0.68105177  0.92885862  0.67900382  1
  Al0+  Al83  1  0.57037031  0.18078656  0.32096095  1
  Al0+  Al84  1  0.07412202  0.17834037  0.31682974  1
  Al0+  Al85  1  0.07127216  0.17847077  0.65334327  1
  Al0+  Al86  1  0.32355465  0.57219213  0.01389748  1
  Al0+  Al87  1  0.68142465  0.42758725  0.01104220  1
  Al0+  Al88  1  0.81890634  0.57075252  0.35055702  1
  Al0+  Al89  1  0.93016912  0.31978509  0.31774114  1
  Al0+  Al90  1  0.31854151  0.07187984  0.67970983  1
  Al0+  Al91  1  0.57219348  0.67925689  0.65429587  1
  Al0+  Al92  1  0.67727029  0.42508865  0.35077633  1
  Al0+  Al93  1  0.42937704  0.82238632  0.31723470  1
  Al0+  Al94  1  0.17683868  0.92941149  0.01534361  1
  Al0+  Al95  1  0.17673140  0.43109775  0.01339411  1
  Si0+  Si96  1  0.42986181  0.82210064  0.98206591  1
  Si0+  Si97  1  0.82269730  0.57246300  0.01500762  1
  Si0+  Si98  1  0.43023416  0.32085422  0.98718342  1
  Si0+  Si99  1  0.32213182  0.06919770  0.35036758  1
  Si0+  Si100  1  0.57042569  0.67847667  0.98473300  1
  Si0+  Si101  1  0.17705476  0.92551681  0.68038183  1
  Si0+  Si102  1  0.32302792  0.57115260  0.67881436  1
  Si0+  Si103  1  0.17839245  0.43154392  0.68037994  1
  Si0+  Si104  1  0.92753036  0.82103709  0.65349537  1
  Si0+  Si105  1  0.17774939  0.92923109  0.34912986  1
  Si0+  Si106  1  0.42964277  0.82336528  0.65301251  1
  Si0+  Si107  1  0.57016603  0.17550876  0.65368582  1
  Si0+  Si108  1  0.42696309  0.32240526  0.31507775  1
  Si0+  Si109  1  0.82253000  0.06954097  0.34808022  1
  Si0+  Si110  1  0.57095356  0.17693504  0.98340871  1
  Si0+  Si111  1  0.07211517  0.68178842  0.98462260  1
  Si0+  Si112  1  0.32111583  0.57495040  0.35240360  1
  Si0+  Si113  1  0.07387063  0.17836535  0.98339257  1
  Si0+  Si114  1  0.92688924  0.82233345  0.98308339  1
  Si0+  Si115  1  0.82062056  0.56966387  0.68358443  1
  Si0+  Si116  1  0.67632785  0.42859245  0.68079896  1
  Si0+  Si117  1  0.82066681  0.07117860  0.01628133  1
  Si0+  Si118  1  0.67842579  0.93022585  0.34770383  1
  Si0+  Si119  1  0.82341468  0.07422767  0.68432587  1
  O2-  O120  1  0.24555068  0.00342112  0.06725132  1
  O2-  O121  1  0.24881875  0.00012894  0.39208432  1
  O2-  O122  1  0.24142526  -0.00173535  0.72463159  1
  O2-  O123  1  0.24730161  0.50478568  0.06298157  1
  O2-  O124  1  0.25325191  0.50605809  0.39817214  1
  O2-  O125  1  0.24988880  0.50275041  0.72211382  1
  O2-  O126  1  0.75548858  0.00086487  0.06347424  1
  O2-  O127  1  0.75243245  -0.00275838  0.39098242  1
  O2-  O128  1  0.75471396  0.00433469  0.72757624  1
  O2-  O129  1  0.75776532  0.49984597  0.05702214  1
  O2-  O130  1  0.74612454  0.49961732  0.40203668  1
  O2-  O131  1  0.75007176  0.49688847  0.72401758  1
  O2-  O132  1  0.00562777  0.25260189  0.26612315  1
  O2-  O133  1  -0.00329546  0.24729159  0.60336102  1
  O2-  O134  1  0.00810879  0.25023873  0.93935905  1
  O2-  O135  1  -0.00046870  0.75071088  0.26611040  1
  O2-  O136  1  0.00286969  0.76029973  0.61006672  1
  O2-  O137  1  0.00159918  0.75411672  0.94178872  1
  O2-  O138  1  0.50204346  0.26014775  0.27187840  1
  O2-  O139  1  0.50389388  0.24597324  0.60948094  1
  O2-  O140  1  0.49884031  0.24783322  0.94273997  1
  O2-  O141  1  0.49679669  0.74680117  0.26574406  1
  O2-  O142  1  0.49964820  0.75649812  0.60907438  1
  O2-  O143  1  0.49984921  0.74927007  0.94011761  1
  O2-  O144  1  0.07073554  0.17604201  0.08838128  1
  O2-  O145  1  0.07134757  0.17703472  0.43055584  1
  O2-  O146  1  0.07258417  0.18247187  0.76728743  1
  O2-  O147  1  0.07020892  0.68044749  0.08891010  1
  O2-  O148  1  0.06984609  0.68160974  0.43010595  1
  O2-  O149  1  0.07311103  0.68064282  0.76806507  1
  O2-  O150  1  0.57262734  0.17803951  0.08835966  1
  O2-  O151  1  0.56579167  0.17592793  0.43438159  1
  O2-  O152  1  0.56928964  0.17576032  0.75953377  1
  O2-  O153  1  0.56982444  0.67976801  0.08900279  1
  O2-  O154  1  0.57165329  0.68239749  0.42958213  1
  O2-  O155  1  0.57014267  0.67791746  0.76810556  1
  O2-  O156  1  0.18166812  0.43090681  0.23698156  1
  O2-  O157  1  0.17950321  0.43162948  0.57558455  1
  O2-  O158  1  0.17847943  0.43266248  0.89873439  1
  O2-  O159  1  0.17763049  0.93068429  0.24434192  1
  O2-  O160  1  0.17965559  0.92314721  0.57501680  1
  O2-  O161  1  0.18074878  0.92779688  0.90096527  1
  O2-  O162  1  0.68233330  0.42449000  0.23688309  1
  O2-  O163  1  0.67464996  0.42897945  0.57653404  1
  O2-  O164  1  0.67826846  0.43111436  0.89712631  1
  O2-  O165  1  0.67857096  0.93320975  0.24265858  1
  O2-  O166  1  0.68149961  0.92946096  0.56583987  1
  O2-  O167  1  0.68077886  0.92660295  0.90323155  1
  O2-  O168  1  0.43256573  0.32096287  0.09175049  1
  O2-  O169  1  0.42506194  0.31764108  0.42110923  1
  O2-  O170  1  0.42983964  0.32324842  0.76844269  1
  O2-  O171  1  0.43127203  0.82290969  0.08664221  1
  O2-  O172  1  0.43377058  0.82508293  0.43164885  1
  O2-  O173  1  0.42865508  0.82113275  0.75873057  1
  O2-  O174  1  0.92742000  0.32084879  0.09699026  1
  O2-  O175  1  0.92984396  0.31545984  0.43112264  1
  O2-  O176  1  0.92830219  0.32327598  0.76383647  1
  O2-  O177  1  0.92445840  0.82105218  0.08746508  1
  O2-  O178  1  0.93052516  0.82296943  0.43301480  1
  O2-  O179  1  0.92500962  0.81682331  0.75944240  1
  O2-  O180  1  0.32352109  0.06793566  0.24562442  1
  O2-  O181  1  0.32241767  0.06823598  0.56676664  1
  O2-  O182  1  0.32056626  0.07256450  0.90435080  1
  O2-  O183  1  0.32007981  0.57269690  0.24678475  1
  O2-  O184  1  0.32411288  0.57104319  0.57442394  1
  O2-  O185  1  0.32410533  0.56967420  0.89900894  1
  O2-  O186  1  0.82024949  0.06916797  0.24296129  1
  O2-  O187  1  0.82271457  0.07309788  0.57878094  1
  O2-  O188  1  0.81675749  0.06932858  0.91041106  1
  O2-  O189  1  0.81779119  0.56974574  0.23663838  1
  O2-  O190  1  0.82004228  0.57418522  0.57939917  1
  O2-  O191  1  0.82113848  0.57461006  0.90868563  1
  O2-  O192  1  0.04371870  0.08142368  0.26331376  1
  O2-  O193  1  0.04771042  0.07729719  0.60258235  1
  O2-  O194  1  0.04616843  0.08545199  0.93543369  1
  O2-  O195  1  0.04016707  0.58027526  0.26471739  1
  O2-  O196  1  0.03741611  0.58716263  0.59978708  1
  O2-  O197  1  0.04307451  0.59146792  0.93409279  1
  O2-  O198  1  0.53563283  0.08743573  0.26321592  1
  O2-  O199  1  0.54183195  0.08225237  0.60846578  1
  O2-  O200  1  0.54255402  0.08390292  0.93836737  1
  O2-  O201  1  0.54405350  0.57685032  0.26495088  1
  O2-  O202  1  0.54049851  0.58580791  0.59681419  1
  O2-  O203  1  0.54247013  0.58555666  0.93858498  1
  O2-  O204  1  0.17499531  0.20197131  0.26820209  1
  O2-  O205  1  0.16813950  0.20808814  0.59923984  1
  O2-  O206  1  0.17015486  0.20208674  0.94179333  1
  O2-  O207  1  0.16904954  0.70499207  0.26400806  1
  O2-  O208  1  0.17033969  0.70569718  0.59818298  1
  O2-  O209  1  0.16511413  0.70958531  0.93838854  1
  O2-  O210  1  0.66762163  0.20424915  0.26512434  1
  O2-  O211  1  0.66472846  0.19678893  0.60855118  1
  O2-  O212  1  0.66160914  0.20376860  0.93329892  1
  O2-  O213  1  0.66747959  0.70678344  0.26195690  1
  O2-  O214  1  0.66915719  0.70991144  0.60196276  1
  O2-  O215  1  0.66307292  0.70683257  0.93789870  1
  O2-  O216  1  0.07844720  0.46132473  0.06484150  1
  O2-  O217  1  0.08329097  0.45956928  0.40363994  1
  O2-  O218  1  0.08608784  0.46079754  0.72635973  1
  O2-  O219  1  0.07532633  0.95106664  0.06426130  1
  O2-  O220  1  0.08554171  0.95660686  0.39626014  1
  O2-  O221  1  0.08103221  0.94372897  0.72528285  1
  O2-  O222  1  0.58727687  0.45770774  0.06818909  1
  O2-  O223  1  0.57488019  0.44817178  0.39816629  1
  O2-  O224  1  0.58495556  0.46046752  0.72783808  1
  O2-  O225  1  0.58477607  0.95873981  0.07068494  1
  O2-  O226  1  0.58783809  0.96331417  0.39431789  1
  O2-  O227  1  0.58553860  0.95793696  0.73720105  1
  O2-  O228  1  0.20472740  0.33428975  0.06767333  1
  O2-  O229  1  0.21437825  0.33292303  0.40330580  1
  O2-  O230  1  0.20690205  0.34026284  0.72776568  1
  O2-  O231  1  0.20814689  0.83293108  0.06938447  1
  O2-  O232  1  0.20607556  0.83671257  0.39525325  1
  O2-  O233  1  0.20793087  0.83327376  0.72806112  1
  O2-  O234  1  0.70913531  0.32892990  0.06133674  1
  O2-  O235  1  0.70625136  0.32587656  0.40281837  1
  O2-  O236  1  0.69965220  0.33505866  0.72816773  1
  O2-  O237  1  0.71064455  0.83096292  0.07011154  1
  O2-  O238  1  0.70295163  0.83690795  0.39268305  1
  O2-  O239  1  0.71360853  0.83304024  0.73560704  1
  O2-  O240  1  0.44241994  0.41860416  0.27225869  1
  O2-  O241  1  0.45871037  0.41490347  0.59575025  1
  O2-  O242  1  0.46117135  0.41211787  0.93916356  1
  O2-  O243  1  0.46235300  0.91768501  0.26148522  1
  O2-  O244  1  0.45477854  0.91797499  0.60950662  1
  O2-  O245  1  0.46089257  0.91389615  0.93581049  1
  O2-  O246  1  0.95502451  0.41961557  0.26805399  1
  O2-  O247  1  0.95493025  0.41970483  0.59749766  1
  O2-  O248  1  0.95626476  0.42037149  0.92987462  1
  O2-  O249  1  0.95527334  0.91884054  0.26363369  1
  O2-  O250  1  0.94220871  0.91784581  0.61085958  1
  O2-  O251  1  0.94922104  0.91553965  0.93516686  1
  O2-  O252  1  0.33713719  0.28852522  0.26759005  1
  O2-  O253  1  0.33366965  0.29016804  0.59929091  1
  O2-  O254  1  0.33681755  0.29515519  0.94096034  1
  O2-  O255  1  0.33016738  0.79959194  0.26449222  1
  O2-  O256  1  0.33748887  0.79784131  0.60439608  1
  O2-  O257  1  0.33730111  0.79688689  0.93433879  1
  O2-  O258  1  0.83290055  0.28677094  0.26579520  1
  O2-  O259  1  0.82585508  0.29626368  0.59920513  1
  O2-  O260  1  0.83453005  0.28671033  0.92828466  1
  O2-  O261  1  0.82995936  0.79390828  0.26580763  1
  O2-  O262  1  0.83727524  0.78834280  0.60560697  1
  O2-  O263  1  0.83608891  0.78967864  0.93478214  1
  O2-  O264  1  0.41813301  0.04065756  0.07044981  1
  O2-  O265  1  0.41338134  0.03744775  0.39731479  1
  O2-  O266  1  0.41307150  0.04165551  0.73904273  1
  O2-  O267  1  0.41865178  0.53986696  0.06987581  1
  O2-  O268  1  0.41565330  0.55008863  0.39707067  1
  O2-  O269  1  0.41436149  0.54078658  0.72653490  1
  O2-  O270  1  0.91576233  0.05003635  0.05966471  1
  O2-  O271  1  0.91440459  0.04165958  0.39563866  1
  O2-  O272  1  0.91699289  0.04989191  0.73211256  1
  O2-  O273  1  0.91754439  0.55178195  0.05873442  1
  O2-  O274  1  0.91756176  0.54416266  0.40363246  1
  O2-  O275  1  0.91291943  0.54196962  0.73134794  1
  O2-  O276  1  0.29879018  0.17132425  0.07310652  1
  O2-  O277  1  0.29801896  0.16181405  0.39762957  1
  O2-  O278  1  0.28864440  0.16907518  0.73447676  1
  O2-  O279  1  0.30234943  0.67241422  0.06384167  1
  O2-  O280  1  0.29715128  0.67022917  0.39610714  1
  O2-  O281  1  0.29783577  0.66418515  0.72656516  1
  O2-  O282  1  0.79121872  0.16343566  0.06186586  1
  O2-  O283  1  0.79169380  0.15921348  0.39705687  1
  O2-  O284  1  0.79648446  0.16756156  0.73095894  1
  O2-  O285  1  0.79447501  0.66406774  0.06230941  1
  O2-  O286  1  0.78959957  0.67050334  0.40295762  1
  O2-  O287  1  0.79208995  0.65995892  0.73452512  1
