# generated using pymatgen
data_Ca2Al2SiO7
_symmetry_space_group_name_H-M   'P 1'
_cell_length_a   15.46005393
_cell_length_b   15.46123147
_cell_length_c   15.28543008
_cell_angle_alpha   89.98156985
_cell_angle_beta   89.98730617
_cell_angle_gamma   90.01086862
_symmetry_Int_Tables_number   1
_chemical_formula_structural   Ca2Al2SiO7
_chemical_formula_sum   'Ca48 Al48 Si24 O168'
_cell_volume   3653.69851510
_cell_formula_units_Z   24
loop_
 _symmetry_equiv_pos_site_id
 _symmetry_equiv_pos_as_xyz
  1  'x, y, z'
loop_
 _atom_type_symbol
 _atom_type_oxidation_number
  Ca2+  2.0
  Al0+  0.0
  Si0+  0.0
  O2-  -2.0
loop_
 _atom_site_type_symbol
 _atom_site_label
 _atom_site_symmetry_multiplicity
 _atom_site_fract_x
 _atom_site_fract_y
 _atom_site_fract_z
 _atom_site_occupancy
  Ca2+  Ca0  1  0.17198996  0.09440277  0.16208378  1
  Ca2+  Ca1  1  0.17254936  0.08506564  0.51118157  1
  Ca2+  Ca2  1  0.17501899  0.09628587  0.83539553  1
  Ca2+  Ca3  1  0.17408514  0.58478549  0.17071316  1
  Ca2+  Ca4  1  0.17868054  0.57415273  0.50762319  1
  Ca2+  Ca5  1  0.17585286  0.57675589  0.83773585  1
  Ca2+  Ca6  1  0.67308409  0.07906145  0.17463574  1
  Ca2+  Ca7  1  0.67283305  0.09217779  0.50320129  1
  Ca2+  Ca8  1  0.67571852  0.08767773  0.83854805  1
  Ca2+  Ca9  1  0.67591348  0.57756022  0.17343507  1
  Ca2+  Ca10  1  0.66910733  0.57875256  0.50757239  1
  Ca2+  Ca11  1  0.65724305  0.57517554  0.83227199  1
  Ca2+  Ca12  1  0.06945908  0.33005118  0.15833462  1
  Ca2+  Ca13  1  0.08243446  0.33080121  0.50025342  1
  Ca2+  Ca14  1  0.07965306  0.32447848  0.82945292  1
  Ca2+  Ca15  1  0.08205983  0.82488677  0.15910640  1
  Ca2+  Ca16  1  0.08090762  0.83242820  0.49643146  1
  Ca2+  Ca17  1  0.08784540  0.82678933  0.83221920  1
  Ca2+  Ca18  1  0.57981048  0.32567485  0.16412278  1
  Ca2+  Ca19  1  0.58520942  0.32574947  0.50347842  1
  Ca2+  Ca20  1  0.57242900  0.33114570  0.82335648  1
  Ca2+  Ca21  1  0.58488825  0.83756841  0.16718298  1
  Ca2+  Ca22  1  0.57923241  0.82981917  0.49322520  1
  Ca2+  Ca23  1  0.58753382  0.82737406  0.82921049  1
  Ca2+  Ca24  1  0.33688781  0.42598413  0.16757437  1
  Ca2+  Ca25  1  0.33362635  0.42327974  0.51220700  1
  Ca2+  Ca26  1  0.33675377  0.42021464  0.83754843  1
  Ca2+  Ca27  1  0.33457511  0.92078569  0.16911378  1
  Ca2+  Ca28  1  0.33664051  0.92081348  0.50152133  1
  Ca2+  Ca29  1  0.33720561  0.93378187  0.83635094  1
  Ca2+  Ca30  1  0.84101318  0.41717021  0.17392783  1
  Ca2+  Ca31  1  0.82978005  0.41624635  0.50151752  1
  Ca2+  Ca32  1  0.82585046  0.40957547  0.83482656  1
  Ca2+  Ca33  1  0.82301347  0.92720203  0.17212994  1
  Ca2+  Ca34  1  0.82625427  0.92883812  0.50384268  1
  Ca2+  Ca35  1  0.82602070  0.92874591  0.84077700  1
  Ca2+  Ca36  1  0.42313495  0.16866729  0.15841533  1
  Ca2+  Ca37  1  0.42566489  0.16797992  0.49868118  1
  Ca2+  Ca38  1  0.41573766  0.17516526  0.82313464  1
  Ca2+  Ca39  1  0.40875092  0.67213059  0.16392579  1
  Ca2+  Ca40  1  0.41890650  0.66559275  0.49601440  1
  Ca2+  Ca41  1  0.41733082  0.66559379  0.82581740  1
  Ca2+  Ca42  1  0.91480058  0.17218776  0.15963678  1
  Ca2+  Ca43  1  0.91696549  0.16817463  0.49508235  1
  Ca2+  Ca44  1  0.92322793  0.16042970  0.82913769  1
  Ca2+  Ca45  1  0.92273831  0.66375669  0.15802555  1
  Ca2+  Ca46  1  0.91603443  0.66512107  0.49298186  1
  Ca2+  Ca47  1  0.92356845  0.66759528  0.83121105  1
  Al0+  Al48  1  -0.00045365  -0.00115726  0.00062125  1
  Al0+  Al49  1  0.00077534  -0.00142434  0.33386339  1
  Al0+  Al50  1  -0.00065285  -0.00088809  0.66602311  1
  Al0+  Al51  1  0.00049158  0.49916122  -0.01060571  1
  Al0+  Al52  1  0.00165710  0.49878745  0.33483562  1
  Al0+  Al53  1  0.00144116  0.50073732  0.66942240  1
  Al0+  Al54  1  0.49883099  -0.00170582  0.00630545  1
  Al0+  Al55  1  0.49898686  -0.00221758  0.32773260  1
  Al0+  Al56  1  0.50054895  -0.00148263  0.66710874  1
  Al0+  Al57  1  0.49996886  0.50105867  0.00414888  1
  Al0+  Al58  1  0.50159511  0.50057385  0.33613878  1
  Al0+  Al59  1  0.50213069  0.50188249  0.66479253  1
  Al0+  Al60  1  0.24843526  0.25320991  0.00052778  1
  Al0+  Al61  1  0.25000462  0.25088450  0.33316252  1
  Al0+  Al62  1  0.24751561  0.25095185  0.66436775  1
  Al0+  Al63  1  0.25141026  0.75045633  -0.00311831  1
  Al0+  Al64  1  0.25139003  0.74985630  0.33483194  1
  Al0+  Al65  1  0.24883462  0.74971722  0.66781488  1
  Al0+  Al66  1  0.74782633  0.25064589  0.00167947  1
  Al0+  Al67  1  0.75039258  0.25021524  0.32782777  1
  Al0+  Al68  1  0.75036733  0.25206655  0.67270459  1
  Al0+  Al69  1  0.74950861  0.74853019  0.00283885  1
  Al0+  Al70  1  0.74992658  0.75048114  0.33934138  1
  Al0+  Al71  1  0.75099666  0.75123334  0.66207411  1
  Al0+  Al72  1  0.07303506  0.67945123  0.98496247  1
  Al0+  Al73  1  0.82109337  0.07268673  0.34952996  1
  Al0+  Al74  1  0.43070579  0.32209892  0.98819791  1
  Al0+  Al75  1  0.32107605  0.57110183  0.34786583  1
  Al0+  Al76  1  0.67636752  0.92991146  0.35153868  1
  Al0+  Al77  1  0.32095718  0.57134324  0.01511493  1
  Al0+  Al78  1  0.32164178  0.06977360  0.67721974  1
  Al0+  Al79  1  0.32215743  0.57086505  0.68241614  1
  Al0+  Al80  1  0.56926986  0.17970474  0.31882161  1
  Al0+  Al81  1  0.82049290  0.07130583  0.68081481  1
  Al0+  Al82  1  0.68107176  0.43098479  0.68020731  1
  Al0+  Al83  1  0.31888665  0.07395577  0.01392633  1
  Al0+  Al84  1  0.06943106  0.17751042  0.98481496  1
  Al0+  Al85  1  0.82291465  0.56995451  0.34516111  1
  Al0+  Al86  1  0.42781844  0.32150139  0.65159395  1
  Al0+  Al87  1  0.57131462  0.67998287  0.65277834  1
  Al0+  Al88  1  0.57283388  0.17768848  0.65399638  1
  Al0+  Al89  1  0.93158934  0.31940258  0.32201080  1
  Al0+  Al90  1  0.17768091  0.42756026  0.68391910  1
  Al0+  Al91  1  0.42921612  0.81822011  0.31825183  1
  Al0+  Al92  1  0.92519640  0.32119844  0.98217876  1
  Al0+  Al93  1  0.67856648  0.92633627  0.01584230  1
  Al0+  Al94  1  0.06939044  0.17855274  0.65156298  1
  Al0+  Al95  1  0.82180173  0.07271303  0.01661921  1
  Si0+  Si96  1  0.92649598  0.81980129  0.98377124  1
  Si0+  Si97  1  0.92774319  0.82164693  0.31798334  1
  Si0+  Si98  1  0.17618754  0.42991803  0.01832261  1
  Si0+  Si99  1  0.67824634  0.42731815  0.34974372  1
  Si0+  Si100  1  0.93005459  0.82041104  0.64993829  1
  Si0+  Si101  1  0.67740637  0.42992628  0.01598496  1
  Si0+  Si102  1  0.06974581  0.68054737  0.32008308  1
  Si0+  Si103  1  0.82284467  0.57525673  0.68409041  1
  Si0+  Si104  1  0.82203020  0.56876311  0.01211754  1
  Si0+  Si105  1  0.07434287  0.17475816  0.31667357  1
  Si0+  Si106  1  0.17945915  0.92761933  0.34693945  1
  Si0+  Si107  1  0.17845600  0.42792750  0.34950047  1
  Si0+  Si108  1  0.17638449  0.92782399  0.68293990  1
  Si0+  Si109  1  0.42631547  0.82213622  0.65076542  1
  Si0+  Si110  1  0.31997981  0.07165634  0.34674345  1
  Si0+  Si111  1  0.67828914  0.92645547  0.68273297  1
  Si0+  Si112  1  0.17925119  0.92659170  0.01575548  1
  Si0+  Si113  1  0.42615341  0.32408512  0.31652929  1
  Si0+  Si114  1  0.07137929  0.67851312  0.64908683  1
  Si0+  Si115  1  0.57181560  0.67950589  0.98716632  1
  Si0+  Si116  1  0.57410173  0.67673999  0.31528020  1
  Si0+  Si117  1  0.42901771  0.82160884  0.98372871  1
  Si0+  Si118  1  0.92765848  0.32319220  0.64948300  1
  Si0+  Si119  1  0.56932084  0.17577243  0.98426475  1
  O2-  O120  1  0.24238686  -0.00007582  0.06080614  1
  O2-  O121  1  0.24499563  0.00393922  0.38793272  1
  O2-  O122  1  0.24575480  -0.00392501  0.72524362  1
  O2-  O123  1  0.24489317  0.49869352  0.06306167  1
  O2-  O124  1  0.25260565  0.49077607  0.39321671  1
  O2-  O125  1  0.25321044  0.49663599  0.73321150  1
  O2-  O126  1  0.74770095  0.00151864  0.06463861  1
  O2-  O127  1  0.74665810  0.00366676  0.40104992  1
  O2-  O128  1  0.74144801  0.00008076  0.72629481  1
  O2-  O129  1  0.75539415  0.49488485  0.05626418  1
  O2-  O130  1  0.74640929  0.49804219  0.39195593  1
  O2-  O131  1  0.75491073  0.50679159  0.72859851  1
  O2-  O132  1  0.00338630  0.24194004  0.27504772  1
  O2-  O133  1  -0.00482864  0.25366137  0.60478741  1
  O2-  O134  1  -0.00672916  0.24470257  0.93404795  1
  O2-  O135  1  -0.00348536  0.74813257  0.27545148  1
  O2-  O136  1  -0.00050842  0.74802189  0.60610335  1
  O2-  O137  1  -0.00188033  0.75455650  0.93810486  1
  O2-  O138  1  0.49302540  0.25380908  0.27253712  1
  O2-  O139  1  0.49827998  0.24697312  0.60305665  1
  O2-  O140  1  0.49986557  0.24323093  0.94032559  1
  O2-  O141  1  0.50394221  0.74342517  0.27026329  1
  O2-  O142  1  0.49406012  0.75236028  0.60705937  1
  O2-  O143  1  0.50252417  0.75198593  0.94444066  1
  O2-  O144  1  0.07041188  0.18211242  0.09897983  1
  O2-  O145  1  0.07704715  0.17422682  0.42204116  1
  O2-  O146  1  0.06768714  0.17646457  0.76404799  1
  O2-  O147  1  0.07092154  0.68041350  0.09892046  1
  O2-  O148  1  0.06886306  0.68358576  0.42517534  1
  O2-  O149  1  0.07128638  0.68106287  0.75412569  1
  O2-  O150  1  0.56818737  0.17802504  0.09021597  1
  O2-  O151  1  0.56847204  0.18154756  0.43177340  1
  O2-  O152  1  0.57214525  0.17928556  0.76761004  1
  O2-  O153  1  0.57313289  0.67844347  0.09205537  1
  O2-  O154  1  0.57372801  0.67722055  0.42069236  1
  O2-  O155  1  0.57268076  0.68285178  0.76656544  1
  O2-  O156  1  0.17542254  0.43077988  0.24401645  1
  O2-  O157  1  0.17532069  0.43282815  0.56968753  1
  O2-  O158  1  0.17681222  0.43137266  0.91320880  1
  O2-  O159  1  0.18014147  0.92289325  0.24215592  1
  O2-  O160  1  0.17552720  0.92663903  0.57683489  1
  O2-  O161  1  0.18411548  0.92186766  0.91049746  1
  O2-  O162  1  0.67744535  0.42957928  0.24363744  1
  O2-  O163  1  0.68453291  0.43134508  0.56699867  1
  O2-  O164  1  0.67419290  0.43405724  0.91116677  1
  O2-  O165  1  0.68021295  0.92975384  0.23807467  1
  O2-  O166  1  0.68122205  0.92258800  0.57766659  1
  O2-  O167  1  0.68148338  0.92213906  0.90212801  1
  O2-  O168  1  0.43528893  0.32302319  0.10176509  1
  O2-  O169  1  0.42410813  0.32337539  0.42159335  1
  O2-  O170  1  0.43001656  0.32122244  0.76548287  1
  O2-  O171  1  0.42538393  0.81989361  0.08870913  1
  O2-  O172  1  0.42694593  0.81639020  0.43125646  1
  O2-  O173  1  0.42660173  0.82305905  0.75648603  1
  O2-  O174  1  0.92958217  0.32559413  0.09604480  1
  O2-  O175  1  0.93408966  0.32153350  0.43488608  1
  O2-  O176  1  0.92823432  0.32282720  0.75470365  1
  O2-  O177  1  0.92708305  0.81499345  0.08953490  1
  O2-  O178  1  0.93190909  0.82177925  0.42321323  1
  O2-  O179  1  0.93094853  0.81825935  0.75499669  1
  O2-  O180  1  0.31821165  0.07209156  0.24156031  1
  O2-  O181  1  0.32069341  0.06575422  0.56353280  1
  O2-  O182  1  0.32060895  0.07197814  0.90103617  1
  O2-  O183  1  0.31675585  0.57268255  0.23454024  1
  O2-  O184  1  0.31840641  0.57288177  0.56854017  1
  O2-  O185  1  0.32241647  0.57130378  0.90275727  1
  O2-  O186  1  0.82213139  0.07033938  0.23630665  1
  O2-  O187  1  0.82204991  0.06953336  0.56790161  1
  O2-  O188  1  0.82058674  0.06969832  0.90273460  1
  O2-  O189  1  0.82436785  0.56872303  0.23148214  1
  O2-  O190  1  0.82291191  0.57513141  0.57830500  1
  O2-  O191  1  0.81905988  0.57266157  0.90737172  1
  O2-  O192  1  0.05314574  0.07959450  0.27147142  1
  O2-  O193  1  0.04070969  0.08034330  0.59809223  1
  O2-  O194  1  0.04995821  0.07542322  0.93462342  1
  O2-  O195  1  0.04486377  0.58801233  0.27327631  1
  O2-  O196  1  0.04370293  0.58659446  0.60223339  1
  O2-  O197  1  0.04143149  0.58560684  0.92784731  1
  O2-  O198  1  0.53794446  0.08385708  0.26411856  1
  O2-  O199  1  0.54799138  0.07766747  0.60200796  1
  O2-  O200  1  0.54651999  0.08040366  0.94136528  1
  O2-  O201  1  0.55165893  0.58151690  0.27045305  1
  O2-  O202  1  0.54440691  0.58411651  0.59646646  1
  O2-  O203  1  0.54098890  0.58877933  0.93994757  1
  O2-  O204  1  0.16751418  0.20315225  0.26997886  1
  O2-  O205  1  0.16508827  0.20870585  0.59554982  1
  O2-  O206  1  0.16706363  0.21123077  0.93338033  1
  O2-  O207  1  0.16004464  0.71269497  0.27254332  1
  O2-  O208  1  0.16245623  0.70869343  0.60107114  1
  O2-  O209  1  0.16785936  0.71323099  0.92927226  1
  O2-  O210  1  0.66453938  0.21186075  0.26274569  1
  O2-  O211  1  0.67027110  0.21248598  0.60189572  1
  O2-  O212  1  0.66313769  0.20282841  0.94068876  1
  O2-  O213  1  0.66833650  0.70407077  0.27034807  1
  O2-  O214  1  0.66803473  0.71031511  0.59756159  1
  O2-  O215  1  0.66382951  0.70507989  0.93838385  1
  O2-  O216  1  0.08186125  0.45887227  0.06195122  1
  O2-  O217  1  0.08850503  0.45967652  0.39891984  1
  O2-  O218  1  0.08065433  0.46052602  0.73761583  1
  O2-  O219  1  0.08295845  0.94351279  0.05969756  1
  O2-  O220  1  0.08629305  0.94941503  0.39480415  1
  O2-  O221  1  0.08310291  0.95125467  0.72963221  1
  O2-  O222  1  0.59067393  0.46541442  0.06808171  1
  O2-  O223  1  0.58510275  0.45155883  0.39698677  1
  O2-  O224  1  0.58560123  0.46406558  0.73476574  1
  O2-  O225  1  0.57884980  0.94933721  0.06812405  1
  O2-  O226  1  0.57481548  0.95325929  0.39958910  1
  O2-  O227  1  0.58256452  0.94373237  0.72699417  1
  O2-  O228  1  0.20121323  0.33744590  0.06613738  1
  O2-  O229  1  0.19821583  0.33207298  0.39398439  1
  O2-  O230  1  0.19996379  0.32746813  0.73395927  1
  O2-  O231  1  0.21073192  0.83552076  0.06453985  1
  O2-  O232  1  0.21161501  0.83898334  0.39838478  1
  O2-  O233  1  0.20110344  0.83395446  0.72889437  1
  O2-  O234  1  0.69800064  0.33638673  0.06252554  1
  O2-  O235  1  0.70708628  0.33506791  0.39471617  1
  O2-  O236  1  0.71083740  0.33677971  0.73876258  1
  O2-  O237  1  0.70958213  0.82846161  0.07062999  1
  O2-  O238  1  0.70601661  0.83148452  0.40388762  1
  O2-  O239  1  0.71147739  0.83499899  0.72998955  1
  O2-  O240  1  0.45479510  0.41774627  0.27119551  1
  O2-  O241  1  0.45985068  0.41898643  0.59920000  1
  O2-  O242  1  0.46599460  0.41803547  0.93530465  1
  O2-  O243  1  0.45641179  0.91438796  0.26165777  1
  O2-  O244  1  0.45311129  0.91443246  0.60285686  1
  O2-  O245  1  0.45605044  0.91409601  0.93718674  1
  O2-  O246  1  0.96530736  0.41583039  0.26669678  1
  O2-  O247  1  0.95371706  0.41815660  0.60503768  1
  O2-  O248  1  0.95422900  0.41814668  0.92666536  1
  O2-  O249  1  0.95912733  0.91159728  0.26891853  1
  O2-  O250  1  0.96088708  0.91011219  0.60055572  1
  O2-  O251  1  0.94873117  0.91426168  0.93910840  1
  O2-  O252  1  0.33141739  0.30109848  0.27050115  1
  O2-  O253  1  0.32894799  0.29658976  0.59869795  1
  O2-  O254  1  0.33156048  0.29830675  0.93780298  1
  O2-  O255  1  0.33241671  0.78590178  0.26352618  1
  O2-  O256  1  0.33144051  0.79875379  0.60513149  1
  O2-  O257  1  0.33925271  0.79239997  0.93400380  1
  O2-  O258  1  0.83461922  0.29539644  0.26574262  1
  O2-  O259  1  0.83366947  0.29814292  0.60514665  1
  O2-  O260  1  0.82338540  0.29914738  0.93361890  1
  O2-  O261  1  0.83495628  0.79529388  0.27299353  1
  O2-  O262  1  0.83901384  0.79390916  0.60047425  1
  O2-  O263  1  0.83495148  0.78855484  0.93646323  1
  O2-  O264  1  0.41362532  0.03970274  0.06947266  1
  O2-  O265  1  0.40989892  0.03840239  0.39251546  1
  O2-  O266  1  0.41706725  0.03813545  0.73382250  1
  O2-  O267  1  0.41673310  0.54016006  0.07127381  1
  O2-  O268  1  0.42059376  0.54731543  0.39879516  1
  O2-  O269  1  0.42254932  0.54820359  0.73213798  1
  O2-  O270  1  0.92077618  0.04331194  0.06847887  1
  O2-  O271  1  0.92063341  0.04134837  0.40009109  1
  O2-  O272  1  0.91525754  0.03314029  0.73381605  1
  O2-  O273  1  0.91602683  0.54438186  0.05704502  1
  O2-  O274  1  0.91883586  0.53962847  0.40122941  1
  O2-  O275  1  0.91709738  0.55147615  0.72905467  1
  O2-  O276  1  0.28877929  0.17011528  0.06991186  1
  O2-  O277  1  0.29637013  0.16480939  0.39393719  1
  O2-  O278  1  0.29025222  0.16629854  0.72921424  1
  O2-  O279  1  0.28890484  0.66902585  0.06678948  1
  O2-  O280  1  0.28491670  0.66555338  0.40242023  1
  O2-  O281  1  0.29066841  0.66960710  0.73408492  1
  O2-  O282  1  0.79392625  0.17213381  0.06810025  1
  O2-  O283  1  0.79382423  0.17272576  0.39921612  1
  O2-  O284  1  0.79446805  0.16803713  0.73547153  1
  O2-  O285  1  0.79215411  0.65874986  0.06242246  1
  O2-  O286  1  0.79590287  0.66661301  0.40045303  1
  O2-  O287  1  0.79802561  0.66967758  0.72876250  1
