# generated using pymatgen
data_Ca2Al2SiO7
_symmetry_space_group_name_H-M   'P 1'
_cell_length_a   15.45974221
_cell_length_b   15.45969470
_cell_length_c   15.28522381
_cell_angle_alpha   89.99710008
_cell_angle_beta   89.99497272
_cell_angle_gamma   90.02711149
_symmetry_Int_Tables_number   1
_chemical_formula_structural   Ca2Al2SiO7
_chemical_formula_sum   'Ca48 Al48 Si24 O168'
_cell_volume   3653.21230750
_cell_formula_units_Z   24
loop_
 _symmetry_equiv_pos_site_id
 _symmetry_equiv_pos_as_xyz
  1  'x, y, z'
loop_
 _atom_type_symbol
 _atom_type_oxidation_number
  Ca2+  2.0
  Al0+  0.0
  Si0+  0.0
  O2-  -2.0
loop_
 _atom_site_type_symbol
 _atom_site_label
 _atom_site_symmetry_multiplicity
 _atom_site_fract_x
 _atom_site_fract_y
 _atom_site_fract_z
 _atom_site_occupancy
  Ca2+  Ca0  1  0.17328748  0.08044168  0.17814428  1
  Ca2+  Ca1  1  0.17271793  0.07891924  0.50222807  1
  Ca2+  Ca2  1  0.17778448  0.07979486  0.83470320  1
  Ca2+  Ca3  1  0.16869096  0.58437038  0.17237398  1
  Ca2+  Ca4  1  0.18101998  0.58469223  0.50375285  1
  Ca2+  Ca5  1  0.17012426  0.58881323  0.83393349  1
  Ca2+  Ca6  1  0.67649680  0.08142951  0.16959713  1
  Ca2+  Ca7  1  0.66823360  0.08565472  0.50257197  1
  Ca2+  Ca8  1  0.66966215  0.06947728  0.83964419  1
  Ca2+  Ca9  1  0.67691358  0.57620248  0.17185504  1
  Ca2+  Ca10  1  0.66458037  0.57210414  0.50411050  1
  Ca2+  Ca11  1  0.66591193  0.57395827  0.83886894  1
  Ca2+  Ca12  1  0.08471433  0.32443928  0.16514844  1
  Ca2+  Ca13  1  0.07620623  0.32692507  0.49408183  1
  Ca2+  Ca14  1  0.07188054  0.33069248  0.82485422  1
  Ca2+  Ca15  1  0.07834776  0.82900374  0.15912619  1
  Ca2+  Ca16  1  0.08832908  0.83951689  0.49570398  1
  Ca2+  Ca17  1  0.07877712  0.83354253  0.83260253  1
  Ca2+  Ca18  1  0.58601820  0.33357872  0.17067421  1
  Ca2+  Ca19  1  0.58157909  0.33063016  0.48947164  1
  Ca2+  Ca20  1  0.58879121  0.33322501  0.82883084  1
  Ca2+  Ca21  1  0.58344748  0.83482908  0.16048209  1
  Ca2+  Ca22  1  0.57963795  0.83281257  0.50221715  1
  Ca2+  Ca23  1  0.58371555  0.83078024  0.82065925  1
  Ca2+  Ca24  1  0.33519238  0.42209838  0.17564769  1
  Ca2+  Ca25  1  0.34533023  0.42668155  0.49996409  1
  Ca2+  Ca26  1  0.33591220  0.42643595  0.83429809  1
  Ca2+  Ca27  1  0.32642173  0.92795063  0.17402654  1
  Ca2+  Ca28  1  0.32601516  0.92538160  0.50813302  1
  Ca2+  Ca29  1  0.33636972  0.92421076  0.83250998  1
  Ca2+  Ca30  1  0.82582767  0.42594084  0.17256036  1
  Ca2+  Ca31  1  0.82334168  0.41461871  0.50401762  1
  Ca2+  Ca32  1  0.82397450  0.41888256  0.83959740  1
  Ca2+  Ca33  1  0.83349278  0.91987031  0.16705754  1
  Ca2+  Ca34  1  0.82792713  0.92548268  0.50233943  1
  Ca2+  Ca35  1  0.82333874  0.91504859  0.84175440  1
  Ca2+  Ca36  1  0.41775181  0.16623213  0.16663051  1
  Ca2+  Ca37  1  0.42035119  0.16828498  0.48766979  1
  Ca2+  Ca38  1  0.41524542  0.16392780  0.82854099  1
  Ca2+  Ca39  1  0.41655493  0.66709018  0.16438705  1
  Ca2+  Ca40  1  0.41743145  0.66720835  0.49899748  1
  Ca2+  Ca41  1  0.42441609  0.67525344  0.81881931  1
  Ca2+  Ca42  1  0.91926940  0.15670968  0.16478782  1
  Ca2+  Ca43  1  0.91773135  0.17008871  0.49131164  1
  Ca2+  Ca44  1  0.90959086  0.17193104  0.82803462  1
  Ca2+  Ca45  1  0.91740081  0.66881166  0.15547243  1
  Ca2+  Ca46  1  0.91576186  0.66902519  0.49393732  1
  Ca2+  Ca47  1  0.91691407  0.66690345  0.83450277  1
  Al0+  Al48  1  0.00168746  -0.00200616  -0.00543814  1
  Al0+  Al49  1  -0.00251226  -0.00052429  0.33617956  1
  Al0+  Al50  1  0.00241235  0.00055513  0.67044836  1
  Al0+  Al51  1  0.00210878  0.49790709  -0.00211520  1
  Al0+  Al52  1  0.00048579  0.50128171  0.33568153  1
  Al0+  Al53  1  -0.00053887  0.50018363  0.65929739  1
  Al0+  Al54  1  0.49957855  0.00189405  0.00710287  1
  Al0+  Al55  1  0.49949665  -0.00074463  0.33002351  1
  Al0+  Al56  1  0.50110417  -0.00042307  0.66855213  1
  Al0+  Al57  1  0.49800951  0.49897142  0.00272364  1
  Al0+  Al58  1  0.50069918  0.50089717  0.33443125  1
  Al0+  Al59  1  0.50152353  0.49974615  0.67264440  1
  Al0+  Al60  1  0.25130654  0.25216756  0.00041405  1
  Al0+  Al61  1  0.24879155  0.25107784  0.32820603  1
  Al0+  Al62  1  0.24877767  0.25121704  0.66892874  1
  Al0+  Al63  1  0.25107599  0.75077637  -0.00491617  1
  Al0+  Al64  1  0.24961663  0.74964590  0.33828607  1
  Al0+  Al65  1  0.24957501  0.75148845  0.67124179  1
  Al0+  Al66  1  0.74826587  0.24784373  0.00598777  1
  Al0+  Al67  1  0.74916415  0.24997838  0.33467606  1
  Al0+  Al68  1  0.74938905  0.25252295  0.66527407  1
  Al0+  Al69  1  0.74930208  0.74803891  0.00201956  1
  Al0+  Al70  1  0.74981513  0.74994218  0.33539143  1
  Al0+  Al71  1  0.75201496  0.74879406  0.66281187  1
  Al0+  Al72  1  0.82298122  0.56917716  0.01295257  1
  Al0+  Al73  1  0.32030327  0.57016219  0.34589978  1
  Al0+  Al74  1  0.67616589  0.42751618  0.01755929  1
  Al0+  Al75  1  0.82324888  0.57333945  0.34989999  1
  Al0+  Al76  1  0.07270808  0.67667783  0.98378250  1
  Al0+  Al77  1  0.17739043  0.92847936  0.68555553  1
  Al0+  Al78  1  0.32231553  0.07311329  0.68090072  1
  Al0+  Al79  1  0.06830858  0.17856692  0.31987945  1
  Al0+  Al80  1  0.68124744  0.92847001  0.67754893  1
  Al0+  Al81  1  0.57274825  0.67701073  0.65063880  1
  Al0+  Al82  1  0.32181914  0.07312760  0.34804379  1
  Al0+  Al83  1  0.81927468  0.06957694  0.34711148  1
  Al0+  Al84  1  0.57265574  0.17618308  0.31594757  1
  Al0+  Al85  1  0.32075773  0.56975129  0.68162662  1
  Al0+  Al86  1  0.68020669  0.42962580  0.68168295  1
  Al0+  Al87  1  0.92740698  0.32050250  0.65204972  1
  Al0+  Al88  1  0.68054184  0.43051166  0.34986708  1
  Al0+  Al89  1  0.17842036  0.92958690  0.34662639  1
  Al0+  Al90  1  0.42960909  0.32238657  0.31791270  1
  Al0+  Al91  1  0.67835090  0.92660660  0.01473772  1
  Al0+  Al92  1  0.82337954  0.06989523  0.01318381  1
  Al0+  Al93  1  0.31959592  0.07293051  0.01609127  1
  Al0+  Al94  1  0.42858047  0.82234607  0.65041673  1
  Al0+  Al95  1  0.92741414  0.82043371  0.98356466  1
  Si0+  Si96  1  0.56894661  0.67746082  0.98671766  1
  Si0+  Si97  1  0.82476337  0.57213648  0.68292661  1
  Si0+  Si98  1  0.17929535  0.42902739  0.01411976  1
  Si0+  Si99  1  0.07222167  0.67958350  0.32045025  1
  Si0+  Si100  1  0.82159362  0.07271127  0.68142118  1
  Si0+  Si101  1  0.42767913  0.32145348  0.65461756  1
  Si0+  Si102  1  0.92960018  0.82273412  0.64973682  1
  Si0+  Si103  1  0.92785110  0.82011971  0.31925348  1
  Si0+  Si104  1  0.67583632  0.92617235  0.35049565  1
  Si0+  Si105  1  0.42699481  0.81976458  0.31753478  1
  Si0+  Si106  1  0.17973444  0.92725307  0.01612050  1
  Si0+  Si107  1  0.07251669  0.17817713  0.65014532  1
  Si0+  Si108  1  0.07114014  0.67966035  0.64904967  1
  Si0+  Si109  1  0.57072782  0.68001209  0.31709778  1
  Si0+  Si110  1  0.92886578  0.31839901  0.98684243  1
  Si0+  Si111  1  0.92769956  0.32340085  0.31476612  1
  Si0+  Si112  1  0.43055085  0.82262095  0.98581582  1
  Si0+  Si113  1  0.42823997  0.32192849  0.98249540  1
  Si0+  Si114  1  0.07411242  0.17880591  0.98384838  1
  Si0+  Si115  1  0.17528609  0.42924708  0.68270330  1
  Si0+  Si116  1  0.31939163  0.57201947  0.01407534  1
  Si0+  Si117  1  0.17660481  0.42671565  0.34973914  1
  Si0+  Si118  1  0.57019196  0.17933252  0.98401315  1
  Si0+  Si119  1  0.56964011  0.17943315  0.65425995  1
  O2-  O120  1  0.24363156  -0.00065493  0.06138468  1
  O2-  O121  1  0.24997026  0.00133170  0.39717400  1
  O2-  O122  1  0.25198645  -0.00018298  0.73225751  1
  O2-  O123  1  0.24619450  0.50387118  0.05607951  1
  O2-  O124  1  0.24812159  0.49305121  0.39281577  1
  O2-  O125  1  0.24491448  0.49603655  0.72892456  1
  O2-  O126  1  0.75412300  -0.00471866  0.06311477  1
  O2-  O127  1  0.74019268  -0.00045164  0.39363502  1
  O2-  O128  1  0.75701237  0.00085365  0.72574845  1
  O2-  O129  1  0.75009699  0.49906901  0.06394327  1
  O2-  O130  1  0.75391203  0.50028628  0.40105934  1
  O2-  O131  1  0.75424487  0.50536979  0.72707537  1
  O2-  O132  1  -0.00504369  0.25357325  0.26974305  1
  O2-  O133  1  0.00153118  0.24478127  0.60658134  1
  O2-  O134  1  -0.00304081  0.24435836  0.94287442  1
  O2-  O135  1  -0.00242703  0.74660951  0.27860718  1
  O2-  O136  1  0.00180625  0.75262881  0.60716282  1
  O2-  O137  1  -0.00097665  0.74709019  0.93364249  1
  O2-  O138  1  0.49866031  0.24782864  0.26683829  1
  O2-  O139  1  0.49451173  0.24669674  0.61350940  1
  O2-  O140  1  0.49987020  0.25125915  0.94070606  1
  O2-  O141  1  0.50083807  0.75199631  0.27379909  1
  O2-  O142  1  0.49965033  0.74863413  0.60060937  1
  O2-  O143  1  0.50337789  0.75325854  0.94398498  1
  O2-  O144  1  0.07622123  0.18165252  0.08880627  1
  O2-  O145  1  0.06582563  0.18061300  0.43294728  1
  O2-  O146  1  0.07266804  0.18104991  0.75624610  1
  O2-  O147  1  0.07582565  0.67875301  0.09770785  1
  O2-  O148  1  0.07395455  0.68118139  0.42554371  1
  O2-  O149  1  0.06854194  0.67665675  0.75396262  1
  O2-  O150  1  0.56902429  0.17899598  0.08843475  1
  O2-  O151  1  0.57194175  0.17703560  0.43037654  1
  O2-  O152  1  0.57166657  0.18103225  0.75975404  1
  O2-  O153  1  0.56419983  0.67621615  0.09208268  1
  O2-  O154  1  0.56981824  0.68013772  0.42177313  1
  O2-  O155  1  0.57113720  0.67757004  0.76508790  1
  O2-  O156  1  0.17418127  0.43025757  0.24363718  1
  O2-  O157  1  0.17471987  0.43064051  0.57746020  1
  O2-  O158  1  0.18152485  0.42618116  0.90902940  1
  O2-  O159  1  0.17976346  0.92757517  0.23266204  1
  O2-  O160  1  0.17581445  0.93164603  0.57221026  1
  O2-  O161  1  0.18282797  0.92731346  0.91079869  1
  O2-  O162  1  0.68110238  0.43429920  0.23648202  1
  O2-  O163  1  0.67988379  0.42678221  0.56938778  1
  O2-  O164  1  0.67661274  0.42861070  0.90355538  1
  O2-  O165  1  0.67920145  0.92226091  0.24501985  1
  O2-  O166  1  0.68232833  0.93194660  0.56458689  1
  O2-  O167  1  0.67613876  0.92859222  0.90088407  1
  O2-  O168  1  0.42517314  0.32397330  0.08681733  1
  O2-  O169  1  0.43260985  0.32401397  0.43201165  1
  O2-  O170  1  0.42851967  0.32182807  0.76022966  1
  O2-  O171  1  0.42817544  0.81884698  0.09126932  1
  O2-  O172  1  0.42638209  0.81814059  0.42211343  1
  O2-  O173  1  0.43240384  0.82187929  0.76484693  1
  O2-  O174  1  0.93293248  0.32023615  0.09151091  1
  O2-  O175  1  0.93035320  0.32257979  0.42056834  1
  O2-  O176  1  0.92791188  0.31906028  0.76603757  1
  O2-  O177  1  0.93106198  0.82082710  0.09759559  1
  O2-  O178  1  0.92779522  0.82029961  0.42461713  1
  O2-  O179  1  0.92823981  0.82133429  0.75447663  1
  O2-  O180  1  0.31915831  0.06996186  0.23417103  1
  O2-  O181  1  0.32088393  0.07618871  0.56804791  1
  O2-  O182  1  0.31962686  0.07303213  0.90306395  1
  O2-  O183  1  0.31672610  0.57228089  0.23216764  1
  O2-  O184  1  0.32046949  0.56741644  0.56865869  1
  O2-  O185  1  0.32113866  0.56956822  0.90915872  1
  O2-  O186  1  0.82276309  0.06385807  0.23450151  1
  O2-  O187  1  0.82012745  0.07281519  0.57579578  1
  O2-  O188  1  0.81779878  0.07354038  0.89932695  1
  O2-  O189  1  0.82291640  0.57395231  0.23635361  1
  O2-  O190  1  0.82581739  0.57038105  0.57758135  1
  O2-  O191  1  0.82243721  0.56586118  0.89914132  1
  O2-  O192  1  0.03569903  0.08197396  0.26586025  1
  O2-  O193  1  0.04940825  0.08336989  0.60618218  1
  O2-  O194  1  0.05423424  0.08513408  0.93728163  1
  O2-  O195  1  0.04978779  0.58583206  0.27365384  1
  O2-  O196  1  0.04371454  0.58884708  0.59928061  1
  O2-  O197  1  0.04866515  0.57658549  0.93045120  1
  O2-  O198  1  0.54711662  0.07668896  0.26243604  1
  O2-  O199  1  0.54662284  0.08715923  0.60662625  1
  O2-  O200  1  0.53990768  0.08722364  0.93746739  1
  O2-  O201  1  0.54035116  0.58977011  0.26865444  1
  O2-  O202  1  0.54072385  0.57812040  0.60038880  1
  O2-  O203  1  0.53561285  0.58718545  0.93871392  1
  O2-  O204  1  0.16381496  0.20952676  0.26305732  1
  O2-  O205  1  0.16498237  0.20735235  0.60358239  1
  O2-  O206  1  0.16290837  0.21491961  0.93506477  1
  O2-  O207  1  0.16290463  0.70954882  0.27126628  1
  O2-  O208  1  0.16416011  0.70637212  0.60409556  1
  O2-  O209  1  0.17073095  0.70728529  0.92933132  1
  O2-  O210  1  0.67122423  0.20676202  0.26365110  1
  O2-  O211  1  0.65982175  0.21075232  0.60570846  1
  O2-  O212  1  0.66261361  0.20619917  0.93666046  1
  O2-  O213  1  0.66316457  0.70791850  0.27019903  1
  O2-  O214  1  0.67147514  0.70361654  0.59731656  1
  O2-  O215  1  0.66296559  0.69769834  0.94148293  1
  O2-  O216  1  0.08734871  0.45219533  0.06263339  1
  O2-  O217  1  0.08473181  0.45428364  0.39775071  1
  O2-  O218  1  0.08206012  0.45759720  0.72864366  1
  O2-  O219  1  0.08389337  0.94795938  0.05816967  1
  O2-  O220  1  0.08034140  0.95650631  0.39988542  1
  O2-  O221  1  0.07986399  0.95895620  0.74066711  1
  O2-  O222  1  0.57767528  0.45751942  0.06911403  1
  O2-  O223  1  0.58281949  0.46188179  0.40177983  1
  O2-  O224  1  0.58462185  0.45830544  0.73853581  1
  O2-  O225  1  0.58220862  0.95824536  0.07002399  1
  O2-  O226  1  0.58018727  0.94637579  0.39305155  1
  O2-  O227  1  0.58606217  0.95942851  0.73337315  1
  O2-  O228  1  0.21128299  0.33982841  0.06387212  1
  O2-  O229  1  0.19832398  0.33237916  0.39412044  1
  O2-  O230  1  0.19810858  0.33541700  0.72951665  1
  O2-  O231  1  0.20929468  0.83432263  0.06175504  1
  O2-  O232  1  0.20739714  0.83229351  0.40109225  1
  O2-  O233  1  0.20199043  0.82955957  0.73810658  1
  O2-  O234  1  0.70300612  0.32919856  0.06900768  1
  O2-  O235  1  0.70578909  0.33100648  0.40113923  1
  O2-  O236  1  0.71317211  0.33344221  0.73641299  1
  O2-  O237  1  0.70109302  0.82719038  0.06749015  1
  O2-  O238  1  0.70594279  0.83507069  0.39840861  1
  O2-  O239  1  0.71115506  0.83084044  0.72997824  1
  O2-  O240  1  0.45982072  0.42105777  0.26407255  1
  O2-  O241  1  0.45988019  0.41195429  0.60830980  1
  O2-  O242  1  0.45593938  0.41446906  0.93495113  1
  O2-  O243  1  0.45175113  0.91168625  0.26875552  1
  O2-  O244  1  0.45965626  0.92039991  0.59786148  1
  O2-  O245  1  0.45641276  0.91621014  0.94132160  1
  O2-  O246  1  0.95631675  0.41726480  0.26989541  1
  O2-  O247  1  0.95911041  0.41573501  0.59589089  1
  O2-  O248  1  0.96040483  0.40784228  0.93669781  1
  O2-  O249  1  0.95751507  0.91063656  0.27130515  1
  O2-  O250  1  0.95698129  0.91614242  0.60451418  1
  O2-  O251  1  0.95635735  0.91819330  0.92770981  1
  O2-  O252  1  0.32917149  0.30091763  0.26495229  1
  O2-  O253  1  0.33352226  0.30112361  0.60864281  1
  O2-  O254  1  0.33655548  0.29436244  0.93366153  1
  O2-  O255  1  0.33658018  0.78672743  0.26952837  1
  O2-  O256  1  0.32837784  0.79449089  0.60147460  1
  O2-  O257  1  0.34028380  0.79347813  0.93654997  1
  O2-  O258  1  0.83343724  0.29969733  0.27116885  1
  O2-  O259  1  0.83197889  0.28878653  0.59636360  1
  O2-  O260  1  0.83547767  0.29205828  0.94097375  1
  O2-  O261  1  0.83562353  0.79399227  0.27144990  1
  O2-  O262  1  0.83939020  0.79435103  0.59950445  1
  O2-  O263  1  0.82776201  0.79202412  0.93170822  1
  O2-  O264  1  0.41499654  0.04187351  0.07048793  1
  O2-  O265  1  0.42129011  0.04453052  0.39747820  1
  O2-  O266  1  0.42050796  0.04497036  0.73489388  1
  O2-  O267  1  0.40913897  0.54111235  0.06326886  1
  O2-  O268  1  0.41670293  0.54179985  0.40010589  1
  O2-  O269  1  0.41515637  0.53688150  0.73841034  1
  O2-  O270  1  0.92459838  0.04523656  0.06219155  1
  O2-  O271  1  0.91265149  0.03496778  0.40452702  1
  O2-  O272  1  0.91669114  0.05278157  0.72579310  1
  O2-  O273  1  0.92225127  0.54073657  0.06461647  1
  O2-  O274  1  0.92354348  0.54957456  0.40126756  1
  O2-  O275  1  0.91831668  0.54422008  0.72763774  1
  O2-  O276  1  0.28994611  0.17081879  0.06740935  1
  O2-  O277  1  0.29454522  0.17325369  0.39659110  1
  O2-  O278  1  0.29231800  0.17147743  0.73567722  1
  O2-  O279  1  0.29480969  0.66517335  0.06024148  1
  O2-  O280  1  0.28665673  0.66385929  0.40262445  1
  O2-  O281  1  0.29049159  0.66589894  0.73565367  1
  O2-  O282  1  0.79362655  0.16615945  0.06887206  1
  O2-  O283  1  0.79411782  0.16767725  0.40004304  1
  O2-  O284  1  0.79168529  0.16497483  0.72712158  1
  O2-  O285  1  0.79631333  0.66741392  0.06580518  1
  O2-  O286  1  0.79388422  0.67151258  0.40252047  1
  O2-  O287  1  0.80247203  0.66711464  0.72657431  1
