# generated using pymatgen
data_Ca2Al2SiO7
_symmetry_space_group_name_H-M   'P 1'
_cell_length_a   15.45637297
_cell_length_b   15.45688622
_cell_length_c   15.28264996
_cell_angle_alpha   90.00188450
_cell_angle_beta   90.00072483
_cell_angle_gamma   90.01032097
_symmetry_Int_Tables_number   1
_chemical_formula_structural   Ca2Al2SiO7
_chemical_formula_sum   'Ca48 Al48 Si24 O168'
_cell_volume   3651.13808073
_cell_formula_units_Z   24
loop_
 _symmetry_equiv_pos_site_id
 _symmetry_equiv_pos_as_xyz
  1  'x, y, z'
loop_
 _atom_type_symbol
 _atom_type_oxidation_number
  Ca2+  2.0
  Al0+  0.0
  Si0+  0.0
  O2-  -2.0
loop_
 _atom_site_type_symbol
 _atom_site_label
 _atom_site_symmetry_multiplicity
 _atom_site_fract_x
 _atom_site_fract_y
 _atom_site_fract_z
 _atom_site_occupancy
  Ca2+  Ca0  1  0.17783619  0.09699630  0.16786167  1
  Ca2+  Ca1  1  0.17007441  0.08085169  0.50272168  1
  Ca2+  Ca2  1  0.16932147  0.08113678  0.84097374  1
  Ca2+  Ca3  1  0.17113613  0.58111054  0.16538913  1
  Ca2+  Ca4  1  0.17338856  0.57688861  0.50500715  1
  Ca2+  Ca5  1  0.17096301  0.57167833  0.84368730  1
  Ca2+  Ca6  1  0.66270184  0.08298325  0.17375624  1
  Ca2+  Ca7  1  0.66300508  0.07496994  0.50241236  1
  Ca2+  Ca8  1  0.66733447  0.08383514  0.83576590  1
  Ca2+  Ca9  1  0.67109149  0.56618271  0.17347581  1
  Ca2+  Ca10  1  0.67710145  0.58081325  0.50019390  1
  Ca2+  Ca11  1  0.67250277  0.57701048  0.83922621  1
  Ca2+  Ca12  1  0.08019766  0.32783130  0.15754191  1
  Ca2+  Ca13  1  0.08316222  0.32927686  0.49542056  1
  Ca2+  Ca14  1  0.08944623  0.33191093  0.83249807  1
  Ca2+  Ca15  1  0.07525707  0.82467439  0.15492162  1
  Ca2+  Ca16  1  0.08279384  0.83475168  0.49602505  1
  Ca2+  Ca17  1  0.08241197  0.82924806  0.83244358  1
  Ca2+  Ca18  1  0.58466706  0.32623509  0.15717430  1
  Ca2+  Ca19  1  0.57978958  0.32836926  0.49338652  1
  Ca2+  Ca20  1  0.57190387  0.33673935  0.83271979  1
  Ca2+  Ca21  1  0.57868474  0.83460232  0.16734700  1
  Ca2+  Ca22  1  0.58208210  0.83758783  0.49191253  1
  Ca2+  Ca23  1  0.58350498  0.83272296  0.82898332  1
  Ca2+  Ca24  1  0.33399630  0.42317066  0.16584977  1
  Ca2+  Ca25  1  0.33044676  0.41731160  0.50462484  1
  Ca2+  Ca26  1  0.32789847  0.41354347  0.84363603  1
  Ca2+  Ca27  1  0.33677257  0.92959082  0.17311548  1
  Ca2+  Ca28  1  0.33313285  0.92332517  0.50009833  1
  Ca2+  Ca29  1  0.32671885  0.92347058  0.83950398  1
  Ca2+  Ca30  1  0.82548439  0.41098853  0.16917718  1
  Ca2+  Ca31  1  0.82938724  0.42370670  0.50145833  1
  Ca2+  Ca32  1  0.83115262  0.41792793  0.84200719  1
  Ca2+  Ca33  1  0.82822379  0.91442619  0.17101849  1
  Ca2+  Ca34  1  0.82091080  0.92389832  0.50842855  1
  Ca2+  Ca35  1  0.83209052  0.92141540  0.83440702  1
  Ca2+  Ca36  1  0.42557908  0.16713884  0.15866309  1
  Ca2+  Ca37  1  0.41851091  0.17158571  0.49242556  1
  Ca2+  Ca38  1  0.41406978  0.17672142  0.83599896  1
  Ca2+  Ca39  1  0.40676223  0.67064226  0.16376166  1
  Ca2+  Ca40  1  0.41612791  0.67508863  0.49043054  1
  Ca2+  Ca41  1  0.41703615  0.66225059  0.83159120  1
  Ca2+  Ca42  1  0.93031308  0.16976717  0.15712273  1
  Ca2+  Ca43  1  0.92329402  0.16085433  0.49465013  1
  Ca2+  Ca44  1  0.91739916  0.17259421  0.83404566  1
  Ca2+  Ca45  1  0.91829696  0.66979533  0.15842652  1
  Ca2+  Ca46  1  0.91334875  0.66203594  0.49596587  1
  Ca2+  Ca47  1  0.91992954  0.66653503  0.83191908  1
  Al0+  Al48  1  -0.00203418  -0.00085299  -0.00693554  1
  Al0+  Al49  1  0.00091544  -0.00128577  0.32643903  1
  Al0+  Al50  1  -0.00058244  -0.00122612  0.67269844  1
  Al0+  Al51  1  0.00088040  0.50146968  -0.00226782  1
  Al0+  Al52  1  0.00036104  0.49986396  0.33544615  1
  Al0+  Al53  1  0.00130760  0.49970437  0.67193211  1
  Al0+  Al54  1  0.49993509  -0.00116313  -0.00178479  1
  Al0+  Al55  1  0.49811463  0.00091665  0.33427232  1
  Al0+  Al56  1  0.49958360  0.00015833  0.67079459  1
  Al0+  Al57  1  0.50163113  0.50092142  0.00493587  1
  Al0+  Al58  1  0.49997540  0.50133001  0.34254245  1
  Al0+  Al59  1  0.50123431  0.50157326  0.65772397  1
  Al0+  Al60  1  0.25126474  0.24950626  0.00193932  1
  Al0+  Al61  1  0.25076945  0.25051613  0.33455882  1
  Al0+  Al62  1  0.25007578  0.25051294  0.66340998  1
  Al0+  Al63  1  0.24832969  0.75115082  -0.00251737  1
  Al0+  Al64  1  0.24927995  0.75038717  0.33238911  1
  Al0+  Al65  1  0.25025089  0.75017855  0.66803482  1
  Al0+  Al66  1  0.75200247  0.24668836  -0.00332422  1
  Al0+  Al67  1  0.75033440  0.24938446  0.33559904  1
  Al0+  Al68  1  0.74966248  0.25016897  0.66682087  1
  Al0+  Al69  1  0.74814995  0.75123503  -0.00372562  1
  Al0+  Al70  1  0.74842487  0.74975696  0.33916477  1
  Al0+  Al71  1  0.75077624  0.75010116  0.67303500  1
  Al0+  Al72  1  0.31984851  0.57347237  0.34843505  1
  Al0+  Al73  1  0.67714233  0.92986659  0.68394971  1
  Al0+  Al74  1  0.82164168  0.07309106  0.68270713  1
  Al0+  Al75  1  0.07165013  0.17819678  0.32024581  1
  Al0+  Al76  1  0.18160274  0.42884055  0.67961742  1
  Al0+  Al77  1  0.17930326  0.92774007  0.68010509  1
  Al0+  Al78  1  0.32216536  0.57254147  0.01444961  1
  Al0+  Al79  1  0.56998530  0.18037422  0.32126842  1
  Al0+  Al80  1  0.92555412  0.82058709  0.98240460  1
  Al0+  Al81  1  0.82096485  0.56939547  0.68288312  1
  Al0+  Al82  1  0.82175763  0.57032525  0.34631311  1
  Al0+  Al83  1  0.42811207  0.32102179  0.65085876  1
  Al0+  Al84  1  0.07361236  0.18001167  0.98293876  1
  Al0+  Al85  1  0.67884601  0.93109796  0.34508312  1
  Al0+  Al86  1  0.32055783  0.06945263  0.01364632  1
  Al0+  Al87  1  0.17762590  0.42764486  0.01670985  1
  Al0+  Al88  1  0.42898329  0.82023148  0.31960952  1
  Al0+  Al89  1  0.32016869  0.07192434  0.34723396  1
  Al0+  Al90  1  0.43139838  0.32295401  0.98793698  1
  Al0+  Al91  1  0.92915897  0.32131495  0.98524705  1
  Al0+  Al92  1  0.68091745  0.42722099  0.01167273  1
  Al0+  Al93  1  0.07231271  0.67897612  0.98294324  1
  Al0+  Al94  1  0.67801212  0.42429538  0.35020243  1
  Al0+  Al95  1  0.57228323  0.17588433  0.98359480  1
  Si0+  Si96  1  0.67664792  0.42863997  0.68304398  1
  Si0+  Si97  1  0.42863797  0.82135885  0.65201323  1
  Si0+  Si98  1  0.67852118  0.92792640  0.01667913  1
  Si0+  Si99  1  0.17867205  0.42850616  0.35061952  1
  Si0+  Si100  1  0.17577555  0.92881607  0.01719608  1
  Si0+  Si101  1  0.57008290  0.67930997  0.98622763  1
  Si0+  Si102  1  0.07057043  0.67848620  0.64990244  1
  Si0+  Si103  1  0.92934525  0.82062696  0.64961560  1
  Si0+  Si104  1  0.82111515  0.57350395  0.01519128  1
  Si0+  Si105  1  0.92853896  0.32287257  0.65073995  1
  Si0+  Si106  1  0.82126417  0.06964743  0.01649151  1
  Si0+  Si107  1  0.92727911  0.81951474  0.32093042  1
  Si0+  Si108  1  0.42807562  0.32513287  0.31670088  1
  Si0+  Si109  1  0.42874297  0.82137956  0.98432704  1
  Si0+  Si110  1  0.57182888  0.17759937  0.64900978  1
  Si0+  Si111  1  0.57309103  0.67788166  0.31691500  1
  Si0+  Si112  1  0.32358105  0.57203575  0.68127056  1
  Si0+  Si113  1  0.57317866  0.68071085  0.64999105  1
  Si0+  Si114  1  0.07089196  0.67807140  0.32003724  1
  Si0+  Si115  1  0.17671989  0.92777563  0.34716476  1
  Si0+  Si116  1  0.32088708  0.07242059  0.68340518  1
  Si0+  Si117  1  0.92906188  0.32297720  0.31873813  1
  Si0+  Si118  1  0.06974362  0.17775889  0.65110915  1
  Si0+  Si119  1  0.82540281  0.07055959  0.34685347  1
  O2-  O120  1  0.24237439  -0.00162710  0.06215307  1
  O2-  O121  1  0.24295363  -0.00161914  0.39213901  1
  O2-  O122  1  0.25279868  0.00288174  0.72682987  1
  O2-  O123  1  0.25006589  0.50080074  0.06473406  1
  O2-  O124  1  0.24816463  0.49634894  0.39537658  1
  O2-  O125  1  0.25915063  0.50070274  0.72546356  1
  O2-  O126  1  0.74925382  -0.00090601  0.05849712  1
  O2-  O127  1  0.75375212  0.00555063  0.39168123  1
  O2-  O128  1  0.74726072  0.00349261  0.73330620  1
  O2-  O129  1  0.75846449  0.49959898  0.05882053  1
  O2-  O130  1  0.75067022  0.49791294  0.39723363  1
  O2-  O131  1  0.74720699  0.49404712  0.72889612  1
  O2-  O132  1  -0.00415324  0.25233720  0.27557641  1
  O2-  O133  1  -0.00259567  0.24853082  0.60905926  1
  O2-  O134  1  0.00460470  0.25451995  0.93215300  1
  O2-  O135  1  -0.00275974  0.74733541  0.27950426  1
  O2-  O136  1  0.00000708  0.74958501  0.60561683  1
  O2-  O137  1  -0.00158757  0.74933862  0.93258200  1
  O2-  O138  1  0.49986999  0.25910667  0.27417621  1
  O2-  O139  1  0.50351258  0.24647262  0.60470725  1
  O2-  O140  1  0.50245715  0.25086715  0.93545334  1
  O2-  O141  1  0.50113207  0.74299096  0.27188681  1
  O2-  O142  1  0.50155014  0.75238053  0.60924782  1
  O2-  O143  1  0.49628013  0.74701161  0.94251202  1
  O2-  O144  1  0.07054243  0.17951321  0.09678463  1
  O2-  O145  1  0.06922163  0.17689001  0.43425920  1
  O2-  O146  1  0.07178280  0.17879483  0.75554369  1
  O2-  O147  1  0.07132489  0.68200267  0.09744582  1
  O2-  O148  1  0.07154538  0.67929006  0.42562454  1
  O2-  O149  1  0.07026106  0.68013717  0.75423190  1
  O2-  O150  1  0.57052459  0.17396215  0.09747679  1
  O2-  O151  1  0.56652139  0.17885883  0.43465215  1
  O2-  O152  1  0.57122096  0.17775834  0.75416109  1
  O2-  O153  1  0.57360926  0.68288063  0.09088278  1
  O2-  O154  1  0.57419701  0.68233823  0.42282451  1
  O2-  O155  1  0.57082723  0.67858002  0.75539519  1
  O2-  O156  1  0.17608865  0.42960634  0.24577902  1
  O2-  O157  1  0.18052871  0.43097674  0.56600103  1
  O2-  O158  1  0.18105610  0.42846303  0.90282995  1
  O2-  O159  1  0.17603361  0.92505459  0.24223808  1
  O2-  O160  1  0.17986891  0.92861582  0.56650918  1
  O2-  O161  1  0.17984114  0.92831563  0.91124440  1
  O2-  O162  1  0.68016255  0.42391431  0.23648779  1
  O2-  O163  1  0.67811853  0.43082640  0.57752376  1
  O2-  O164  1  0.67920675  0.43276672  0.89834248  1
  O2-  O165  1  0.68146650  0.92933820  0.23189557  1
  O2-  O166  1  0.67708903  0.93010793  0.57006794  1
  O2-  O167  1  0.67824062  0.92661254  0.91183971  1
  O2-  O168  1  0.43423998  0.32382075  0.10134957  1
  O2-  O169  1  0.42670114  0.32152688  0.42283103  1
  O2-  O170  1  0.42803543  0.32176343  0.76355470  1
  O2-  O171  1  0.43080007  0.82335448  0.08933606  1
  O2-  O172  1  0.43010119  0.82003065  0.43330743  1
  O2-  O173  1  0.42796780  0.81902277  0.75721979  1
  O2-  O174  1  0.92695301  0.31578579  0.09919362  1
  O2-  O175  1  0.93182198  0.32440191  0.42489621  1
  O2-  O176  1  0.92921824  0.32375672  0.75525645  1
  O2-  O177  1  0.92393272  0.81807384  0.09708913  1
  O2-  O178  1  0.92931566  0.82195061  0.42617527  1
  O2-  O179  1  0.93023867  0.81919491  0.75416099  1
  O2-  O180  1  0.32109695  0.07071885  0.23456799  1
  O2-  O181  1  0.32052446  0.07099231  0.57746024  1
  O2-  O182  1  0.32079992  0.06511904  0.90020089  1
  O2-  O183  1  0.31554099  0.57551813  0.23610717  1
  O2-  O184  1  0.31977480  0.57494797  0.57563443  1
  O2-  O185  1  0.32309190  0.57225892  0.90043169  1
  O2-  O186  1  0.82764486  0.06692836  0.24148132  1
  O2-  O187  1  0.82421591  0.06894573  0.56845967  1
  O2-  O188  1  0.82090556  0.06886342  0.91160364  1
  O2-  O189  1  0.82153352  0.57153502  0.23307017  1
  O2-  O190  1  0.82009861  0.56893360  0.56970211  1
  O2-  O191  1  0.81603992  0.57530074  0.90946948  1
  O2-  O192  1  0.04312696  0.08208935  0.26371369  1
  O2-  O193  1  0.04132655  0.08497982  0.60490244  1
  O2-  O194  1  0.04277299  0.08186253  0.93092451  1
  O2-  O195  1  0.04497351  0.58582953  0.27285882  1
  O2-  O196  1  0.04191959  0.58637824  0.60301956  1
  O2-  O197  1  0.04670296  0.58060083  0.92988281  1
  O2-  O198  1  0.53646360  0.08493734  0.26707813  1
  O2-  O199  1  0.54465155  0.08280701  0.60481632  1
  O2-  O200  1  0.54104487  0.07830858  0.92981302  1
  O2-  O201  1  0.55077585  0.58169689  0.27560346  1
  O2-  O202  1  0.54699411  0.59027172  0.59885783  1
  O2-  O203  1  0.54459521  0.58782968  0.93755824  1
  O2-  O204  1  0.16816365  0.21077658  0.26812316  1
  O2-  O205  1  0.16096897  0.20604733  0.60222998  1
  O2-  O206  1  0.17320220  0.20380697  0.93113312  1
  O2-  O207  1  0.16043232  0.70873312  0.27109645  1
  O2-  O208  1  0.16331631  0.70702692  0.60316562  1
  O2-  O209  1  0.16928046  0.71051682  0.92762040  1
  O2-  O210  1  0.67019050  0.20364895  0.26970313  1
  O2-  O211  1  0.66635441  0.20145164  0.60292186  1
  O2-  O212  1  0.67162933  0.19948301  0.93234610  1
  O2-  O213  1  0.66538823  0.70752127  0.27031209  1
  O2-  O214  1  0.66533593  0.71004498  0.60417687  1
  O2-  O215  1  0.65900671  0.71086584  0.93470689  1
  O2-  O216  1  0.07841826  0.45698697  0.06859865  1
  O2-  O217  1  0.08571715  0.45522990  0.39824274  1
  O2-  O218  1  0.08665936  0.46075024  0.73424762  1
  O2-  O219  1  0.07946395  0.94996445  0.05927627  1
  O2-  O220  1  0.08236692  0.95253297  0.39356269  1
  O2-  O221  1  0.08331074  0.95547719  0.73486204  1
  O2-  O222  1  0.58775136  0.46214668  0.06878194  1
  O2-  O223  1  0.58086685  0.45334619  0.40496014  1
  O2-  O224  1  0.58332589  0.45977877  0.72651729  1
  O2-  O225  1  0.58617177  0.95456654  0.06291983  1
  O2-  O226  1  0.58355021  0.96251408  0.40055178  1
  O2-  O227  1  0.57777291  0.95435322  0.73747256  1
  O2-  O228  1  0.20529067  0.32952564  0.06939854  1
  O2-  O229  1  0.20431788  0.33538665  0.39790985  1
  O2-  O230  1  0.20949726  0.33089989  0.73141668  1
  O2-  O231  1  0.20252659  0.83528464  0.06213551  1
  O2-  O232  1  0.20356474  0.83564922  0.39577836  1
  O2-  O233  1  0.21162618  0.83201976  0.73511944  1
  O2-  O234  1  0.71053981  0.32934835  0.06378513  1
  O2-  O235  1  0.70755057  0.32714679  0.40627876  1
  O2-  O236  1  0.69743575  0.33332995  0.72607468  1
  O2-  O237  1  0.70700834  0.83593890  0.06411218  1
  O2-  O238  1  0.70838480  0.83545166  0.40151166  1
  O2-  O239  1  0.70697065  0.83221599  0.73685379  1
  O2-  O240  1  0.44968663  0.42179760  0.27599191  1
  O2-  O241  1  0.45737292  0.41811079  0.59532920  1
  O2-  O242  1  0.46043257  0.42165957  0.93435945  1
  O2-  O243  1  0.46274173  0.91535213  0.26538446  1
  O2-  O244  1  0.45421970  0.91482613  0.60624200  1
  O2-  O245  1  0.46131292  0.90971746  0.93358360  1
  O2-  O246  1  0.95596150  0.41582489  0.27162550  1
  O2-  O247  1  0.96099064  0.41357610  0.60310653  1
  O2-  O248  1  0.94800940  0.42282610  0.93580282  1
  O2-  O249  1  0.95493913  0.90942869  0.26961729  1
  O2-  O250  1  0.95826151  0.91286443  0.60309381  1
  O2-  O251  1  0.95301335  0.91813589  0.92843038  1
  O2-  O252  1  0.33448723  0.29835339  0.27233924  1
  O2-  O253  1  0.33228874  0.28895134  0.59460608  1
  O2-  O254  1  0.33352306  0.29269179  0.93561273  1
  O2-  O255  1  0.33164365  0.79145800  0.26561137  1
  O2-  O256  1  0.33743147  0.79199956  0.60340961  1
  O2-  O257  1  0.33617279  0.79771829  0.93671691  1
  O2-  O258  1  0.83433287  0.29965149  0.27508647  1
  O2-  O259  1  0.83510049  0.29887934  0.60374572  1
  O2-  O260  1  0.83375088  0.28764448  0.92896999  1
  O2-  O261  1  0.83511138  0.79208668  0.27412191  1
  O2-  O262  1  0.83625152  0.79223176  0.60451892  1
  O2-  O263  1  0.82736140  0.79264348  0.92820765  1
  O2-  O264  1  0.41619909  0.03278295  0.06680471  1
  O2-  O265  1  0.41348241  0.03620980  0.40396836  1
  O2-  O266  1  0.41397985  0.04730756  0.72963764  1
  O2-  O267  1  0.42057295  0.54797164  0.06920012  1
  O2-  O268  1  0.41742130  0.54975699  0.40380705  1
  O2-  O269  1  0.42029195  0.55120173  0.72229680  1
  O2-  O270  1  0.91332165  0.03963247  0.06285493  1
  O2-  O271  1  0.91750866  0.03997498  0.39435781  1
  O2-  O272  1  0.91777264  0.04143051  0.73734291  1
  O2-  O273  1  0.91751556  0.55676210  0.05718272  1
  O2-  O274  1  0.92030428  0.54369358  0.40167722  1
  O2-  O275  1  0.91757935  0.54048310  0.73618012  1
  O2-  O276  1  0.29456142  0.16623470  0.06838832  1
  O2-  O277  1  0.29048823  0.16819760  0.40285917  1
  O2-  O278  1  0.29280097  0.16530885  0.72779902  1
  O2-  O279  1  0.29249350  0.67237431  0.06507823  1
  O2-  O280  1  0.28590163  0.66926699  0.40370870  1
  O2-  O281  1  0.29680448  0.66481270  0.72802046  1
  O2-  O282  1  0.79524830  0.16091827  0.06483727  1
  O2-  O283  1  0.80582284  0.16538391  0.39203214  1
  O2-  O284  1  0.79641650  0.17300814  0.73395894  1
  O2-  O285  1  0.78885257  0.66562767  0.06109203  1
  O2-  O286  1  0.79202593  0.66729519  0.40291196  1
  O2-  O287  1  0.79007942  0.66540287  0.73676823  1
