# generated using pymatgen
data_Ca2Al2SiO7
_symmetry_space_group_name_H-M   'P 1'
_cell_length_a   15.47125728
_cell_length_b   15.47361645
_cell_length_c   15.29369519
_cell_angle_alpha   89.99631009
_cell_angle_beta   89.99319338
_cell_angle_gamma   90.02093100
_symmetry_Int_Tables_number   1
_chemical_formula_structural   Ca2Al2SiO7
_chemical_formula_sum   'Ca48 Al48 Si24 O168'
_cell_volume   3661.25378407
_cell_formula_units_Z   24
loop_
 _symmetry_equiv_pos_site_id
 _symmetry_equiv_pos_as_xyz
  1  'x, y, z'
loop_
 _atom_type_symbol
 _atom_type_oxidation_number
  Ca2+  2.0
  Al0+  0.0
  Si0+  0.0
  O2-  -2.0
loop_
 _atom_site_type_symbol
 _atom_site_label
 _atom_site_symmetry_multiplicity
 _atom_site_fract_x
 _atom_site_fract_y
 _atom_site_fract_z
 _atom_site_occupancy
  Ca2+  Ca0  1  0.17020582  0.07996865  0.17004767  1
  Ca2+  Ca1  1  0.17119215  0.08282095  0.50905684  1
  Ca2+  Ca2  1  0.17017206  0.08617800  0.82925453  1
  Ca2+  Ca3  1  0.18075962  0.58214277  0.17602534  1
  Ca2+  Ca4  1  0.17311665  0.58927327  0.50384380  1
  Ca2+  Ca5  1  0.18075682  0.59546716  0.83394531  1
  Ca2+  Ca6  1  0.66616584  0.06954187  0.17451775  1
  Ca2+  Ca7  1  0.67614463  0.07213608  0.50716786  1
  Ca2+  Ca8  1  0.66621340  0.06997129  0.83191113  1
  Ca2+  Ca9  1  0.66667428  0.58651009  0.17155835  1
  Ca2+  Ca10  1  0.66284642  0.57613957  0.50627475  1
  Ca2+  Ca11  1  0.67479946  0.58744929  0.83495903  1
  Ca2+  Ca12  1  0.08489706  0.33677744  0.16587127  1
  Ca2+  Ca13  1  0.08606894  0.32932851  0.49741951  1
  Ca2+  Ca14  1  0.08235171  0.32619971  0.82391696  1
  Ca2+  Ca15  1  0.08171356  0.82583183  0.16693257  1
  Ca2+  Ca16  1  0.07706097  0.82089553  0.50156830  1
  Ca2+  Ca17  1  0.07190647  0.82629529  0.81995133  1
  Ca2+  Ca18  1  0.58043020  0.33506913  0.16195339  1
  Ca2+  Ca19  1  0.58066488  0.34279300  0.49758193  1
  Ca2+  Ca20  1  0.57340818  0.33902900  0.82643798  1
  Ca2+  Ca21  1  0.58422798  0.82536312  0.16011982  1
  Ca2+  Ca22  1  0.58249169  0.83292749  0.49704399  1
  Ca2+  Ca23  1  0.57930780  0.83283773  0.83119946  1
  Ca2+  Ca24  1  0.33520031  0.42794556  0.17150008  1
  Ca2+  Ca25  1  0.33222317  0.43108137  0.50468073  1
  Ca2+  Ca26  1  0.34002460  0.42760167  0.83427838  1
  Ca2+  Ca27  1  0.33722915  0.91392034  0.16749754  1
  Ca2+  Ca28  1  0.33537088  0.92182229  0.51269497  1
  Ca2+  Ca29  1  0.34171035  0.91845867  0.83468762  1
  Ca2+  Ca30  1  0.82518369  0.42306548  0.17175882  1
  Ca2+  Ca31  1  0.81937966  0.42192855  0.50767563  1
  Ca2+  Ca32  1  0.83084111  0.42749398  0.83324302  1
  Ca2+  Ca33  1  0.81888138  0.91940260  0.17337708  1
  Ca2+  Ca34  1  0.82471209  0.91729539  0.50901099  1
  Ca2+  Ca35  1  0.82009025  0.90646611  0.83231037  1
  Ca2+  Ca36  1  0.41987013  0.17714837  0.15815269  1
  Ca2+  Ca37  1  0.41458637  0.17336854  0.50267927  1
  Ca2+  Ca38  1  0.41382250  0.17992408  0.82318492  1
  Ca2+  Ca39  1  0.42811073  0.66399019  0.15984930  1
  Ca2+  Ca40  1  0.41860397  0.66792091  0.49609411  1
  Ca2+  Ca41  1  0.41834631  0.67331135  0.82820860  1
  Ca2+  Ca42  1  0.91242850  0.16634355  0.16642488  1
  Ca2+  Ca43  1  0.91525077  0.15885757  0.49750257  1
  Ca2+  Ca44  1  0.92210033  0.16347646  0.82140886  1
  Ca2+  Ca45  1  0.92344385  0.65791559  0.16300578  1
  Ca2+  Ca46  1  0.92158684  0.66284254  0.49991066  1
  Ca2+  Ca47  1  0.91962761  0.66464082  0.82101437  1
  Al0+  Al48  1  0.00158178  -0.00060720  0.00111490  1
  Al0+  Al49  1  0.00279099  0.00115476  0.33214794  1
  Al0+  Al50  1  0.00072613  -0.00147181  0.66029416  1
  Al0+  Al51  1  0.00064412  0.49762274  0.00151354  1
  Al0+  Al52  1  0.00057628  0.49660298  0.33030640  1
  Al0+  Al53  1  0.00057439  0.49555661  0.66402314  1
  Al0+  Al54  1  0.50065145  0.00075775  0.00336259  1
  Al0+  Al55  1  0.50047496  0.00299777  0.33608120  1
  Al0+  Al56  1  0.49918518  0.00306243  0.67087602  1
  Al0+  Al57  1  0.50126737  0.49993257  -0.00453552  1
  Al0+  Al58  1  0.49827848  0.50287128  0.33513751  1
  Al0+  Al59  1  0.49629628  0.50040296  0.67001607  1
  Al0+  Al60  1  0.24945406  0.24840936  -0.00308474  1
  Al0+  Al61  1  0.24879705  0.25069734  0.33277463  1
  Al0+  Al62  1  0.25004001  0.25040338  0.66112500  1
  Al0+  Al63  1  0.25007679  0.75079053  0.00330909  1
  Al0+  Al64  1  0.24811230  0.75223544  0.33188750  1
  Al0+  Al65  1  0.25000507  0.75157073  0.66308876  1
  Al0+  Al66  1  0.75211386  0.25036917  -0.00242790  1
  Al0+  Al67  1  0.74978319  0.25052043  0.33797140  1
  Al0+  Al68  1  0.74803046  0.24802377  0.67560804  1
  Al0+  Al69  1  0.75175719  0.75003883  0.00760362  1
  Al0+  Al70  1  0.74996291  0.75129773  0.33302288  1
  Al0+  Al71  1  0.74884051  0.74839709  0.66900016  1
  Al0+  Al72  1  0.31970120  0.57317711  0.34890970  1
  Al0+  Al73  1  0.67860532  0.93019345  0.01611258  1
  Al0+  Al74  1  0.57015947  0.67995724  0.32120536  1
  Al0+  Al75  1  0.31808865  0.57355931  0.68129251  1
  Al0+  Al76  1  0.82244270  0.57017812  0.01506187  1
  Al0+  Al77  1  0.82197317  0.56929904  0.67925648  1
  Al0+  Al78  1  0.07010638  0.67733662  0.31729252  1
  Al0+  Al79  1  0.67758547  0.92727088  0.68304313  1
  Al0+  Al80  1  0.42816769  0.82128834  0.98566008  1
  Al0+  Al81  1  0.32195590  0.57159311  0.01392515  1
  Al0+  Al82  1  0.42941758  0.32022952  0.98621054  1
  Al0+  Al83  1  0.82133300  0.07055263  0.34708140  1
  Al0+  Al84  1  0.43076025  0.82324165  0.65362694  1
  Al0+  Al85  1  0.31949890  0.07244191  0.68055902  1
  Al0+  Al86  1  0.67817494  0.43127541  0.34474711  1
  Al0+  Al87  1  0.17807193  0.42767273  0.34830040  1
  Al0+  Al88  1  0.57439179  0.67899675  0.98385985  1
  Al0+  Al89  1  0.07156232  0.67544731  0.65253596  1
  Al0+  Al90  1  0.06927165  0.17912885  0.65127286  1
  Al0+  Al91  1  0.43011192  0.32269153  0.64987104  1
  Al0+  Al92  1  0.92534227  0.81891403  0.65156812  1
  Al0+  Al93  1  0.67563145  0.42851365  0.68353960  1
  Al0+  Al94  1  0.67760014  0.92680790  0.35028985  1
  Al0+  Al95  1  0.82380039  0.06909514  0.68265185  1
  Si0+  Si96  1  0.42884216  0.32063232  0.31831422  1
  Si0+  Si97  1  0.82459365  0.07245915  0.01613433  1
  Si0+  Si98  1  0.92959471  0.32123693  0.98413629  1
  Si0+  Si99  1  0.57028720  0.67827913  0.65096750  1
  Si0+  Si100  1  0.07209399  0.17908805  0.31505262  1
  Si0+  Si101  1  0.92667378  0.31906629  0.31708089  1
  Si0+  Si102  1  0.32091435  0.07199311  0.34692763  1
  Si0+  Si103  1  0.17956974  0.42543385  0.01492911  1
  Si0+  Si104  1  0.17948523  0.93005609  0.34857398  1
  Si0+  Si105  1  0.57211674  0.17883541  0.64954881  1
  Si0+  Si106  1  0.31958180  0.07215389  0.01524728  1
  Si0+  Si107  1  0.07052815  0.67786308  0.98660367  1
  Si0+  Si108  1  0.67901956  0.42702234  0.01602386  1
  Si0+  Si109  1  0.57180925  0.18022387  0.31905169  1
  Si0+  Si110  1  0.93129671  0.82132030  0.98789355  1
  Si0+  Si111  1  0.07008468  0.17737812  0.98479163  1
  Si0+  Si112  1  0.92492827  0.32004960  0.64889410  1
  Si0+  Si113  1  0.17724476  0.92965369  0.01586767  1
  Si0+  Si114  1  0.92976526  0.82316002  0.31505656  1
  Si0+  Si115  1  0.57363126  0.17775769  0.98362600  1
  Si0+  Si116  1  0.17918992  0.92821303  0.68298638  1
  Si0+  Si117  1  0.17898967  0.42691328  0.68263436  1
  Si0+  Si118  1  0.42786294  0.82622373  0.31832585  1
  Si0+  Si119  1  0.82364087  0.57195537  0.34832053  1
  O2-  O120  1  0.25237752  -0.00248910  0.05768162  1
  O2-  O121  1  0.25543329  -0.00365005  0.38869896  1
  O2-  O122  1  0.24762110  -0.00387473  0.72923103  1
  O2-  O123  1  0.24826690  0.49399424  0.05843716  1
  O2-  O124  1  0.24455770  0.50377759  0.39826806  1
  O2-  O125  1  0.24097230  0.50059385  0.72791686  1
  O2-  O126  1  0.75287894  0.00763693  0.06015084  1
  O2-  O127  1  0.75360565  -0.00413587  0.39731553  1
  O2-  O128  1  0.75371969  -0.00403575  0.73297966  1
  O2-  O129  1  0.74473606  0.49803259  0.06108651  1
  O2-  O130  1  0.74981376  0.50869740  0.39106468  1
  O2-  O131  1  0.74929849  0.49949570  0.73194401  1
  O2-  O132  1  -0.00065870  0.24864457  0.27378158  1
  O2-  O133  1  -0.00932451  0.24889312  0.60356560  1
  O2-  O134  1  -0.00144725  0.24752650  0.94325279  1
  O2-  O135  1  -0.00716496  0.74946052  0.26908684  1
  O2-  O136  1  -0.00536064  0.74297118  0.60358850  1
  O2-  O137  1  -0.00235189  0.74649168  0.94495338  1
  O2-  O138  1  0.50107388  0.25106598  0.27536921  1
  O2-  O139  1  0.50889345  0.25190023  0.60333964  1
  O2-  O140  1  0.50631262  0.24751782  0.93971056  1
  O2-  O141  1  0.49666765  0.75737923  0.27545995  1
  O2-  O142  1  0.50513115  0.74991155  0.60600999  1
  O2-  O143  1  0.49962646  0.74936884  0.93532409  1
  O2-  O144  1  0.07141423  0.17662873  0.09006301  1
  O2-  O145  1  0.07532549  0.17853351  0.41927512  1
  O2-  O146  1  0.07104122  0.18253383  0.76515781  1
  O2-  O147  1  0.06999039  0.67905304  0.09189733  1
  O2-  O148  1  0.06976025  0.67973777  0.42957909  1
  O2-  O149  1  0.07234105  0.68011618  0.76689774  1
  O2-  O150  1  0.57163493  0.17893707  0.09003265  1
  O2-  O151  1  0.56985748  0.17941136  0.42341952  1
  O2-  O152  1  0.56756106  0.17791039  0.75530379  1
  O2-  O153  1  0.57299937  0.68017886  0.09799872  1
  O2-  O154  1  0.56750710  0.67746786  0.43387897  1
  O2-  O155  1  0.56934329  0.67825721  0.75644551  1
  O2-  O156  1  0.18287696  0.42522301  0.23412749  1
  O2-  O157  1  0.18208035  0.42500215  0.57734314  1
  O2-  O158  1  0.17782958  0.42247851  0.90984160  1
  O2-  O159  1  0.17820621  0.93260887  0.24268779  1
  O2-  O160  1  0.18184885  0.92974495  0.57714652  1
  O2-  O161  1  0.17129653  0.93238286  0.91177299  1
  O2-  O162  1  0.68013516  0.42878292  0.23140905  1
  O2-  O163  1  0.67644092  0.43128619  0.56948569  1
  O2-  O164  1  0.68299734  0.42367790  0.91127943  1
  O2-  O165  1  0.67637232  0.93015971  0.23626419  1
  O2-  O166  1  0.67667361  0.92994973  0.56982879  1
  O2-  O167  1  0.67900355  0.93060812  0.90371364  1
  O2-  O168  1  0.42888582  0.31729747  0.10020704  1
  O2-  O169  1  0.42801056  0.31826145  0.42288841  1
  O2-  O170  1  0.42882114  0.32027277  0.76315222  1
  O2-  O171  1  0.42786919  0.82152992  0.09958366  1
  O2-  O172  1  0.42772429  0.82912455  0.42361338  1
  O2-  O173  1  0.43034337  0.82178071  0.76647726  1
  O2-  O174  1  0.92972008  0.32077765  0.08943918  1
  O2-  O175  1  0.92544321  0.31759899  0.42135638  1
  O2-  O176  1  0.92989253  0.32059455  0.75495366  1
  O2-  O177  1  0.93627648  0.82442600  0.09295457  1
  O2-  O178  1  0.93367194  0.82519995  0.41986447  1
  O2-  O179  1  0.92860821  0.81889558  0.76616849  1
  O2-  O180  1  0.31871733  0.07377965  0.24121516  1
  O2-  O181  1  0.31720235  0.07166228  0.56691715  1
  O2-  O182  1  0.31600998  0.07558764  0.91093293  1
  O2-  O183  1  0.32187655  0.56957309  0.23488462  1
  O2-  O184  1  0.31889832  0.57326472  0.56858483  1
  O2-  O185  1  0.31811416  0.57361203  0.90117608  1
  O2-  O186  1  0.81864589  0.07047602  0.23270597  1
  O2-  O187  1  0.82161938  0.06805695  0.56920570  1
  O2-  O188  1  0.82909958  0.07095231  0.91153838  1
  O2-  O189  1  0.82482765  0.56729718  0.24229891  1
  O2-  O190  1  0.82151294  0.56679164  0.56556467  1
  O2-  O191  1  0.82781937  0.56735620  0.90282358  1
  O2-  O192  1  0.04645170  0.08720199  0.26534271  1
  O2-  O193  1  0.04635110  0.08153827  0.59596433  1
  O2-  O194  1  0.04339745  0.08544354  0.93733460  1
  O2-  O195  1  0.04255717  0.57927559  0.26304506  1
  O2-  O196  1  0.04963875  0.57512433  0.60075139  1
  O2-  O197  1  0.04628881  0.58453859  0.94131541  1
  O2-  O198  1  0.54167576  0.08927814  0.26969333  1
  O2-  O199  1  0.53976703  0.08809733  0.60222863  1
  O2-  O200  1  0.54584452  0.08484733  0.93919944  1
  O2-  O201  1  0.53707404  0.58412722  0.26499768  1
  O2-  O202  1  0.53925295  0.58619551  0.60559680  1
  O2-  O203  1  0.55123027  0.57926797  0.93267365  1
  O2-  O204  1  0.16294048  0.20896347  0.26503071  1
  O2-  O205  1  0.16374805  0.21378019  0.59542966  1
  O2-  O206  1  0.16120688  0.20522528  0.93648889  1
  O2-  O207  1  0.16553386  0.71379676  0.26222442  1
  O2-  O208  1  0.16615636  0.71222857  0.59745621  1
  O2-  O209  1  0.16129697  0.70978882  0.94086819  1
  O2-  O210  1  0.66323079  0.20848321  0.27105996  1
  O2-  O211  1  0.66846896  0.19851717  0.60737433  1
  O2-  O212  1  0.66854567  0.19989034  0.93901214  1
  O2-  O213  1  0.66890143  0.70618558  0.26721897  1
  O2-  O214  1  0.66513954  0.69871069  0.60624148  1
  O2-  O215  1  0.67425330  0.70948920  0.93516775  1
  O2-  O216  1  0.08609998  0.45062950  0.06180461  1
  O2-  O217  1  0.07626611  0.44655204  0.39686987  1
  O2-  O218  1  0.08246332  0.44290259  0.72606569  1
  O2-  O219  1  0.08891852  0.96320756  0.06809066  1
  O2-  O220  1  0.09071646  0.96418178  0.39622455  1
  O2-  O221  1  0.08573201  0.95510298  0.72773770  1
  O2-  O222  1  0.58372546  0.44817662  0.05957097  1
  O2-  O223  1  0.58169957  0.45944229  0.39867030  1
  O2-  O224  1  0.57810116  0.45820295  0.73591440  1
  O2-  O225  1  0.58251514  0.96189855  0.07188163  1
  O2-  O226  1  0.58004337  0.95998744  0.40165500  1
  O2-  O227  1  0.58201495  0.96282837  0.73717957  1
  O2-  O228  1  0.20359078  0.33103314  0.06161036  1
  O2-  O229  1  0.20846675  0.32952437  0.40065067  1
  O2-  O230  1  0.21029667  0.33542505  0.72951884  1
  O2-  O231  1  0.20255362  0.83816273  0.06529443  1
  O2-  O232  1  0.20080314  0.83719642  0.39486066  1
  O2-  O233  1  0.20382104  0.83532918  0.72960522  1
  O2-  O234  1  0.70783133  0.33351666  0.06309880  1
  O2-  O235  1  0.71019517  0.33624228  0.39997455  1
  O2-  O236  1  0.69994132  0.32960690  0.73679691  1
  O2-  O237  1  0.71280876  0.83595374  0.07224305  1
  O2-  O238  1  0.70306639  0.82752602  0.40159888  1
  O2-  O239  1  0.70339960  0.82850985  0.73607195  1
  O2-  O240  1  0.45626923  0.41262653  0.27190147  1
  O2-  O241  1  0.45803951  0.42031832  0.59684251  1
  O2-  O242  1  0.45735783  0.41634767  0.93155094  1
  O2-  O243  1  0.45181781  0.92103790  0.27189204  1
  O2-  O244  1  0.45813468  0.92187393  0.60164788  1
  O2-  O245  1  0.45461667  0.92244605  0.93692878  1
  O2-  O246  1  0.95416336  0.40965218  0.26641688  1
  O2-  O247  1  0.95279800  0.41143584  0.60019693  1
  O2-  O248  1  0.96123803  0.41106626  0.93535809  1
  O2-  O249  1  0.96354560  0.91438352  0.26716885  1
  O2-  O250  1  0.95890963  0.91461622  0.59685146  1
  O2-  O251  1  0.96362030  0.91134213  0.93944229  1
  O2-  O252  1  0.33831497  0.28865237  0.26996977  1
  O2-  O253  1  0.33635897  0.28545158  0.59522835  1
  O2-  O254  1  0.33377808  0.28517623  0.93284704  1
  O2-  O255  1  0.33294880  0.80359307  0.27307585  1
  O2-  O256  1  0.33389643  0.79464959  0.59935044  1
  O2-  O257  1  0.32710246  0.79717876  0.93537517  1
  O2-  O258  1  0.83608507  0.28871052  0.26720502  1
  O2-  O259  1  0.82888239  0.29709763  0.60765908  1
  O2-  O260  1  0.83742562  0.29705415  0.93618657  1
  O2-  O261  1  0.83378544  0.80370979  0.27159518  1
  O2-  O262  1  0.82637285  0.79356351  0.59901666  1
  O2-  O263  1  0.83774636  0.79738408  0.94475089  1
  O2-  O264  1  0.41214964  0.04942822  0.06352167  1
  O2-  O265  1  0.41372348  0.05138642  0.39430721  1
  O2-  O266  1  0.41535838  0.04595971  0.73639277  1
  O2-  O267  1  0.41959466  0.53974127  0.06541148  1
  O2-  O268  1  0.41564274  0.54054505  0.40255573  1
  O2-  O269  1  0.41231068  0.53965578  0.73631521  1
  O2-  O270  1  0.91751862  0.04469499  0.06418260  1
  O2-  O271  1  0.92357337  0.04861880  0.39423147  1
  O2-  O272  1  0.92522131  0.04480999  0.73130236  1
  O2-  O273  1  0.91809433  0.53395063  0.07005941  1
  O2-  O274  1  0.91515507  0.54028926  0.39341696  1
  O2-  O275  1  0.92078341  0.53853458  0.73193649  1
  O2-  O276  1  0.28586318  0.16136779  0.06556462  1
  O2-  O277  1  0.28729859  0.16144086  0.39404924  1
  O2-  O278  1  0.28334671  0.16776132  0.73381105  1
  O2-  O279  1  0.28838550  0.66685313  0.06945837  1
  O2-  O280  1  0.29343971  0.67354748  0.39806965  1
  O2-  O281  1  0.28710624  0.67050156  0.73472013  1
  O2-  O282  1  0.80270198  0.16845602  0.05993124  1
  O2-  O283  1  0.79232119  0.16765379  0.40058295  1
  O2-  O284  1  0.79656997  0.16691734  0.73758154  1
  O2-  O285  1  0.79787211  0.66691920  0.07140069  1
  O2-  O286  1  0.80601283  0.66839158  0.38935450  1
  O2-  O287  1  0.79617840  0.66742317  0.73331728  1
