# generated using pymatgen
data_Ca2Al2SiO7
_symmetry_space_group_name_H-M   'P 1'
_cell_length_a   15.46790350
_cell_length_b   15.46790847
_cell_length_c   15.29232804
_cell_angle_alpha   90.01177930
_cell_angle_beta   90.00175804
_cell_angle_gamma   90.00047907
_symmetry_Int_Tables_number   1
_chemical_formula_structural   Ca2Al2SiO7
_chemical_formula_sum   'Ca48 Al48 Si24 O168'
_cell_volume   3658.78292446
_cell_formula_units_Z   24
loop_
 _symmetry_equiv_pos_site_id
 _symmetry_equiv_pos_as_xyz
  1  'x, y, z'
loop_
 _atom_type_symbol
 _atom_type_oxidation_number
  Ca2+  2.0
  Al0+  0.0
  Si0+  0.0
  O2-  -2.0
loop_
 _atom_site_type_symbol
 _atom_site_label
 _atom_site_symmetry_multiplicity
 _atom_site_fract_x
 _atom_site_fract_y
 _atom_site_fract_z
 _atom_site_occupancy
  Ca2+  Ca0  1  0.15269527  0.07021072  0.16669093  1
  Ca2+  Ca1  1  0.16238729  0.06885572  0.50466628  1
  Ca2+  Ca2  1  0.15293813  0.07149666  0.84046412  1
  Ca2+  Ca3  1  0.17549399  0.59656916  0.16772322  1
  Ca2+  Ca4  1  0.17003115  0.59875920  0.50006807  1
  Ca2+  Ca5  1  0.17092212  0.59330847  0.84024325  1
  Ca2+  Ca6  1  0.67282872  0.08902527  0.16400660  1
  Ca2+  Ca7  1  0.66973260  0.07393041  0.50811057  1
  Ca2+  Ca8  1  0.67122361  0.07747091  0.84085366  1
  Ca2+  Ca9  1  0.67199739  0.57538921  0.17019703  1
  Ca2+  Ca10  1  0.68340727  0.57736927  0.50445517  1
  Ca2+  Ca11  1  0.67587125  0.57706895  0.83865653  1
  Ca2+  Ca12  1  0.07534388  0.32499892  0.15350647  1
  Ca2+  Ca13  1  0.07496254  0.33543675  0.49984189  1
  Ca2+  Ca14  1  0.06862200  0.33316632  0.82976294  1
  Ca2+  Ca15  1  0.07845331  0.82780224  0.16142717  1
  Ca2+  Ca16  1  0.07641812  0.82782788  0.49527662  1
  Ca2+  Ca17  1  0.07714211  0.82941573  0.83084512  1
  Ca2+  Ca18  1  0.58169869  0.33693152  0.15358750  1
  Ca2+  Ca19  1  0.58942320  0.34055190  0.49883537  1
  Ca2+  Ca20  1  0.58586293  0.33533203  0.83573552  1
  Ca2+  Ca21  1  0.57738984  0.82215516  0.15753363  1
  Ca2+  Ca22  1  0.58446124  0.83370205  0.49730200  1
  Ca2+  Ca23  1  0.58782668  0.82610210  0.82970968  1
  Ca2+  Ca24  1  0.33632289  0.42556080  0.16692661  1
  Ca2+  Ca25  1  0.32930008  0.42396205  0.50034659  1
  Ca2+  Ca26  1  0.33032857  0.42057487  0.84329871  1
  Ca2+  Ca27  1  0.31649756  0.91380186  0.16993023  1
  Ca2+  Ca28  1  0.31748379  0.91198284  0.50524459  1
  Ca2+  Ca29  1  0.31831633  0.91549438  0.84035205  1
  Ca2+  Ca30  1  0.82408855  0.41763695  0.17177871  1
  Ca2+  Ca31  1  0.83167092  0.42806976  0.50858093  1
  Ca2+  Ca32  1  0.82841541  0.41329472  0.83820684  1
  Ca2+  Ca33  1  0.84542679  0.92024754  0.16540955  1
  Ca2+  Ca34  1  0.83497928  0.91327459  0.50731891  1
  Ca2+  Ca35  1  0.83811734  0.91767881  0.84018965  1
  Ca2+  Ca36  1  0.42636634  0.17610819  0.15477572  1
  Ca2+  Ca37  1  0.42029876  0.16811777  0.49608523  1
  Ca2+  Ca38  1  0.42038831  0.17063047  0.83454643  1
  Ca2+  Ca39  1  0.42035047  0.65769222  0.15809436  1
  Ca2+  Ca40  1  0.41859039  0.66479447  0.49533623  1
  Ca2+  Ca41  1  0.42355037  0.65886344  0.83735226  1
  Ca2+  Ca42  1  0.91769895  0.17158632  0.15381639  1
  Ca2+  Ca43  1  0.91175851  0.17435483  0.50181271  1
  Ca2+  Ca44  1  0.91083369  0.17465815  0.84026702  1
  Ca2+  Ca45  1  0.92091815  0.67557153  0.15992843  1
  Ca2+  Ca46  1  0.91891044  0.67322860  0.49265336  1
  Ca2+  Ca47  1  0.92541731  0.67338769  0.82178504  1
  Al0+  Al48  1  -0.00299016  0.00013109  0.00227190  1
  Al0+  Al49  1  -0.00133308  0.00051288  0.33810143  1
  Al0+  Al50  1  0.00026922  0.00055096  0.66752043  1
  Al0+  Al51  1  0.00091375  0.50120444  -0.00575962  1
  Al0+  Al52  1  0.00189990  0.49974521  0.33043648  1
  Al0+  Al53  1  0.00408294  0.49979467  0.66038966  1
  Al0+  Al54  1  0.49796647  -0.00045004  -0.00223093  1
  Al0+  Al55  1  0.50007827  0.00141441  0.33101106  1
  Al0+  Al56  1  0.50063671  0.00113781  0.66947742  1
  Al0+  Al57  1  0.49965956  0.50018943  -0.00171063  1
  Al0+  Al58  1  0.49789146  0.49913256  0.34189026  1
  Al0+  Al59  1  0.49989869  0.49919299  0.66708634  1
  Al0+  Al60  1  0.25051583  0.24775981  -0.00719036  1
  Al0+  Al61  1  0.25238948  0.25019764  0.33287608  1
  Al0+  Al62  1  0.25291368  0.25158542  0.66362480  1
  Al0+  Al63  1  0.25028748  0.75108229  0.00606294  1
  Al0+  Al64  1  0.24981460  0.75192955  0.33987164  1
  Al0+  Al65  1  0.25219906  0.75258353  0.66949240  1
  Al0+  Al66  1  0.74855153  0.24747461  0.00131757  1
  Al0+  Al67  1  0.74895527  0.24708101  0.33797310  1
  Al0+  Al68  1  0.74868444  0.24873415  0.66404638  1
  Al0+  Al69  1  0.74784244  0.74954218  -0.00609453  1
  Al0+  Al70  1  0.74848973  0.75054429  0.33060152  1
  Al0+  Al71  1  0.74979229  0.74822201  0.66914897  1
  Al0+  Al72  1  0.07339880  0.67847581  0.31615932  1
  Al0+  Al73  1  0.31831435  0.56807972  0.01258036  1
  Al0+  Al74  1  0.17952697  0.93079297  0.68324980  1
  Al0+  Al75  1  0.67850380  0.92823720  0.68011244  1
  Al0+  Al76  1  0.07048604  0.17721916  0.98672337  1
  Al0+  Al77  1  0.68215230  0.43072560  0.01249287  1
  Al0+  Al78  1  0.92881117  0.82048436  0.98443295  1
  Al0+  Al79  1  0.57020602  0.67819393  0.98668196  1
  Al0+  Al80  1  0.81689299  0.06748356  0.01412791  1
  Al0+  Al81  1  0.92804772  0.31992039  0.65149836  1
  Al0+  Al82  1  0.31858980  0.57009530  0.34803122  1
  Al0+  Al83  1  0.82552935  0.57045516  0.68250936  1
  Al0+  Al84  1  0.92682441  0.82201752  0.31682890  1
  Al0+  Al85  1  0.57175538  0.17739774  0.98383350  1
  Al0+  Al86  1  0.92777811  0.82111952  0.65092477  1
  Al0+  Al87  1  0.82362202  0.57272825  0.34572911  1
  Al0+  Al88  1  0.92742610  0.32276148  0.98764802  1
  Al0+  Al89  1  0.07357371  0.68013919  0.98514080  1
  Al0+  Al90  1  0.17848175  0.93136346  0.34954806  1
  Al0+  Al91  1  0.42932592  0.32234287  0.98431047  1
  Al0+  Al92  1  0.17884055  0.93163695  0.01526048  1
  Al0+  Al93  1  0.67972247  0.42782201  0.34840471  1
  Al0+  Al94  1  0.67977012  0.42875863  0.68422341  1
  Al0+  Al95  1  0.07474250  0.67978848  0.65015028  1
  Si0+  Si96  1  0.32444037  0.07385646  0.01763850  1
  Si0+  Si97  1  0.92744700  0.31986970  0.31962562  1
  Si0+  Si98  1  0.07460280  0.17909748  0.64873933  1
  Si0+  Si99  1  0.43034166  0.32145158  0.31886679  1
  Si0+  Si100  1  0.07092691  0.18001385  0.32139453  1
  Si0+  Si101  1  0.32424905  0.07271948  0.34967663  1
  Si0+  Si102  1  0.56802401  0.67831347  0.32032037  1
  Si0+  Si103  1  0.42889116  0.32238845  0.64744837  1
  Si0+  Si104  1  0.56917352  0.17845156  0.64939154  1
  Si0+  Si105  1  0.32249685  0.07438487  0.68378118  1
  Si0+  Si106  1  0.56994053  0.67726288  0.64996734  1
  Si0+  Si107  1  0.82147277  0.07192051  0.68375825  1
  Si0+  Si108  1  0.67573177  0.92969189  0.34572794  1
  Si0+  Si109  1  0.82463151  0.57476087  0.01523887  1
  Si0+  Si110  1  0.82016056  0.07010511  0.35055287  1
  Si0+  Si111  1  0.17543089  0.42456187  0.01399989  1
  Si0+  Si112  1  0.43159949  0.82220725  0.65210213  1
  Si0+  Si113  1  0.42897138  0.82241819  0.31993937  1
  Si0+  Si114  1  0.42702579  0.82157066  0.98429870  1
  Si0+  Si115  1  0.17840439  0.42290519  0.34892034  1
  Si0+  Si116  1  0.18082310  0.42650531  0.68070288  1
  Si0+  Si117  1  0.67426351  0.92443905  0.01777534  1
  Si0+  Si118  1  0.57141132  0.17791567  0.31865601  1
  Si0+  Si119  1  0.32037249  0.57109682  0.68216454  1
  O2-  O120  1  0.25265128  0.00872840  0.06213006  1
  O2-  O121  1  0.25470584  0.00626493  0.39516867  1
  O2-  O122  1  0.25088509  0.01006528  0.72845016  1
  O2-  O123  1  0.24245027  0.49440737  0.05958772  1
  O2-  O124  1  0.24012798  0.49847875  0.39349163  1
  O2-  O125  1  0.24642539  0.50281029  0.72212226  1
  O2-  O126  1  0.74294546  -0.00764915  0.06314344  1
  O2-  O127  1  0.75078867  -0.00415575  0.38928428  1
  O2-  O128  1  0.75820344  -0.00269429  0.72575425  1
  O2-  O129  1  0.75904100  0.50267847  0.05965469  1
  O2-  O130  1  0.75510658  0.49690282  0.39628012  1
  O2-  O131  1  0.75531870  0.49674006  0.73330173  1
  O2-  O132  1  0.00268129  0.25289882  0.27864341  1
  O2-  O133  1  0.00445403  0.24608756  0.60394061  1
  O2-  O134  1  0.00462227  0.25524877  0.93826997  1
  O2-  O135  1  -0.00271672  0.74755503  0.26860808  1
  O2-  O136  1  -0.00167208  0.74768042  0.60078849  1
  O2-  O137  1  -0.00315573  0.74556435  0.93425216  1
  O2-  O138  1  0.50397613  0.25271612  0.27821389  1
  O2-  O139  1  0.50079294  0.25172512  0.60579483  1
  O2-  O140  1  0.49987470  0.24919819  0.93343902  1
  O2-  O141  1  0.49678331  0.74903939  0.27742245  1
  O2-  O142  1  0.50248117  0.75221984  0.60736929  1
  O2-  O143  1  0.49926858  0.75708155  0.93984861  1
  O2-  O144  1  0.06667904  0.17807692  0.10134951  1
  O2-  O145  1  0.06973795  0.18081275  0.42664595  1
  O2-  O146  1  0.07778008  0.18186054  0.75354974  1
  O2-  O147  1  0.07560550  0.68375289  0.09852488  1
  O2-  O148  1  0.07523696  0.68450617  0.42948119  1
  O2-  O149  1  0.07861264  0.68389462  0.76314006  1
  O2-  O150  1  0.57035260  0.17926150  0.09823786  1
  O2-  O151  1  0.56870173  0.17326863  0.42378807  1
  O2-  O152  1  0.56670174  0.17612113  0.75356680  1
  O2-  O153  1  0.56759974  0.67814248  0.10057730  1
  O2-  O154  1  0.56669674  0.68145992  0.42565744  1
  O2-  O155  1  0.56571737  0.67588664  0.75473502  1
  O2-  O156  1  0.18453544  0.41244002  0.24448475  1
  O2-  O157  1  0.18574719  0.42040979  0.57561711  1
  O2-  O158  1  0.17801326  0.42435350  0.90832490  1
  O2-  O159  1  0.17936339  0.93354404  0.23680456  1
  O2-  O160  1  0.18254323  0.93176071  0.56988066  1
  O2-  O161  1  0.18121980  0.93189983  0.90233770  1
  O2-  O162  1  0.67821365  0.42744440  0.23492492  1
  O2-  O163  1  0.67950495  0.43246486  0.57036690  1
  O2-  O164  1  0.68218882  0.43194190  0.89989108  1
  O2-  O165  1  0.66885754  0.93355076  0.24159656  1
  O2-  O166  1  0.67389909  0.93319798  0.56618180  1
  O2-  O167  1  0.67390580  0.92630858  0.91229136  1
  O2-  O168  1  0.43220247  0.32305902  0.09864926  1
  O2-  O169  1  0.42834678  0.31938261  0.42419668  1
  O2-  O170  1  0.42571005  0.32272084  0.75163161  1
  O2-  O171  1  0.42754415  0.82012070  0.09046770  1
  O2-  O172  1  0.43236218  0.82423950  0.42535800  1
  O2-  O173  1  0.43173759  0.82151675  0.75677705  1
  O2-  O174  1  0.92691648  0.31952156  0.10202711  1
  O2-  O175  1  0.92692979  0.31646371  0.42486738  1
  O2-  O176  1  0.92760388  0.31680539  0.76383871  1
  O2-  O177  1  0.93097685  0.82098512  0.09813548  1
  O2-  O178  1  0.92632153  0.82463871  0.43014580  1
  O2-  O179  1  0.92991342  0.82289177  0.76378180  1
  O2-  O180  1  0.32747775  0.07218967  0.24484940  1
  O2-  O181  1  0.32387324  0.07300334  0.57765924  1
  O2-  O182  1  0.32819027  0.07004479  0.91222204  1
  O2-  O183  1  0.32409177  0.56700709  0.23561910  1
  O2-  O184  1  0.32242795  0.56997553  0.57678584  1
  O2-  O185  1  0.31891758  0.56800096  0.89922592  1
  O2-  O186  1  0.81977919  0.07492910  0.24603860  1
  O2-  O187  1  0.81761368  0.07394110  0.57729849  1
  O2-  O188  1  0.81606653  0.06733708  0.90126800  1
  O2-  O189  1  0.81874864  0.57245384  0.23222405  1
  O2-  O190  1  0.82219820  0.57087630  0.56852734  1
  O2-  O191  1  0.82187369  0.57544775  0.91006493  1
  O2-  O192  1  0.03924837  0.08929688  0.27534079  1
  O2-  O193  1  0.04769439  0.08554268  0.60338289  1
  O2-  O194  1  0.03272680  0.08335662  0.93271621  1
  O2-  O195  1  0.05713627  0.57535912  0.26720451  1
  O2-  O196  1  0.05855502  0.57787912  0.59904188  1
  O2-  O197  1  0.05633275  0.57861912  0.93463590  1
  O2-  O198  1  0.54077422  0.08843560  0.26839450  1
  O2-  O199  1  0.53739394  0.08780461  0.59998485  1
  O2-  O200  1  0.54340731  0.07836928  0.93152921  1
  O2-  O201  1  0.53722501  0.58607864  0.27611790  1
  O2-  O202  1  0.53580165  0.58783376  0.60127295  1
  O2-  O203  1  0.53338071  0.58593199  0.93007554  1
  O2-  O204  1  0.16485258  0.20288962  0.27572254  1
  O2-  O205  1  0.16804513  0.20562477  0.60112530  1
  O2-  O206  1  0.17144981  0.19248459  0.93497003  1
  O2-  O207  1  0.17280556  0.71259206  0.26732577  1
  O2-  O208  1  0.17348426  0.71411516  0.59884911  1
  O2-  O209  1  0.17153047  0.71380107  0.93420503  1
  O2-  O210  1  0.66514393  0.20141242  0.27349719  1
  O2-  O211  1  0.66109258  0.20296617  0.60055983  1
  O2-  O212  1  0.66904781  0.20504986  0.93092060  1
  O2-  O213  1  0.65840862  0.70598819  0.27131027  1
  O2-  O214  1  0.66223907  0.70288151  0.60349096  1
  O2-  O215  1  0.66503296  0.70634910  0.92905040  1
  O2-  O216  1  0.08063912  0.44632918  0.05942183  1
  O2-  O217  1  0.08195871  0.44120031  0.39114667  1
  O2-  O218  1  0.08687741  0.44735399  0.72469778  1
  O2-  O219  1  0.08318857  0.96394553  0.06951696  1
  O2-  O220  1  0.08354101  0.96543299  0.40494210  1
  O2-  O221  1  0.08219947  0.96073316  0.73534455  1
  O2-  O222  1  0.58559534  0.46430565  0.06514705  1
  O2-  O223  1  0.58227678  0.45710474  0.40281134  1
  O2-  O224  1  0.58001003  0.45847310  0.73349782  1
  O2-  O225  1  0.57937820  0.94929468  0.06245735  1
  O2-  O226  1  0.58620731  0.96231458  0.39674707  1
  O2-  O227  1  0.58390165  0.96379533  0.73523727  1
  O2-  O228  1  0.20158953  0.32996642  0.05875025  1
  O2-  O229  1  0.21186530  0.33344179  0.40096462  1
  O2-  O230  1  0.21479825  0.33727094  0.72949018  1
  O2-  O231  1  0.21482956  0.83788148  0.07143858  1
  O2-  O232  1  0.21315549  0.83748380  0.40559544  1
  O2-  O233  1  0.21842324  0.83712740  0.73685416  1
  O2-  O234  1  0.70812138  0.33283618  0.06636105  1
  O2-  O235  1  0.70346730  0.32742867  0.40083191  1
  O2-  O236  1  0.70281719  0.32677861  0.73097461  1
  O2-  O237  1  0.69737651  0.82956691  0.06233792  1
  O2-  O238  1  0.69749739  0.83614248  0.39175045  1
  O2-  O239  1  0.69938114  0.82910500  0.73134505  1
  O2-  O240  1  0.45666652  0.41445583  0.27390548  1
  O2-  O241  1  0.45718589  0.41426392  0.59955636  1
  O2-  O242  1  0.45920418  0.41867665  0.92946503  1
  O2-  O243  1  0.45862356  0.91295585  0.27102020  1
  O2-  O244  1  0.45816568  0.91461606  0.60440962  1
  O2-  O245  1  0.44626592  0.91620590  0.93849196  1
  O2-  O246  1  0.94894875  0.41280396  0.27305026  1
  O2-  O247  1  0.96181265  0.41451333  0.59512081  1
  O2-  O248  1  0.95037333  0.42097770  0.93267718  1
  O2-  O249  1  0.95811824  0.92226197  0.26809098  1
  O2-  O250  1  0.95552499  0.92174407  0.59998857  1
  O2-  O251  1  0.95964292  0.91827132  0.93357032  1
  O2-  O252  1  0.33965260  0.29201477  0.27025571  1
  O2-  O253  1  0.33859961  0.29298743  0.59663626  1
  O2-  O254  1  0.33122409  0.29568345  0.92952467  1
  O2-  O255  1  0.33618853  0.79720510  0.27533462  1
  O2-  O256  1  0.34099954  0.79174327  0.60382995  1
  O2-  O257  1  0.33587233  0.79070139  0.93786939  1
  O2-  O258  1  0.83646351  0.28585915  0.27427518  1
  O2-  O259  1  0.83262867  0.28562465  0.59571292  1
  O2-  O260  1  0.83260146  0.28551249  0.93462091  1
  O2-  O261  1  0.82600032  0.79959054  0.26475952  1
  O2-  O262  1  0.82675100  0.79552449  0.60016069  1
  O2-  O263  1  0.82755540  0.80084044  0.93461113  1
  O2-  O264  1  0.41706173  0.04591075  0.06580872  1
  O2-  O265  1  0.41743763  0.04538491  0.39732001  1
  O2-  O266  1  0.41476087  0.04601823  0.73006109  1
  O2-  O267  1  0.41424748  0.53542478  0.06710221  1
  O2-  O268  1  0.41200032  0.53570796  0.40719215  1
  O2-  O269  1  0.41093668  0.53899511  0.72869538  1
  O2-  O270  1  0.91261481  0.03835672  0.07117359  1
  O2-  O271  1  0.91137146  0.04589188  0.40038430  1
  O2-  O272  1  0.91747428  0.05463924  0.72647305  1
  O2-  O273  1  0.92028461  0.55368187  0.05867577  1
  O2-  O274  1  0.92399364  0.54797388  0.39655683  1
  O2-  O275  1  0.92711900  0.54574954  0.72937961  1
  O2-  O276  1  0.30391415  0.16994701  0.06073558  1
  O2-  O277  1  0.30065224  0.16708114  0.39604409  1
  O2-  O278  1  0.30232811  0.17047879  0.72644696  1
  O2-  O279  1  0.29209133  0.66508158  0.06874857  1
  O2-  O280  1  0.29435376  0.66782776  0.40368282  1
  O2-  O281  1  0.29762901  0.66389459  0.72907683  1
  O2-  O282  1  0.78505274  0.16280580  0.07125353  1
  O2-  O283  1  0.78810207  0.15901333  0.40199164  1
  O2-  O284  1  0.78808639  0.16258948  0.72951783  1
  O2-  O285  1  0.79278797  0.66697359  0.06099386  1
  O2-  O286  1  0.78857016  0.66994904  0.39883658  1
  O2-  O287  1  0.79314997  0.66741981  0.73490962  1
