# generated using pymatgen
data_Ca2Al2SiO7
_symmetry_space_group_name_H-M   'P 1'
_cell_length_a   15.46064798
_cell_length_b   15.46164105
_cell_length_c   15.28603514
_cell_angle_alpha   89.99891269
_cell_angle_beta   90.01243228
_cell_angle_gamma   89.99295594
_symmetry_Int_Tables_number   1
_chemical_formula_structural   Ca2Al2SiO7
_chemical_formula_sum   'Ca48 Al48 Si24 O168'
_cell_volume   3654.08056834
_cell_formula_units_Z   24
loop_
 _symmetry_equiv_pos_site_id
 _symmetry_equiv_pos_as_xyz
  1  'x, y, z'
loop_
 _atom_type_symbol
 _atom_type_oxidation_number
  Ca2+  2.0
  Al0+  0.0
  Si0+  0.0
  O2-  -2.0
loop_
 _atom_site_type_symbol
 _atom_site_label
 _atom_site_symmetry_multiplicity
 _atom_site_fract_x
 _atom_site_fract_y
 _atom_site_fract_z
 _atom_site_occupancy
  Ca2+  Ca0  1  0.16556633  0.08474957  0.17419233  1
  Ca2+  Ca1  1  0.16441358  0.08770948  0.50754385  1
  Ca2+  Ca2  1  0.16379643  0.08269885  0.83311724  1
  Ca2+  Ca3  1  0.17213313  0.57465620  0.17206921  1
  Ca2+  Ca4  1  0.16231539  0.57449690  0.50281436  1
  Ca2+  Ca5  1  0.16581980  0.57805722  0.84097709  1
  Ca2+  Ca6  1  0.66683341  0.07738504  0.17142345  1
  Ca2+  Ca7  1  0.67978743  0.08571934  0.50623597  1
  Ca2+  Ca8  1  0.66671770  0.08308958  0.83738314  1
  Ca2+  Ca9  1  0.67696494  0.57692536  0.17995129  1
  Ca2+  Ca10  1  0.66901616  0.57136208  0.50031864  1
  Ca2+  Ca11  1  0.66679951  0.57740945  0.83400471  1
  Ca2+  Ca12  1  0.08120617  0.33618614  0.16330532  1
  Ca2+  Ca13  1  0.09228399  0.32561740  0.49416172  1
  Ca2+  Ca14  1  0.07937761  0.33690332  0.82919003  1
  Ca2+  Ca15  1  0.08099005  0.81814754  0.16362118  1
  Ca2+  Ca16  1  0.07657154  0.82069973  0.49736147  1
  Ca2+  Ca17  1  0.08151257  0.81969719  0.82372252  1
  Ca2+  Ca18  1  0.57319543  0.33757041  0.16020359  1
  Ca2+  Ca19  1  0.58463725  0.33497714  0.49419053  1
  Ca2+  Ca20  1  0.58059326  0.32623389  0.82696614  1
  Ca2+  Ca21  1  0.58825886  0.83619719  0.16313878  1
  Ca2+  Ca22  1  0.57788802  0.83838166  0.49651079  1
  Ca2+  Ca23  1  0.57863834  0.83563720  0.82893499  1
  Ca2+  Ca24  1  0.32995321  0.42185113  0.17410000  1
  Ca2+  Ca25  1  0.32540294  0.41696962  0.50011531  1
  Ca2+  Ca26  1  0.32012397  0.41871409  0.84251651  1
  Ca2+  Ca27  1  0.33036397  0.92119316  0.16987864  1
  Ca2+  Ca28  1  0.33269488  0.91744754  0.50530540  1
  Ca2+  Ca29  1  0.33635796  0.91680556  0.83532323  1
  Ca2+  Ca30  1  0.82946118  0.41662898  0.17289190  1
  Ca2+  Ca31  1  0.82545115  0.41731323  0.50130806  1
  Ca2+  Ca32  1  0.82942811  0.40968936  0.83494821  1
  Ca2+  Ca33  1  0.82225782  0.92327281  0.17673890  1
  Ca2+  Ca34  1  0.83804303  0.92646398  0.50449547  1
  Ca2+  Ca35  1  0.83563961  0.92283196  0.83608005  1
  Ca2+  Ca36  1  0.42204120  0.18415937  0.16081436  1
  Ca2+  Ca37  1  0.42585775  0.17556048  0.49408278  1
  Ca2+  Ca38  1  0.42857687  0.17069172  0.83140027  1
  Ca2+  Ca39  1  0.41360886  0.66143912  0.16418502  1
  Ca2+  Ca40  1  0.41351866  0.66874503  0.49610735  1
  Ca2+  Ca41  1  0.41331973  0.67044386  0.82982290  1
  Ca2+  Ca42  1  0.91726036  0.17136203  0.16665921  1
  Ca2+  Ca43  1  0.92414284  0.16093785  0.49645345  1
  Ca2+  Ca44  1  0.91934516  0.17145103  0.82729443  1
  Ca2+  Ca45  1  0.93077243  0.65051781  0.16509368  1
  Ca2+  Ca46  1  0.92420205  0.66207709  0.49506643  1
  Ca2+  Ca47  1  0.92818944  0.67165395  0.82564558  1
  Al0+  Al48  1  -0.00101704  -0.00003813  0.00337844  1
  Al0+  Al49  1  0.00024135  -0.00234454  0.33010452  1
  Al0+  Al50  1  0.00064809  -0.00005350  0.66692078  1
  Al0+  Al51  1  0.00013228  0.49831555  -0.00693826  1
  Al0+  Al52  1  0.00091713  0.49720646  0.33644070  1
  Al0+  Al53  1  -0.00151517  0.49936480  0.66694137  1
  Al0+  Al54  1  0.50008780  -0.00019807  0.00185918  1
  Al0+  Al55  1  0.49815403  0.00063380  0.33468757  1
  Al0+  Al56  1  0.50072200  0.00196563  0.65813622  1
  Al0+  Al57  1  0.49858693  0.50158450  -0.00377315  1
  Al0+  Al58  1  0.49861402  0.50299945  0.33643872  1
  Al0+  Al59  1  0.49893439  0.50106341  0.67213403  1
  Al0+  Al60  1  0.24976415  0.24853913  -0.00049960  1
  Al0+  Al61  1  0.25259666  0.24955824  0.32725915  1
  Al0+  Al62  1  0.25129745  0.25115238  0.67030345  1
  Al0+  Al63  1  0.25027931  0.75009387  -0.00035851  1
  Al0+  Al64  1  0.24948582  0.75117906  0.33078885  1
  Al0+  Al65  1  0.24999847  0.75066368  0.65825303  1
  Al0+  Al66  1  0.75181520  0.24873171  -0.00555678  1
  Al0+  Al67  1  0.75132346  0.24639261  0.33919037  1
  Al0+  Al68  1  0.75045267  0.24859129  0.67188368  1
  Al0+  Al69  1  0.74999011  0.75108880  0.00301558  1
  Al0+  Al70  1  0.74819761  0.75110819  0.34163274  1
  Al0+  Al71  1  0.74810010  0.75083154  0.66342214  1
  Al0+  Al72  1  0.43176007  0.32325430  0.32055803  1
  Al0+  Al73  1  0.07103054  0.68034081  0.98609719  1
  Al0+  Al74  1  0.07146193  0.18192135  0.65529774  1
  Al0+  Al75  1  0.93033804  0.31995662  0.98639886  1
  Al0+  Al76  1  0.82283313  0.06871197  0.68386931  1
  Al0+  Al77  1  0.82373839  0.57047540  0.34788636  1
  Al0+  Al78  1  0.67904628  0.42934734  0.68270891  1
  Al0+  Al79  1  0.06995055  0.67692470  0.31787233  1
  Al0+  Al80  1  0.57225360  0.18107053  0.65097014  1
  Al0+  Al81  1  0.43052701  0.82067484  0.65280508  1
  Al0+  Al82  1  0.42722869  0.32457535  0.98254948  1
  Al0+  Al83  1  0.18054150  0.42680293  0.34814410  1
  Al0+  Al84  1  0.57016842  0.17877096  0.98609949  1
  Al0+  Al85  1  0.06996455  0.67664196  0.64946703  1
  Al0+  Al86  1  0.07143818  0.17772108  0.31957532  1
  Al0+  Al87  1  0.67920368  0.92969376  0.01260702  1
  Al0+  Al88  1  0.32109540  0.57238148  0.01453417  1
  Al0+  Al89  1  0.17883980  0.42843256  0.68174799  1
  Al0+  Al90  1  0.82289433  0.06931370  0.34927818  1
  Al0+  Al91  1  0.32042090  0.57367667  0.35002640  1
  Al0+  Al92  1  0.67605492  0.92935761  0.35135997  1
  Al0+  Al93  1  0.92735467  0.82224550  0.65216110  1
  Al0+  Al94  1  0.67753402  0.42778717  0.34517668  1
  Al0+  Al95  1  0.17685710  0.42753603  0.01589911  1
  Si0+  Si96  1  0.57332631  0.17779441  0.31721801  1
  Si0+  Si97  1  0.17957370  0.92903776  0.34812586  1
  Si0+  Si98  1  0.81962863  0.57100841  0.01192173  1
  Si0+  Si99  1  0.67559338  0.92910318  0.68334103  1
  Si0+  Si100  1  0.42859619  0.32296724  0.65053083  1
  Si0+  Si101  1  0.57051030  0.68119517  0.31868213  1
  Si0+  Si102  1  0.57165328  0.67547860  0.64887405  1
  Si0+  Si103  1  0.92637431  0.82049999  0.31551080  1
  Si0+  Si104  1  0.32125017  0.06953781  0.01498571  1
  Si0+  Si105  1  0.82129337  0.57381243  0.68482970  1
  Si0+  Si106  1  0.43005654  0.82084299  0.98714608  1
  Si0+  Si107  1  0.31998736  0.57444874  0.68358355  1
  Si0+  Si108  1  0.17815133  0.92875276  0.01454258  1
  Si0+  Si109  1  0.82292307  0.07333408  0.01821141  1
  Si0+  Si110  1  0.92678072  0.32033799  0.31872725  1
  Si0+  Si111  1  0.07252864  0.17442134  0.98373520  1
  Si0+  Si112  1  0.18102804  0.92911496  0.68064876  1
  Si0+  Si113  1  0.42852153  0.82320875  0.31537577  1
  Si0+  Si114  1  0.32307636  0.07098492  0.68150568  1
  Si0+  Si115  1  0.67926491  0.42809832  0.01223097  1
  Si0+  Si116  1  0.57413443  0.67914124  0.98626359  1
  Si0+  Si117  1  0.31934812  0.07118412  0.34819628  1
  Si0+  Si118  1  0.92695512  0.32151015  0.64880537  1
  Si0+  Si119  1  0.92694974  0.82294333  0.98546815  1
  O2-  O120  1  0.24529370  0.00325639  0.05741706  1
  O2-  O121  1  0.24705624  0.00250853  0.39196431  1
  O2-  O122  1  0.25227646  -0.00049281  0.72437387  1
  O2-  O123  1  0.25264069  0.49697464  0.06404745  1
  O2-  O124  1  0.24811173  0.50245058  0.39945353  1
  O2-  O125  1  0.25095268  0.50665272  0.72737896  1
  O2-  O126  1  0.75358754  0.00401330  0.05973267  1
  O2-  O127  1  0.74950493  -0.00064744  0.40056981  1
  O2-  O128  1  0.74764186  -0.00707644  0.72909925  1
  O2-  O129  1  0.74822095  0.50060573  0.05480350  1
  O2-  O130  1  0.75155408  0.49756568  0.39570699  1
  O2-  O131  1  0.75334617  0.50468214  0.73019627  1
  O2-  O132  1  -0.00326973  0.25260238  0.27428593  1
  O2-  O133  1  -0.00058407  0.25674468  0.60529903  1
  O2-  O134  1  0.00673175  0.24576609  0.94097475  1
  O2-  O135  1  -0.01026530  0.74693578  0.27062380  1
  O2-  O136  1  -0.00626641  0.74565101  0.60142250  1
  O2-  O137  1  -0.00303005  0.75655462  0.94072040  1
  O2-  O138  1  0.51096356  0.25233173  0.27385925  1
  O2-  O139  1  0.50104529  0.25920337  0.60487699  1
  O2-  O140  1  0.50170929  0.25361660  0.93461729  1
  O2-  O141  1  0.50082429  0.75326127  0.27417059  1
  O2-  O142  1  0.50453215  0.74618837  0.60530283  1
  O2-  O143  1  0.50027246  0.74879381  0.94568190  1
  O2-  O144  1  0.07014021  0.17008018  0.08911664  1
  O2-  O145  1  0.07254926  0.17760593  0.43263116  1
  O2-  O146  1  0.07073846  0.18077537  0.76847057  1
  O2-  O147  1  0.07016030  0.68082879  0.09922591  1
  O2-  O148  1  0.07092361  0.68063768  0.43039894  1
  O2-  O149  1  0.07199004  0.68030267  0.76350091  1
  O2-  O150  1  0.56767578  0.17872571  0.09975641  1
  O2-  O151  1  0.56959186  0.17615153  0.42271740  1
  O2-  O152  1  0.56835728  0.17859264  0.76408601  1
  O2-  O153  1  0.57742829  0.67993762  0.09110821  1
  O2-  O154  1  0.56766015  0.68140274  0.42357534  1
  O2-  O155  1  0.57100009  0.67585264  0.75506192  1
  O2-  O156  1  0.18109764  0.42680678  0.23477914  1
  O2-  O157  1  0.18306419  0.42465173  0.56916042  1
  O2-  O158  1  0.17635235  0.43109521  0.90202181  1
  O2-  O159  1  0.18297315  0.92931701  0.24245115  1
  O2-  O160  1  0.18287229  0.93049209  0.57552607  1
  O2-  O161  1  0.17974529  0.92827625  0.90929032  1
  O2-  O162  1  0.67796193  0.43085969  0.23076395  1
  O2-  O163  1  0.67928715  0.43105796  0.56988810  1
  O2-  O164  1  0.68111552  0.43002692  0.90710816  1
  O2-  O165  1  0.67571108  0.93166528  0.23708377  1
  O2-  O166  1  0.67297709  0.93338169  0.57837523  1
  O2-  O167  1  0.67834745  0.92888609  0.89974421  1
  O2-  O168  1  0.42993003  0.32411059  0.09639969  1
  O2-  O169  1  0.43079640  0.31864557  0.43374018  1
  O2-  O170  1  0.42869819  0.31930543  0.75599124  1
  O2-  O171  1  0.42970452  0.82325853  0.09204029  1
  O2-  O172  1  0.42796554  0.82484402  0.42027173  1
  O2-  O173  1  0.43097150  0.82127348  0.76662564  1
  O2-  O174  1  0.92680683  0.31907222  0.09950088  1
  O2-  O175  1  0.92517060  0.31975558  0.42396637  1
  O2-  O176  1  0.92776312  0.31926086  0.75485670  1
  O2-  O177  1  0.92780013  0.82335007  0.09077144  1
  O2-  O178  1  0.93195974  0.82321791  0.42070851  1
  O2-  O179  1  0.93183712  0.82142810  0.76658971  1
  O2-  O180  1  0.31977188  0.06734068  0.24281531  1
  O2-  O181  1  0.32164842  0.07036746  0.57625795  1
  O2-  O182  1  0.32310497  0.06520097  0.90971750  1
  O2-  O183  1  0.32033485  0.57346942  0.23652865  1
  O2-  O184  1  0.32116598  0.57441556  0.57835591  1
  O2-  O185  1  0.31831685  0.57734658  0.90096098  1
  O2-  O186  1  0.82223515  0.06870270  0.23526891  1
  O2-  O187  1  0.82437536  0.06801854  0.57130818  1
  O2-  O188  1  0.82635257  0.07123023  0.91279314  1
  O2-  O189  1  0.82185380  0.56841755  0.23314513  1
  O2-  O190  1  0.82015578  0.57237593  0.57958633  1
  O2-  O191  1  0.81632317  0.57373702  0.90698291  1
  O2-  O192  1  0.04251824  0.08042430  0.26429680  1
  O2-  O193  1  0.04288715  0.08421249  0.60296362  1
  O2-  O194  1  0.04464472  0.08089925  0.93676768  1
  O2-  O195  1  0.04129098  0.57859759  0.26546126  1
  O2-  O196  1  0.04234828  0.57751379  0.59827848  1
  O2-  O197  1  0.03828978  0.58578894  0.93089385  1
  O2-  O198  1  0.53918090  0.08641865  0.27065447  1
  O2-  O199  1  0.53790932  0.08742945  0.59450510  1
  O2-  O200  1  0.53599470  0.08134717  0.93285298  1
  O2-  O201  1  0.54216129  0.59027536  0.26997545  1
  O2-  O202  1  0.54251561  0.58279028  0.60309543  1
  O2-  O203  1  0.54799951  0.58846423  0.93600108  1
  O2-  O204  1  0.16815328  0.20564834  0.26412810  1
  O2-  O205  1  0.17024073  0.20882888  0.60277172  1
  O2-  O206  1  0.16822091  0.19289407  0.93968098  1
  O2-  O207  1  0.16448034  0.71593227  0.26404116  1
  O2-  O208  1  0.16617792  0.70971860  0.59577031  1
  O2-  O209  1  0.16665996  0.71471118  0.93205659  1
  O2-  O210  1  0.66993490  0.19469724  0.27475886  1
  O2-  O211  1  0.67042897  0.20968805  0.60036214  1
  O2-  O212  1  0.66948965  0.20185518  0.93360496  1
  O2-  O213  1  0.66367616  0.70737328  0.27204880  1
  O2-  O214  1  0.66575811  0.69752354  0.60325784  1
  O2-  O215  1  0.66412896  0.70985305  0.93628587  1
  O2-  O216  1  0.07779939  0.45894387  0.06616223  1
  O2-  O217  1  0.08094668  0.44903214  0.40022384  1
  O2-  O218  1  0.07955428  0.45525084  0.73275319  1
  O2-  O219  1  0.08565717  0.95263869  0.06294143  1
  O2-  O220  1  0.08673314  0.95282341  0.39337341  1
  O2-  O221  1  0.09094575  0.95758575  0.73018653  1
  O2-  O222  1  0.58624076  0.45505212  0.05656882  1
  O2-  O223  1  0.58235669  0.46124193  0.40058199  1
  O2-  O224  1  0.58243744  0.46090992  0.73786806  1
  O2-  O225  1  0.58239373  0.95896783  0.06806459  1
  O2-  O226  1  0.57614873  0.95710867  0.40173840  1
  O2-  O227  1  0.58240104  0.95956208  0.72893058  1
  O2-  O228  1  0.19842349  0.32517047  0.06391624  1
  O2-  O229  1  0.21474728  0.32871057  0.39906395  1
  O2-  O230  1  0.21241579  0.33320420  0.73813621  1
  O2-  O231  1  0.21116790  0.83971470  0.06375201  1
  O2-  O232  1  0.21191580  0.83966400  0.39630248  1
  O2-  O233  1  0.21097108  0.83731111  0.72728587  1
  O2-  O234  1  0.70841463  0.33628539  0.05805804  1
  O2-  O235  1  0.70226504  0.32896982  0.39806862  1
  O2-  O236  1  0.71087613  0.33377231  0.73777912  1
  O2-  O237  1  0.70879878  0.83313484  0.06888099  1
  O2-  O238  1  0.69758800  0.82995602  0.40398238  1
  O2-  O239  1  0.69347135  0.83186616  0.72572831  1
  O2-  O240  1  0.45900033  0.42127158  0.26732244  1
  O2-  O241  1  0.44957627  0.41926256  0.60881649  1
  O2-  O242  1  0.45290257  0.42334983  0.92890849  1
  O2-  O243  1  0.45501086  0.91578167  0.26740618  1
  O2-  O244  1  0.45955565  0.91629589  0.59586038  1
  O2-  O245  1  0.45924375  0.91132209  0.93789207  1
  O2-  O246  1  0.95109522  0.41387179  0.27199935  1
  O2-  O247  1  0.94595875  0.41723385  0.60590015  1
  O2-  O248  1  0.95776553  0.41507087  0.92760975  1
  O2-  O249  1  0.95801080  0.91099778  0.26598302  1
  O2-  O250  1  0.96363405  0.91746395  0.59862655  1
  O2-  O251  1  0.95131904  0.91773349  0.94072188  1
  O2-  O252  1  0.33922884  0.28576193  0.26289861  1
  O2-  O253  1  0.33721234  0.29104474  0.60458919  1
  O2-  O254  1  0.32927645  0.29129436  0.93145199  1
  O2-  O255  1  0.33703632  0.79625379  0.26673965  1
  O2-  O256  1  0.33479656  0.79313352  0.59567912  1
  O2-  O257  1  0.33837135  0.79537261  0.93811889  1
  O2-  O258  1  0.83352243  0.29248220  0.27129113  1
  O2-  O259  1  0.83432976  0.29206424  0.60459057  1
  O2-  O260  1  0.83550229  0.28831821  0.92878079  1
  O2-  O261  1  0.82878600  0.80184198  0.27522543  1
  O2-  O262  1  0.82580476  0.80338321  0.60208014  1
  O2-  O263  1  0.83381976  0.79606151  0.93886801  1
  O2-  O264  1  0.40926125  0.03513583  0.06527464  1
  O2-  O265  1  0.40974670  0.04096825  0.39680442  1
  O2-  O266  1  0.41425616  0.03950728  0.72812263  1
  O2-  O267  1  0.42293853  0.54975239  0.06450553  1
  O2-  O268  1  0.41860815  0.54728897  0.40340578  1
  O2-  O269  1  0.41409805  0.55154860  0.73053377  1
  O2-  O270  1  0.91618538  0.04754465  0.06582594  1
  O2-  O271  1  0.92161130  0.03750591  0.40042762  1
  O2-  O272  1  0.91924000  0.03681465  0.73902769  1
  O2-  O273  1  0.91109481  0.53994451  0.05685968  1
  O2-  O274  1  0.92029064  0.54189247  0.40243299  1
  O2-  O275  1  0.91500444  0.54879993  0.73082443  1
  O2-  O276  1  0.29770588  0.16217105  0.06214997  1
  O2-  O277  1  0.29404318  0.16292381  0.39501643  1
  O2-  O278  1  0.29537778  0.16124745  0.73114800  1
  O2-  O279  1  0.29306976  0.67151500  0.06777143  1
  O2-  O280  1  0.29484162  0.67453087  0.39951789  1
  O2-  O281  1  0.29529795  0.66995628  0.72712303  1
  O2-  O282  1  0.79620835  0.16685397  0.06328365  1
  O2-  O283  1  0.79864555  0.16737083  0.40425127  1
  O2-  O284  1  0.79165184  0.16479908  0.73805889  1
  O2-  O285  1  0.79361875  0.66215490  0.06154731  1
  O2-  O286  1  0.79540322  0.66813767  0.40101649  1
  O2-  O287  1  0.79448933  0.66797624  0.73036531  1
