# generated using pymatgen
data_Ca2Al2SiO7
_symmetry_space_group_name_H-M   'P 1'
_cell_length_a   15.47368205
_cell_length_b   15.47156524
_cell_length_c   15.29391424
_cell_angle_alpha   89.98856670
_cell_angle_beta   90.01195817
_cell_angle_gamma   89.97692233
_symmetry_Int_Tables_number   1
_chemical_formula_structural   Ca2Al2SiO7
_chemical_formula_sum   'Ca48 Al48 Si24 O168'
_cell_volume   3661.39445037
_cell_formula_units_Z   24
loop_
 _symmetry_equiv_pos_site_id
 _symmetry_equiv_pos_as_xyz
  1  'x, y, z'
loop_
 _atom_type_symbol
 _atom_type_oxidation_number
  Ca2+  2.0
  Al0+  0.0
  Si0+  0.0
  O2-  -2.0
loop_
 _atom_site_type_symbol
 _atom_site_label
 _atom_site_symmetry_multiplicity
 _atom_site_fract_x
 _atom_site_fract_y
 _atom_site_fract_z
 _atom_site_occupancy
  Ca2+  Ca0  1  0.15946431  0.07327198  0.17457886  1
  Ca2+  Ca1  1  0.15908318  0.08078232  0.49850163  1
  Ca2+  Ca2  1  0.15709658  0.07833800  0.84100402  1
  Ca2+  Ca3  1  0.16462670  0.58605546  0.17301907  1
  Ca2+  Ca4  1  0.16252416  0.58138931  0.50690266  1
  Ca2+  Ca5  1  0.15572246  0.57723244  0.83328783  1
  Ca2+  Ca6  1  0.67849916  0.08217067  0.17875061  1
  Ca2+  Ca7  1  0.66599950  0.08446869  0.49974032  1
  Ca2+  Ca8  1  0.67403837  0.08642940  0.83749624  1
  Ca2+  Ca9  1  0.67069572  0.57912554  0.18176163  1
  Ca2+  Ca10  1  0.67557277  0.58317963  0.49808918  1
  Ca2+  Ca11  1  0.67738937  0.58261436  0.83476228  1
  Ca2+  Ca12  1  0.08124565  0.31749128  0.16387522  1
  Ca2+  Ca13  1  0.08215452  0.32743733  0.49934234  1
  Ca2+  Ca14  1  0.08072708  0.32167454  0.82308651  1
  Ca2+  Ca15  1  0.08344783  0.82880440  0.16662788  1
  Ca2+  Ca16  1  0.07350970  0.82413810  0.49116858  1
  Ca2+  Ca17  1  0.07977739  0.82621178  0.82846477  1
  Ca2+  Ca18  1  0.57857302  0.33576082  0.16862799  1
  Ca2+  Ca19  1  0.58183197  0.32693172  0.48935545  1
  Ca2+  Ca20  1  0.57759589  0.32789800  0.82882820  1
  Ca2+  Ca21  1  0.58760346  0.83401412  0.17362090  1
  Ca2+  Ca22  1  0.57850883  0.83083519  0.48544208  1
  Ca2+  Ca23  1  0.58155841  0.83386996  0.82804412  1
  Ca2+  Ca24  1  0.33606750  0.41277325  0.17296068  1
  Ca2+  Ca25  1  0.32781377  0.41316514  0.50274573  1
  Ca2+  Ca26  1  0.32660519  0.41325982  0.83559508  1
  Ca2+  Ca27  1  0.32090986  0.91202728  0.17499674  1
  Ca2+  Ca28  1  0.32569567  0.91022212  0.49945381  1
  Ca2+  Ca29  1  0.32292638  0.92179937  0.84150495  1
  Ca2+  Ca30  1  0.82747337  0.42581034  0.17995701  1
  Ca2+  Ca31  1  0.84018854  0.42849113  0.50298898  1
  Ca2+  Ca32  1  0.84475945  0.42151176  0.83032637  1
  Ca2+  Ca33  1  0.83364144  0.92593764  0.17820217  1
  Ca2+  Ca34  1  0.83741487  0.91712478  0.49596191  1
  Ca2+  Ca35  1  0.83808557  0.92270358  0.83614915  1
  Ca2+  Ca36  1  0.42135899  0.17675081  0.16829415  1
  Ca2+  Ca37  1  0.42937705  0.17030794  0.49072465  1
  Ca2+  Ca38  1  0.42149715  0.17056970  0.82858393  1
  Ca2+  Ca39  1  0.42107176  0.67251212  0.17339428  1
  Ca2+  Ca40  1  0.42445241  0.67097113  0.48791203  1
  Ca2+  Ca41  1  0.41882319  0.66868748  0.83200361  1
  Ca2+  Ca42  1  0.92271431  0.15320950  0.16596697  1
  Ca2+  Ca43  1  0.92428006  0.16853668  0.49438005  1
  Ca2+  Ca44  1  0.92449448  0.16800262  0.82704921  1
  Ca2+  Ca45  1  0.92262629  0.66948313  0.16756520  1
  Ca2+  Ca46  1  0.91671524  0.67272034  0.49300800  1
  Ca2+  Ca47  1  0.92559994  0.67200460  0.82070213  1
  Al0+  Al48  1  -0.00085540  -0.00236468  0.00362122  1
  Al0+  Al49  1  0.00075033  -0.00209866  0.33648791  1
  Al0+  Al50  1  -0.00104796  -0.00157291  0.66213667  1
  Al0+  Al51  1  0.00156315  0.49978228  0.00000211  1
  Al0+  Al52  1  0.00147245  0.49865323  0.33314776  1
  Al0+  Al53  1  0.00209253  0.49861926  0.67121438  1
  Al0+  Al54  1  0.49915488  0.00010246  0.00002179  1
  Al0+  Al55  1  0.49844985  0.00301502  0.32637071  1
  Al0+  Al56  1  0.49932707  0.00025065  0.66642317  1
  Al0+  Al57  1  0.49906859  0.50088347  -0.00590671  1
  Al0+  Al58  1  0.49863089  0.50167817  0.33180258  1
  Al0+  Al59  1  0.50014376  0.50047590  0.66977066  1
  Al0+  Al60  1  0.25021831  0.24984540  -0.00752871  1
  Al0+  Al61  1  0.24888815  0.24870365  0.32639775  1
  Al0+  Al62  1  0.25179295  0.24946201  0.66859604  1
  Al0+  Al63  1  0.25084800  0.74812691  -0.00122606  1
  Al0+  Al64  1  0.25023441  0.74878679  0.33291482  1
  Al0+  Al65  1  0.25077224  0.75101777  0.66833535  1
  Al0+  Al66  1  0.74952360  0.25171457  0.00438417  1
  Al0+  Al67  1  0.75039040  0.25119092  0.33742821  1
  Al0+  Al68  1  0.74951155  0.25017251  0.66143873  1
  Al0+  Al69  1  0.74982928  0.74977859  -0.00084523  1
  Al0+  Al70  1  0.75064949  0.75187063  0.33181635  1
  Al0+  Al71  1  0.74858721  0.75011886  0.67008844  1
  Al0+  Al72  1  0.82270175  0.07174926  0.35202556  1
  Al0+  Al73  1  0.18048075  0.92719328  0.34927638  1
  Al0+  Al74  1  0.67606402  0.42977724  0.34881318  1
  Al0+  Al75  1  0.07260568  0.67925247  0.65233411  1
  Al0+  Al76  1  0.07316480  0.17741359  0.65097401  1
  Al0+  Al77  1  0.42972723  0.32167294  0.98341183  1
  Al0+  Al78  1  0.67700783  0.93129297  0.34819205  1
  Al0+  Al79  1  0.92921879  0.32171580  0.65164657  1
  Al0+  Al80  1  0.06765718  0.17716736  0.98704848  1
  Al0+  Al81  1  0.57502271  0.17912137  0.31632719  1
  Al0+  Al82  1  0.18085061  0.92875873  0.01372999  1
  Al0+  Al83  1  0.07180522  0.67851664  0.98435989  1
  Al0+  Al84  1  0.81922601  0.07049374  0.01181324  1
  Al0+  Al85  1  0.06830489  0.17948345  0.31939504  1
  Al0+  Al86  1  0.82315316  0.57150016  0.34780082  1
  Al0+  Al87  1  0.42890641  0.32129723  0.32013549  1
  Al0+  Al88  1  0.82002771  0.57089753  0.68167634  1
  Al0+  Al89  1  0.57032871  0.17871002  0.65402669  1
  Al0+  Al90  1  0.57211809  0.68058013  0.31977068  1
  Al0+  Al91  1  0.92624364  0.82051346  0.65106949  1
  Al0+  Al92  1  0.92903916  0.82088584  0.31641862  1
  Al0+  Al93  1  0.07122591  0.67642508  0.31876017  1
  Al0+  Al94  1  0.42732694  0.82370495  0.31871380  1
  Al0+  Al95  1  0.18072636  0.42830072  0.68113892  1
  Si0+  Si96  1  0.57318003  0.17834994  0.98361545  1
  Si0+  Si97  1  0.92712006  0.81997366  0.98289277  1
  Si0+  Si98  1  0.82091191  0.07173979  0.68133913  1
  Si0+  Si99  1  0.42906021  0.32316423  0.65056718  1
  Si0+  Si100  1  0.42871763  0.82095161  0.98398620  1
  Si0+  Si101  1  0.17867464  0.92955667  0.68237507  1
  Si0+  Si102  1  0.32302695  0.06903890  0.68155682  1
  Si0+  Si103  1  0.82216206  0.57080893  0.01454912  1
  Si0+  Si104  1  0.42999056  0.82099940  0.65427594  1
  Si0+  Si105  1  0.67517968  0.92639408  0.01576164  1
  Si0+  Si106  1  0.57031102  0.67853631  0.65366585  1
  Si0+  Si107  1  0.67686701  0.43216722  0.01355526  1
  Si0+  Si108  1  0.32267767  0.56961775  0.01615741  1
  Si0+  Si109  1  0.32361079  0.57372119  0.68506920  1
  Si0+  Si110  1  0.67645613  0.42669018  0.68522789  1
  Si0+  Si111  1  0.18000320  0.42799222  0.01600910  1
  Si0+  Si112  1  0.92798740  0.32323155  0.31692290  1
  Si0+  Si113  1  0.92654255  0.32302982  0.98538258  1
  Si0+  Si114  1  0.32332271  0.07407239  0.01720736  1
  Si0+  Si115  1  0.18026754  0.42645700  0.34630551  1
  Si0+  Si116  1  0.31946565  0.07411573  0.34887808  1
  Si0+  Si117  1  0.57177031  0.67980206  0.98322500  1
  Si0+  Si118  1  0.31971209  0.57068508  0.34801444  1
  Si0+  Si119  1  0.67649593  0.93019768  0.68209751  1
  O2-  O120  1  0.25396702  0.00582324  0.06000584  1
  O2-  O121  1  0.25623792  0.00158671  0.39561454  1
  O2-  O122  1  0.24656170  0.00404358  0.72471476  1
  O2-  O123  1  0.25127475  0.49893915  0.05835838  1
  O2-  O124  1  0.24881180  0.49964945  0.38892632  1
  O2-  O125  1  0.25402557  0.50564225  0.72869601  1
  O2-  O126  1  0.74205242  -0.00264624  0.05655379  1
  O2-  O127  1  0.74688072  0.00292368  0.40177453  1
  O2-  O128  1  0.74935541  -0.00004575  0.72327812  1
  O2-  O129  1  0.75106142  0.49970590  0.05544565  1
  O2-  O130  1  0.75121968  0.49895629  0.39777530  1
  O2-  O131  1  0.74731541  0.49347459  0.72997024  1
  O2-  O132  1  -0.01004562  0.24940904  0.27122067  1
  O2-  O133  1  0.00089940  0.24938934  0.60218451  1
  O2-  O134  1  -0.00723730  0.25190526  0.94138271  1
  O2-  O135  1  0.00031021  0.74788413  0.26691802  1
  O2-  O136  1  -0.00259372  0.74696849  0.60289509  1
  O2-  O137  1  -0.00536621  0.75060569  0.93825551  1
  O2-  O138  1  0.50428117  0.25395700  0.26880918  1
  O2-  O139  1  0.49973807  0.25704834  0.60787730  1
  O2-  O140  1  0.50280083  0.24463681  0.93793509  1
  O2-  O141  1  0.50366951  0.75598601  0.26899104  1
  O2-  O142  1  0.49705299  0.74699557  0.61292622  1
  O2-  O143  1  0.50421008  0.75465176  0.94081374  1
  O2-  O144  1  0.06785304  0.17790774  0.09970031  1
  O2-  O145  1  0.07146838  0.18384530  0.43201342  1
  O2-  O146  1  0.07015413  0.17593373  0.76521542  1
  O2-  O147  1  0.07178905  0.67743702  0.09665010  1
  O2-  O148  1  0.07242720  0.67599253  0.43192201  1
  O2-  O149  1  0.07234923  0.68349251  0.76653158  1
  O2-  O150  1  0.57372525  0.17986156  0.08811523  1
  O2-  O151  1  0.56938677  0.17856500  0.43018450  1
  O2-  O152  1  0.56725897  0.17819194  0.76791645  1
  O2-  O153  1  0.57193621  0.67799609  0.08738152  1
  O2-  O154  1  0.56748354  0.67906946  0.43374278  1
  O2-  O155  1  0.56965544  0.68042787  0.75966396  1
  O2-  O156  1  0.18230300  0.42585500  0.24087681  1
  O2-  O157  1  0.18549705  0.42655791  0.56808810  1
  O2-  O158  1  0.18071245  0.42912958  0.91099354  1
  O2-  O159  1  0.18173954  0.92758731  0.23587518  1
  O2-  O160  1  0.18252144  0.92648031  0.57801670  1
  O2-  O161  1  0.18274626  0.92995377  0.89976857  1
  O2-  O162  1  0.67675620  0.43364274  0.23402007  1
  O2-  O163  1  0.67032542  0.43026515  0.58091750  1
  O2-  O164  1  0.67534593  0.43407196  0.90835603  1
  O2-  O165  1  0.67979872  0.93275965  0.23408857  1
  O2-  O166  1  0.66975454  0.93000251  0.57832981  1
  O2-  O167  1  0.67379690  0.92511919  0.90953711  1
  O2-  O168  1  0.43216156  0.32411706  0.09568678  1
  O2-  O169  1  0.42596112  0.31860128  0.43371338  1
  O2-  O170  1  0.42998872  0.32203079  0.75661873  1
  O2-  O171  1  0.42688217  0.81871602  0.08808232  1
  O2-  O172  1  0.42583307  0.81758867  0.43293662  1
  O2-  O173  1  0.43183417  0.82129103  0.76010991  1
  O2-  O174  1  0.92850251  0.32672171  0.09050076  1
  O2-  O175  1  0.93404241  0.32678101  0.42200930  1
  O2-  O176  1  0.93022238  0.31779706  0.76623744  1
  O2-  O177  1  0.92499263  0.81807426  0.08761797  1
  O2-  O178  1  0.93103064  0.81941628  0.42983482  1
  O2-  O179  1  0.92854524  0.82225266  0.76561158  1
  O2-  O180  1  0.31415203  0.07637036  0.24328846  1
  O2-  O181  1  0.32818831  0.06472567  0.57735335  1
  O2-  O182  1  0.32608562  0.07062804  0.91092117  1
  O2-  O183  1  0.32016511  0.57108602  0.24259585  1
  O2-  O184  1  0.32729212  0.57464143  0.58001971  1
  O2-  O185  1  0.32516691  0.56964944  0.91098580  1
  O2-  O186  1  0.82279849  0.06847523  0.23798544  1
  O2-  O187  1  0.82095607  0.07202295  0.57727930  1
  O2-  O188  1  0.81808711  0.06965712  0.89780812  1
  O2-  O189  1  0.82300324  0.56812144  0.23322429  1
  O2-  O190  1  0.81643414  0.57311553  0.56974385  1
  O2-  O191  1  0.82071834  0.57100581  0.90929423  1
  O2-  O192  1  0.04059217  0.08148937  0.26828514  1
  O2-  O193  1  0.04547910  0.07923873  0.59949988  1
  O2-  O194  1  0.03650034  0.08018109  0.93361516  1
  O2-  O195  1  0.04528809  0.57740290  0.26487664  1
  O2-  O196  1  0.05209415  0.57729418  0.60710683  1
  O2-  O197  1  0.04161962  0.58047946  0.93219049  1
  O2-  O198  1  0.54413645  0.08339734  0.26029189  1
  O2-  O199  1  0.53482306  0.08371342  0.60070435  1
  O2-  O200  1  0.54935111  0.08316200  0.93829476  1
  O2-  O201  1  0.53671971  0.58545206  0.26436557  1
  O2-  O202  1  0.54396654  0.58606736  0.60820060  1
  O2-  O203  1  0.53904117  0.59117442  0.93257042  1
  O2-  O204  1  0.16210039  0.21358176  0.26237099  1
  O2-  O205  1  0.17324841  0.20447079  0.60182223  1
  O2-  O206  1  0.16463220  0.20626542  0.93259378  1
  O2-  O207  1  0.16979262  0.70480114  0.26664467  1
  O2-  O208  1  0.17204648  0.70805659  0.60212088  1
  O2-  O209  1  0.16918660  0.70839749  0.93101605  1
  O2-  O210  1  0.67438015  0.20612071  0.26528277  1
  O2-  O211  1  0.66709536  0.20342286  0.60040824  1
  O2-  O212  1  0.66599752  0.20746366  0.93681793  1
  O2-  O213  1  0.66964889  0.70528658  0.26467839  1
  O2-  O214  1  0.66074263  0.70823214  0.60788165  1
  O2-  O215  1  0.66419278  0.70538696  0.93455047  1
  O2-  O216  1  0.08804605  0.45530280  0.06320521  1
  O2-  O217  1  0.08860893  0.45181765  0.39382304  1
  O2-  O218  1  0.08510475  0.45565184  0.73936995  1
  O2-  O219  1  0.08382746  0.95617298  0.06689420  1
  O2-  O220  1  0.08579571  0.95936368  0.40396795  1
  O2-  O221  1  0.08569581  0.95510341  0.72874232  1
  O2-  O222  1  0.58626081  0.46495034  0.05978755  1
  O2-  O223  1  0.57815604  0.46089406  0.40145914  1
  O2-  O224  1  0.58389572  0.45575464  0.73455679  1
  O2-  O225  1  0.58008232  0.94782939  0.06021023  1
  O2-  O226  1  0.57510867  0.95624619  0.39703808  1
  O2-  O227  1  0.58597423  0.96016274  0.73333778  1
  O2-  O228  1  0.20876131  0.33519724  0.06074524  1
  O2-  O229  1  0.21208841  0.33622594  0.39406481  1
  O2-  O230  1  0.21449960  0.33241276  0.73779725  1
  O2-  O231  1  0.21603445  0.83253501  0.06550991  1
  O2-  O232  1  0.21401398  0.83122927  0.40342502  1
  O2-  O233  1  0.21108456  0.83959107  0.73229356  1
  O2-  O234  1  0.69918207  0.33906696  0.06017542  1
  O2-  O235  1  0.69882571  0.33025886  0.39982580  1
  O2-  O236  1  0.70006145  0.33159950  0.72984461  1
  O2-  O237  1  0.70118366  0.83225601  0.06044160  1
  O2-  O238  1  0.70273981  0.83139316  0.39899785  1
  O2-  O239  1  0.70232495  0.83854111  0.73194755  1
  O2-  O240  1  0.45237291  0.42070173  0.26725330  1
  O2-  O241  1  0.45069309  0.41893199  0.60771198  1
  O2-  O242  1  0.46196914  0.41735926  0.92728010  1
  O2-  O243  1  0.44677656  0.92256610  0.26446484  1
  O2-  O244  1  0.45990791  0.91085576  0.60655800  1
  O2-  O245  1  0.45225754  0.91453755  0.93645011  1
  O2-  O246  1  0.95945696  0.41344371  0.26723896  1
  O2-  O247  1  0.95935145  0.41994404  0.60151411  1
  O2-  O248  1  0.95591955  0.41513812  0.93787548  1
  O2-  O249  1  0.96122081  0.91828077  0.26481662  1
  O2-  O250  1  0.95436798  0.91791024  0.59870392  1
  O2-  O251  1  0.95529228  0.91295555  0.93733498  1
  O2-  O252  1  0.33359480  0.28849503  0.26273918  1
  O2-  O253  1  0.33639581  0.29569570  0.60591723  1
  O2-  O254  1  0.33369417  0.29196120  0.92751240  1
  O2-  O255  1  0.33321960  0.78544345  0.26381447  1
  O2-  O256  1  0.33728130  0.79677881  0.60851614  1
  O2-  O257  1  0.34030814  0.78745953  0.93327811  1
  O2-  O258  1  0.83160825  0.30580104  0.27493445  1
  O2-  O259  1  0.82994350  0.29856020  0.60009876  1
  O2-  O260  1  0.83116237  0.30195592  0.94061696  1
  O2-  O261  1  0.83040410  0.79636240  0.26332821  1
  O2-  O262  1  0.82599281  0.79420208  0.60226623  1
  O2-  O263  1  0.83242926  0.79681576  0.93599677  1
  O2-  O264  1  0.41729194  0.04866336  0.06253938  1
  O2-  O265  1  0.41561268  0.05387166  0.39070961  1
  O2-  O266  1  0.41127576  0.03496193  0.73411865  1
  O2-  O267  1  0.41480668  0.54106843  0.06240378  1
  O2-  O268  1  0.41069012  0.54345382  0.39693787  1
  O2-  O269  1  0.41663475  0.54706142  0.73413634  1
  O2-  O270  1  0.91361610  0.03655186  0.06698783  1
  O2-  O271  1  0.91942297  0.03909161  0.40530018  1
  O2-  O272  1  0.91254981  0.04164257  0.72915614  1
  O2-  O273  1  0.91393921  0.54320710  0.06143537  1
  O2-  O274  1  0.92120629  0.54036744  0.40078267  1
  O2-  O275  1  0.91665430  0.54093961  0.73710784  1
  O2-  O276  1  0.29894982  0.16924986  0.05898107  1
  O2-  O277  1  0.28854381  0.16558335  0.39657862  1
  O2-  O278  1  0.30218106  0.16293849  0.72809878  1
  O2-  O279  1  0.29540980  0.66162559  0.06245725  1
  O2-  O280  1  0.29305040  0.66130702  0.39765294  1
  O2-  O281  1  0.29997244  0.66804156  0.73227401  1
  O2-  O282  1  0.79301634  0.16823353  0.06625023  1
  O2-  O283  1  0.80034986  0.17240746  0.40197980  1
  O2-  O284  1  0.79209087  0.16347246  0.72911788  1
  O2-  O285  1  0.79346767  0.66311962  0.05977041  1
  O2-  O286  1  0.79416434  0.66981638  0.39841107  1
  O2-  O287  1  0.78485722  0.66591235  0.73906002  1
