# generated using pymatgen
data_Ca2Al2SiO7
_symmetry_space_group_name_H-M   'P 1'
_cell_length_a   15.45172151
_cell_length_b   15.45185315
_cell_length_c   15.27989663
_cell_angle_alpha   89.99976373
_cell_angle_beta   90.00142131
_cell_angle_gamma   89.99802137
_symmetry_Int_Tables_number   1
_chemical_formula_structural   Ca2Al2SiO7
_chemical_formula_sum   'Ca48 Al48 Si24 O168'
_cell_volume   3648.19345598
_cell_formula_units_Z   24
loop_
 _symmetry_equiv_pos_site_id
 _symmetry_equiv_pos_as_xyz
  1  'x, y, z'
loop_
 _atom_type_symbol
 _atom_type_oxidation_number
  Ca2+  2.0
  Al0+  0.0
  Si0+  0.0
  O2-  -2.0
loop_
 _atom_site_type_symbol
 _atom_site_label
 _atom_site_symmetry_multiplicity
 _atom_site_fract_x
 _atom_site_fract_y
 _atom_site_fract_z
 _atom_site_occupancy
  Ca2+  Ca0  1  0.17680362  0.08732558  0.16812579  1
  Ca2+  Ca1  1  0.16975598  0.07835170  0.51170299  1
  Ca2+  Ca2  1  0.16757080  0.08019051  0.83488800  1
  Ca2+  Ca3  1  0.17247963  0.58012754  0.16435861  1
  Ca2+  Ca4  1  0.17245882  0.58826634  0.50270410  1
  Ca2+  Ca5  1  0.16679938  0.58434537  0.84365902  1
  Ca2+  Ca6  1  0.67247886  0.08972304  0.16626818  1
  Ca2+  Ca7  1  0.67009067  0.08249079  0.50352152  1
  Ca2+  Ca8  1  0.66875979  0.07031558  0.84283518  1
  Ca2+  Ca9  1  0.67380693  0.57706379  0.17119481  1
  Ca2+  Ca10  1  0.65820254  0.57163492  0.50715900  1
  Ca2+  Ca11  1  0.67151257  0.58021337  0.83599789  1
  Ca2+  Ca12  1  0.07663241  0.33662282  0.15536676  1
  Ca2+  Ca13  1  0.07671356  0.32884933  0.50204951  1
  Ca2+  Ca14  1  0.07185544  0.33401853  0.82798923  1
  Ca2+  Ca15  1  0.08025021  0.82450578  0.15974898  1
  Ca2+  Ca16  1  0.08231656  0.83415608  0.50424782  1
  Ca2+  Ca17  1  0.08012356  0.82354237  0.82264948  1
  Ca2+  Ca18  1  0.58606237  0.32588540  0.16726739  1
  Ca2+  Ca19  1  0.58399219  0.33268478  0.48980933  1
  Ca2+  Ca20  1  0.58891165  0.32543143  0.83018688  1
  Ca2+  Ca21  1  0.57735893  0.83933261  0.16270355  1
  Ca2+  Ca22  1  0.57652800  0.83270588  0.49999728  1
  Ca2+  Ca23  1  0.58271280  0.83003528  0.82334274  1
  Ca2+  Ca24  1  0.33395618  0.42544554  0.17155886  1
  Ca2+  Ca25  1  0.34251690  0.42410125  0.50158123  1
  Ca2+  Ca26  1  0.32201061  0.42628038  0.84457420  1
  Ca2+  Ca27  1  0.33635139  0.92039376  0.16727404  1
  Ca2+  Ca28  1  0.33220077  0.91215573  0.50738437  1
  Ca2+  Ca29  1  0.32983309  0.91742243  0.83477659  1
  Ca2+  Ca30  1  0.83229675  0.41860128  0.16699141  1
  Ca2+  Ca31  1  0.82045173  0.41308748  0.50625145  1
  Ca2+  Ca32  1  0.83587017  0.41759810  0.83701986  1
  Ca2+  Ca33  1  0.82668402  0.92846143  0.17011392  1
  Ca2+  Ca34  1  0.82990998  0.92173329  0.50996222  1
  Ca2+  Ca35  1  0.82395380  0.91427790  0.83951292  1
  Ca2+  Ca36  1  0.42915166  0.16746504  0.15924520  1
  Ca2+  Ca37  1  0.42737129  0.17570439  0.48810702  1
  Ca2+  Ca38  1  0.41977984  0.16203763  0.83512562  1
  Ca2+  Ca39  1  0.41067898  0.66770527  0.16578525  1
  Ca2+  Ca40  1  0.41746426  0.67621144  0.49745466  1
  Ca2+  Ca41  1  0.42160280  0.67099528  0.82500717  1
  Ca2+  Ca42  1  0.91021302  0.17100595  0.15933453  1
  Ca2+  Ca43  1  0.91754207  0.16511672  0.50016865  1
  Ca2+  Ca44  1  0.91508875  0.17611196  0.82875717  1
  Ca2+  Ca45  1  0.92225087  0.66242267  0.15427538  1
  Ca2+  Ca46  1  0.91859487  0.67284801  0.50335819  1
  Ca2+  Ca47  1  0.92621068  0.66606496  0.82681788  1
  Al0+  Al48  1  -0.00140942  -0.00042073  0.00378138  1
  Al0+  Al49  1  -0.00042067  -0.00038685  0.33550890  1
  Al0+  Al50  1  0.00249422  0.00035265  0.66619030  1
  Al0+  Al51  1  -0.00052877  0.49948922  -0.00072073  1
  Al0+  Al52  1  0.00127773  0.50034471  0.33498574  1
  Al0+  Al53  1  0.00016856  0.49883127  0.65427682  1
  Al0+  Al54  1  0.49815655  -0.00042981  0.00214177  1
  Al0+  Al55  1  0.50044356  -0.00045658  0.32579217  1
  Al0+  Al56  1  0.50137042  0.00139487  0.66618563  1
  Al0+  Al57  1  0.49879718  0.50053139  0.00299234  1
  Al0+  Al58  1  0.49936466  0.50159989  0.33658411  1
  Al0+  Al59  1  0.50051417  0.49931144  0.67190856  1
  Al0+  Al60  1  0.24978098  0.24919876  0.00808769  1
  Al0+  Al61  1  0.24896589  0.25049659  0.33164897  1
  Al0+  Al62  1  0.25065923  0.25190085  0.66375516  1
  Al0+  Al63  1  0.24959724  0.74997599  -0.00091931  1
  Al0+  Al64  1  0.24965387  0.74883200  0.33202312  1
  Al0+  Al65  1  0.25073025  0.75156935  0.66509340  1
  Al0+  Al66  1  0.74868788  0.24832340  -0.00801006  1
  Al0+  Al67  1  0.75240928  0.25004914  0.33838511  1
  Al0+  Al68  1  0.74922438  0.25080889  0.66753405  1
  Al0+  Al69  1  0.74751947  0.74900066  0.01079507  1
  Al0+  Al70  1  0.75092167  0.75169921  0.33306591  1
  Al0+  Al71  1  0.75048653  0.74784843  0.66084472  1
  Al0+  Al72  1  0.67940434  0.92820997  0.67834370  1
  Al0+  Al73  1  0.67740290  0.92746990  0.01641227  1
  Al0+  Al74  1  0.92683556  0.32044124  0.64818667  1
  Al0+  Al75  1  0.57187642  0.67626616  0.65260679  1
  Al0+  Al76  1  0.82098533  0.07223056  0.01311555  1
  Al0+  Al77  1  0.92998383  0.31950823  0.98706910  1
  Al0+  Al78  1  0.07269234  0.17905368  0.65274053  1
  Al0+  Al79  1  0.43067258  0.82240385  0.65325256  1
  Al0+  Al80  1  0.42849431  0.81921708  0.31736611  1
  Al0+  Al81  1  0.56900386  0.17962947  0.98321838  1
  Al0+  Al82  1  0.82029977  0.56923352  0.01096733  1
  Al0+  Al83  1  0.31967082  0.06984876  0.01398445  1
  Al0+  Al84  1  0.57321673  0.18032397  0.31789423  1
  Al0+  Al85  1  0.17768259  0.42936201  0.01347170  1
  Al0+  Al86  1  0.32231821  0.57299000  0.01472752  1
  Al0+  Al87  1  0.92762399  0.82194955  0.65330460  1
  Al0+  Al88  1  0.67790941  0.42844181  0.68296667  1
  Al0+  Al89  1  0.07270815  0.67822392  0.64985681  1
  Al0+  Al90  1  0.31868774  0.57012134  0.34946534  1
  Al0+  Al91  1  0.06938667  0.68086833  0.98736911  1
  Al0+  Al92  1  0.17978526  0.92920590  0.68074469  1
  Al0+  Al93  1  0.42774774  0.32429683  0.31726561  1
  Al0+  Al94  1  0.82062371  0.07002265  0.34948891  1
  Al0+  Al95  1  0.68239329  0.43211448  0.34494855  1
  Si0+  Si96  1  0.67626557  0.92737008  0.35200197  1
  Si0+  Si97  1  0.32220268  0.07122965  0.34802163  1
  Si0+  Si98  1  0.42614902  0.32319704  0.98307795  1
  Si0+  Si99  1  0.92538088  0.82282880  0.98644628  1
  Si0+  Si100  1  0.17837150  0.42855625  0.67944841  1
  Si0+  Si101  1  0.93120975  0.31995573  0.31833295  1
  Si0+  Si102  1  0.17711078  0.92679898  0.01692539  1
  Si0+  Si103  1  0.82533774  0.57500724  0.35171103  1
  Si0+  Si104  1  0.82277189  0.07151128  0.68412775  1
  Si0+  Si105  1  0.32277527  0.07510788  0.68165518  1
  Si0+  Si106  1  0.07495192  0.17556554  0.98531894  1
  Si0+  Si107  1  0.06941419  0.68001581  0.31655115  1
  Si0+  Si108  1  0.92867936  0.82283826  0.31668452  1
  Si0+  Si109  1  0.82374983  0.57033489  0.68084963  1
  Si0+  Si110  1  0.56996543  0.17932852  0.65230763  1
  Si0+  Si111  1  0.57252909  0.67742282  0.98702889  1
  Si0+  Si112  1  0.67713621  0.42646643  0.01568451  1
  Si0+  Si113  1  0.18036217  0.92981567  0.34747013  1
  Si0+  Si114  1  0.42893634  0.32154302  0.65444271  1
  Si0+  Si115  1  0.57304953  0.67777637  0.31545808  1
  Si0+  Si116  1  0.07060196  0.17630119  0.31745854  1
  Si0+  Si117  1  0.17578449  0.42602427  0.35324740  1
  Si0+  Si118  1  0.42971013  0.82002345  0.98438378  1
  Si0+  Si119  1  0.31952619  0.57097070  0.68196364  1
  O2-  O120  1  0.24214580  -0.00164529  0.06211026  1
  O2-  O121  1  0.25140441  0.00065272  0.39073054  1
  O2-  O122  1  0.25402902  0.00570426  0.72500774  1
  O2-  O123  1  0.25282896  0.49794883  0.06379653  1
  O2-  O124  1  0.24809400  0.49137032  0.39705653  1
  O2-  O125  1  0.24489758  0.50314608  0.72279445  1
  O2-  O126  1  0.74985156  0.00018612  0.06454621  1
  O2-  O127  1  0.74485295  -0.00383152  0.39572469  1
  O2-  O128  1  0.75702731  -0.00076665  0.72658039  1
  O2-  O129  1  0.74543066  0.49564494  0.05934259  1
  O2-  O130  1  0.75364968  0.50929250  0.39446471  1
  O2-  O131  1  0.75459978  0.50260871  0.72639578  1
  O2-  O132  1  0.00351218  0.25077495  0.27514465  1
  O2-  O133  1  -0.00219727  0.24619712  0.59970804  1
  O2-  O134  1  0.00490987  0.24330320  0.94247584  1
  O2-  O135  1  -0.00595037  0.74653371  0.27427675  1
  O2-  O136  1  0.00072082  0.75135892  0.60116260  1
  O2-  O137  1  -0.00508371  0.75585469  0.94148864  1
  O2-  O138  1  0.49844009  0.25044544  0.26821342  1
  O2-  O139  1  0.49984543  0.25129653  0.61128497  1
  O2-  O140  1  0.49520847  0.25607337  0.93645907  1
  O2-  O141  1  0.50643193  0.74797384  0.26993802  1
  O2-  O142  1  0.50267560  0.75093097  0.60257897  1
  O2-  O143  1  0.50067493  0.74784222  0.94472789  1
  O2-  O144  1  0.07466100  0.17644682  0.09136783  1
  O2-  O145  1  0.07052307  0.17475699  0.42230948  1
  O2-  O146  1  0.07519508  0.18280222  0.76619713  1
  O2-  O147  1  0.06864439  0.68213601  0.10114971  1
  O2-  O148  1  0.07058658  0.68209390  0.42131905  1
  O2-  O149  1  0.07219859  0.67744026  0.76353543  1
  O2-  O150  1  0.57001534  0.18225813  0.09606860  1
  O2-  O151  1  0.57096178  0.18111058  0.43221552  1
  O2-  O152  1  0.56803176  0.17792063  0.75736638  1
  O2-  O153  1  0.57285274  0.67703097  0.09208705  1
  O2-  O154  1  0.57165902  0.67814336  0.42086253  1
  O2-  O155  1  0.56895027  0.67535581  0.76681295  1
  O2-  O156  1  0.17088018  0.42872862  0.24802175  1
  O2-  O157  1  0.18296439  0.42665963  0.57437013  1
  O2-  O158  1  0.17794158  0.43154229  0.89932371  1
  O2-  O159  1  0.17948799  0.93147251  0.24219022  1
  O2-  O160  1  0.18267281  0.93034518  0.56694795  1
  O2-  O161  1  0.17937699  0.92571090  0.91159272  1
  O2-  O162  1  0.68705410  0.43227687  0.23163871  1
  O2-  O163  1  0.67648036  0.42828760  0.56964249  1
  O2-  O164  1  0.67673705  0.42896814  0.91008728  1
  O2-  O165  1  0.67882483  0.92553546  0.24663981  1
  O2-  O166  1  0.67735282  0.93408756  0.56522736  1
  O2-  O167  1  0.67804893  0.92554475  0.90248943  1
  O2-  O168  1  0.42793941  0.32243223  0.08840243  1
  O2-  O169  1  0.42924487  0.32157761  0.43180671  1
  O2-  O170  1  0.42674291  0.32062982  0.75937915  1
  O2-  O171  1  0.42894725  0.81946755  0.08977678  1
  O2-  O172  1  0.42708713  0.81895783  0.43013004  1
  O2-  O173  1  0.43042860  0.82065511  0.76711178  1
  O2-  O174  1  0.93048635  0.31969766  0.10091183  1
  O2-  O175  1  0.93220506  0.31888461  0.42301539  1
  O2-  O176  1  0.92921084  0.32184844  0.76179502  1
  O2-  O177  1  0.92906437  0.82141166  0.09262323  1
  O2-  O178  1  0.93087081  0.82404419  0.42146761  1
  O2-  O179  1  0.92775532  0.81881337  0.76704312  1
  O2-  O180  1  0.31978618  0.07018867  0.24288659  1
  O2-  O181  1  0.32249093  0.07670533  0.57581946  1
  O2-  O182  1  0.32006481  0.06730072  0.90075472  1
  O2-  O183  1  0.31403271  0.57200841  0.23674936  1
  O2-  O184  1  0.32087337  0.56917776  0.57665856  1
  O2-  O185  1  0.32189479  0.57309549  0.90074449  1
  O2-  O186  1  0.82228946  0.06973075  0.23665110  1
  O2-  O187  1  0.81950956  0.07185608  0.57806905  1
  O2-  O188  1  0.81991169  0.07082219  0.89975280  1
  O2-  O189  1  0.82788455  0.57303639  0.24589511  1
  O2-  O190  1  0.82300139  0.56834229  0.57510149  1
  O2-  O191  1  0.82006785  0.57016940  0.89807729  1
  O2-  O192  1  0.04091645  0.08535133  0.26950221  1
  O2-  O193  1  0.04931257  0.07981211  0.59945553  1
  O2-  O194  1  0.05150801  0.08018608  0.94129858  1
  O2-  O195  1  0.04500848  0.58596969  0.27124959  1
  O2-  O196  1  0.04628517  0.58164231  0.59237368  1
  O2-  O197  1  0.03793077  0.58505555  0.93372958  1
  O2-  O198  1  0.54673408  0.08193916  0.26439970  1
  O2-  O199  1  0.54202199  0.08919118  0.60225768  1
  O2-  O200  1  0.53375143  0.08280653  0.93157626  1
  O2-  O201  1  0.54546703  0.58508986  0.26962469  1
  O2-  O202  1  0.53755816  0.57877055  0.60063695  1
  O2-  O203  1  0.54607466  0.58499955  0.93942972  1
  O2-  O204  1  0.16404016  0.20064731  0.27120518  1
  O2-  O205  1  0.16989249  0.21071734  0.59661718  1
  O2-  O206  1  0.16935754  0.20006812  0.94065341  1
  O2-  O207  1  0.15894461  0.71283947  0.26835870  1
  O2-  O208  1  0.16998735  0.70968729  0.59681084  1
  O2-  O209  1  0.16609059  0.71112189  0.93310519  1
  O2-  O210  1  0.67158222  0.21310546  0.26713769  1
  O2-  O211  1  0.66181055  0.20690937  0.60580434  1
  O2-  O212  1  0.66404678  0.20872496  0.92578978  1
  O2-  O213  1  0.66910339  0.70023903  0.27145510  1
  O2-  O214  1  0.67023623  0.69792475  0.59780363  1
  O2-  O215  1  0.66458897  0.70618988  0.94066165  1
  O2-  O216  1  0.08196618  0.46215704  0.06901705  1
  O2-  O217  1  0.08398661  0.45681132  0.40117887  1
  O2-  O218  1  0.08355931  0.45287336  0.72159765  1
  O2-  O219  1  0.08220742  0.94674944  0.06312285  1
  O2-  O220  1  0.08884370  0.95759624  0.39531308  1
  O2-  O221  1  0.08315891  0.95787260  0.73582191  1
  O2-  O222  1  0.58375549  0.45132438  0.06236360  1
  O2-  O223  1  0.58477298  0.45931601  0.39925611  1
  O2-  O224  1  0.58223245  0.45850378  0.73960964  1
  O2-  O225  1  0.57981169  0.95817539  0.06858392  1
  O2-  O226  1  0.58125522  0.95333293  0.39459549  1
  O2-  O227  1  0.58382250  0.96200536  0.73357477  1
  O2-  O228  1  0.20016870  0.33053489  0.06820947  1
  O2-  O229  1  0.19651650  0.32995042  0.39667342  1
  O2-  O230  1  0.20955089  0.33853527  0.72847731  1
  O2-  O231  1  0.20771456  0.83552684  0.06503054  1
  O2-  O232  1  0.20862852  0.83802770  0.39383281  1
  O2-  O233  1  0.21223451  0.83319546  0.73544792  1
  O2-  O234  1  0.70502245  0.33298711  0.05888295  1
  O2-  O235  1  0.71514783  0.33737675  0.40143948  1
  O2-  O236  1  0.70877900  0.33155972  0.73651752  1
  O2-  O237  1  0.70297169  0.83082567  0.07449949  1
  O2-  O238  1  0.70203553  0.83291430  0.39704511  1
  O2-  O239  1  0.70612193  0.82866749  0.72894213  1
  O2-  O240  1  0.45679700  0.42301232  0.26621826  1
  O2-  O241  1  0.45803236  0.41298195  0.60757169  1
  O2-  O242  1  0.44946014  0.41835395  0.93830649  1
  O2-  O243  1  0.45649228  0.91611648  0.26202306  1
  O2-  O244  1  0.45723139  0.92139378  0.59957310  1
  O2-  O245  1  0.45715456  0.91147986  0.93736677  1
  O2-  O246  1  0.95737116  0.41381362  0.27266975  1
  O2-  O247  1  0.95648366  0.41599850  0.59071641  1
  O2-  O248  1  0.96231556  0.41474848  0.93185662  1
  O2-  O249  1  0.96285787  0.91229680  0.26831702  1
  O2-  O250  1  0.95636104  0.92013876  0.59998648  1
  O2-  O251  1  0.94812720  0.91741972  0.94130904  1
  O2-  O252  1  0.32693095  0.29921773  0.26737624  1
  O2-  O253  1  0.33848364  0.29576358  0.60336642  1
  O2-  O254  1  0.33185162  0.29509164  0.93945052  1
  O2-  O255  1  0.33230125  0.78614578  0.26300481  1
  O2-  O256  1  0.33363175  0.79217877  0.59933136  1
  O2-  O257  1  0.33750507  0.79316502  0.93729201  1
  O2-  O258  1  0.84008184  0.29060674  0.27182369  1
  O2-  O259  1  0.82779869  0.29103290  0.59673728  1
  O2-  O260  1  0.83444630  0.29074284  0.93029705  1
  O2-  O261  1  0.83456619  0.80111602  0.27076029  1
  O2-  O262  1  0.83178168  0.79301713  0.59483189  1
  O2-  O263  1  0.83040908  0.79567456  0.94523053  1
  O2-  O264  1  0.41334379  0.03484203  0.07022951  1
  O2-  O265  1  0.41513477  0.04383432  0.39282101  1
  O2-  O266  1  0.41581916  0.04853387  0.72803432  1
  O2-  O267  1  0.42084732  0.54720009  0.06949979  1
  O2-  O268  1  0.41624560  0.54358766  0.40382513  1
  O2-  O269  1  0.40927513  0.53963352  0.73107136  1
  O2-  O270  1  0.91998217  0.04756881  0.06853378  1
  O2-  O271  1  0.91718445  0.03684948  0.40334626  1
  O2-  O272  1  0.91859621  0.05215003  0.72687706  1
  O2-  O273  1  0.91478913  0.53648970  0.06774144  1
  O2-  O274  1  0.91829144  0.54724447  0.39797674  1
  O2-  O275  1  0.91848541  0.54248279  0.72394847  1
  O2-  O276  1  0.29315881  0.16566407  0.07216295  1
  O2-  O277  1  0.29487077  0.16387896  0.39455922  1
  O2-  O278  1  0.29647245  0.16838772  0.72878063  1
  O2-  O279  1  0.29019175  0.67020511  0.06803438  1
  O2-  O280  1  0.28262711  0.66583798  0.40299505  1
  O2-  O281  1  0.29469321  0.66374178  0.72786333  1
  O2-  O282  1  0.78882100  0.17054319  0.06497119  1
  O2-  O283  1  0.79168814  0.16603558  0.40504990  1
  O2-  O284  1  0.79310787  0.16428284  0.72887670  1
  O2-  O285  1  0.79128819  0.66337747  0.07134265  1
  O2-  O286  1  0.80352251  0.67093101  0.39482518  1
  O2-  O287  1  0.80028145  0.66462305  0.72564383  1
