# generated using pymatgen
data_Ca2Al2SiO7
_symmetry_space_group_name_H-M   'P 1'
_cell_length_a   15.46721146
_cell_length_b   15.46478970
_cell_length_c   15.28945944
_cell_angle_alpha   89.99478956
_cell_angle_beta   90.00582473
_cell_angle_gamma   90.01747592
_symmetry_Int_Tables_number   1
_chemical_formula_structural   Ca2Al2SiO7
_chemical_formula_sum   'Ca48 Al48 Si24 O168'
_cell_volume   3657.19526465
_cell_formula_units_Z   24
loop_
 _symmetry_equiv_pos_site_id
 _symmetry_equiv_pos_as_xyz
  1  'x, y, z'
loop_
 _atom_type_symbol
 _atom_type_oxidation_number
  Ca2+  2.0
  Al0+  0.0
  Si0+  0.0
  O2-  -2.0
loop_
 _atom_site_type_symbol
 _atom_site_label
 _atom_site_symmetry_multiplicity
 _atom_site_fract_x
 _atom_site_fract_y
 _atom_site_fract_z
 _atom_site_occupancy
  Ca2+  Ca0  1  0.17223942  0.09115078  0.16770590  1
  Ca2+  Ca1  1  0.17242468  0.07962700  0.51041573  1
  Ca2+  Ca2  1  0.17801980  0.07772743  0.83571855  1
  Ca2+  Ca3  1  0.17557802  0.58207204  0.16481329  1
  Ca2+  Ca4  1  0.16369413  0.57754706  0.51119971  1
  Ca2+  Ca5  1  0.16964152  0.58339143  0.83446796  1
  Ca2+  Ca6  1  0.66276683  0.07550112  0.16556592  1
  Ca2+  Ca7  1  0.66236250  0.07351418  0.50865209  1
  Ca2+  Ca8  1  0.66149726  0.07361504  0.84024094  1
  Ca2+  Ca9  1  0.67167668  0.58440038  0.16927029  1
  Ca2+  Ca10  1  0.67503050  0.58307978  0.50591090  1
  Ca2+  Ca11  1  0.67449860  0.57885765  0.84322875  1
  Ca2+  Ca12  1  0.07422641  0.32897980  0.16063184  1
  Ca2+  Ca13  1  0.08588095  0.32895519  0.49553426  1
  Ca2+  Ca14  1  0.07608022  0.33872549  0.82961962  1
  Ca2+  Ca15  1  0.07793372  0.83078464  0.16016513  1
  Ca2+  Ca16  1  0.07876345  0.83320175  0.50368831  1
  Ca2+  Ca17  1  0.07576954  0.82789775  0.81947979  1
  Ca2+  Ca18  1  0.58130894  0.32815363  0.14975765  1
  Ca2+  Ca19  1  0.58877489  0.32875136  0.50362218  1
  Ca2+  Ca20  1  0.59194790  0.32349161  0.83125357  1
  Ca2+  Ca21  1  0.59553404  0.82483326  0.16396950  1
  Ca2+  Ca22  1  0.58323387  0.83428786  0.49854578  1
  Ca2+  Ca23  1  0.58619528  0.83068476  0.82749998  1
  Ca2+  Ca24  1  0.34710744  0.42417021  0.16179091  1
  Ca2+  Ca25  1  0.32554170  0.41964951  0.50782837  1
  Ca2+  Ca26  1  0.32684386  0.41637576  0.84037705  1
  Ca2+  Ca27  1  0.33570376  0.92458344  0.16547546  1
  Ca2+  Ca28  1  0.32990361  0.92207004  0.51552698  1
  Ca2+  Ca29  1  0.33913936  0.92553194  0.83267783  1
  Ca2+  Ca30  1  0.83109358  0.42245213  0.16345068  1
  Ca2+  Ca31  1  0.82979169  0.42906603  0.50969097  1
  Ca2+  Ca32  1  0.82504218  0.42408485  0.83891236  1
  Ca2+  Ca33  1  0.82085569  0.91956915  0.16505410  1
  Ca2+  Ca34  1  0.82301394  0.91379861  0.50650500  1
  Ca2+  Ca35  1  0.82395714  0.91732340  0.83817163  1
  Ca2+  Ca36  1  0.42209730  0.17400163  0.15362928  1
  Ca2+  Ca37  1  0.42101722  0.16256543  0.50428965  1
  Ca2+  Ca38  1  0.42462680  0.16322000  0.83121602  1
  Ca2+  Ca39  1  0.43093516  0.66635195  0.15626839  1
  Ca2+  Ca40  1  0.42289241  0.67598867  0.49647521  1
  Ca2+  Ca41  1  0.42146247  0.66982257  0.83089910  1
  Ca2+  Ca42  1  0.92043455  0.16716465  0.15543298  1
  Ca2+  Ca43  1  0.92596807  0.16827841  0.49406443  1
  Ca2+  Ca44  1  0.90490489  0.17321239  0.83320629  1
  Ca2+  Ca45  1  0.91166441  0.66188472  0.16240830  1
  Ca2+  Ca46  1  0.91216362  0.66697266  0.50428482  1
  Ca2+  Ca47  1  0.91624954  0.66779839  0.82334681  1
  Al0+  Al48  1  -0.00038776  -0.00257723  0.00184509  1
  Al0+  Al49  1  0.00124821  -0.00017083  0.32674653  1
  Al0+  Al50  1  0.00045036  0.00085442  0.66505497  1
  Al0+  Al51  1  0.00106106  0.49813402  0.00012320  1
  Al0+  Al52  1  0.00051772  0.50059485  0.33591310  1
  Al0+  Al53  1  0.00011836  0.50007230  0.66919539  1
  Al0+  Al54  1  0.49656183  -0.00126675  0.00804460  1
  Al0+  Al55  1  0.49803731  0.00156018  0.33670931  1
  Al0+  Al56  1  0.50126221  0.00025798  0.66532113  1
  Al0+  Al57  1  0.49861797  0.50088504  -0.00237415  1
  Al0+  Al58  1  0.50033047  0.50166247  0.33356915  1
  Al0+  Al59  1  0.49971602  0.49718851  0.66699560  1
  Al0+  Al60  1  0.24780811  0.24808481  0.00112396  1
  Al0+  Al61  1  0.25029357  0.25061251  0.32858567  1
  Al0+  Al62  1  0.25115126  0.25192830  0.67450280  1
  Al0+  Al63  1  0.24938599  0.74792460  0.00481120  1
  Al0+  Al64  1  0.24941125  0.75158892  0.33176111  1
  Al0+  Al65  1  0.24914895  0.74968526  0.66060321  1
  Al0+  Al66  1  0.75199070  0.24965132  -0.00103022  1
  Al0+  Al67  1  0.75068754  0.25042774  0.33292678  1
  Al0+  Al68  1  0.74999596  0.25054508  0.65978104  1
  Al0+  Al69  1  0.75118332  0.74994926  0.00204492  1
  Al0+  Al70  1  0.75034130  0.75059468  0.33827736  1
  Al0+  Al71  1  0.75125569  0.75099767  0.66876249  1
  Al0+  Al72  1  0.68018554  0.93051509  0.67959260  1
  Al0+  Al73  1  0.67685435  0.92837306  0.01518006  1
  Al0+  Al74  1  0.31915192  0.07097828  0.01599899  1
  Al0+  Al75  1  0.92722405  0.82333747  0.65073512  1
  Al0+  Al76  1  0.93011505  0.32022529  0.98478482  1
  Al0+  Al77  1  0.07018309  0.67780884  0.65137181  1
  Al0+  Al78  1  0.67739915  0.42611501  0.68160789  1
  Al0+  Al79  1  0.57057869  0.17988472  0.65209717  1
  Al0+  Al80  1  0.82221179  0.57079222  0.01538711  1
  Al0+  Al81  1  0.82098764  0.56936608  0.34926454  1
  Al0+  Al82  1  0.43078830  0.82045264  0.65475484  1
  Al0+  Al83  1  0.57086731  0.17725121  0.98571780  1
  Al0+  Al84  1  0.32066959  0.57078265  0.01279531  1
  Al0+  Al85  1  0.57059156  0.68168578  0.32070906  1
  Al0+  Al86  1  0.68004894  0.93218715  0.34952174  1
  Al0+  Al87  1  0.57265374  0.68104164  0.98586741  1
  Al0+  Al88  1  0.82194486  0.07125334  0.01358337  1
  Al0+  Al89  1  0.07092777  0.17936141  0.31911976  1
  Al0+  Al90  1  0.17929978  0.42954590  0.68006878  1
  Al0+  Al91  1  0.42720103  0.32229184  0.98357233  1
  Al0+  Al92  1  0.81884010  0.57081828  0.68285473  1
  Al0+  Al93  1  0.67811232  0.42894621  0.01428718  1
  Al0+  Al94  1  0.32190940  0.07053514  0.68208485  1
  Al0+  Al95  1  0.17680296  0.92708342  0.68053480  1
  Si0+  Si96  1  0.17752467  0.42714121  0.01846673  1
  Si0+  Si97  1  0.07125566  0.17466744  0.98029119  1
  Si0+  Si98  1  0.92979291  0.32075885  0.64999816  1
  Si0+  Si99  1  0.32269391  0.57276350  0.34864121  1
  Si0+  Si100  1  0.31786025  0.07192618  0.34917756  1
  Si0+  Si101  1  0.92987295  0.81950489  0.31670764  1
  Si0+  Si102  1  0.42614498  0.82414816  0.31558960  1
  Si0+  Si103  1  0.92853810  0.32348788  0.31708604  1
  Si0+  Si104  1  0.07283031  0.67714270  0.31632520  1
  Si0+  Si105  1  0.57279483  0.67594676  0.65103992  1
  Si0+  Si106  1  0.17755870  0.92690178  0.01779660  1
  Si0+  Si107  1  0.82447483  0.07347844  0.34940585  1
  Si0+  Si108  1  0.32318081  0.57345006  0.68083534  1
  Si0+  Si109  1  0.42505275  0.82049167  0.98513009  1
  Si0+  Si110  1  0.17715865  0.92788961  0.34818179  1
  Si0+  Si111  1  0.07215056  0.67884570  0.98637233  1
  Si0+  Si112  1  0.82400382  0.07368956  0.67907837  1
  Si0+  Si113  1  0.07371940  0.18079711  0.65371462  1
  Si0+  Si114  1  0.18140811  0.43092509  0.34629125  1
  Si0+  Si115  1  0.67526252  0.42614339  0.35034145  1
  Si0+  Si116  1  0.42488645  0.32257158  0.64912351  1
  Si0+  Si117  1  0.92988054  0.81997767  0.98567864  1
  Si0+  Si118  1  0.42958145  0.32070853  0.31972495  1
  Si0+  Si119  1  0.57106229  0.17846358  0.31904917  1
  O2-  O120  1  0.24353748  -0.00275125  0.06395394  1
  O2-  O121  1  0.24893202  -0.00168359  0.39000563  1
  O2-  O122  1  0.25097261  -0.00371837  0.73036832  1
  O2-  O123  1  0.25079238  0.49160877  0.06199005  1
  O2-  O124  1  0.24985033  0.50349020  0.39038606  1
  O2-  O125  1  0.25438611  0.50455286  0.72430258  1
  O2-  O126  1  0.74600817  0.00417634  0.06453402  1
  O2-  O127  1  0.75305299  0.00945903  0.39552457  1
  O2-  O128  1  0.75770627  0.00329151  0.72288634  1
  O2-  O129  1  0.74786826  0.50196560  0.06659947  1
  O2-  O130  1  0.74620946  0.49318067  0.39315562  1
  O2-  O131  1  0.74338616  0.50267879  0.73154984  1
  O2-  O132  1  -0.00806444  0.24960509  0.27306888  1
  O2-  O133  1  0.00186256  0.24987544  0.60883985  1
  O2-  O134  1  0.00206274  0.24264033  0.93652531  1
  O2-  O135  1  0.00107740  0.74759987  0.27443989  1
  O2-  O136  1  -0.00056932  0.75079605  0.60016750  1
  O2-  O137  1  -0.00067737  0.74716792  0.94500956  1
  O2-  O138  1  0.50576975  0.25508933  0.27839226  1
  O2-  O139  1  0.49596755  0.25585058  0.60509793  1
  O2-  O140  1  0.50089667  0.25147586  0.93491586  1
  O2-  O141  1  0.49538886  0.75606153  0.27241875  1
  O2-  O142  1  0.50354419  0.74440222  0.60655814  1
  O2-  O143  1  0.49812334  0.75699211  0.94122345  1
  O2-  O144  1  0.07059697  0.17702129  0.08664400  1
  O2-  O145  1  0.07306148  0.18219158  0.43257500  1
  O2-  O146  1  0.07378115  0.18214159  0.75810128  1
  O2-  O147  1  0.07364155  0.68124080  0.09233072  1
  O2-  O148  1  0.07625720  0.67634362  0.42050585  1
  O2-  O149  1  0.06933977  0.67745486  0.76515523  1
  O2-  O150  1  0.56764282  0.17801637  0.10051483  1
  O2-  O151  1  0.56855573  0.17690599  0.42403460  1
  O2-  O152  1  0.57126074  0.17826561  0.76420028  1
  O2-  O153  1  0.57233760  0.68240697  0.09965452  1
  O2-  O154  1  0.56680971  0.68155350  0.43378338  1
  O2-  O155  1  0.57129905  0.67643302  0.75628653  1
  O2-  O156  1  0.18124054  0.43194687  0.24169814  1
  O2-  O157  1  0.18128166  0.42766582  0.56582272  1
  O2-  O158  1  0.17548877  0.43048095  0.91315137  1
  O2-  O159  1  0.17776613  0.92626380  0.24308916  1
  O2-  O160  1  0.17756832  0.93221418  0.56603018  1
  O2-  O161  1  0.17772612  0.92604945  0.91297005  1
  O2-  O162  1  0.67289105  0.42503531  0.24529750  1
  O2-  O163  1  0.68234283  0.42609199  0.56710114  1
  O2-  O164  1  0.68100101  0.42978745  0.90130137  1
  O2-  O165  1  0.68151742  0.93255064  0.23686648  1
  O2-  O166  1  0.67961420  0.93236239  0.56592721  1
  O2-  O167  1  0.67906700  0.92717838  0.90192766  1
  O2-  O168  1  0.42915989  0.31942723  0.09863481  1
  O2-  O169  1  0.42479663  0.31903757  0.42459315  1
  O2-  O170  1  0.41983025  0.32222605  0.75339880  1
  O2-  O171  1  0.42105846  0.81667436  0.09108674  1
  O2-  O172  1  0.42358779  0.82340581  0.42106107  1
  O2-  O173  1  0.43238458  0.82008461  0.76766950  1
  O2-  O174  1  0.93499247  0.32205277  0.09844288  1
  O2-  O175  1  0.93247602  0.32393045  0.42283283  1
  O2-  O176  1  0.92939778  0.31978601  0.75467240  1
  O2-  O177  1  0.93273173  0.82044811  0.09157069  1
  O2-  O178  1  0.93206543  0.82142631  0.42124879  1
  O2-  O179  1  0.92842354  0.82315794  0.76428961  1
  O2-  O180  1  0.31716273  0.07257786  0.24428375  1
  O2-  O181  1  0.31876992  0.07120443  0.56735842  1
  O2-  O182  1  0.31931013  0.06924628  0.90367633  1
  O2-  O183  1  0.32299796  0.57118110  0.24379589  1
  O2-  O184  1  0.32274747  0.57061816  0.57431420  1
  O2-  O185  1  0.31428614  0.57615635  0.90044348  1
  O2-  O186  1  0.82481492  0.07252955  0.24430332  1
  O2-  O187  1  0.82379827  0.07433009  0.57287670  1
  O2-  O188  1  0.82567707  0.06573735  0.90027292  1
  O2-  O189  1  0.82258044  0.56757651  0.23660361  1
  O2-  O190  1  0.81853913  0.56867247  0.56859498  1
  O2-  O191  1  0.82388802  0.57086921  0.90269693  1
  O2-  O192  1  0.04617327  0.08202242  0.26318905  1
  O2-  O193  1  0.04769976  0.08927113  0.60418542  1
  O2-  O194  1  0.04815445  0.07932705  0.93768725  1
  O2-  O195  1  0.04553576  0.58482668  0.26941384  1
  O2-  O196  1  0.04034100  0.57918124  0.59754153  1
  O2-  O197  1  0.04893100  0.58557777  0.94148125  1
  O2-  O198  1  0.53723581  0.08853960  0.27169291  1
  O2-  O199  1  0.53607256  0.08550095  0.59526265  1
  O2-  O200  1  0.53788252  0.07773905  0.93757766  1
  O2-  O201  1  0.53967202  0.58419678  0.26753789  1
  O2-  O202  1  0.54816197  0.58172967  0.60444019  1
  O2-  O203  1  0.53939110  0.58575310  0.93253686  1
  O2-  O204  1  0.16525713  0.21540602  0.26278009  1
  O2-  O205  1  0.16491097  0.21145957  0.60578550  1
  O2-  O206  1  0.16493714  0.20062423  0.93637144  1
  O2-  O207  1  0.16446537  0.70640024  0.26761813  1
  O2-  O208  1  0.16861373  0.70225426  0.59533542  1
  O2-  O209  1  0.16278304  0.70941143  0.93902612  1
  O2-  O210  1  0.66614470  0.19872376  0.27456741  1
  O2-  O211  1  0.66604392  0.21028669  0.59318062  1
  O2-  O212  1  0.67097388  0.20045988  0.93516040  1
  O2-  O213  1  0.66784693  0.71347093  0.26855401  1
  O2-  O214  1  0.66569520  0.70389689  0.60547685  1
  O2-  O215  1  0.66945992  0.71143097  0.93269602  1
  O2-  O216  1  0.08751769  0.45928503  0.06796005  1
  O2-  O217  1  0.08962632  0.45609061  0.39496837  1
  O2-  O218  1  0.08380582  0.45956107  0.73492668  1
  O2-  O219  1  0.08389341  0.95048737  0.06508091  1
  O2-  O220  1  0.08510459  0.95684320  0.39376785  1
  O2-  O221  1  0.07946496  0.95788301  0.73355484  1
  O2-  O222  1  0.57808354  0.45419798  0.06510863  1
  O2-  O223  1  0.58222272  0.45317642  0.39762567  1
  O2-  O224  1  0.57492997  0.44281842  0.72904631  1
  O2-  O225  1  0.57813786  0.95036492  0.07050835  1
  O2-  O226  1  0.58134422  0.96142933  0.40140098  1
  O2-  O227  1  0.58514548  0.96311412  0.73291232  1
  O2-  O228  1  0.19618390  0.33156686  0.06269292  1
  O2-  O229  1  0.21250023  0.33927086  0.39295300  1
  O2-  O230  1  0.20844408  0.33534767  0.73796078  1
  O2-  O231  1  0.20491026  0.83463061  0.06668484  1
  O2-  O232  1  0.20271825  0.83504621  0.39494667  1
  O2-  O233  1  0.20059932  0.82626097  0.72879391  1
  O2-  O234  1  0.70860297  0.33092367  0.06706860  1
  O2-  O235  1  0.69915269  0.33103925  0.39551737  1
  O2-  O236  1  0.71233365  0.32872617  0.73122297  1
  O2-  O237  1  0.71438359  0.83357459  0.07010999  1
  O2-  O238  1  0.71304100  0.83661473  0.40314875  1
  O2-  O239  1  0.70793216  0.83381543  0.73297972  1
  O2-  O240  1  0.45241430  0.41494003  0.27469105  1
  O2-  O241  1  0.44780189  0.41664207  0.60080324  1
  O2-  O242  1  0.44633876  0.42303232  0.93327220  1
  O2-  O243  1  0.45086864  0.91923907  0.27188902  1
  O2-  O244  1  0.46214441  0.91564751  0.59770149  1
  O2-  O245  1  0.44523297  0.91677483  0.94460271  1
  O2-  O246  1  0.96161411  0.41458365  0.27028993  1
  O2-  O247  1  0.96002862  0.41170760  0.60278269  1
  O2-  O248  1  0.96635655  0.41533090  0.93051440  1
  O2-  O249  1  0.95919089  0.91006342  0.26700442  1
  O2-  O250  1  0.95618760  0.92189568  0.59588921  1
  O2-  O251  1  0.95928583  0.91077400  0.93796707  1
  O2-  O252  1  0.34057461  0.28914916  0.26914767  1
  O2-  O253  1  0.33207333  0.29349478  0.60098687  1
  O2-  O254  1  0.32663337  0.29379216  0.93552026  1
  O2-  O255  1  0.33209906  0.79932290  0.26906316  1
  O2-  O256  1  0.33441421  0.79249839  0.59723346  1
  O2-  O257  1  0.33292994  0.78987259  0.93878221  1
  O2-  O258  1  0.83238610  0.30431130  0.27357953  1
  O2-  O259  1  0.84036781  0.29253042  0.59813918  1
  O2-  O260  1  0.83412891  0.29185990  0.92951024  1
  O2-  O261  1  0.83823822  0.79035097  0.27087346  1
  O2-  O262  1  0.82950526  0.79260383  0.59629333  1
  O2-  O263  1  0.83826127  0.79395273  0.93909073  1
  O2-  O264  1  0.41273710  0.03960567  0.07548932  1
  O2-  O265  1  0.40998935  0.04628608  0.39678792  1
  O2-  O266  1  0.41926493  0.03986625  0.73352327  1
  O2-  O267  1  0.41673623  0.54247997  0.06931625  1
  O2-  O268  1  0.41289570  0.54355383  0.39803677  1
  O2-  O269  1  0.41671666  0.54925072  0.72620906  1
  O2-  O270  1  0.91913694  0.03836132  0.06912398  1
  O2-  O271  1  0.91868476  0.04473130  0.39333978  1
  O2-  O272  1  0.91841863  0.05397961  0.72471626  1
  O2-  O273  1  0.92082526  0.53988013  0.06826449  1
  O2-  O274  1  0.91884122  0.53977490  0.40278796  1
  O2-  O275  1  0.91663736  0.53954500  0.73343407  1
  O2-  O276  1  0.28654341  0.16697396  0.07184527  1
  O2-  O277  1  0.28722442  0.16358674  0.39531528  1
  O2-  O278  1  0.29320123  0.16749142  0.73522203  1
  O2-  O279  1  0.28445625  0.66362025  0.07255330  1
  O2-  O280  1  0.29576762  0.66612494  0.39329000  1
  O2-  O281  1  0.29706369  0.66659456  0.72548198  1
  O2-  O282  1  0.80207370  0.17136840  0.06568099  1
  O2-  O283  1  0.80497026  0.16967910  0.39371672  1
  O2-  O284  1  0.79600206  0.16689784  0.72297444  1
  O2-  O285  1  0.79636266  0.66958689  0.06845763  1
  O2-  O286  1  0.79007711  0.66569872  0.40287555  1
  O2-  O287  1  0.79626987  0.67056097  0.73351255  1
