# generated using pymatgen
data_Ca2Al2SiO7
_symmetry_space_group_name_H-M   'P 1'
_cell_length_a   15.45912222
_cell_length_b   15.45877011
_cell_length_c   15.28513487
_cell_angle_alpha   90.01068221
_cell_angle_beta   90.00559747
_cell_angle_gamma   90.00445086
_symmetry_Int_Tables_number   1
_chemical_formula_structural   Ca2Al2SiO7
_chemical_formula_sum   'Ca48 Al48 Si24 O168'
_cell_volume   3652.82640752
_cell_formula_units_Z   24
loop_
 _symmetry_equiv_pos_site_id
 _symmetry_equiv_pos_as_xyz
  1  'x, y, z'
loop_
 _atom_type_symbol
 _atom_type_oxidation_number
  Ca2+  2.0
  Al0+  0.0
  Si0+  0.0
  O2-  -2.0
loop_
 _atom_site_type_symbol
 _atom_site_label
 _atom_site_symmetry_multiplicity
 _atom_site_fract_x
 _atom_site_fract_y
 _atom_site_fract_z
 _atom_site_occupancy
  Ca2+  Ca0  1  0.17211845  0.08213090  0.17371236  1
  Ca2+  Ca1  1  0.17496047  0.07391300  0.50361939  1
  Ca2+  Ca2  1  0.16599867  0.07930181  0.83587447  1
  Ca2+  Ca3  1  0.17349958  0.57926502  0.16429752  1
  Ca2+  Ca4  1  0.16909297  0.57662386  0.50747874  1
  Ca2+  Ca5  1  0.17586949  0.57083665  0.84029477  1
  Ca2+  Ca6  1  0.65622378  0.07790219  0.16662240  1
  Ca2+  Ca7  1  0.67174711  0.07894541  0.51271957  1
  Ca2+  Ca8  1  0.65650234  0.07582500  0.83356503  1
  Ca2+  Ca9  1  0.67203070  0.57257081  0.17318163  1
  Ca2+  Ca10  1  0.66285534  0.58553746  0.49851484  1
  Ca2+  Ca11  1  0.66705306  0.58054355  0.84235610  1
  Ca2+  Ca12  1  0.07914379  0.33236832  0.15795172  1
  Ca2+  Ca13  1  0.07641657  0.33532897  0.49482944  1
  Ca2+  Ca14  1  0.09045042  0.33037083  0.83094069  1
  Ca2+  Ca15  1  0.08275356  0.83418826  0.16381110  1
  Ca2+  Ca16  1  0.07993448  0.84328534  0.49888008  1
  Ca2+  Ca17  1  0.07625385  0.83226536  0.82300593  1
  Ca2+  Ca18  1  0.58324362  0.32998085  0.15608731  1
  Ca2+  Ca19  1  0.58319161  0.32916451  0.49767961  1
  Ca2+  Ca20  1  0.57584554  0.33304791  0.82749982  1
  Ca2+  Ca21  1  0.58099431  0.83019535  0.16418868  1
  Ca2+  Ca22  1  0.58113102  0.82594196  0.49605847  1
  Ca2+  Ca23  1  0.58265057  0.82863047  0.82151196  1
  Ca2+  Ca24  1  0.33491791  0.41659152  0.16431111  1
  Ca2+  Ca25  1  0.32917919  0.41521216  0.50930067  1
  Ca2+  Ca26  1  0.33127104  0.41311422  0.83999570  1
  Ca2+  Ca27  1  0.32989431  0.92588837  0.18113549  1
  Ca2+  Ca28  1  0.33072006  0.91253545  0.50263867  1
  Ca2+  Ca29  1  0.33123984  0.91164381  0.83465479  1
  Ca2+  Ca30  1  0.82429072  0.41990256  0.17456006  1
  Ca2+  Ca31  1  0.82906354  0.41881421  0.49830354  1
  Ca2+  Ca32  1  0.82397871  0.42589114  0.84321649  1
  Ca2+  Ca33  1  0.82515073  0.91849977  0.16650586  1
  Ca2+  Ca34  1  0.82869487  0.92254398  0.51352175  1
  Ca2+  Ca35  1  0.82213337  0.91811783  0.83165931  1
  Ca2+  Ca36  1  0.41911301  0.17185392  0.15722634  1
  Ca2+  Ca37  1  0.41820681  0.16691215  0.50126836  1
  Ca2+  Ca38  1  0.42811490  0.17741505  0.83014873  1
  Ca2+  Ca39  1  0.41772231  0.66990281  0.16482934  1
  Ca2+  Ca40  1  0.42704329  0.67687084  0.49630927  1
  Ca2+  Ca41  1  0.42240473  0.66823067  0.82446240  1
  Ca2+  Ca42  1  0.92388476  0.17401887  0.16176659  1
  Ca2+  Ca43  1  0.91458172  0.17077308  0.49477554  1
  Ca2+  Ca44  1  0.92192536  0.16181966  0.82947838  1
  Ca2+  Ca45  1  0.91128245  0.66166298  0.16465112  1
  Ca2+  Ca46  1  0.91510740  0.67161234  0.49628503  1
  Ca2+  Ca47  1  0.91248983  0.67221404  0.82775699  1
  Al0+  Al48  1  -0.00248911  -0.00016756  -0.00348664  1
  Al0+  Al49  1  0.00031366  0.00012526  0.33354478  1
  Al0+  Al50  1  0.00144203  0.00038998  0.66946139  1
  Al0+  Al51  1  0.00226914  0.50151288  0.00457920  1
  Al0+  Al52  1  -0.00229308  0.50124988  0.33150301  1
  Al0+  Al53  1  0.00074268  0.49891075  0.67178320  1
  Al0+  Al54  1  0.49805945  -0.00043004  0.00074986  1
  Al0+  Al55  1  0.49903635  0.00078098  0.33567366  1
  Al0+  Al56  1  0.49883483  0.00112845  0.66380159  1
  Al0+  Al57  1  0.49986080  0.50231264  0.00395206  1
  Al0+  Al58  1  0.50022572  0.49901947  0.33411679  1
  Al0+  Al59  1  0.50009726  0.50028161  0.65798474  1
  Al0+  Al60  1  0.24924611  0.24816374  -0.00436639  1
  Al0+  Al61  1  0.25092241  0.24819294  0.33820562  1
  Al0+  Al62  1  0.24900643  0.24806301  0.66625400  1
  Al0+  Al63  1  0.24732149  0.74872817  0.00271217  1
  Al0+  Al64  1  0.24804688  0.74954969  0.33344555  1
  Al0+  Al65  1  0.24983546  0.74749328  0.66786509  1
  Al0+  Al66  1  0.75275302  0.24692949  -0.00228367  1
  Al0+  Al67  1  0.74977207  0.25123919  0.33076877  1
  Al0+  Al68  1  0.75241762  0.25198718  0.66870887  1
  Al0+  Al69  1  0.74883707  0.75316486  0.00784401  1
  Al0+  Al70  1  0.75107572  0.74895949  0.33142692  1
  Al0+  Al71  1  0.75248226  0.75150584  0.66111060  1
  Al0+  Al72  1  0.67774874  0.92897282  0.67960414  1
  Al0+  Al73  1  0.93174313  0.82124650  0.65320165  1
  Al0+  Al74  1  0.82072727  0.57279233  0.01422571  1
  Al0+  Al75  1  0.42841821  0.82132857  0.31679047  1
  Al0+  Al76  1  0.17788076  0.92777486  0.34822785  1
  Al0+  Al77  1  0.57202488  0.67847070  0.31372751  1
  Al0+  Al78  1  0.43113283  0.32330922  0.98622617  1
  Al0+  Al79  1  0.82130617  0.57130884  0.35152990  1
  Al0+  Al80  1  0.57377550  0.67892283  0.65208915  1
  Al0+  Al81  1  0.57350188  0.18022058  0.65085102  1
  Al0+  Al82  1  0.32222155  0.57311120  0.01550251  1
  Al0+  Al83  1  0.07009474  0.17890277  0.98560510  1
  Al0+  Al84  1  0.18134229  0.42579574  0.01614827  1
  Al0+  Al85  1  0.42595186  0.82185084  0.65294599  1
  Al0+  Al86  1  0.18101565  0.92789561  0.68221316  1
  Al0+  Al87  1  0.67752519  0.42737607  0.35078378  1
  Al0+  Al88  1  0.92921907  0.32139050  0.31907553  1
  Al0+  Al89  1  0.57324495  0.17609504  0.98509020  1
  Al0+  Al90  1  0.82184368  0.07415025  0.68206210  1
  Al0+  Al91  1  0.67882387  0.42631246  0.01283661  1
  Al0+  Al92  1  0.32298914  0.07246125  0.35029849  1
  Al0+  Al93  1  0.42787003  0.32021837  0.64992825  1
  Al0+  Al94  1  0.17890688  0.42777101  0.67993986  1
  Al0+  Al95  1  0.67727664  0.93200259  0.01454380  1
  Si0+  Si96  1  0.07041374  0.17825283  0.64985346  1
  Si0+  Si97  1  0.92972435  0.82303531  0.31685603  1
  Si0+  Si98  1  0.32330526  0.56981206  0.68128224  1
  Si0+  Si99  1  0.32094968  0.57099395  0.34967308  1
  Si0+  Si100  1  0.07051883  0.67778831  0.31718937  1
  Si0+  Si101  1  0.07220000  0.67889907  0.98401359  1
  Si0+  Si102  1  0.82159892  0.57114512  0.68034072  1
  Si0+  Si103  1  0.42646346  0.32049586  0.31871820  1
  Si0+  Si104  1  0.82058458  0.07080901  0.34558936  1
  Si0+  Si105  1  0.57125006  0.17983197  0.31883196  1
  Si0+  Si106  1  0.07195231  0.17870100  0.31815340  1
  Si0+  Si107  1  0.31886500  0.06807511  0.01291866  1
  Si0+  Si108  1  0.42632710  0.82079468  0.98660811  1
  Si0+  Si109  1  0.17598309  0.92864967  0.01399549  1
  Si0+  Si110  1  0.07032093  0.67612212  0.65139574  1
  Si0+  Si111  1  0.17885606  0.42944456  0.34721223  1
  Si0+  Si112  1  0.82530304  0.07058342  0.01821482  1
  Si0+  Si113  1  0.57100264  0.68241101  0.98737434  1
  Si0+  Si114  1  0.92944390  0.32451335  0.98202849  1
  Si0+  Si115  1  0.67952737  0.92925639  0.34815023  1
  Si0+  Si116  1  0.67841864  0.43029044  0.68060251  1
  Si0+  Si117  1  0.32217024  0.07254783  0.68681503  1
  Si0+  Si118  1  0.92813552  0.81987698  0.98501260  1
  Si0+  Si119  1  0.93032053  0.32335379  0.65284435  1
  O2-  O120  1  0.24740227  -0.00204617  0.05658968  1
  O2-  O121  1  0.25303475  -0.00338910  0.39739694  1
  O2-  O122  1  0.25792179  -0.00105143  0.73108108  1
  O2-  O123  1  0.25440699  0.49670840  0.06605860  1
  O2-  O124  1  0.25105142  0.49801301  0.39111581  1
  O2-  O125  1  0.25754731  0.49835637  0.72546734  1
  O2-  O126  1  0.74908277  0.00998648  0.06213643  1
  O2-  O127  1  0.75117534  -0.00019130  0.38918566  1
  O2-  O128  1  0.74608269  0.00481305  0.73032967  1
  O2-  O129  1  0.75346635  0.49591224  0.06288572  1
  O2-  O130  1  0.74723212  0.50181710  0.40157673  1
  O2-  O131  1  0.74626523  0.50492811  0.72199649  1
  O2-  O132  1  0.00618381  0.24891522  0.27251360  1
  O2-  O133  1  -0.00090922  0.25004002  0.60962482  1
  O2-  O134  1  -0.00222391  0.25553492  0.93714138  1
  O2-  O135  1  0.00067470  0.75123688  0.27559972  1
  O2-  O136  1  0.00697375  0.74796303  0.60437605  1
  O2-  O137  1  -0.00254706  0.74675132  0.94326074  1
  O2-  O138  1  0.49888114  0.25028878  0.27767543  1
  O2-  O139  1  0.50100685  0.25037026  0.59835205  1
  O2-  O140  1  0.50882970  0.25629651  0.93753090  1
  O2-  O141  1  0.49970482  0.75062825  0.26355429  1
  O2-  O142  1  0.50289720  0.75397657  0.60469699  1
  O2-  O143  1  0.49700292  0.74985712  0.94450858  1
  O2-  O144  1  0.06790868  0.17682591  0.09895102  1
  O2-  O145  1  0.06935205  0.17872791  0.42373417  1
  O2-  O146  1  0.07054315  0.17812401  0.75507663  1
  O2-  O147  1  0.07523138  0.68253333  0.08925026  1
  O2-  O148  1  0.07004662  0.67442981  0.42215870  1
  O2-  O149  1  0.06609241  0.67577298  0.75702758  1
  O2-  O150  1  0.56554292  0.17294966  0.09923953  1
  O2-  O151  1  0.57407529  0.18061022  0.42348993  1
  O2-  O152  1  0.57242921  0.18378440  0.76415528  1
  O2-  O153  1  0.57166617  0.68529845  0.09197640  1
  O2-  O154  1  0.57083687  0.68205083  0.42715471  1
  O2-  O155  1  0.57322954  0.67697057  0.76652706  1
  O2-  O156  1  0.18008368  0.42943416  0.24244666  1
  O2-  O157  1  0.17576478  0.43154175  0.56611010  1
  O2-  O158  1  0.18172062  0.42832341  0.90260446  1
  O2-  O159  1  0.17522870  0.93178432  0.23388256  1
  O2-  O160  1  0.17885368  0.93182855  0.56963516  1
  O2-  O161  1  0.17638582  0.92785856  0.90905020  1
  O2-  O162  1  0.67990364  0.42405425  0.23738419  1
  O2-  O163  1  0.68132065  0.42769357  0.57588410  1
  O2-  O164  1  0.67869244  0.43175781  0.89852521  1
  O2-  O165  1  0.67984515  0.93146914  0.24259399  1
  O2-  O166  1  0.68307646  0.92841949  0.56567104  1
  O2-  O167  1  0.67842556  0.92745233  0.90217123  1
  O2-  O168  1  0.42860141  0.31822489  0.10038152  1
  O2-  O169  1  0.42374362  0.31920031  0.42347344  1
  O2-  O170  1  0.42884153  0.32148369  0.76326713  1
  O2-  O171  1  0.42614710  0.82163620  0.09143628  1
  O2-  O172  1  0.42956682  0.81922500  0.42983605  1
  O2-  O173  1  0.42472311  0.81618515  0.76741265  1
  O2-  O174  1  0.93135874  0.32221743  0.08779657  1
  O2-  O175  1  0.93129719  0.31898689  0.43274116  1
  O2-  O176  1  0.93250318  0.32623328  0.75757639  1
  O2-  O177  1  0.93091541  0.82227024  0.09048479  1
  O2-  O178  1  0.93079267  0.82545135  0.42163743  1
  O2-  O179  1  0.93045172  0.81770937  0.76668770  1
  O2-  O180  1  0.31984876  0.07496585  0.23588801  1
  O2-  O181  1  0.31729158  0.07574523  0.58143475  1
  O2-  O182  1  0.31849302  0.06446297  0.90819926  1
  O2-  O183  1  0.31894784  0.57105549  0.24465768  1
  O2-  O184  1  0.31937165  0.56975203  0.57538456  1
  O2-  O185  1  0.31845092  0.57895083  0.90227122  1
  O2-  O186  1  0.82156805  0.06858285  0.24046671  1
  O2-  O187  1  0.82297797  0.07245751  0.56746778  1
  O2-  O188  1  0.83310971  0.06400258  0.91371007  1
  O2-  O189  1  0.82219885  0.56805545  0.23826290  1
  O2-  O190  1  0.82643626  0.56770837  0.57587703  1
  O2-  O191  1  0.81724332  0.57543413  0.89984496  1
  O2-  O192  1  0.04389847  0.08598412  0.27076599  1
  O2-  O193  1  0.04187924  0.08727985  0.60212232  1
  O2-  O194  1  0.03677072  0.08276035  0.93045805  1
  O2-  O195  1  0.04054405  0.58804598  0.26687987  1
  O2-  O196  1  0.04019290  0.58384733  0.60435106  1
  O2-  O197  1  0.04909647  0.58534276  0.93813664  1
  O2-  O198  1  0.54368005  0.08743329  0.27245257  1
  O2-  O199  1  0.54733104  0.08100145  0.59871618  1
  O2-  O200  1  0.53453838  0.08077386  0.93137516  1
  O2-  O201  1  0.54294758  0.57819230  0.26517190  1
  O2-  O202  1  0.54412916  0.58280233  0.59541753  1
  O2-  O203  1  0.54690998  0.58938911  0.94107222  1
  O2-  O204  1  0.16680411  0.20275095  0.27405951  1
  O2-  O205  1  0.16139603  0.20616367  0.60171085  1
  O2-  O206  1  0.16624918  0.20554135  0.92919191  1
  O2-  O207  1  0.16194974  0.70448171  0.26848874  1
  O2-  O208  1  0.16570076  0.69572354  0.60754456  1
  O2-  O209  1  0.16175455  0.71070676  0.93426258  1
  O2-  O210  1  0.66220200  0.20668722  0.26908330  1
  O2-  O211  1  0.67318139  0.20949075  0.59965425  1
  O2-  O212  1  0.67678242  0.18901074  0.93785196  1
  O2-  O213  1  0.67153617  0.70732989  0.26277168  1
  O2-  O214  1  0.67181706  0.70483854  0.59756640  1
  O2-  O215  1  0.66226847  0.71417222  0.94085614  1
  O2-  O216  1  0.08394833  0.45751725  0.06942488  1
  O2-  O217  1  0.08751495  0.46000487  0.39352977  1
  O2-  O218  1  0.08472179  0.46158220  0.73712060  1
  O2-  O219  1  0.08413786  0.95745924  0.06062744  1
  O2-  O220  1  0.08013566  0.96020060  0.40133381  1
  O2-  O221  1  0.08566095  0.96190342  0.73691400  1
  O2-  O222  1  0.58174178  0.45557464  0.06681842  1
  O2-  O223  1  0.57764911  0.45241789  0.40252742  1
  O2-  O224  1  0.58484840  0.45645585  0.72478113  1
  O2-  O225  1  0.58026083  0.96075664  0.06998663  1
  O2-  O226  1  0.58812227  0.95669257  0.39473019  1
  O2-  O227  1  0.57731581  0.95244181  0.73104645  1
  O2-  O228  1  0.20608354  0.32581204  0.06760404  1
  O2-  O229  1  0.20335454  0.33692423  0.39495012  1
  O2-  O230  1  0.20528011  0.32950493  0.73185448  1
  O2-  O231  1  0.20095340  0.83650719  0.06154862  1
  O2-  O232  1  0.19963381  0.82731845  0.39963941  1
  O2-  O233  1  0.20529136  0.82846122  0.73514113  1
  O2-  O234  1  0.70420219  0.32541100  0.06293276  1
  O2-  O235  1  0.71170392  0.32971726  0.40317289  1
  O2-  O236  1  0.70990132  0.34101904  0.72993807  1
  O2-  O237  1  0.71345627  0.83949137  0.07311315  1
  O2-  O238  1  0.70864131  0.83734333  0.39268521  1
  O2-  O239  1  0.71239542  0.83129059  0.73194611  1
  O2-  O240  1  0.45105352  0.41336433  0.27278803  1
  O2-  O241  1  0.45303975  0.41861039  0.59590179  1
  O2-  O242  1  0.45261741  0.42464636  0.93535657  1
  O2-  O243  1  0.45642098  0.92167895  0.26619357  1
  O2-  O244  1  0.44513927  0.92268741  0.60273783  1
  O2-  O245  1  0.45344857  0.91221701  0.93921342  1
  O2-  O246  1  0.95943933  0.41772381  0.26504715  1
  O2-  O247  1  0.96235764  0.41350920  0.60381919  1
  O2-  O248  1  0.95490141  0.41933990  0.93812175  1
  O2-  O249  1  0.95848481  0.91420154  0.26726111  1
  O2-  O250  1  0.96347392  0.91801638  0.59973757  1
  O2-  O251  1  0.95822812  0.90980492  0.93619670  1
  O2-  O252  1  0.33454095  0.29129675  0.27135047  1
  O2-  O253  1  0.32885906  0.28992198  0.59789048  1
  O2-  O254  1  0.33436682  0.28922153  0.93324434  1
  O2-  O255  1  0.32789301  0.79386911  0.26620448  1
  O2-  O256  1  0.32877387  0.78870124  0.59888238  1
  O2-  O257  1  0.33310750  0.79404078  0.94084498  1
  O2-  O258  1  0.83447000  0.28723005  0.26355483  1
  O2-  O259  1  0.83839402  0.29842208  0.60485890  1
  O2-  O260  1  0.83562192  0.30015201  0.93609782  1
  O2-  O261  1  0.83832120  0.79574171  0.26856616  1
  O2-  O262  1  0.83756099  0.79082114  0.59561809  1
  O2-  O263  1  0.83532783  0.79254500  0.93973107  1
  O2-  O264  1  0.40897569  0.03982335  0.06307774  1
  O2-  O265  1  0.42159316  0.04676189  0.40355593  1
  O2-  O266  1  0.41784430  0.05323237  0.72991387  1
  O2-  O267  1  0.42074096  0.55081023  0.06983216  1
  O2-  O268  1  0.41261425  0.54422162  0.39645839  1
  O2-  O269  1  0.41843611  0.54706824  0.72511325  1
  O2-  O270  1  0.91466441  0.03527509  0.06870274  1
  O2-  O271  1  0.91275456  0.04457156  0.39315018  1
  O2-  O272  1  0.91885560  0.04157927  0.73505077  1
  O2-  O273  1  0.92187641  0.55200962  0.06439199  1
  O2-  O274  1  0.92018961  0.54141126  0.40375154  1
  O2-  O275  1  0.91073466  0.53946703  0.73127903  1
  O2-  O276  1  0.29050252  0.15966184  0.05968128  1
  O2-  O277  1  0.29077303  0.16853650  0.40668322  1
  O2-  O278  1  0.28910999  0.16341588  0.73394932  1
  O2-  O279  1  0.28504208  0.66840334  0.07198891  1
  O2-  O280  1  0.28955283  0.66143406  0.39693085  1
  O2-  O281  1  0.29534853  0.66146911  0.72949884  1
  O2-  O282  1  0.81027337  0.16766526  0.06003592  1
  O2-  O283  1  0.79291300  0.16246821  0.39227363  1
  O2-  O284  1  0.80135115  0.17444459  0.73476667  1
  O2-  O285  1  0.79109600  0.66938061  0.06974104  1
  O2-  O286  1  0.79690198  0.67241774  0.40122584  1
  O2-  O287  1  0.79881076  0.66508061  0.72492954  1
