# generated using pymatgen
data_Ca2Al2SiO7
_symmetry_space_group_name_H-M   'P 1'
_cell_length_a   15.45849247
_cell_length_b   15.45815426
_cell_length_c   15.28446130
_cell_angle_alpha   89.99295102
_cell_angle_beta   90.00376822
_cell_angle_gamma   90.01656626
_symmetry_Int_Tables_number   1
_chemical_formula_structural   Ca2Al2SiO7
_chemical_formula_sum   'Ca48 Al48 Si24 O168'
_cell_volume   3652.37103353
_cell_formula_units_Z   24
loop_
 _symmetry_equiv_pos_site_id
 _symmetry_equiv_pos_as_xyz
  1  'x, y, z'
loop_
 _atom_type_symbol
 _atom_type_oxidation_number
  Ca2+  2.0
  Al0+  0.0
  Si0+  0.0
  O2-  -2.0
loop_
 _atom_site_type_symbol
 _atom_site_label
 _atom_site_symmetry_multiplicity
 _atom_site_fract_x
 _atom_site_fract_y
 _atom_site_fract_z
 _atom_site_occupancy
  Ca2+  Ca0  1  0.17782262  0.08621692  0.17103850  1
  Ca2+  Ca1  1  0.16650403  0.08493519  0.50628874  1
  Ca2+  Ca2  1  0.16443995  0.07306537  0.83984459  1
  Ca2+  Ca3  1  0.16435665  0.58076919  0.16936627  1
  Ca2+  Ca4  1  0.17347228  0.58319991  0.50768410  1
  Ca2+  Ca5  1  0.16704103  0.57143732  0.83968459  1
  Ca2+  Ca6  1  0.66960536  0.08505033  0.16347931  1
  Ca2+  Ca7  1  0.66886451  0.07657818  0.50917299  1
  Ca2+  Ca8  1  0.66508053  0.07941383  0.84191399  1
  Ca2+  Ca9  1  0.66978411  0.57847829  0.16412999  1
  Ca2+  Ca10  1  0.67505360  0.58293934  0.50896131  1
  Ca2+  Ca11  1  0.67976594  0.57880034  0.83907975  1
  Ca2+  Ca12  1  0.08825387  0.32887212  0.16143431  1
  Ca2+  Ca13  1  0.09431575  0.32418907  0.50224941  1
  Ca2+  Ca14  1  0.08928178  0.32910611  0.82795772  1
  Ca2+  Ca15  1  0.08739124  0.82110274  0.16043561  1
  Ca2+  Ca16  1  0.07258120  0.83332518  0.49349049  1
  Ca2+  Ca17  1  0.08143026  0.83180467  0.82770173  1
  Ca2+  Ca18  1  0.57465187  0.32888822  0.14977467  1
  Ca2+  Ca19  1  0.57744892  0.32998850  0.50083136  1
  Ca2+  Ca20  1  0.57687396  0.32642899  0.82877736  1
  Ca2+  Ca21  1  0.58210378  0.83467415  0.15968470  1
  Ca2+  Ca22  1  0.58289684  0.83358107  0.49989362  1
  Ca2+  Ca23  1  0.58683751  0.83834370  0.82905028  1
  Ca2+  Ca24  1  0.32919307  0.41702020  0.16836366  1
  Ca2+  Ca25  1  0.32967811  0.42644816  0.50909317  1
  Ca2+  Ca26  1  0.32773320  0.41010795  0.83424425  1
  Ca2+  Ca27  1  0.33029630  0.92916517  0.16618241  1
  Ca2+  Ca28  1  0.32271262  0.92346537  0.50623987  1
  Ca2+  Ca29  1  0.32106201  0.92324208  0.84007998  1
  Ca2+  Ca30  1  0.82904398  0.41831523  0.16257149  1
  Ca2+  Ca31  1  0.83497010  0.42601622  0.50761703  1
  Ca2+  Ca32  1  0.83265980  0.42727073  0.84283545  1
  Ca2+  Ca33  1  0.83188974  0.91684047  0.16342546  1
  Ca2+  Ca34  1  0.83195460  0.90956980  0.50863246  1
  Ca2+  Ca35  1  0.82558439  0.92074843  0.83795565  1
  Ca2+  Ca36  1  0.41748769  0.16832885  0.15336344  1
  Ca2+  Ca37  1  0.41604258  0.17029608  0.49990121  1
  Ca2+  Ca38  1  0.42168762  0.17282700  0.83058759  1
  Ca2+  Ca39  1  0.41346272  0.66687233  0.16256318  1
  Ca2+  Ca40  1  0.41177947  0.66367854  0.49654304  1
  Ca2+  Ca41  1  0.41806262  0.66603075  0.82813234  1
  Ca2+  Ca42  1  0.92137451  0.16396726  0.16228616  1
  Ca2+  Ca43  1  0.93229797  0.16488427  0.49694585  1
  Ca2+  Ca44  1  0.91931446  0.16478052  0.82874033  1
  Ca2+  Ca45  1  0.92535477  0.66969182  0.16033082  1
  Ca2+  Ca46  1  0.92072120  0.67566025  0.49517745  1
  Ca2+  Ca47  1  0.91778360  0.66816342  0.82885494  1
  Al0+  Al48  1  -0.00162796  -0.00398770  0.00764372  1
  Al0+  Al49  1  -0.00183072  0.00152302  0.32344661  1
  Al0+  Al50  1  -0.00126523  -0.00051915  0.66194022  1
  Al0+  Al51  1  0.00240063  0.49999363  0.00483148  1
  Al0+  Al52  1  -0.00256898  0.49862789  0.33209663  1
  Al0+  Al53  1  0.00199409  0.50082159  0.67275399  1
  Al0+  Al54  1  0.49902537  -0.00073372  0.00260519  1
  Al0+  Al55  1  0.50009487  0.00005990  0.33846140  1
  Al0+  Al56  1  0.50000340  -0.00150238  0.66469854  1
  Al0+  Al57  1  0.49986483  0.50132011  -0.00317485  1
  Al0+  Al58  1  0.49905858  0.49905097  0.33680149  1
  Al0+  Al59  1  0.50181295  0.50066902  0.66471031  1
  Al0+  Al60  1  0.24984133  0.25081586  0.00243320  1
  Al0+  Al61  1  0.25183170  0.25057383  0.33391600  1
  Al0+  Al62  1  0.25256052  0.25159745  0.66118946  1
  Al0+  Al63  1  0.24952718  0.74865549  -0.00310477  1
  Al0+  Al64  1  0.25039154  0.75123729  0.33295772  1
  Al0+  Al65  1  0.25102522  0.75102874  0.67326046  1
  Al0+  Al66  1  0.75071813  0.24992046  0.00298835  1
  Al0+  Al67  1  0.74934629  0.24809381  0.33626191  1
  Al0+  Al68  1  0.75047001  0.24988740  0.65958581  1
  Al0+  Al69  1  0.75110369  0.75091756  0.00748660  1
  Al0+  Al70  1  0.74863573  0.74908228  0.32859656  1
  Al0+  Al71  1  0.74988923  0.75061019  0.67070439  1
  Al0+  Al72  1  0.82292501  0.57151107  0.01756930  1
  Al0+  Al73  1  0.18043488  0.42863403  0.01520416  1
  Al0+  Al74  1  0.31818063  0.07072035  0.01223065  1
  Al0+  Al75  1  0.82128840  0.57104715  0.67908604  1
  Al0+  Al76  1  0.42671327  0.32291760  0.98391965  1
  Al0+  Al77  1  0.67895504  0.93046948  0.67909504  1
  Al0+  Al78  1  0.57232768  0.17614449  0.64947369  1
  Al0+  Al79  1  0.92914887  0.81873924  0.65537202  1
  Al0+  Al80  1  0.07230892  0.67871189  0.31926463  1
  Al0+  Al81  1  0.31979638  0.57145012  0.34604825  1
  Al0+  Al82  1  0.06986603  0.17932862  0.65616063  1
  Al0+  Al83  1  0.57222741  0.17797307  0.98557733  1
  Al0+  Al84  1  0.17730339  0.92532477  0.01634364  1
  Al0+  Al85  1  0.82203165  0.07261222  0.01496683  1
  Al0+  Al86  1  0.07232189  0.18210835  0.31747949  1
  Al0+  Al87  1  0.17584513  0.93095739  0.67830486  1
  Al0+  Al88  1  0.18093668  0.42819407  0.68191033  1
  Al0+  Al89  1  0.32138494  0.07182511  0.34971152  1
  Al0+  Al90  1  0.67752851  0.92974196  0.01615393  1
  Al0+  Al91  1  0.32362763  0.57259671  0.68332989  1
  Al0+  Al92  1  0.67777898  0.42930454  0.01264825  1
  Al0+  Al93  1  0.43009304  0.32225669  0.64820818  1
  Al0+  Al94  1  0.92591797  0.82129675  0.31469343  1
  Al0+  Al95  1  0.07129126  0.67792489  0.98303359  1
  Si0+  Si96  1  0.92792635  0.32553808  0.65155342  1
  Si0+  Si97  1  0.17627214  0.42816198  0.35024964  1
  Si0+  Si98  1  0.68015292  0.92820434  0.34975449  1
  Si0+  Si99  1  0.81921002  0.57089102  0.34894025  1
  Si0+  Si100  1  0.07355638  0.67739607  0.65189235  1
  Si0+  Si101  1  0.56961521  0.67758232  0.31851558  1
  Si0+  Si102  1  0.67925675  0.42624954  0.68158228  1
  Si0+  Si103  1  0.92735446  0.82113969  0.98122209  1
  Si0+  Si104  1  0.92994515  0.32051141  0.98652512  1
  Si0+  Si105  1  0.57108374  0.68105412  0.65248391  1
  Si0+  Si106  1  0.43212970  0.32107546  0.31751417  1
  Si0+  Si107  1  0.42939224  0.82056820  0.98446333  1
  Si0+  Si108  1  0.17716740  0.92975809  0.34885053  1
  Si0+  Si109  1  0.43000314  0.82229365  0.31925220  1
  Si0+  Si110  1  0.07019887  0.17743090  0.98699813  1
  Si0+  Si111  1  0.67804526  0.42824354  0.34950568  1
  Si0+  Si112  1  0.92425024  0.32153785  0.31607266  1
  Si0+  Si113  1  0.57277104  0.67995639  0.98468230  1
  Si0+  Si114  1  0.57123254  0.17765402  0.31801743  1
  Si0+  Si115  1  0.32185502  0.07190124  0.68219185  1
  Si0+  Si116  1  0.32267115  0.57251503  0.01570489  1
  Si0+  Si117  1  0.42679308  0.82088688  0.65115939  1
  Si0+  Si118  1  0.82223419  0.07306416  0.67941924  1
  Si0+  Si119  1  0.82166746  0.07148151  0.35051685  1
  O2-  O120  1  0.24522048  0.00140338  0.06546737  1
  O2-  O121  1  0.24271852  0.00055250  0.39534936  1
  O2-  O122  1  0.24929141  0.00694169  0.72509047  1
  O2-  O123  1  0.25607258  0.50285338  0.06080496  1
  O2-  O124  1  0.24032449  0.50211440  0.39258848  1
  O2-  O125  1  0.25238904  0.50030107  0.73272208  1
  O2-  O126  1  0.74799583  0.00281667  0.06635467  1
  O2-  O127  1  0.75403591  -0.00370450  0.39185603  1
  O2-  O128  1  0.74846811  0.01032486  0.72337940  1
  O2-  O129  1  0.74883839  0.50029774  0.06634576  1
  O2-  O130  1  0.75005171  0.49820662  0.39224223  1
  O2-  O131  1  0.75224680  0.49057339  0.72452069  1
  O2-  O132  1  -0.00304592  0.25717506  0.27194491  1
  O2-  O133  1  -0.00319025  0.25636669  0.60822379  1
  O2-  O134  1  -0.00229843  0.24655069  0.94416298  1
  O2-  O135  1  0.00134126  0.75120902  0.26756059  1
  O2-  O136  1  0.00528489  0.74614480  0.60717603  1
  O2-  O137  1  -0.00330785  0.75327142  0.93708277  1
  O2-  O138  1  0.50087844  0.24834906  0.27506003  1
  O2-  O139  1  0.50114025  0.24851255  0.59792419  1
  O2-  O140  1  0.50117741  0.25151523  0.93690198  1
  O2-  O141  1  0.49812251  0.74816890  0.27660542  1
  O2-  O142  1  0.49641181  0.74775551  0.60881234  1
  O2-  O143  1  0.50248434  0.75131045  0.94219625  1
  O2-  O144  1  0.07043987  0.18149243  0.09218731  1
  O2-  O145  1  0.07118353  0.18257335  0.43089761  1
  O2-  O146  1  0.06666422  0.17752188  0.76926124  1
  O2-  O147  1  0.07129027  0.67834787  0.09639178  1
  O2-  O148  1  0.07076851  0.67966128  0.43327386  1
  O2-  O149  1  0.07148199  0.67754930  0.75715123  1
  O2-  O150  1  0.56938870  0.17930033  0.10017620  1
  O2-  O151  1  0.57172590  0.17906229  0.42283625  1
  O2-  O152  1  0.57192764  0.17575438  0.76240078  1
  O2-  O153  1  0.56989182  0.67918461  0.09039605  1
  O2-  O154  1  0.57230123  0.67893885  0.42374838  1
  O2-  O155  1  0.57242403  0.68332127  0.75738090  1
  O2-  O156  1  0.17926865  0.42646019  0.24469135  1
  O2-  O157  1  0.18033976  0.43026136  0.56782886  1
  O2-  O158  1  0.17926681  0.42695933  0.90273291  1
  O2-  O159  1  0.18291305  0.92924931  0.24381483  1
  O2-  O160  1  0.17721335  0.93122820  0.56474006  1
  O2-  O161  1  0.17816680  0.92778718  0.90231740  1
  O2-  O162  1  0.67678512  0.42954089  0.24488224  1
  O2-  O163  1  0.67991899  0.42999194  0.57500729  1
  O2-  O164  1  0.68095122  0.43159564  0.89918458  1
  O2-  O165  1  0.67673167  0.92946491  0.24530212  1
  O2-  O166  1  0.68138646  0.92718214  0.56529971  1
  O2-  O167  1  0.67941679  0.92840745  0.90265219  1
  O2-  O168  1  0.42771181  0.32260913  0.09857446  1
  O2-  O169  1  0.43493710  0.32268288  0.42220584  1
  O2-  O170  1  0.43107788  0.32113667  0.76117236  1
  O2-  O171  1  0.43010019  0.81827327  0.09016793  1
  O2-  O172  1  0.43223897  0.82243341  0.42447306  1
  O2-  O173  1  0.42829976  0.82239135  0.75606304  1
  O2-  O174  1  0.93134245  0.32051420  0.09191448  1
  O2-  O175  1  0.92049788  0.32047676  0.42169261  1
  O2-  O176  1  0.92536401  0.32477807  0.75697888  1
  O2-  O177  1  0.92678550  0.81869509  0.08676550  1
  O2-  O178  1  0.92332364  0.81789272  0.42892241  1
  O2-  O179  1  0.92790785  0.81839347  0.76782535  1
  O2-  O180  1  0.32440958  0.07032454  0.23707547  1
  O2-  O181  1  0.32128143  0.06830319  0.57594302  1
  O2-  O182  1  0.31681703  0.06895370  0.89865787  1
  O2-  O183  1  0.32549280  0.56760562  0.23343762  1
  O2-  O184  1  0.32089043  0.57317194  0.56914672  1
  O2-  O185  1  0.32201665  0.57418633  0.91060541  1
  O2-  O186  1  0.81737894  0.07621146  0.24613902  1
  O2-  O187  1  0.82351867  0.06983155  0.57342715  1
  O2-  O188  1  0.82455409  0.07111343  0.90119637  1
  O2-  O189  1  0.81696683  0.57023977  0.24448110  1
  O2-  O190  1  0.81801538  0.57134608  0.56504602  1
  O2-  O191  1  0.82102876  0.57078435  0.90379891  1
  O2-  O192  1  0.04211242  0.08644487  0.26243268  1
  O2-  O193  1  0.03657925  0.08575242  0.59682385  1
  O2-  O194  1  0.04329251  0.08341931  0.94373196  1
  O2-  O195  1  0.04353548  0.57881402  0.26850396  1
  O2-  O196  1  0.04804173  0.58350693  0.60606164  1
  O2-  O197  1  0.03971239  0.58000380  0.93212894  1
  O2-  O198  1  0.54433916  0.08435525  0.27359361  1
  O2-  O199  1  0.54301653  0.07744423  0.59563388  1
  O2-  O200  1  0.54287039  0.07873636  0.93500098  1
  O2-  O201  1  0.54150420  0.58536917  0.27200032  1
  O2-  O202  1  0.54929008  0.58855314  0.60317154  1
  O2-  O203  1  0.54559289  0.58935482  0.93503528  1
  O2-  O204  1  0.16943156  0.21371133  0.26441777  1
  O2-  O205  1  0.16622517  0.20807040  0.59992985  1
  O2-  O206  1  0.16092945  0.20713388  0.93985005  1
  O2-  O207  1  0.17160733  0.70599592  0.26587818  1
  O2-  O208  1  0.16837131  0.70320741  0.60835422  1
  O2-  O209  1  0.16837605  0.70738262  0.92929716  1
  O2-  O210  1  0.66417692  0.20497830  0.27273583  1
  O2-  O211  1  0.67136543  0.20292238  0.59401440  1
  O2-  O212  1  0.67224480  0.20416740  0.93494889  1
  O2-  O213  1  0.65982992  0.70571992  0.26864728  1
  O2-  O214  1  0.66055118  0.71387633  0.60272966  1
  O2-  O215  1  0.66551791  0.70815160  0.93984285  1
  O2-  O216  1  0.08545993  0.45913070  0.07185676  1
  O2-  O217  1  0.07940388  0.44541349  0.39329772  1
  O2-  O218  1  0.08214091  0.45303768  0.73556925  1
  O2-  O219  1  0.07802714  0.94541747  0.06870303  1
  O2-  O220  1  0.08047682  0.95325510  0.38926956  1
  O2-  O221  1  0.07957588  0.96139617  0.73244434  1
  O2-  O222  1  0.57991893  0.46055717  0.06646775  1
  O2-  O223  1  0.58799659  0.45865965  0.39886301  1
  O2-  O224  1  0.58785562  0.45682435  0.72695736  1
  O2-  O225  1  0.57876078  0.95424852  0.07029066  1
  O2-  O226  1  0.58954721  0.95782036  0.39913938  1
  O2-  O227  1  0.58018878  0.95465073  0.73137864  1
  O2-  O228  1  0.21073854  0.33323506  0.07141752  1
  O2-  O229  1  0.20911090  0.33717713  0.39703413  1
  O2-  O230  1  0.20991934  0.32878417  0.73276540  1
  O2-  O231  1  0.21313832  0.82873663  0.06799782  1
  O2-  O232  1  0.20560582  0.83724527  0.39578789  1
  O2-  O233  1  0.20798313  0.83606781  0.73358002  1
  O2-  O234  1  0.70631125  0.33240989  0.06811426  1
  O2-  O235  1  0.70487045  0.33587140  0.39676524  1
  O2-  O236  1  0.69987152  0.33029688  0.72356851  1
  O2-  O237  1  0.70610947  0.83242362  0.07183269  1
  O2-  O238  1  0.70463204  0.83381890  0.39467692  1
  O2-  O239  1  0.71180352  0.83610510  0.73488484  1
  O2-  O240  1  0.46231685  0.41251957  0.27036071  1
  O2-  O241  1  0.46204411  0.42061086  0.59458160  1
  O2-  O242  1  0.45311702  0.42223273  0.93187751  1
  O2-  O243  1  0.46341904  0.91249346  0.27171996  1
  O2-  O244  1  0.45682841  0.91054648  0.60059857  1
  O2-  O245  1  0.45580518  0.91218792  0.93706266  1
  O2-  O246  1  0.94407682  0.41679788  0.27129497  1
  O2-  O247  1  0.95457279  0.41914332  0.60489582  1
  O2-  O248  1  0.96067868  0.41148345  0.93992157  1
  O2-  O249  1  0.94660801  0.92163649  0.26372899  1
  O2-  O250  1  0.95733680  0.91463302  0.59787727  1
  O2-  O251  1  0.95146992  0.91627329  0.93752760  1
  O2-  O252  1  0.33887606  0.29598495  0.27254021  1
  O2-  O253  1  0.33242676  0.29528950  0.59248216  1
  O2-  O254  1  0.32896932  0.29090362  0.93184508  1
  O2-  O255  1  0.33812218  0.79773513  0.27134173  1
  O2-  O256  1  0.33478919  0.79417398  0.60283463  1
  O2-  O257  1  0.33926531  0.79068950  0.93538307  1
  O2-  O258  1  0.83187691  0.29084027  0.26939534  1
  O2-  O259  1  0.83497373  0.30281711  0.60188486  1
  O2-  O260  1  0.83752200  0.29637221  0.93902707  1
  O2-  O261  1  0.82821949  0.78958008  0.26145381  1
  O2-  O262  1  0.83295442  0.78510519  0.60047820  1
  O2-  O263  1  0.83247576  0.79446230  0.93793918  1
  O2-  O264  1  0.41480063  0.03916270  0.06716720  1
  O2-  O265  1  0.41670275  0.03734372  0.40496554  1
  O2-  O266  1  0.41364787  0.04061542  0.72715262  1
  O2-  O267  1  0.41774745  0.55127485  0.06070098  1
  O2-  O268  1  0.41586388  0.53849509  0.40195126  1
  O2-  O269  1  0.42489228  0.54817381  0.73182073  1
  O2-  O270  1  0.91757527  0.04138199  0.07242424  1
  O2-  O271  1  0.91613756  0.04732490  0.39418447  1
  O2-  O272  1  0.91310554  0.04268081  0.72683972  1
  O2-  O273  1  0.91873613  0.53876562  0.07171867  1
  O2-  O274  1  0.91140082  0.54422172  0.39657375  1
  O2-  O275  1  0.91809829  0.54597676  0.73369620  1
  O2-  O276  1  0.29113257  0.16797254  0.06787170  1
  O2-  O277  1  0.29283494  0.16964571  0.40240818  1
  O2-  O278  1  0.30197034  0.16769256  0.72312604  1
  O2-  O279  1  0.29567036  0.66536128  0.06237818  1
  O2-  O280  1  0.29611452  0.67080461  0.39907830  1
  O2-  O281  1  0.29965852  0.67163784  0.73621693  1
  O2-  O282  1  0.79757613  0.17098031  0.07037088  1
  O2-  O283  1  0.79087165  0.16158475  0.40061699  1
  O2-  O284  1  0.80387420  0.16979103  0.72178223  1
  O2-  O285  1  0.79316120  0.66819160  0.07183205  1
  O2-  O286  1  0.78686959  0.66210688  0.39536973  1
  O2-  O287  1  0.78307105  0.66324098  0.73509865  1
