# generated using pymatgen
data_Ca2Al2SiO7
_symmetry_space_group_name_H-M   'P 1'
_cell_length_a   15.46743819
_cell_length_b   15.46841748
_cell_length_c   15.29083838
_cell_angle_alpha   90.01450141
_cell_angle_beta   89.98671224
_cell_angle_gamma   90.00975551
_symmetry_Int_Tables_number   1
_chemical_formula_structural   Ca2Al2SiO7
_chemical_formula_sum   'Ca48 Al48 Si24 O168'
_cell_volume   3658.43665760
_cell_formula_units_Z   24
loop_
 _symmetry_equiv_pos_site_id
 _symmetry_equiv_pos_as_xyz
  1  'x, y, z'
loop_
 _atom_type_symbol
 _atom_type_oxidation_number
  Ca2+  2.0
  Al0+  0.0
  Si0+  0.0
  O2-  -2.0
loop_
 _atom_site_type_symbol
 _atom_site_label
 _atom_site_symmetry_multiplicity
 _atom_site_fract_x
 _atom_site_fract_y
 _atom_site_fract_z
 _atom_site_occupancy
  Ca2+  Ca0  1  0.16940639  0.09401906  0.16623020  1
  Ca2+  Ca1  1  0.16182812  0.07910118  0.50443725  1
  Ca2+  Ca2  1  0.17092569  0.08002051  0.84135993  1
  Ca2+  Ca3  1  0.17389073  0.57261936  0.16323114  1
  Ca2+  Ca4  1  0.17832284  0.58046843  0.50418087  1
  Ca2+  Ca5  1  0.17641987  0.57558949  0.83846788  1
  Ca2+  Ca6  1  0.67049798  0.09636516  0.16608084  1
  Ca2+  Ca7  1  0.66184245  0.08104923  0.50345818  1
  Ca2+  Ca8  1  0.66596808  0.08124465  0.84180609  1
  Ca2+  Ca9  1  0.66868725  0.56729036  0.16756963  1
  Ca2+  Ca10  1  0.67271524  0.56888663  0.50794486  1
  Ca2+  Ca11  1  0.67539141  0.56898734  0.83743170  1
  Ca2+  Ca12  1  0.07398034  0.33185193  0.15640598  1
  Ca2+  Ca13  1  0.06883871  0.33372325  0.49333353  1
  Ca2+  Ca14  1  0.07442735  0.33894761  0.83181238  1
  Ca2+  Ca15  1  0.08329154  0.82831926  0.16167268  1
  Ca2+  Ca16  1  0.08564648  0.83247805  0.49904477  1
  Ca2+  Ca17  1  0.08472833  0.83170954  0.82768876  1
  Ca2+  Ca18  1  0.58367928  0.33053678  0.16575569  1
  Ca2+  Ca19  1  0.57900692  0.33963918  0.49585370  1
  Ca2+  Ca20  1  0.58686279  0.33139464  0.83057299  1
  Ca2+  Ca21  1  0.57606877  0.82570410  0.15569481  1
  Ca2+  Ca22  1  0.58088818  0.83214648  0.50095235  1
  Ca2+  Ca23  1  0.57230098  0.83293737  0.82676092  1
  Ca2+  Ca24  1  0.33644601  0.42350638  0.17362235  1
  Ca2+  Ca25  1  0.34413046  0.42492271  0.50601865  1
  Ca2+  Ca26  1  0.33329176  0.42391907  0.84162678  1
  Ca2+  Ca27  1  0.33934420  0.92496606  0.16266675  1
  Ca2+  Ca28  1  0.32840292  0.92119873  0.51003255  1
  Ca2+  Ca29  1  0.33346318  0.91850553  0.83828841  1
  Ca2+  Ca30  1  0.82365223  0.40144147  0.16606167  1
  Ca2+  Ca31  1  0.82549603  0.41046599  0.50614004  1
  Ca2+  Ca32  1  0.82832103  0.41475834  0.84058482  1
  Ca2+  Ca33  1  0.83553202  0.92788888  0.16742249  1
  Ca2+  Ca34  1  0.82393784  0.92221755  0.50964019  1
  Ca2+  Ca35  1  0.82436984  0.92426603  0.83849050  1
  Ca2+  Ca36  1  0.42765633  0.16808649  0.15914036  1
  Ca2+  Ca37  1  0.42365769  0.18296187  0.49378338  1
  Ca2+  Ca38  1  0.41909100  0.17197667  0.83158917  1
  Ca2+  Ca39  1  0.40703351  0.67071002  0.15993310  1
  Ca2+  Ca40  1  0.40877538  0.66992088  0.49826108  1
  Ca2+  Ca41  1  0.40741514  0.67368011  0.82795397  1
  Ca2+  Ca42  1  0.92560083  0.17493445  0.15907733  1
  Ca2+  Ca43  1  0.91947324  0.17853245  0.49397279  1
  Ca2+  Ca44  1  0.91635107  0.17672546  0.83561485  1
  Ca2+  Ca45  1  0.91220192  0.66847505  0.15738969  1
  Ca2+  Ca46  1  0.91353610  0.66552118  0.49980933  1
  Ca2+  Ca47  1  0.91489362  0.65727444  0.82814862  1
  Al0+  Al48  1  -0.00139778  -0.00154429  0.00004744  1
  Al0+  Al49  1  -0.00126552  -0.00088447  0.33238936  1
  Al0+  Al50  1  0.00021012  -0.00254562  0.67037693  1
  Al0+  Al51  1  0.00169017  0.50273693  0.00232985  1
  Al0+  Al52  1  0.00112407  0.50326517  0.32824582  1
  Al0+  Al53  1  0.00288069  0.50041571  0.66026425  1
  Al0+  Al54  1  0.49736622  -0.00172499  -0.00468722  1
  Al0+  Al55  1  0.49849283  -0.00131496  0.33204097  1
  Al0+  Al56  1  0.49849476  -0.00126289  0.66502811  1
  Al0+  Al57  1  0.50292729  0.50230786  0.00765769  1
  Al0+  Al58  1  0.50292285  0.50334799  0.33861611  1
  Al0+  Al59  1  0.50367202  0.50220693  0.67309617  1
  Al0+  Al60  1  0.25005143  0.24746784  0.00431678  1
  Al0+  Al61  1  0.25015316  0.25163394  0.33157614  1
  Al0+  Al62  1  0.25099033  0.24949826  0.66067505  1
  Al0+  Al63  1  0.24722259  0.75043562  -0.00109950  1
  Al0+  Al64  1  0.24834190  0.75108907  0.33593783  1
  Al0+  Al65  1  0.24900310  0.75107786  0.66821346  1
  Al0+  Al66  1  0.75056835  0.24702833  -0.00073020  1
  Al0+  Al67  1  0.75017640  0.24878355  0.33478066  1
  Al0+  Al68  1  0.75213741  0.24818666  0.66491420  1
  Al0+  Al69  1  0.74702125  0.74931690  0.00084527  1
  Al0+  Al70  1  0.74884378  0.75073234  0.33236174  1
  Al0+  Al71  1  0.74947820  0.75172780  0.67302316  1
  Al0+  Al72  1  0.42785373  0.81977947  0.65078918  1
  Al0+  Al73  1  0.68041562  0.42595277  0.68295228  1
  Al0+  Al74  1  0.42843627  0.81774221  0.98529325  1
  Al0+  Al75  1  0.17960071  0.42664338  0.01370891  1
  Al0+  Al76  1  0.32138082  0.07030938  0.01294399  1
  Al0+  Al77  1  0.68053702  0.42585914  0.01698450  1
  Al0+  Al78  1  0.82373414  0.56998851  0.67895391  1
  Al0+  Al79  1  0.32120181  0.57152654  0.01430043  1
  Al0+  Al80  1  0.68271221  0.42834941  0.34905587  1
  Al0+  Al81  1  0.56869391  0.17661349  0.31870284  1
  Al0+  Al82  1  0.67659744  0.93038239  0.68080461  1
  Al0+  Al83  1  0.43021624  0.32376739  0.65614958  1
  Al0+  Al84  1  0.93007888  0.32120910  0.65215913  1
  Al0+  Al85  1  0.92938451  0.32262287  0.31717611  1
  Al0+  Al86  1  0.43065824  0.32603987  0.31898883  1
  Al0+  Al87  1  0.31944725  0.57057139  0.34851412  1
  Al0+  Al88  1  0.56994359  0.18033536  0.98536679  1
  Al0+  Al89  1  0.82184952  0.57159683  0.01528137  1
  Al0+  Al90  1  0.07096200  0.17633614  0.31915881  1
  Al0+  Al91  1  0.17902060  0.92995436  0.68034420  1
  Al0+  Al92  1  0.07400428  0.17655378  0.98289011  1
  Al0+  Al93  1  0.82045460  0.06890481  0.01421999  1
  Al0+  Al94  1  0.32154309  0.56996547  0.68016805  1
  Al0+  Al95  1  0.93123239  0.32150405  0.98346853  1
  Si0+  Si96  1  0.92728252  0.81989127  0.31891166  1
  Si0+  Si97  1  0.57341420  0.67646421  0.98103914  1
  Si0+  Si98  1  0.42681821  0.81939085  0.31818552  1
  Si0+  Si99  1  0.92591421  0.82114497  0.98387862  1
  Si0+  Si100  1  0.17716569  0.92820078  0.01765409  1
  Si0+  Si101  1  0.17897204  0.93056861  0.34773055  1
  Si0+  Si102  1  0.07268196  0.68197839  0.31727783  1
  Si0+  Si103  1  0.32120555  0.07341748  0.68182380  1
  Si0+  Si104  1  0.57213195  0.17739773  0.65145604  1
  Si0+  Si105  1  0.82245918  0.07084460  0.68339377  1
  Si0+  Si106  1  0.92798795  0.82146290  0.65218053  1
  Si0+  Si107  1  0.67584505  0.92871562  0.01733177  1
  Si0+  Si108  1  0.57234624  0.68148032  0.31872209  1
  Si0+  Si109  1  0.67762343  0.92642550  0.34758949  1
  Si0+  Si110  1  0.82037053  0.06829129  0.34953613  1
  Si0+  Si111  1  0.82310885  0.57619332  0.34941015  1
  Si0+  Si112  1  0.17612226  0.42746479  0.35101984  1
  Si0+  Si113  1  0.06921069  0.68107146  0.98317014  1
  Si0+  Si114  1  0.17889242  0.42641201  0.67956041  1
  Si0+  Si115  1  0.57379477  0.68039198  0.64961796  1
  Si0+  Si116  1  0.42824176  0.32471567  0.98657069  1
  Si0+  Si117  1  0.07148479  0.68024814  0.64993902  1
  Si0+  Si118  1  0.32284085  0.07203588  0.34881492  1
  Si0+  Si119  1  0.07204622  0.17533539  0.65097011  1
  O2-  O120  1  0.24293971  -0.00071228  0.06159406  1
  O2-  O121  1  0.24586665  0.00550762  0.38950982  1
  O2-  O122  1  0.25170422  0.00558588  0.72605108  1
  O2-  O123  1  0.25777127  0.49228466  0.06448362  1
  O2-  O124  1  0.24957277  0.49139741  0.39580910  1
  O2-  O125  1  0.25284723  0.48901880  0.72407311  1
  O2-  O126  1  0.74433558  -0.00398498  0.06357412  1
  O2-  O127  1  0.74555443  0.00008939  0.39044239  1
  O2-  O128  1  0.74842982  0.00741384  0.72665332  1
  O2-  O129  1  0.75521277  0.49637290  0.06681369  1
  O2-  O130  1  0.76191960  0.50111446  0.39257038  1
  O2-  O131  1  0.75708722  0.49472455  0.72994366  1
  O2-  O132  1  0.00569451  0.25392017  0.26934553  1
  O2-  O133  1  0.00535746  0.24566790  0.60692642  1
  O2-  O134  1  0.00585281  0.25181217  0.93282806  1
  O2-  O135  1  -0.00427085  0.74725467  0.27573131  1
  O2-  O136  1  -0.00315446  0.74893581  0.60835817  1
  O2-  O137  1  -0.00644985  0.74755801  0.94126580  1
  O2-  O138  1  0.49747539  0.24932020  0.26893508  1
  O2-  O139  1  0.50715591  0.25041692  0.60916057  1
  O2-  O140  1  0.49748240  0.25758460  0.94024148  1
  O2-  O141  1  0.49781248  0.74900147  0.27636485  1
  O2-  O142  1  0.50163510  0.74492895  0.60244033  1
  O2-  O143  1  0.50000406  0.74081457  0.93785350  1
  O2-  O144  1  0.06896868  0.17499270  0.09627327  1
  O2-  O145  1  0.06415132  0.17053346  0.43300799  1
  O2-  O146  1  0.07208019  0.17338424  0.75581773  1
  O2-  O147  1  0.07153645  0.68603826  0.08856898  1
  O2-  O148  1  0.07486215  0.68584918  0.42244037  1
  O2-  O149  1  0.07238588  0.68149895  0.75475519  1
  O2-  O150  1  0.56844907  0.17891030  0.09815597  1
  O2-  O151  1  0.56554620  0.17089322  0.43234240  1
  O2-  O152  1  0.57031973  0.17476874  0.75682165  1
  O2-  O153  1  0.57624881  0.68132038  0.08704719  1
  O2-  O154  1  0.57577595  0.68621146  0.42357450  1
  O2-  O155  1  0.57415108  0.68437942  0.75462684  1
  O2-  O156  1  0.17414765  0.43192232  0.24598908  1
  O2-  O157  1  0.17639666  0.43072349  0.57391507  1
  O2-  O158  1  0.17924540  0.43199856  0.89954946  1
  O2-  O159  1  0.17920253  0.92520901  0.24323454  1
  O2-  O160  1  0.17822401  0.93100161  0.56638560  1
  O2-  O161  1  0.17813214  0.92608583  0.91214666  1
  O2-  O162  1  0.68151620  0.42932938  0.23664041  1
  O2-  O163  1  0.68038907  0.42818550  0.56904589  1
  O2-  O164  1  0.68053449  0.42669124  0.90363133  1
  O2-  O165  1  0.68006551  0.92154105  0.24317433  1
  O2-  O166  1  0.67932375  0.93067116  0.56671880  1
  O2-  O167  1  0.67794467  0.92978858  0.91171213  1
  O2-  O168  1  0.42978160  0.32290406  0.09201847  1
  O2-  O169  1  0.43466486  0.32542040  0.43308513  1
  O2-  O170  1  0.42663568  0.32026880  0.76890238  1
  O2-  O171  1  0.42988573  0.81763043  0.09933650  1
  O2-  O172  1  0.42578236  0.82007342  0.42320606  1
  O2-  O173  1  0.42725477  0.81927754  0.76333635  1
  O2-  O174  1  0.93091393  0.31857055  0.09679988  1
  O2-  O175  1  0.92937747  0.32013939  0.43142808  1
  O2-  O176  1  0.93103570  0.32237094  0.76452064  1
  O2-  O177  1  0.92843074  0.82145032  0.08970351  1
  O2-  O178  1  0.92718779  0.82067874  0.42411496  1
  O2-  O179  1  0.93008337  0.82307972  0.75681906  1
  O2-  O180  1  0.32656421  0.06627294  0.24417977  1
  O2-  O181  1  0.32000922  0.07150352  0.57578205  1
  O2-  O182  1  0.32282177  0.06615203  0.89991679  1
  O2-  O183  1  0.31500370  0.57538557  0.23609611  1
  O2-  O184  1  0.31757874  0.57192706  0.56672972  1
  O2-  O185  1  0.31666430  0.57404890  0.90082732  1
  O2-  O186  1  0.82286437  0.06446631  0.24483613  1
  O2-  O187  1  0.82415731  0.06694770  0.57723777  1
  O2-  O188  1  0.81921027  0.06566441  0.90112608  1
  O2-  O189  1  0.81755756  0.58606568  0.24509606  1
  O2-  O190  1  0.82113973  0.57184790  0.56496721  1
  O2-  O191  1  0.81940814  0.57304276  0.90203825  1
  O2-  O192  1  0.03908455  0.07870220  0.26545626  1
  O2-  O193  1  0.04313143  0.08146333  0.60528522  1
  O2-  O194  1  0.04205145  0.07731046  0.93219717  1
  O2-  O195  1  0.05246547  0.58929244  0.26953817  1
  O2-  O196  1  0.04803016  0.58941531  0.59838559  1
  O2-  O197  1  0.04672846  0.58889345  0.93519306  1
  O2-  O198  1  0.54115809  0.07754115  0.26491547  1
  O2-  O199  1  0.54271421  0.08540039  0.60347058  1
  O2-  O200  1  0.53691608  0.08400997  0.93167801  1
  O2-  O201  1  0.54730290  0.58923628  0.27314237  1
  O2-  O202  1  0.55201030  0.58509786  0.60629706  1
  O2-  O203  1  0.55288619  0.58075220  0.93863363  1
  O2-  O204  1  0.17344167  0.19512960  0.27227834  1
  O2-  O205  1  0.16616945  0.19637839  0.60342160  1
  O2-  O206  1  0.17595044  0.19692569  0.93378249  1
  O2-  O207  1  0.16042518  0.71931101  0.26821496  1
  O2-  O208  1  0.16015383  0.71469059  0.60032676  1
  O2-  O209  1  0.15791569  0.71501463  0.93357927  1
  O2-  O210  1  0.66896927  0.20312006  0.27050722  1
  O2-  O211  1  0.66766601  0.19590803  0.60617478  1
  O2-  O212  1  0.66733805  0.20577148  0.93116419  1
  O2-  O213  1  0.66143608  0.71398047  0.26829664  1
  O2-  O214  1  0.66574442  0.71245048  0.60261368  1
  O2-  O215  1  0.66457656  0.70769200  0.93303513  1
  O2-  O216  1  0.08575544  0.46549854  0.06913843  1
  O2-  O217  1  0.08395508  0.46102275  0.39740817  1
  O2-  O218  1  0.08825488  0.45993443  0.72618195  1
  O2-  O219  1  0.08207497  0.94801595  0.06284596  1
  O2-  O220  1  0.08537858  0.95389147  0.39528160  1
  O2-  O221  1  0.08167112  0.95496576  0.73560744  1
  O2-  O222  1  0.58397945  0.45760570  0.07239493  1
  O2-  O223  1  0.58857302  0.46576209  0.40419978  1
  O2-  O224  1  0.58488355  0.45807026  0.73848668  1
  O2-  O225  1  0.58182424  0.95283960  0.06166830  1
  O2-  O226  1  0.58445641  0.95151091  0.39422168  1
  O2-  O227  1  0.57883263  0.95736810  0.73356608  1
  O2-  O228  1  0.19698813  0.32629645  0.06553333  1
  O2-  O229  1  0.19357530  0.33123633  0.39517090  1
  O2-  O230  1  0.19700899  0.33009319  0.72183480  1
  O2-  O231  1  0.20621391  0.83617841  0.06533054  1
  O2-  O232  1  0.21061611  0.84114263  0.39817740  1
  O2-  O233  1  0.20952769  0.83432501  0.73483691  1
  O2-  O234  1  0.70813829  0.32715650  0.06881069  1
  O2-  O235  1  0.70992849  0.33067017  0.40361791  1
  O2-  O236  1  0.70540909  0.32533913  0.73203512  1
  O2-  O237  1  0.70109590  0.83478595  0.06270173  1
  O2-  O238  1  0.70971618  0.83713564  0.39819872  1
  O2-  O239  1  0.71048980  0.83679111  0.73706581  1
  O2-  O240  1  0.46199519  0.42442322  0.26808894  1
  O2-  O241  1  0.46121885  0.42156739  0.60382324  1
  O2-  O242  1  0.45201801  0.42039791  0.94390945  1
  O2-  O243  1  0.45506236  0.91069293  0.27082752  1
  O2-  O244  1  0.45843284  0.91670937  0.59599093  1
  O2-  O245  1  0.46084112  0.91245594  0.92960705  1
  O2-  O246  1  0.95096580  0.42394006  0.26699496  1
  O2-  O247  1  0.96225055  0.41652360  0.59518403  1
  O2-  O248  1  0.95866179  0.42233948  0.93426300  1
  O2-  O249  1  0.95821163  0.90993870  0.27032067  1
  O2-  O250  1  0.95856518  0.91191601  0.60242232  1
  O2-  O251  1  0.95646157  0.91082823  0.93510962  1
  O2-  O252  1  0.32850895  0.30556917  0.27166808  1
  O2-  O253  1  0.33444524  0.29365672  0.59787520  1
  O2-  O254  1  0.33451945  0.29796654  0.94213163  1
  O2-  O255  1  0.33509676  0.79067773  0.27124239  1
  O2-  O256  1  0.33048556  0.78936635  0.59694902  1
  O2-  O257  1  0.33007139  0.79025478  0.93294300  1
  O2-  O258  1  0.83254823  0.28724975  0.26745145  1
  O2-  O259  1  0.83437579  0.28773648  0.59686086  1
  O2-  O260  1  0.83397828  0.28718401  0.93208024  1
  O2-  O261  1  0.83528627  0.79521607  0.27029396  1
  O2-  O262  1  0.83538112  0.79586819  0.60467023  1
  O2-  O263  1  0.83209466  0.79783948  0.93881433  1
  O2-  O264  1  0.41534147  0.03156629  0.06814701  1
  O2-  O265  1  0.41101957  0.03614690  0.39868185  1
  O2-  O266  1  0.41400854  0.04563377  0.72680127  1
  O2-  O267  1  0.42208845  0.55540937  0.06638346  1
  O2-  O268  1  0.41842715  0.54838673  0.40169328  1
  O2-  O269  1  0.41977466  0.54939818  0.73357576  1
  O2-  O270  1  0.91502930  0.03255759  0.06962015  1
  O2-  O271  1  0.90969195  0.03388496  0.39842456  1
  O2-  O272  1  0.91281310  0.03833543  0.73071304  1
  O2-  O273  1  0.92344049  0.55510365  0.06522373  1
  O2-  O274  1  0.92125784  0.55987645  0.38959114  1
  O2-  O275  1  0.92599435  0.54881092  0.72643613  1
  O2-  O276  1  0.29715666  0.16634393  0.07036190  1
  O2-  O277  1  0.30171310  0.16620746  0.39468486  1
  O2-  O278  1  0.29699500  0.16738524  0.72715086  1
  O2-  O279  1  0.28236812  0.66750034  0.06705073  1
  O2-  O280  1  0.28209556  0.66647999  0.40261640  1
  O2-  O281  1  0.28274313  0.66424733  0.73257907  1
  O2-  O282  1  0.79044552  0.16410828  0.06921426  1
  O2-  O283  1  0.79478907  0.15962934  0.39796565  1
  O2-  O284  1  0.80219675  0.16553091  0.72724413  1
  O2-  O285  1  0.79054176  0.67059440  0.06791902  1
  O2-  O286  1  0.79185597  0.66794141  0.39861185  1
  O2-  O287  1  0.79596062  0.66841650  0.73184057  1
