# generated using pymatgen
data_Ca2Al2SiO7
_symmetry_space_group_name_H-M   'P 1'
_cell_length_a   15.45246367
_cell_length_b   15.45263354
_cell_length_c   15.27982280
_cell_angle_alpha   89.99671694
_cell_angle_beta   89.99998029
_cell_angle_gamma   90.00497730
_symmetry_Int_Tables_number   1
_chemical_formula_structural   Ca2Al2SiO7
_chemical_formula_sum   'Ca48 Al48 Si24 O168'
_cell_volume   3648.53529470
_cell_formula_units_Z   24
loop_
 _symmetry_equiv_pos_site_id
 _symmetry_equiv_pos_as_xyz
  1  'x, y, z'
loop_
 _atom_type_symbol
 _atom_type_oxidation_number
  Ca2+  2.0
  Al0+  0.0
  Si0+  0.0
  O2-  -2.0
loop_
 _atom_site_type_symbol
 _atom_site_label
 _atom_site_symmetry_multiplicity
 _atom_site_fract_x
 _atom_site_fract_y
 _atom_site_fract_z
 _atom_site_occupancy
  Ca2+  Ca0  1  0.17835746  0.08852256  0.16662414  1
  Ca2+  Ca1  1  0.17641275  0.07715786  0.50533031  1
  Ca2+  Ca2  1  0.16827665  0.07558576  0.84292885  1
  Ca2+  Ca3  1  0.16785722  0.57712469  0.17448444  1
  Ca2+  Ca4  1  0.17939912  0.59209167  0.50095018  1
  Ca2+  Ca5  1  0.17630749  0.57704160  0.83777782  1
  Ca2+  Ca6  1  0.66754222  0.08112126  0.17538978  1
  Ca2+  Ca7  1  0.67441361  0.09124479  0.50358717  1
  Ca2+  Ca8  1  0.66894693  0.08342554  0.83572697  1
  Ca2+  Ca9  1  0.66837701  0.56979481  0.17619111  1
  Ca2+  Ca10  1  0.65659498  0.58072246  0.50051082  1
  Ca2+  Ca11  1  0.66522870  0.57861940  0.83970962  1
  Ca2+  Ca12  1  0.07679283  0.32969868  0.15204334  1
  Ca2+  Ca13  1  0.07950520  0.33246307  0.49562395  1
  Ca2+  Ca14  1  0.08452555  0.32887361  0.83783621  1
  Ca2+  Ca15  1  0.08703433  0.82806379  0.16475988  1
  Ca2+  Ca16  1  0.08126235  0.83319246  0.49735509  1
  Ca2+  Ca17  1  0.08022371  0.84229492  0.82668753  1
  Ca2+  Ca18  1  0.58264138  0.33216955  0.16263154  1
  Ca2+  Ca19  1  0.58181677  0.32546940  0.49772394  1
  Ca2+  Ca20  1  0.57247433  0.33216750  0.82721319  1
  Ca2+  Ca21  1  0.58080577  0.83194579  0.16591661  1
  Ca2+  Ca22  1  0.57753570  0.82007671  0.48988215  1
  Ca2+  Ca23  1  0.58537068  0.82806601  0.82760144  1
  Ca2+  Ca24  1  0.32936659  0.41664182  0.16860970  1
  Ca2+  Ca25  1  0.34242788  0.42839835  0.50309653  1
  Ca2+  Ca26  1  0.33744583  0.41781098  0.83870558  1
  Ca2+  Ca27  1  0.33457252  0.92775919  0.17140630  1
  Ca2+  Ca28  1  0.33252336  0.91545158  0.50094621  1
  Ca2+  Ca29  1  0.32194752  0.92316332  0.84276873  1
  Ca2+  Ca30  1  0.82368641  0.41391500  0.17349008  1
  Ca2+  Ca31  1  0.82540015  0.42280746  0.49688950  1
  Ca2+  Ca32  1  0.82557173  0.41523963  0.84225293  1
  Ca2+  Ca33  1  0.82589907  0.92328910  0.17029272  1
  Ca2+  Ca34  1  0.83733175  0.92681130  0.50662405  1
  Ca2+  Ca35  1  0.82966508  0.92021932  0.83550746  1
  Ca2+  Ca36  1  0.41773719  0.16782543  0.16033854  1
  Ca2+  Ca37  1  0.42805629  0.16580701  0.49245335  1
  Ca2+  Ca38  1  0.41538281  0.17721515  0.82901633  1
  Ca2+  Ca39  1  0.41559791  0.66921013  0.17089402  1
  Ca2+  Ca40  1  0.42110640  0.66671740  0.49114185  1
  Ca2+  Ca41  1  0.42324490  0.66472847  0.82467284  1
  Ca2+  Ca42  1  0.92126399  0.17051715  0.15948357  1
  Ca2+  Ca43  1  0.91383938  0.16271680  0.49490208  1
  Ca2+  Ca44  1  0.91883317  0.16693806  0.83258000  1
  Ca2+  Ca45  1  0.92160210  0.65807657  0.16685782  1
  Ca2+  Ca46  1  0.92117149  0.67256686  0.49096277  1
  Ca2+  Ca47  1  0.91981738  0.67659691  0.82543771  1
  Al0+  Al48  1  -0.00003773  -0.00207626  0.00120423  1
  Al0+  Al49  1  -0.00028528  -0.00037381  0.33434859  1
  Al0+  Al50  1  -0.00073404  0.00149417  0.67025882  1
  Al0+  Al51  1  0.00195090  0.50125623  -0.00463568  1
  Al0+  Al52  1  -0.00279302  0.49928360  0.33355042  1
  Al0+  Al53  1  0.00049113  0.49981227  0.66664787  1
  Al0+  Al54  1  0.50049986  -0.00212098  0.00483053  1
  Al0+  Al55  1  0.49986003  0.00029274  0.33072557  1
  Al0+  Al56  1  0.50098788  0.00023902  0.66404001  1
  Al0+  Al57  1  0.50253585  0.50010086  0.00115843  1
  Al0+  Al58  1  0.49798882  0.49812186  0.33614521  1
  Al0+  Al59  1  0.49984521  0.49985606  0.66474605  1
  Al0+  Al60  1  0.25010546  0.25145758  -0.00167268  1
  Al0+  Al61  1  0.24969942  0.24782929  0.34003442  1
  Al0+  Al62  1  0.24801040  0.25229605  0.66028505  1
  Al0+  Al63  1  0.25128336  0.75089641  0.00109470  1
  Al0+  Al64  1  0.24771501  0.74911570  0.32726051  1
  Al0+  Al65  1  0.24991809  0.74853061  0.67822581  1
  Al0+  Al66  1  0.74997407  0.25055715  -0.00037681  1
  Al0+  Al67  1  0.74902380  0.24990528  0.33746067  1
  Al0+  Al68  1  0.75103687  0.25116048  0.66951058  1
  Al0+  Al69  1  0.75149636  0.75066985  0.00421210  1
  Al0+  Al70  1  0.75035671  0.74978702  0.33071492  1
  Al0+  Al71  1  0.75188904  0.75084332  0.65677292  1
  Al0+  Al72  1  0.57190158  0.17835363  0.65240643  1
  Al0+  Al73  1  0.32265075  0.07135003  0.34937301  1
  Al0+  Al74  1  0.57208827  0.67578407  0.31509521  1
  Al0+  Al75  1  0.57085959  0.68040701  0.65402476  1
  Al0+  Al76  1  0.81974294  0.07182456  0.68279718  1
  Al0+  Al77  1  0.06860154  0.67929803  0.31991632  1
  Al0+  Al78  1  0.93126548  0.82247357  0.65277588  1
  Al0+  Al79  1  0.82011306  0.06892534  0.34593211  1
  Al0+  Al80  1  0.07083761  0.17789480  0.98520745  1
  Al0+  Al81  1  0.67937465  0.92757381  0.01346668  1
  Al0+  Al82  1  0.43073935  0.32124410  0.98806207  1
  Al0+  Al83  1  0.42810717  0.82095992  0.31709038  1
  Al0+  Al84  1  0.17628237  0.92747222  0.01801082  1
  Al0+  Al85  1  0.18107839  0.93096740  0.67965917  1
  Al0+  Al86  1  0.57188086  0.18108429  0.31845117  1
  Al0+  Al87  1  0.42668060  0.32132540  0.64929339  1
  Al0+  Al88  1  0.67933102  0.42880689  0.01213588  1
  Al0+  Al89  1  0.32029552  0.07210948  0.01347340  1
  Al0+  Al90  1  0.67736926  0.42881548  0.35100802  1
  Al0+  Al91  1  0.32148737  0.56832775  0.68142043  1
  Al0+  Al92  1  0.17975549  0.43077253  0.01216678  1
  Al0+  Al93  1  0.82182225  0.57206313  0.34868478  1
  Al0+  Al94  1  0.92699632  0.32235494  0.98434452  1
  Al0+  Al95  1  0.31753046  0.57035583  0.34510040  1
  Si0+  Si96  1  0.17461837  0.42621242  0.68414296  1
  Si0+  Si97  1  0.82099672  0.07209055  0.01642200  1
  Si0+  Si98  1  0.92865868  0.81895161  0.98547725  1
  Si0+  Si99  1  0.57229206  0.17482465  0.98438266  1
  Si0+  Si100  1  0.67680178  0.92711414  0.35103621  1
  Si0+  Si101  1  0.17884497  0.92810515  0.34950840  1
  Si0+  Si102  1  0.57133556  0.68085235  0.98624444  1
  Si0+  Si103  1  0.92818954  0.32279180  0.65022097  1
  Si0+  Si104  1  0.82262831  0.57276887  0.01402877  1
  Si0+  Si105  1  0.07368754  0.67882672  0.98258618  1
  Si0+  Si106  1  0.92786126  0.82503451  0.31449857  1
  Si0+  Si107  1  0.82307670  0.57326276  0.68093965  1
  Si0+  Si108  1  0.42585293  0.32060832  0.31617368  1
  Si0+  Si109  1  0.07201922  0.17772213  0.31988481  1
  Si0+  Si110  1  0.42906938  0.82198082  0.98344594  1
  Si0+  Si111  1  0.67832502  0.92580970  0.68026265  1
  Si0+  Si112  1  0.42523210  0.82158661  0.65386264  1
  Si0+  Si113  1  0.07280640  0.67723251  0.65164580  1
  Si0+  Si114  1  0.17583003  0.42654573  0.35006557  1
  Si0+  Si115  1  0.32419646  0.07440506  0.68193037  1
  Si0+  Si116  1  0.68123383  0.43144471  0.68287270  1
  Si0+  Si117  1  0.06884465  0.17907329  0.65036049  1
  Si0+  Si118  1  0.32418050  0.57221346  0.01746376  1
  Si0+  Si119  1  0.92996440  0.31919305  0.31990638  1
  O2-  O120  1  0.24797878  0.00060738  0.06538876  1
  O2-  O121  1  0.24867933  -0.00500069  0.39461035  1
  O2-  O122  1  0.25744797  0.00405806  0.72625104  1
  O2-  O123  1  0.25354618  0.50502520  0.06043809  1
  O2-  O124  1  0.24418877  0.49521842  0.39415702  1
  O2-  O125  1  0.24739095  0.49187937  0.72629277  1
  O2-  O126  1  0.74902902  0.00698073  0.06007053  1
  O2-  O127  1  0.74714085  -0.00593492  0.39533751  1
  O2-  O128  1  0.74240029  -0.00184333  0.72656643  1
  O2-  O129  1  0.75883117  0.49936348  0.05677525  1
  O2-  O130  1  0.74392119  0.50736906  0.40043804  1
  O2-  O131  1  0.75166180  0.50384461  0.72493660  1
  O2-  O132  1  0.00274246  0.25016776  0.27786811  1
  O2-  O133  1  -0.00045388  0.25206301  0.60778052  1
  O2-  O134  1  -0.00248951  0.24874778  0.93392916  1
  O2-  O135  1  -0.00802999  0.75144690  0.27096093  1
  O2-  O136  1  0.00540780  0.74675478  0.60718596  1
  O2-  O137  1  0.00376192  0.75213187  0.94206525  1
  O2-  O138  1  0.49500879  0.25302166  0.27136014  1
  O2-  O139  1  0.49528810  0.24499860  0.60145149  1
  O2-  O140  1  0.50407591  0.24459608  0.94126650  1
  O2-  O141  1  0.50162718  0.75001580  0.26603439  1
  O2-  O142  1  0.49624446  0.75599486  0.60914765  1
  O2-  O143  1  0.49999982  0.75040123  0.94157588  1
  O2-  O144  1  0.06892445  0.18053491  0.09932838  1
  O2-  O145  1  0.07051397  0.17819696  0.42546955  1
  O2-  O146  1  0.06835030  0.17912773  0.75515330  1
  O2-  O147  1  0.07176038  0.67627478  0.08755212  1
  O2-  O148  1  0.07006245  0.68290662  0.43322583  1
  O2-  O149  1  0.06982454  0.67584223  0.75745944  1
  O2-  O150  1  0.57251549  0.17569199  0.08992663  1
  O2-  O151  1  0.57313091  0.18288721  0.43145883  1
  O2-  O152  1  0.57311234  0.18111915  0.76633564  1
  O2-  O153  1  0.57105973  0.68113647  0.09050852  1
  O2-  O154  1  0.56806338  0.67790701  0.42899996  1
  O2-  O155  1  0.57177208  0.68072966  0.76813452  1
  O2-  O156  1  0.17550574  0.42592146  0.24439586  1
  O2-  O157  1  0.16865278  0.42800824  0.57885795  1
  O2-  O158  1  0.18036069  0.43375964  0.89900236  1
  O2-  O159  1  0.17742281  0.93056734  0.24435365  1
  O2-  O160  1  0.18104884  0.93137248  0.56637237  1
  O2-  O161  1  0.17830394  0.92780515  0.90400198  1
  O2-  O162  1  0.68151554  0.42619289  0.23727607  1
  O2-  O163  1  0.68299119  0.43109381  0.57814559  1
  O2-  O164  1  0.67762322  0.43361357  0.89849127  1
  O2-  O165  1  0.67892767  0.92969692  0.24498812  1
  O2-  O166  1  0.68127761  0.92414965  0.57524237  1
  O2-  O167  1  0.68287971  0.92361030  0.90011002  1
  O2-  O168  1  0.43195265  0.32330446  0.10091318  1
  O2-  O169  1  0.42565254  0.31888214  0.42171057  1
  O2-  O170  1  0.42920080  0.32203790  0.76339781  1
  O2-  O171  1  0.42876037  0.82152260  0.08798360  1
  O2-  O172  1  0.42754926  0.81862800  0.43147433  1
  O2-  O173  1  0.42692676  0.81975393  0.75982954  1
  O2-  O174  1  0.92762385  0.32100496  0.09832292  1
  O2-  O175  1  0.93193129  0.31869410  0.42562058  1
  O2-  O176  1  0.92791644  0.32405437  0.75500493  1
  O2-  O177  1  0.92633098  0.81619490  0.09012341  1
  O2-  O178  1  0.93272720  0.82859728  0.42014184  1
  O2-  O179  1  0.93043991  0.82000535  0.76651322  1
  O2-  O180  1  0.31924907  0.07519507  0.23672493  1
  O2-  O181  1  0.32205691  0.07223996  0.57627665  1
  O2-  O182  1  0.32050436  0.06923550  0.89936697  1
  O2-  O183  1  0.31469525  0.56837088  0.23198421  1
  O2-  O184  1  0.31920706  0.57134121  0.56847564  1
  O2-  O185  1  0.32460893  0.57166779  0.91147461  1
  O2-  O186  1  0.82115276  0.06823399  0.23283986  1
  O2-  O187  1  0.82171478  0.07085350  0.56974064  1
  O2-  O188  1  0.82093721  0.06989984  0.91057070  1
  O2-  O189  1  0.82617031  0.56357814  0.23508453  1
  O2-  O190  1  0.82562392  0.57083545  0.57657411  1
  O2-  O191  1  0.81857165  0.57742351  0.90785102  1
  O2-  O192  1  0.04285280  0.08673894  0.27242667  1
  O2-  O193  1  0.03793088  0.08885399  0.60239251  1
  O2-  O194  1  0.04246389  0.07828182  0.93326664  1
  O2-  O195  1  0.03821094  0.58148244  0.26595194  1
  O2-  O196  1  0.04730870  0.58393310  0.60489985  1
  O2-  O197  1  0.04518626  0.58899278  0.93160682  1
  O2-  O198  1  0.54442562  0.08320026  0.26627081  1
  O2-  O199  1  0.55155958  0.07749200  0.59963312  1
  O2-  O200  1  0.54791788  0.08037849  0.93893120  1
  O2-  O201  1  0.54103287  0.57663590  0.26516483  1
  O2-  O202  1  0.53877422  0.58483051  0.60062442  1
  O2-  O203  1  0.54374678  0.58924637  0.93781292  1
  O2-  O204  1  0.16468995  0.20470704  0.27437604  1
  O2-  O205  1  0.16050232  0.20463375  0.60084774  1
  O2-  O206  1  0.16758055  0.20884189  0.93056731  1
  O2-  O207  1  0.16239422  0.71001986  0.26135782  1
  O2-  O208  1  0.16757324  0.70438728  0.60948690  1
  O2-  O209  1  0.16685248  0.70468367  0.93628513  1
  O2-  O210  1  0.66869875  0.21290118  0.26495453  1
  O2-  O211  1  0.66985777  0.21298260  0.60114759  1
  O2-  O212  1  0.66664365  0.19921231  0.93941031  1
  O2-  O213  1  0.67263892  0.70073470  0.26419331  1
  O2-  O214  1  0.66657931  0.70759827  0.59700207  1
  O2-  O215  1  0.66391820  0.70966383  0.93963100  1
  O2-  O216  1  0.08235735  0.46179819  0.06546398  1
  O2-  O217  1  0.08212453  0.45180711  0.39571256  1
  O2-  O218  1  0.08248915  0.45516510  0.73283131  1
  O2-  O219  1  0.07623719  0.95041102  0.06943594  1
  O2-  O220  1  0.08589573  0.95587372  0.39631766  1
  O2-  O221  1  0.08580213  0.96507560  0.73439124  1
  O2-  O222  1  0.58589637  0.46401091  0.06880526  1
  O2-  O223  1  0.57752585  0.45146195  0.40305098  1
  O2-  O224  1  0.58913692  0.45972670  0.72892970  1
  O2-  O225  1  0.58249927  0.95237129  0.06851224  1
  O2-  O226  1  0.58331959  0.95236962  0.39582001  1
  O2-  O227  1  0.58249987  0.94581803  0.72553989  1
  O2-  O228  1  0.20783817  0.33433181  0.06635485  1
  O2-  O229  1  0.19985977  0.33342637  0.39813645  1
  O2-  O230  1  0.19692940  0.33058888  0.72756061  1
  O2-  O231  1  0.20580270  0.82823201  0.06836361  1
  O2-  O232  1  0.20308277  0.83376920  0.39393265  1
  O2-  O233  1  0.20591102  0.83444985  0.73743010  1
  O2-  O234  1  0.70597614  0.33110555  0.06586513  1
  O2-  O235  1  0.71479131  0.33426671  0.40603106  1
  O2-  O236  1  0.71153681  0.34118440  0.73147924  1
  O2-  O237  1  0.71554247  0.83424352  0.07087485  1
  O2-  O238  1  0.69985729  0.83182623  0.39412085  1
  O2-  O239  1  0.70940308  0.83329213  0.72694169  1
  O2-  O240  1  0.44919039  0.41484528  0.27149679  1
  O2-  O241  1  0.46183032  0.41760095  0.59696375  1
  O2-  O242  1  0.46424739  0.41763343  0.93293911  1
  O2-  O243  1  0.45641706  0.91920585  0.26386069  1
  O2-  O244  1  0.44527968  0.91664248  0.60849530  1
  O2-  O245  1  0.45787944  0.91332135  0.93568465  1
  O2-  O246  1  0.95516404  0.41083604  0.27171128  1
  O2-  O247  1  0.95677247  0.41456279  0.60209575  1
  O2-  O248  1  0.95583807  0.42081277  0.93024725  1
  O2-  O249  1  0.95884993  0.91635819  0.26594544  1
  O2-  O250  1  0.96412325  0.91877167  0.59954023  1
  O2-  O251  1  0.95221779  0.91203825  0.93842888  1
  O2-  O252  1  0.33087336  0.29355433  0.27280270  1
  O2-  O253  1  0.32555130  0.30320269  0.59703378  1
  O2-  O254  1  0.33421036  0.29363162  0.93242801  1
  O2-  O255  1  0.33089667  0.79107636  0.26250735  1
  O2-  O256  1  0.33175311  0.79265491  0.60985327  1
  O2-  O257  1  0.33685711  0.79411883  0.93583140  1
  O2-  O258  1  0.83904498  0.28859677  0.27375460  1
  O2-  O259  1  0.83705152  0.29410602  0.60313348  1
  O2-  O260  1  0.82841264  0.29435126  0.93029293  1
  O2-  O261  1  0.83226967  0.80573380  0.27077926  1
  O2-  O262  1  0.83680209  0.79326472  0.59496121  1
  O2-  O263  1  0.83844331  0.78700292  0.93587822  1
  O2-  O264  1  0.41797199  0.04238176  0.06710761  1
  O2-  O265  1  0.41957600  0.04048430  0.40195202  1
  O2-  O266  1  0.41940304  0.05307672  0.72664578  1
  O2-  O267  1  0.41694927  0.54547542  0.06321133  1
  O2-  O268  1  0.41366357  0.54108318  0.40019468  1
  O2-  O269  1  0.41839870  0.53780483  0.73605041  1
  O2-  O270  1  0.91324535  0.04283884  0.06250892  1
  O2-  O271  1  0.91736026  0.03920236  0.40113619  1
  O2-  O272  1  0.91462177  0.03802745  0.73785884  1
  O2-  O273  1  0.91869678  0.55191317  0.05578218  1
  O2-  O274  1  0.91770191  0.53745361  0.40477460  1
  O2-  O275  1  0.91485148  0.54538606  0.72957130  1
  O2-  O276  1  0.29211621  0.17021075  0.06660420  1
  O2-  O277  1  0.28894835  0.16553747  0.40709862  1
  O2-  O278  1  0.29514847  0.16892959  0.72400912  1
  O2-  O279  1  0.29940949  0.66650378  0.06128660  1
  O2-  O280  1  0.28437131  0.66690561  0.39831248  1
  O2-  O281  1  0.29078283  0.66269556  0.74088704  1
  O2-  O282  1  0.80017296  0.16704533  0.06102511  1
  O2-  O283  1  0.79024680  0.16474670  0.40152293  1
  O2-  O284  1  0.79187899  0.16919883  0.73736952  1
  O2-  O285  1  0.79452607  0.66335940  0.06398090  1
  O2-  O286  1  0.80450822  0.67511031  0.39611004  1
  O2-  O287  1  0.79596609  0.66657164  0.72589419  1
