# generated using pymatgen
data_Ca2Al2SiO7
_symmetry_space_group_name_H-M   'P 1'
_cell_length_a   15.45423515
_cell_length_b   15.45442594
_cell_length_c   15.28130122
_cell_angle_alpha   90.01075873
_cell_angle_beta   89.99755057
_cell_angle_gamma   89.99852207
_symmetry_Int_Tables_number   1
_chemical_formula_structural   Ca2Al2SiO7
_chemical_formula_sum   'Ca48 Al48 Si24 O168'
_cell_volume   3649.72987305
_cell_formula_units_Z   24
loop_
 _symmetry_equiv_pos_site_id
 _symmetry_equiv_pos_as_xyz
  1  'x, y, z'
loop_
 _atom_type_symbol
 _atom_type_oxidation_number
  Ca2+  2.0
  Al0+  0.0
  Si0+  0.0
  O2-  -2.0
loop_
 _atom_site_type_symbol
 _atom_site_label
 _atom_site_symmetry_multiplicity
 _atom_site_fract_x
 _atom_site_fract_y
 _atom_site_fract_z
 _atom_site_occupancy
  Ca2+  Ca0  1  0.16992920  0.08068589  0.17091204  1
  Ca2+  Ca1  1  0.16451503  0.08018063  0.51019050  1
  Ca2+  Ca2  1  0.17800413  0.08438609  0.82983287  1
  Ca2+  Ca3  1  0.16817760  0.58221352  0.16941866  1
  Ca2+  Ca4  1  0.17458748  0.57162487  0.51105960  1
  Ca2+  Ca5  1  0.17081514  0.58176650  0.83030807  1
  Ca2+  Ca6  1  0.66437829  0.07950394  0.16977302  1
  Ca2+  Ca7  1  0.67484789  0.07969891  0.50434436  1
  Ca2+  Ca8  1  0.67186510  0.08797443  0.83714303  1
  Ca2+  Ca9  1  0.67412859  0.57295277  0.16925024  1
  Ca2+  Ca10  1  0.66246883  0.57338041  0.50748568  1
  Ca2+  Ca11  1  0.66377904  0.57364760  0.83646077  1
  Ca2+  Ca12  1  0.07200244  0.32925876  0.16332337  1
  Ca2+  Ca13  1  0.08632678  0.31939657  0.49426861  1
  Ca2+  Ca14  1  0.07927751  0.33040570  0.82522452  1
  Ca2+  Ca15  1  0.07959138  0.83439942  0.16220578  1
  Ca2+  Ca16  1  0.08102086  0.84377973  0.50016972  1
  Ca2+  Ca17  1  0.07391983  0.83903891  0.82598394  1
  Ca2+  Ca18  1  0.58473791  0.33090639  0.16350661  1
  Ca2+  Ca19  1  0.57369074  0.34166342  0.49793218  1
  Ca2+  Ca20  1  0.58415239  0.33180594  0.82778199  1
  Ca2+  Ca21  1  0.58015038  0.83540222  0.15837277  1
  Ca2+  Ca22  1  0.57999013  0.83077546  0.50014123  1
  Ca2+  Ca23  1  0.57143508  0.82639417  0.82371555  1
  Ca2+  Ca24  1  0.33611510  0.41726716  0.17187895  1
  Ca2+  Ca25  1  0.33343155  0.41636609  0.51445763  1
  Ca2+  Ca26  1  0.33152340  0.41522870  0.82766629  1
  Ca2+  Ca27  1  0.33254006  0.92371029  0.17120878  1
  Ca2+  Ca28  1  0.32062551  0.92314756  0.51248142  1
  Ca2+  Ca29  1  0.33830226  0.92295545  0.83718001  1
  Ca2+  Ca30  1  0.82647592  0.40857609  0.16841354  1
  Ca2+  Ca31  1  0.82229035  0.40786910  0.50403696  1
  Ca2+  Ca32  1  0.82253704  0.41981595  0.84458845  1
  Ca2+  Ca33  1  0.82746891  0.91580443  0.17279452  1
  Ca2+  Ca34  1  0.83139241  0.92154506  0.50857603  1
  Ca2+  Ca35  1  0.84044495  0.92091024  0.83375809  1
  Ca2+  Ca36  1  0.42206982  0.16982971  0.15995636  1
  Ca2+  Ca37  1  0.40736568  0.17883385  0.50019014  1
  Ca2+  Ca38  1  0.42041847  0.16549242  0.82762185  1
  Ca2+  Ca39  1  0.42011701  0.67653048  0.15960275  1
  Ca2+  Ca40  1  0.41867690  0.66490729  0.50474535  1
  Ca2+  Ca41  1  0.41771557  0.67477919  0.82181180  1
  Ca2+  Ca42  1  0.91834970  0.17579701  0.16534915  1
  Ca2+  Ca43  1  0.92657398  0.16652450  0.49774520  1
  Ca2+  Ca44  1  0.92102446  0.17027516  0.82482969  1
  Ca2+  Ca45  1  0.91555061  0.67077378  0.15729541  1
  Ca2+  Ca46  1  0.91617667  0.67278139  0.50116278  1
  Ca2+  Ca47  1  0.90886477  0.67658557  0.83050685  1
  Al0+  Al48  1  0.00141466  -0.00001461  -0.00151194  1
  Al0+  Al49  1  0.00075488  -0.00032520  0.32987323  1
  Al0+  Al50  1  -0.00109732  0.00145011  0.66699973  1
  Al0+  Al51  1  0.00076201  0.50072760  -0.00072653  1
  Al0+  Al52  1  0.00060645  0.50199182  0.33057413  1
  Al0+  Al53  1  -0.00297507  0.50148012  0.66921010  1
  Al0+  Al54  1  0.49991971  0.00246362  -0.00327871  1
  Al0+  Al55  1  0.49949160  0.00052791  0.33981589  1
  Al0+  Al56  1  0.50103658  -0.00104141  0.66309009  1
  Al0+  Al57  1  0.49868331  0.49907988  0.00627868  1
  Al0+  Al58  1  0.50220484  0.50226511  0.32982336  1
  Al0+  Al59  1  0.50025815  0.49999440  0.66918229  1
  Al0+  Al60  1  0.25060861  0.24942816  0.00627609  1
  Al0+  Al61  1  0.25051477  0.25093954  0.32169875  1
  Al0+  Al62  1  0.24941838  0.24834077  0.66785307  1
  Al0+  Al63  1  0.24893344  0.75029081  -0.00247899  1
  Al0+  Al64  1  0.24988506  0.75136263  0.33643284  1
  Al0+  Al65  1  0.24722127  0.74916691  0.66959673  1
  Al0+  Al66  1  0.75021692  0.24892077  -0.00252533  1
  Al0+  Al67  1  0.74893342  0.24962828  0.33556105  1
  Al0+  Al68  1  0.74988797  0.24857960  0.67404222  1
  Al0+  Al69  1  0.75012903  0.74858980  -0.00102450  1
  Al0+  Al70  1  0.74912561  0.74883498  0.33719882  1
  Al0+  Al71  1  0.74926813  0.74933533  0.65674254  1
  Al0+  Al72  1  0.67955434  0.42968692  0.68104687  1
  Al0+  Al73  1  0.32266243  0.07053666  0.01573291  1
  Al0+  Al74  1  0.17643938  0.42619838  0.68018329  1
  Al0+  Al75  1  0.81972078  0.06897420  0.68078206  1
  Al0+  Al76  1  0.17716551  0.92896472  0.68318426  1
  Al0+  Al77  1  0.32129282  0.57019851  0.68193224  1
  Al0+  Al78  1  0.07168895  0.17628787  0.31535503  1
  Al0+  Al79  1  0.67745714  0.92697075  0.34733275  1
  Al0+  Al80  1  0.56956524  0.67844158  0.65085493  1
  Al0+  Al81  1  0.82170188  0.57199819  0.01492110  1
  Al0+  Al82  1  0.43041935  0.32304422  0.31896967  1
  Al0+  Al83  1  0.17962873  0.93000195  0.34633878  1
  Al0+  Al84  1  0.57014140  0.18069153  0.98672010  1
  Al0+  Al85  1  0.68022310  0.42935916  0.34874465  1
  Al0+  Al86  1  0.92750761  0.32182945  0.31981984  1
  Al0+  Al87  1  0.67843357  0.42657656  0.01765880  1
  Al0+  Al88  1  0.92993786  0.32073689  0.98462826  1
  Al0+  Al89  1  0.32300943  0.07072930  0.68073396  1
  Al0+  Al90  1  0.42913485  0.82136632  0.98785267  1
  Al0+  Al91  1  0.93102683  0.82087824  0.65119796  1
  Al0+  Al92  1  0.92858785  0.82071394  0.98737829  1
  Al0+  Al93  1  0.42531686  0.82317648  0.64918934  1
  Al0+  Al94  1  0.06968058  0.18194653  0.65507522  1
  Al0+  Al95  1  0.43198468  0.31738606  0.65647256  1
  Si0+  Si96  1  0.17806371  0.92775666  0.01726284  1
  Si0+  Si97  1  0.57133551  0.17645532  0.31881107  1
  Si0+  Si98  1  0.57079178  0.67686984  0.98531365  1
  Si0+  Si99  1  0.82147394  0.57451340  0.68254702  1
  Si0+  Si100  1  0.42887847  0.82085520  0.31923526  1
  Si0+  Si101  1  0.07182712  0.67511760  0.64870053  1
  Si0+  Si102  1  0.57190167  0.68004260  0.31530311  1
  Si0+  Si103  1  0.17945544  0.42955401  0.34502770  1
  Si0+  Si104  1  0.07328468  0.67726454  0.98203115  1
  Si0+  Si105  1  0.82359889  0.07036051  0.01578483  1
  Si0+  Si106  1  0.17897564  0.42881747  0.01713418  1
  Si0+  Si107  1  0.32151657  0.07453704  0.34978806  1
  Si0+  Si108  1  0.07345429  0.17845452  0.98178135  1
  Si0+  Si109  1  0.92820503  0.81958178  0.31860992  1
  Si0+  Si110  1  0.92555363  0.32396504  0.65206163  1
  Si0+  Si111  1  0.32121346  0.57137675  0.34666225  1
  Si0+  Si112  1  0.42626671  0.32375652  0.98322913  1
  Si0+  Si113  1  0.07265225  0.67970837  0.31868588  1
  Si0+  Si114  1  0.67989693  0.93012405  0.01133525  1
  Si0+  Si115  1  0.31979289  0.57291215  0.01666859  1
  Si0+  Si116  1  0.82417669  0.57295714  0.35189870  1
  Si0+  Si117  1  0.82162308  0.07060736  0.34851921  1
  Si0+  Si118  1  0.67855071  0.92560959  0.68341992  1
  Si0+  Si119  1  0.57615948  0.17660626  0.64858713  1
  O2-  O120  1  0.24779777  -0.00483401  0.06179076  1
  O2-  O121  1  0.25057751  0.00778949  0.39243212  1
  O2-  O122  1  0.25669101  -0.00659142  0.73183174  1
  O2-  O123  1  0.25074405  0.50004590  0.05952832  1
  O2-  O124  1  0.25427318  0.49610769  0.38767138  1
  O2-  O125  1  0.24717064  0.49943016  0.73109126  1
  O2-  O126  1  0.75327545  -0.00234006  0.05672425  1
  O2-  O127  1  0.75368839  0.00063962  0.39203225  1
  O2-  O128  1  0.74434382  -0.00435932  0.72958190  1
  O2-  O129  1  0.75319886  0.49735118  0.06639940  1
  O2-  O130  1  0.75867478  0.50084166  0.39494838  1
  O2-  O131  1  0.75633602  0.50279156  0.72628375  1
  O2-  O132  1  -0.00048521  0.25011323  0.26835442  1
  O2-  O133  1  -0.00150111  0.26020931  0.60783253  1
  O2-  O134  1  0.00482789  0.24689274  0.93762677  1
  O2-  O135  1  -0.00014532  0.74916694  0.27635637  1
  O2-  O136  1  0.00644756  0.74694410  0.60364927  1
  O2-  O137  1  0.00261849  0.74534254  0.94080133  1
  O2-  O138  1  0.50376669  0.24616642  0.27415984  1
  O2-  O139  1  0.50487205  0.24301434  0.60527595  1
  O2-  O140  1  0.49714931  0.25717968  0.94065034  1
  O2-  O141  1  0.50312213  0.75423482  0.27411169  1
  O2-  O142  1  0.49787282  0.75089066  0.59948506  1
  O2-  O143  1  0.50073314  0.74392421  0.94177307  1
  O2-  O144  1  0.07180058  0.17869114  0.08761956  1
  O2-  O145  1  0.07176831  0.17677301  0.42885102  1
  O2-  O146  1  0.06806341  0.18285790  0.76821582  1
  O2-  O147  1  0.07635900  0.67912651  0.08844209  1
  O2-  O148  1  0.07369243  0.67776014  0.42303998  1
  O2-  O149  1  0.06880616  0.67282249  0.75412433  1
  O2-  O150  1  0.56866025  0.17776384  0.10035997  1
  O2-  O151  1  0.57187216  0.17550807  0.42392453  1
  O2-  O152  1  0.57739097  0.17879406  0.75428918  1
  O2-  O153  1  0.56978155  0.68007041  0.09166602  1
  O2-  O154  1  0.57021378  0.67739676  0.41970458  1
  O2-  O155  1  0.56944399  0.68012971  0.76483432  1
  O2-  O156  1  0.17925811  0.43450105  0.23953103  1
  O2-  O157  1  0.17877863  0.42644835  0.56573623  1
  O2-  O158  1  0.17943014  0.42833073  0.91255506  1
  O2-  O159  1  0.18319140  0.92601362  0.23295152  1
  O2-  O160  1  0.17572412  0.93443509  0.56915449  1
  O2-  O161  1  0.17632766  0.92757789  0.91251758  1
  O2-  O162  1  0.67949569  0.43116336  0.23592626  1
  O2-  O163  1  0.67982060  0.42998486  0.56750497  1
  O2-  O164  1  0.67711598  0.42906761  0.90434665  1
  O2-  O165  1  0.67861798  0.92704251  0.23320046  1
  O2-  O166  1  0.68168255  0.92731834  0.57738471  1
  O2-  O167  1  0.68058271  0.93140811  0.90681806  1
  O2-  O168  1  0.42666127  0.32309846  0.08934814  1
  O2-  O169  1  0.42853423  0.32463200  0.43181755  1
  O2-  O170  1  0.43340013  0.31704769  0.76944860  1
  O2-  O171  1  0.43117085  0.82026373  0.10216598  1
  O2-  O172  1  0.42777677  0.81727887  0.42335069  1
  O2-  O173  1  0.42945034  0.82233290  0.76317673  1
  O2-  O174  1  0.93101541  0.31774444  0.09800571  1
  O2-  O175  1  0.92901820  0.32079626  0.43325540  1
  O2-  O176  1  0.92559429  0.32131316  0.75771560  1
  O2-  O177  1  0.92979635  0.82075126  0.10131090  1
  O2-  O178  1  0.92887851  0.81952265  0.42332977  1
  O2-  O179  1  0.93020289  0.81934081  0.76436824  1
  O2-  O180  1  0.32451615  0.07024799  0.24382613  1
  O2-  O181  1  0.31805075  0.07428811  0.56693211  1
  O2-  O182  1  0.32272882  0.07053518  0.90341323  1
  O2-  O183  1  0.31809970  0.57380542  0.24091093  1
  O2-  O184  1  0.32090129  0.56646005  0.56743599  1
  O2-  O185  1  0.31947654  0.57448275  0.91249546  1
  O2-  O186  1  0.82055879  0.06903816  0.24232675  1
  O2-  O187  1  0.81922513  0.06797907  0.56721926  1
  O2-  O188  1  0.82438895  0.06959625  0.91098173  1
  O2-  O189  1  0.82191466  0.57814964  0.24656212  1
  O2-  O190  1  0.82207818  0.57416623  0.57666722  1
  O2-  O191  1  0.81762039  0.57361807  0.90170293  1
  O2-  O192  1  0.04212814  0.07858285  0.26017009  1
  O2-  O193  1  0.03374151  0.08768168  0.60005887  1
  O2-  O194  1  0.04823415  0.08445797  0.93758120  1
  O2-  O195  1  0.04685941  0.58865959  0.26785749  1
  O2-  O196  1  0.04227726  0.58279429  0.59999615  1
  O2-  O197  1  0.05130601  0.58317086  0.93667677  1
  O2-  O198  1  0.54442563  0.08255123  0.27197258  1
  O2-  O199  1  0.55621295  0.08142725  0.60395853  1
  O2-  O200  1  0.53926123  0.08574045  0.93014845  1
  O2-  O201  1  0.54107239  0.59082018  0.26460436  1
  O2-  O202  1  0.53801142  0.58106690  0.59710297  1
  O2-  O203  1  0.54466945  0.58223592  0.94262946  1
  O2-  O204  1  0.16860576  0.20495460  0.25941858  1
  O2-  O205  1  0.16578018  0.21011303  0.59901165  1
  O2-  O206  1  0.16795250  0.20603860  0.93949748  1
  O2-  O207  1  0.16379760  0.70977455  0.26951305  1
  O2-  O208  1  0.16683783  0.69528051  0.60397623  1
  O2-  O209  1  0.16572146  0.70376104  0.93466250  1
  O2-  O210  1  0.66523975  0.20049223  0.27239886  1
  O2-  O211  1  0.66931604  0.20506689  0.60296135  1
  O2-  O212  1  0.66717556  0.20736621  0.93192514  1
  O2-  O213  1  0.66492978  0.70684922  0.26932536  1
  O2-  O214  1  0.66660828  0.70518117  0.59350610  1
  O2-  O215  1  0.66349599  0.70272730  0.93921604  1
  O2-  O216  1  0.08813706  0.45893696  0.06551282  1
  O2-  O217  1  0.08903104  0.46051074  0.39266560  1
  O2-  O218  1  0.07754894  0.45477041  0.73286740  1
  O2-  O219  1  0.08483108  0.95565836  0.06481755  1
  O2-  O220  1  0.08038774  0.95609986  0.39712501  1
  O2-  O221  1  0.08154462  0.96441870  0.73650013  1
  O2-  O222  1  0.57962052  0.45523331  0.07133971  1
  O2-  O223  1  0.58387296  0.46640142  0.40004011  1
  O2-  O224  1  0.58507461  0.46265680  0.73636976  1
  O2-  O225  1  0.58984506  0.96148399  0.06064861  1
  O2-  O226  1  0.58191134  0.95695650  0.40335952  1
  O2-  O227  1  0.58337910  0.94777124  0.72653648  1
  O2-  O228  1  0.20607293  0.33788840  0.06697439  1
  O2-  O229  1  0.20388937  0.33489227  0.38708981  1
  O2-  O230  1  0.20739768  0.33062930  0.73579196  1
  O2-  O231  1  0.20146737  0.83269391  0.06264636  1
  O2-  O232  1  0.21097246  0.83412242  0.40175952  1
  O2-  O233  1  0.19285042  0.82665042  0.73172179  1
  O2-  O234  1  0.70838245  0.32728665  0.06902604  1
  O2-  O235  1  0.70586896  0.33114611  0.40227100  1
  O2-  O236  1  0.70795755  0.33330586  0.73581634  1
  O2-  O237  1  0.70429219  0.83734698  0.05930011  1
  O2-  O238  1  0.70762356  0.83088062  0.40200515  1
  O2-  O239  1  0.70621515  0.83155434  0.72633987  1
  O2-  O240  1  0.46144205  0.41953276  0.26349424  1
  O2-  O241  1  0.46243696  0.41409143  0.60266442  1
  O2-  O242  1  0.44798723  0.41972354  0.94083133  1
  O2-  O243  1  0.45430594  0.91503756  0.27473063  1
  O2-  O244  1  0.45459074  0.92109628  0.59476343  1
  O2-  O245  1  0.46280852  0.91575913  0.93371179  1
  O2-  O246  1  0.95570704  0.42103862  0.26658847  1
  O2-  O247  1  0.94251272  0.42030170  0.60868945  1
  O2-  O248  1  0.95945896  0.41858517  0.93310801  1
  O2-  O249  1  0.95419269  0.91111526  0.26995714  1
  O2-  O250  1  0.96158913  0.91720080  0.59693046  1
  O2-  O251  1  0.95985846  0.91737950  0.93361025  1
  O2-  O252  1  0.33492239  0.29581167  0.26073894  1
  O2-  O253  1  0.33478204  0.28859815  0.60182613  1
  O2-  O254  1  0.33202929  0.29654171  0.94032534  1
  O2-  O255  1  0.33842662  0.78868536  0.27052967  1
  O2-  O256  1  0.32537468  0.79449456  0.59970582  1
  O2-  O257  1  0.33183280  0.79294149  0.93539893  1
  O2-  O258  1  0.82921866  0.29067421  0.26684175  1
  O2-  O259  1  0.83372147  0.29086442  0.60664201  1
  O2-  O260  1  0.83369635  0.28950564  0.93184909  1
  O2-  O261  1  0.83583071  0.79072773  0.27213757  1
  O2-  O262  1  0.83576628  0.78997600  0.59425625  1
  O2-  O263  1  0.83185706  0.79144831  0.93270714  1
  O2-  O264  1  0.41905852  0.03798637  0.07031784  1
  O2-  O265  1  0.41409883  0.04963565  0.39726756  1
  O2-  O266  1  0.42472431  0.04804489  0.73033703  1
  O2-  O267  1  0.41140963  0.54744805  0.06673379  1
  O2-  O268  1  0.41501910  0.54796045  0.39046999  1
  O2-  O269  1  0.41753944  0.54029140  0.73696083  1
  O2-  O270  1  0.91539596  0.04295737  0.06390038  1
  O2-  O271  1  0.91527904  0.04378075  0.39298866  1
  O2-  O272  1  0.91417021  0.03633056  0.73650169  1
  O2-  O273  1  0.92331890  0.55033653  0.06542902  1
  O2-  O274  1  0.92021899  0.55262369  0.39538296  1
  O2-  O275  1  0.91583319  0.55537307  0.72931179  1
  O2-  O276  1  0.29253874  0.16691866  0.07178452  1
  O2-  O277  1  0.29687870  0.17074273  0.39012806  1
  O2-  O278  1  0.28943312  0.16610731  0.73620026  1
  O2-  O279  1  0.28916771  0.66400188  0.06590842  1
  O2-  O280  1  0.28977646  0.66096220  0.39534977  1
  O2-  O281  1  0.29273422  0.66809055  0.73544000  1
  O2-  O282  1  0.79284333  0.16090279  0.06320447  1
  O2-  O283  1  0.79525701  0.16281522  0.39604992  1
  O2-  O284  1  0.79033824  0.16415867  0.73824280  1
  O2-  O285  1  0.79060561  0.66995924  0.07024744  1
  O2-  O286  1  0.79502567  0.66479396  0.39986939  1
  O2-  O287  1  0.79219021  0.66806706  0.72651255  1
