# generated using pymatgen
data_Ca2Al2SiO7
_symmetry_space_group_name_H-M   'P 1'
_cell_length_a   15.46099892
_cell_length_b   15.46215738
_cell_length_c   15.28746682
_cell_angle_alpha   89.99160474
_cell_angle_beta   89.99799309
_cell_angle_gamma   90.00816701
_symmetry_Int_Tables_number   1
_chemical_formula_structural   Ca2Al2SiO7
_chemical_formula_sum   'Ca48 Al48 Si24 O168'
_cell_volume   3654.62783238
_cell_formula_units_Z   24
loop_
 _symmetry_equiv_pos_site_id
 _symmetry_equiv_pos_as_xyz
  1  'x, y, z'
loop_
 _atom_type_symbol
 _atom_type_oxidation_number
  Ca2+  2.0
  Al0+  0.0
  Si0+  0.0
  O2-  -2.0
loop_
 _atom_site_type_symbol
 _atom_site_label
 _atom_site_symmetry_multiplicity
 _atom_site_fract_x
 _atom_site_fract_y
 _atom_site_fract_z
 _atom_site_occupancy
  Ca2+  Ca0  1  0.17410936  0.09674561  0.16839771  1
  Ca2+  Ca1  1  0.16616650  0.08517192  0.50521760  1
  Ca2+  Ca2  1  0.16591696  0.08526049  0.83667759  1
  Ca2+  Ca3  1  0.16428334  0.57360242  0.16475794  1
  Ca2+  Ca4  1  0.17242796  0.57356398  0.51384546  1
  Ca2+  Ca5  1  0.17872849  0.56943238  0.83665885  1
  Ca2+  Ca6  1  0.68410342  0.09051904  0.16974783  1
  Ca2+  Ca7  1  0.67247338  0.08456123  0.50824944  1
  Ca2+  Ca8  1  0.66658540  0.08111774  0.83746833  1
  Ca2+  Ca9  1  0.67314621  0.57839722  0.16375333  1
  Ca2+  Ca10  1  0.67230844  0.58509827  0.50417769  1
  Ca2+  Ca11  1  0.66593361  0.57914531  0.84231353  1
  Ca2+  Ca12  1  0.07332928  0.32601360  0.15919869  1
  Ca2+  Ca13  1  0.07917858  0.32741179  0.49715809  1
  Ca2+  Ca14  1  0.07974395  0.33010869  0.82843050  1
  Ca2+  Ca15  1  0.08145515  0.82952879  0.16248619  1
  Ca2+  Ca16  1  0.08916041  0.83185970  0.50089898  1
  Ca2+  Ca17  1  0.08479261  0.83383931  0.82741383  1
  Ca2+  Ca18  1  0.58267341  0.33629403  0.16150212  1
  Ca2+  Ca19  1  0.57596625  0.33132867  0.50567623  1
  Ca2+  Ca20  1  0.57911803  0.33137377  0.82509078  1
  Ca2+  Ca21  1  0.58347851  0.82540675  0.15867582  1
  Ca2+  Ca22  1  0.58255201  0.83327988  0.50509666  1
  Ca2+  Ca23  1  0.57866452  0.82247910  0.82270172  1
  Ca2+  Ca24  1  0.32554974  0.41719752  0.16386604  1
  Ca2+  Ca25  1  0.32715364  0.41942033  0.51404794  1
  Ca2+  Ca26  1  0.32712091  0.41571469  0.83810319  1
  Ca2+  Ca27  1  0.33255320  0.92956560  0.16890498  1
  Ca2+  Ca28  1  0.32962598  0.92145377  0.50872377  1
  Ca2+  Ca29  1  0.33230557  0.92010714  0.83353884  1
  Ca2+  Ca30  1  0.83601976  0.41812711  0.16728191  1
  Ca2+  Ca31  1  0.84323191  0.41848560  0.50223806  1
  Ca2+  Ca32  1  0.82888070  0.41527519  0.84326318  1
  Ca2+  Ca33  1  0.83671091  0.93185875  0.16911245  1
  Ca2+  Ca34  1  0.82866019  0.92636229  0.50637589  1
  Ca2+  Ca35  1  0.82561249  0.92444973  0.83650296  1
  Ca2+  Ca36  1  0.41483009  0.16316064  0.16154644  1
  Ca2+  Ca37  1  0.41764074  0.16664111  0.49979487  1
  Ca2+  Ca38  1  0.42101590  0.17088596  0.82556146  1
  Ca2+  Ca39  1  0.42181116  0.66659157  0.15466119  1
  Ca2+  Ca40  1  0.41641734  0.66933602  0.50297434  1
  Ca2+  Ca41  1  0.42337579  0.66221594  0.82409433  1
  Ca2+  Ca42  1  0.92308671  0.17043049  0.15599445  1
  Ca2+  Ca43  1  0.92644038  0.17577850  0.49265874  1
  Ca2+  Ca44  1  0.92292592  0.17728225  0.82773847  1
  Ca2+  Ca45  1  0.90820277  0.66514095  0.16239866  1
  Ca2+  Ca46  1  0.91574426  0.66784146  0.49437707  1
  Ca2+  Ca47  1  0.91454037  0.66544265  0.83128853  1
  Al0+  Al48  1  -0.00052840  -0.00175244  -0.00091039  1
  Al0+  Al49  1  0.00067848  -0.00203517  0.33389602  1
  Al0+  Al50  1  0.00017730  0.00086745  0.66756180  1
  Al0+  Al51  1  0.00002592  0.50155440  0.00300150  1
  Al0+  Al52  1  -0.00020337  0.49972749  0.33406062  1
  Al0+  Al53  1  0.00194485  0.50201004  0.66833888  1
  Al0+  Al54  1  0.49781089  -0.00222708  0.00368190  1
  Al0+  Al55  1  0.49790723  -0.00103828  0.33542700  1
  Al0+  Al56  1  0.50185480  -0.00273428  0.66367607  1
  Al0+  Al57  1  0.50073775  0.49990992  0.00395653  1
  Al0+  Al58  1  0.50091390  0.50044007  0.33232905  1
  Al0+  Al59  1  0.50456843  0.50068469  0.65916641  1
  Al0+  Al60  1  0.24966737  0.24915535  0.00439582  1
  Al0+  Al61  1  0.25068368  0.25089091  0.33514756  1
  Al0+  Al62  1  0.24900956  0.24961107  0.66419384  1
  Al0+  Al63  1  0.24948046  0.75189904  0.00316448  1
  Al0+  Al64  1  0.25140055  0.75062620  0.32916905  1
  Al0+  Al65  1  0.25095315  0.75136067  0.67076751  1
  Al0+  Al66  1  0.74954990  0.24923749  0.00439023  1
  Al0+  Al67  1  0.74713019  0.25160367  0.33677734  1
  Al0+  Al68  1  0.75207780  0.25329578  0.65863933  1
  Al0+  Al69  1  0.74775733  0.74928495  -0.00230237  1
  Al0+  Al70  1  0.74941263  0.74762140  0.33568554  1
  Al0+  Al71  1  0.74978636  0.75278717  0.66647270  1
  Al0+  Al72  1  0.92760387  0.32208843  0.98463243  1
  Al0+  Al73  1  0.32402923  0.57023190  0.67984075  1
  Al0+  Al74  1  0.92993029  0.32468381  0.65102362  1
  Al0+  Al75  1  0.32022663  0.06988956  0.01190694  1
  Al0+  Al76  1  0.57209649  0.17717457  0.65306758  1
  Al0+  Al77  1  0.42724661  0.82001641  0.65111735  1
  Al0+  Al78  1  0.07095498  0.17722657  0.65110538  1
  Al0+  Al79  1  0.57360450  0.67834889  0.64907347  1
  Al0+  Al80  1  0.17811748  0.42765634  0.01666643  1
  Al0+  Al81  1  0.92756953  0.32195230  0.31590959  1
  Al0+  Al82  1  0.07130214  0.17736079  0.31658294  1
  Al0+  Al83  1  0.17838090  0.42622327  0.68214911  1
  Al0+  Al84  1  0.17818983  0.93024784  0.68031569  1
  Al0+  Al85  1  0.82095842  0.57209455  0.01304572  1
  Al0+  Al86  1  0.82242338  0.07253094  0.34847138  1
  Al0+  Al87  1  0.56910827  0.67890636  0.98607345  1
  Al0+  Al88  1  0.32173524  0.57170426  0.01500467  1
  Al0+  Al89  1  0.07244528  0.17815933  0.98317693  1
  Al0+  Al90  1  0.31988905  0.07128636  0.34938123  1
  Al0+  Al91  1  0.42832647  0.32083977  0.65372835  1
  Al0+  Al92  1  0.82039902  0.06996396  0.01108466  1
  Al0+  Al93  1  0.67889229  0.93008622  0.68107072  1
  Al0+  Al94  1  0.67829769  0.42677262  0.01405281  1
  Al0+  Al95  1  0.81969637  0.56852045  0.34867276  1
  Si0+  Si96  1  0.42682275  0.82298350  0.98309127  1
  Si0+  Si97  1  0.92848227  0.82144329  0.65190995  1
  Si0+  Si98  1  0.07276978  0.67955451  0.98430616  1
  Si0+  Si99  1  0.07058819  0.68132276  0.65360955  1
  Si0+  Si100  1  0.68155253  0.42938614  0.67963328  1
  Si0+  Si101  1  0.67398276  0.42812096  0.35430475  1
  Si0+  Si102  1  0.18067836  0.43161139  0.34897968  1
  Si0+  Si103  1  0.17897230  0.92468217  0.34940553  1
  Si0+  Si104  1  0.32242041  0.57262960  0.34760723  1
  Si0+  Si105  1  0.42849616  0.82115510  0.31524943  1
  Si0+  Si106  1  0.17592305  0.92764974  0.01813239  1
  Si0+  Si107  1  0.57120974  0.67951169  0.31579986  1
  Si0+  Si108  1  0.92716975  0.81909085  0.31878705  1
  Si0+  Si109  1  0.32292140  0.07192658  0.68239810  1
  Si0+  Si110  1  0.56880025  0.17694658  0.31767980  1
  Si0+  Si111  1  0.57098944  0.17644890  0.98871840  1
  Si0+  Si112  1  0.07185944  0.67932639  0.31893761  1
  Si0+  Si113  1  0.67737544  0.92806316  0.01652982  1
  Si0+  Si114  1  0.82176578  0.57300262  0.68081111  1
  Si0+  Si115  1  0.92831507  0.82039869  0.98430493  1
  Si0+  Si116  1  0.82109427  0.07427999  0.68291444  1
  Si0+  Si117  1  0.42994768  0.31968135  0.98817658  1
  Si0+  Si118  1  0.67898335  0.92764689  0.34930572  1
  Si0+  Si119  1  0.42956019  0.32177999  0.31707155  1
  O2-  O120  1  0.24263103  -0.00130356  0.06061545  1
  O2-  O121  1  0.24234967  -0.00187141  0.39284072  1
  O2-  O122  1  0.25191898  0.00558842  0.72666067  1
  O2-  O123  1  0.24893504  0.50183886  0.06713266  1
  O2-  O124  1  0.25166579  0.50302694  0.39098150  1
  O2-  O125  1  0.25725935  0.49311738  0.72887496  1
  O2-  O126  1  0.74469014  -0.00282420  0.06130113  1
  O2-  O127  1  0.74552802  -0.00159816  0.39344589  1
  O2-  O128  1  0.74886210  0.00908766  0.72753549  1
  O2-  O129  1  0.75338795  0.49635655  0.06352054  1
  O2-  O130  1  0.74823269  0.49204140  0.39695141  1
  O2-  O131  1  0.75270026  0.50031778  0.72157383  1
  O2-  O132  1  -0.00571972  0.24434840  0.26693840  1
  O2-  O133  1  0.00133407  0.25175064  0.60204440  1
  O2-  O134  1  0.00112104  0.25157196  0.93488291  1
  O2-  O135  1  -0.00016337  0.74951526  0.27653290  1
  O2-  O136  1  -0.00007041  0.75144628  0.60866932  1
  O2-  O137  1  -0.00083315  0.74878784  0.94261728  1
  O2-  O138  1  0.49920419  0.24922335  0.27458432  1
  O2-  O139  1  0.49620158  0.24508952  0.60226402  1
  O2-  O140  1  0.50121325  0.24838699  0.94686780  1
  O2-  O141  1  0.49950320  0.74996408  0.27353805  1
  O2-  O142  1  0.49872867  0.74798939  0.59926097  1
  O2-  O143  1  0.49104082  0.75016678  0.94026491  1
  O2-  O144  1  0.07117235  0.17828874  0.09685405  1
  O2-  O145  1  0.07233575  0.17952665  0.42981008  1
  O2-  O146  1  0.06739803  0.17455896  0.76430678  1
  O2-  O147  1  0.07393880  0.68317843  0.08998384  1
  O2-  O148  1  0.07370189  0.68151736  0.42413430  1
  O2-  O149  1  0.06740718  0.68221487  0.75848113  1
  O2-  O150  1  0.56906304  0.17539755  0.09416060  1
  O2-  O151  1  0.56704307  0.17562336  0.42240221  1
  O2-  O152  1  0.57235839  0.17979483  0.76728767  1
  O2-  O153  1  0.56980141  0.68306097  0.10002012  1
  O2-  O154  1  0.57151551  0.68025099  0.42039914  1
  O2-  O155  1  0.57613931  0.67955113  0.76241940  1
  O2-  O156  1  0.18180197  0.43356089  0.24408025  1
  O2-  O157  1  0.17678509  0.43210322  0.56777186  1
  O2-  O158  1  0.18117998  0.42765386  0.90365961  1
  O2-  O159  1  0.18265335  0.91700181  0.24423567  1
  O2-  O160  1  0.17904613  0.92870236  0.56703368  1
  O2-  O161  1  0.17626852  0.92473094  0.91286605  1
  O2-  O162  1  0.66778535  0.43193293  0.24916689  1
  O2-  O163  1  0.68135766  0.43041921  0.57450339  1
  O2-  O164  1  0.67592099  0.42697855  0.90030726  1
  O2-  O165  1  0.68096751  0.92623052  0.24345813  1
  O2-  O166  1  0.68472911  0.92847370  0.56772413  1
  O2-  O167  1  0.67774247  0.92914696  0.91118256  1
  O2-  O168  1  0.43086836  0.31814729  0.09388981  1
  O2-  O169  1  0.43068434  0.32370637  0.42176632  1
  O2-  O170  1  0.43168521  0.32073609  0.76771470  1
  O2-  O171  1  0.43003778  0.82482418  0.08934285  1
  O2-  O172  1  0.42571650  0.82022878  0.41966975  1
  O2-  O173  1  0.42834126  0.81958169  0.76458793  1
  O2-  O174  1  0.92733040  0.31900787  0.09817044  1
  O2-  O175  1  0.93450049  0.32460249  0.42916316  1
  O2-  O176  1  0.92652434  0.32485360  0.76422478  1
  O2-  O177  1  0.92927575  0.82106497  0.08986699  1
  O2-  O178  1  0.92627832  0.81722253  0.42392756  1
  O2-  O179  1  0.92763303  0.81940265  0.75706335  1
  O2-  O180  1  0.32249679  0.06851488  0.23618453  1
  O2-  O181  1  0.32245163  0.06948250  0.57659747  1
  O2-  O182  1  0.32565240  0.06714976  0.89951093  1
  O2-  O183  1  0.32173845  0.57240230  0.24278428  1
  O2-  O184  1  0.31797434  0.57123315  0.56520111  1
  O2-  O185  1  0.32197314  0.56965948  0.90204654  1
  O2-  O186  1  0.82145984  0.06939390  0.23502057  1
  O2-  O187  1  0.82102154  0.06990646  0.57708149  1
  O2-  O188  1  0.81718552  0.06729987  0.89839227  1
  O2-  O189  1  0.81616523  0.57308275  0.23641118  1
  O2-  O190  1  0.82173163  0.57424945  0.57540843  1
  O2-  O191  1  0.81763435  0.57546889  0.89942037  1
  O2-  O192  1  0.05155873  0.07428815  0.26823165  1
  O2-  O193  1  0.04080828  0.07885400  0.59737203  1
  O2-  O194  1  0.04486835  0.07761427  0.93388968  1
  O2-  O195  1  0.04376117  0.58820937  0.27164902  1
  O2-  O196  1  0.04291728  0.59071786  0.60401733  1
  O2-  O197  1  0.04730593  0.58756458  0.93777855  1
  O2-  O198  1  0.54042232  0.08506301  0.27020597  1
  O2-  O199  1  0.54949376  0.07808567  0.59946096  1
  O2-  O200  1  0.54181320  0.08449837  0.94196924  1
  O2-  O201  1  0.54297556  0.58738141  0.26938111  1
  O2-  O202  1  0.55076400  0.58068702  0.59262674  1
  O2-  O203  1  0.54127723  0.58061350  0.93452082  1
  O2-  O204  1  0.17003037  0.21175852  0.26649490  1
  O2-  O205  1  0.17054002  0.20078650  0.59913848  1
  O2-  O206  1  0.17293883  0.20468841  0.93375759  1
  O2-  O207  1  0.16254354  0.70831084  0.26892006  1
  O2-  O208  1  0.16147570  0.71034542  0.60560653  1
  O2-  O209  1  0.16339337  0.71136145  0.93706344  1
  O2-  O210  1  0.66126515  0.20493813  0.27164233  1
  O2-  O211  1  0.66751746  0.21019468  0.59667377  1
  O2-  O212  1  0.66294965  0.20140307  0.94190266  1
  O2-  O213  1  0.66282693  0.70944364  0.26894505  1
  O2-  O214  1  0.67053373  0.71392941  0.59538020  1
  O2-  O215  1  0.66442378  0.71194121  0.93107198  1
  O2-  O216  1  0.08148356  0.45975051  0.07086294  1
  O2-  O217  1  0.08964560  0.46124823  0.39595115  1
  O2-  O218  1  0.08351344  0.46426656  0.73619744  1
  O2-  O219  1  0.08122065  0.94826542  0.06384041  1
  O2-  O220  1  0.08269900  0.94169489  0.39281047  1
  O2-  O221  1  0.08034545  0.95641644  0.73507633  1
  O2-  O222  1  0.58270835  0.45867961  0.07119417  1
  O2-  O223  1  0.58275773  0.46127320  0.40196209  1
  O2-  O224  1  0.58959059  0.45680342  0.72616722  1
  O2-  O225  1  0.58371437  0.95068207  0.06373021  1
  O2-  O226  1  0.58410662  0.95076564  0.39324436  1
  O2-  O227  1  0.58079219  0.95418121  0.73464829  1
  O2-  O228  1  0.21052643  0.33189753  0.07226254  1
  O2-  O229  1  0.21023218  0.34062528  0.39584653  1
  O2-  O230  1  0.20148331  0.32624705  0.73291541  1
  O2-  O231  1  0.20356967  0.83577034  0.06744832  1
  O2-  O232  1  0.21030545  0.83266168  0.39734910  1
  O2-  O233  1  0.20834237  0.83453677  0.73645090  1
  O2-  O234  1  0.70170609  0.32856284  0.07007655  1
  O2-  O235  1  0.69140227  0.33229209  0.39799466  1
  O2-  O236  1  0.70817110  0.33710514  0.72659605  1
  O2-  O237  1  0.70570879  0.83536749  0.06247424  1
  O2-  O238  1  0.70699011  0.83508782  0.39599528  1
  O2-  O239  1  0.71573098  0.83570711  0.73634071  1
  O2-  O240  1  0.45912624  0.41335993  0.26895075  1
  O2-  O241  1  0.46179842  0.41593842  0.59631401  1
  O2-  O242  1  0.45767959  0.41131723  0.94200910  1
  O2-  O243  1  0.45749720  0.91300930  0.26795680  1
  O2-  O244  1  0.45739932  0.91696420  0.59612546  1
  O2-  O245  1  0.45675309  0.91485927  0.93612285  1
  O2-  O246  1  0.96036256  0.42050330  0.26441509  1
  O2-  O247  1  0.95939259  0.42410919  0.59918681  1
  O2-  O248  1  0.95193637  0.42367032  0.93636287  1
  O2-  O249  1  0.95446748  0.91042619  0.27026695  1
  O2-  O250  1  0.95588883  0.91288804  0.60435549  1
  O2-  O251  1  0.95662277  0.91064528  0.93467824  1
  O2-  O252  1  0.33755702  0.29494523  0.27025805  1
  O2-  O253  1  0.32966003  0.29738529  0.59968298  1
  O2-  O254  1  0.33864627  0.29121273  0.94168015  1
  O2-  O255  1  0.33752753  0.79313272  0.26544325  1
  O2-  O256  1  0.32848216  0.79171579  0.59726423  1
  O2-  O257  1  0.33035721  0.80381131  0.94108463  1
  O2-  O258  1  0.82332513  0.30286641  0.27148151  1
  O2-  O259  1  0.83250240  0.29910950  0.59473951  1
  O2-  O260  1  0.82796637  0.29153914  0.93438425  1
  O2-  O261  1  0.83641031  0.78855452  0.27059780  1
  O2-  O262  1  0.83868378  0.79220612  0.60196047  1
  O2-  O263  1  0.83663753  0.79310306  0.93652634  1
  O2-  O264  1  0.41491631  0.03587317  0.07058444  1
  O2-  O265  1  0.41573129  0.03693760  0.40303667  1
  O2-  O266  1  0.41639504  0.04414208  0.72697570  1
  O2-  O267  1  0.41833255  0.54173801  0.07043305  1
  O2-  O268  1  0.41492457  0.54550487  0.39336446  1
  O2-  O269  1  0.42636962  0.54798861  0.72565312  1
  O2-  O270  1  0.91521120  0.03437921  0.06619861  1
  O2-  O271  1  0.91799839  0.03732244  0.40165454  1
  O2-  O272  1  0.91220628  0.04255097  0.72924410  1
  O2-  O273  1  0.92098590  0.55317591  0.06621458  1
  O2-  O274  1  0.91891209  0.54371615  0.40174002  1
  O2-  O275  1  0.91466620  0.54987061  0.72750281  1
  O2-  O276  1  0.29374131  0.16580091  0.06926753  1
  O2-  O277  1  0.29401633  0.16964611  0.40198509  1
  O2-  O278  1  0.30071912  0.16650488  0.72688680  1
  O2-  O279  1  0.29475313  0.67151017  0.06755503  1
  O2-  O280  1  0.29510573  0.66578330  0.39239459  1
  O2-  O281  1  0.29120418  0.66634491  0.73335070  1
  O2-  O282  1  0.78944392  0.16395997  0.06907110  1
  O2-  O283  1  0.79056598  0.16883819  0.40172852  1
  O2-  O284  1  0.79806788  0.16993057  0.72444224  1
  O2-  O285  1  0.78801779  0.66978105  0.06715136  1
  O2-  O286  1  0.78731446  0.66516628  0.40357762  1
  O2-  O287  1  0.79372186  0.66486198  0.72726180  1
