# generated using pymatgen
data_Ca2Al2SiO7
_symmetry_space_group_name_H-M   'P 1'
_cell_length_a   15.46493741
_cell_length_b   15.46344203
_cell_length_c   15.28604069
_cell_angle_alpha   89.99967645
_cell_angle_beta   89.96937987
_cell_angle_gamma   90.00846806
_symmetry_Int_Tables_number   1
_chemical_formula_structural   Ca2Al2SiO7
_chemical_formula_sum   'Ca48 Al48 Si24 O168'
_cell_volume   3655.52098764
_cell_formula_units_Z   24
loop_
 _symmetry_equiv_pos_site_id
 _symmetry_equiv_pos_as_xyz
  1  'x, y, z'
loop_
 _atom_type_symbol
 _atom_type_oxidation_number
  Ca2+  2.0
  Al0+  0.0
  Si0+  0.0
  O2-  -2.0
loop_
 _atom_site_type_symbol
 _atom_site_label
 _atom_site_symmetry_multiplicity
 _atom_site_fract_x
 _atom_site_fract_y
 _atom_site_fract_z
 _atom_site_occupancy
  Ca2+  Ca0  1  0.17421362  0.08824905  0.16544643  1
  Ca2+  Ca1  1  0.17841379  0.08929161  0.50271099  1
  Ca2+  Ca2  1  0.17515940  0.08970048  0.83847639  1
  Ca2+  Ca3  1  0.17477123  0.57456917  0.17808246  1
  Ca2+  Ca4  1  0.17263265  0.57156621  0.50281021  1
  Ca2+  Ca5  1  0.16280951  0.57346836  0.83443875  1
  Ca2+  Ca6  1  0.67887934  0.07838133  0.17428914  1
  Ca2+  Ca7  1  0.67362047  0.07874399  0.50211062  1
  Ca2+  Ca8  1  0.68042669  0.08774271  0.83772162  1
  Ca2+  Ca9  1  0.66914499  0.57900590  0.17326862  1
  Ca2+  Ca10  1  0.67171611  0.57893580  0.50188015  1
  Ca2+  Ca11  1  0.66512581  0.58791391  0.83235642  1
  Ca2+  Ca12  1  0.07811802  0.32863229  0.16043725  1
  Ca2+  Ca13  1  0.08125032  0.34062614  0.49987013  1
  Ca2+  Ca14  1  0.07549612  0.32835167  0.83070727  1
  Ca2+  Ca15  1  0.07701540  0.83007418  0.15911046  1
  Ca2+  Ca16  1  0.07565148  0.83509366  0.49828789  1
  Ca2+  Ca17  1  0.07208764  0.83607348  0.82980278  1
  Ca2+  Ca18  1  0.57302276  0.33848861  0.16445634  1
  Ca2+  Ca19  1  0.57154980  0.33731974  0.49322527  1
  Ca2+  Ca20  1  0.57000240  0.33172097  0.82860310  1
  Ca2+  Ca21  1  0.58227988  0.82879084  0.16013247  1
  Ca2+  Ca22  1  0.59077176  0.82808179  0.49725408  1
  Ca2+  Ca23  1  0.58455342  0.82372254  0.83174722  1
  Ca2+  Ca24  1  0.33150549  0.41783765  0.17661768  1
  Ca2+  Ca25  1  0.32489537  0.40862399  0.50277656  1
  Ca2+  Ca26  1  0.32963136  0.40745553  0.83512123  1
  Ca2+  Ca27  1  0.34141330  0.92757023  0.16974505  1
  Ca2+  Ca28  1  0.33532705  0.93018222  0.50527348  1
  Ca2+  Ca29  1  0.33687541  0.92703438  0.84126939  1
  Ca2+  Ca30  1  0.82654034  0.42011066  0.17596405  1
  Ca2+  Ca31  1  0.83207086  0.42601178  0.50847348  1
  Ca2+  Ca32  1  0.84016380  0.42049367  0.83676024  1
  Ca2+  Ca33  1  0.83150986  0.92398468  0.17099899  1
  Ca2+  Ca34  1  0.83129076  0.92540174  0.50456939  1
  Ca2+  Ca35  1  0.84161224  0.92479268  0.83796957  1
  Ca2+  Ca36  1  0.41072719  0.17518012  0.16207340  1
  Ca2+  Ca37  1  0.41025853  0.17327331  0.49472781  1
  Ca2+  Ca38  1  0.40877052  0.17262719  0.82906109  1
  Ca2+  Ca39  1  0.42312145  0.66988281  0.15597991  1
  Ca2+  Ca40  1  0.42167603  0.66264374  0.49480625  1
  Ca2+  Ca41  1  0.42874202  0.67045996  0.82921095  1
  Ca2+  Ca42  1  0.92105482  0.16735074  0.15512583  1
  Ca2+  Ca43  1  0.91130195  0.16917360  0.49719674  1
  Ca2+  Ca44  1  0.91546428  0.17333360  0.82755068  1
  Ca2+  Ca45  1  0.91374917  0.67077576  0.16237057  1
  Ca2+  Ca46  1  0.90685602  0.66866655  0.49854500  1
  Ca2+  Ca47  1  0.91021783  0.67934901  0.82482434  1
  Al0+  Al48  1  0.00414118  -0.00054568  -0.00232424  1
  Al0+  Al49  1  0.00051598  0.00070388  0.33384949  1
  Al0+  Al50  1  0.00101632  -0.00020069  0.66401272  1
  Al0+  Al51  1  0.00022648  0.49934371  0.00065622  1
  Al0+  Al52  1  0.00134920  0.50162285  0.33765603  1
  Al0+  Al53  1  0.00051684  0.49986558  0.67262041  1
  Al0+  Al54  1  0.50219815  0.00057449  0.00151097  1
  Al0+  Al55  1  0.50153462  0.00002807  0.34097406  1
  Al0+  Al56  1  0.50088971  -0.00056877  0.67253151  1
  Al0+  Al57  1  0.49993979  0.49927858  -0.00854086  1
  Al0+  Al58  1  0.50067588  0.50161402  0.33385036  1
  Al0+  Al59  1  0.49936046  0.50023946  0.65793109  1
  Al0+  Al60  1  0.24787844  0.24967238  -0.00173252  1
  Al0+  Al61  1  0.24799406  0.24980089  0.33490919  1
  Al0+  Al62  1  0.24828314  0.25027847  0.67136633  1
  Al0+  Al63  1  0.25063151  0.74964567  -0.00461403  1
  Al0+  Al64  1  0.24894079  0.75048233  0.33550946  1
  Al0+  Al65  1  0.25018814  0.74965514  0.66679551  1
  Al0+  Al66  1  0.74862276  0.25282116  0.00249816  1
  Al0+  Al67  1  0.74730970  0.25018579  0.33847183  1
  Al0+  Al68  1  0.74813897  0.25028312  0.66622073  1
  Al0+  Al69  1  0.75128242  0.74957567  -0.00661242  1
  Al0+  Al70  1  0.74938567  0.75100733  0.33628800  1
  Al0+  Al71  1  0.74952479  0.74929577  0.66098583  1
  Al0+  Al72  1  0.92598865  0.32195753  0.98718520  1
  Al0+  Al73  1  0.32235633  0.57360125  0.34637984  1
  Al0+  Al74  1  0.17990216  0.42803006  0.34769712  1
  Al0+  Al75  1  0.32167266  0.07107061  0.01497884  1
  Al0+  Al76  1  0.56969423  0.68053669  0.64824225  1
  Al0+  Al77  1  0.42913012  0.31944995  0.31904176  1
  Al0+  Al78  1  0.92824994  0.32153756  0.65192973  1
  Al0+  Al79  1  0.93071220  0.82128581  0.64992223  1
  Al0+  Al80  1  0.67675628  0.42808513  0.34807601  1
  Al0+  Al81  1  0.18001993  0.43017095  0.68417762  1
  Al0+  Al82  1  0.42800540  0.31739706  0.65138337  1
  Al0+  Al83  1  0.07043619  0.17906483  0.98503373  1
  Al0+  Al84  1  0.82123866  0.57024850  0.34699579  1
  Al0+  Al85  1  0.82302319  0.07193638  0.01258685  1
  Al0+  Al86  1  0.31952340  0.06985908  0.34582247  1
  Al0+  Al87  1  0.82082721  0.07143219  0.68164544  1
  Al0+  Al88  1  0.82389931  0.07204204  0.34787693  1
  Al0+  Al89  1  0.67927735  0.92887027  0.34791007  1
  Al0+  Al90  1  0.93118850  0.81944123  0.98775522  1
  Al0+  Al91  1  0.32021253  0.06944125  0.68207804  1
  Al0+  Al92  1  0.81867017  0.57003128  0.68258684  1
  Al0+  Al93  1  0.42906280  0.31876876  0.98702188  1
  Al0+  Al94  1  0.57115210  0.67855260  0.98517233  1
  Al0+  Al95  1  0.42805985  0.82430720  0.98566720  1
  Si0+  Si96  1  0.17659119  0.92655270  0.34935961  1
  Si0+  Si97  1  0.07082188  0.17916433  0.64829049  1
  Si0+  Si98  1  0.67940748  0.92690913  0.68582908  1
  Si0+  Si99  1  0.32212480  0.57042363  0.01196705  1
  Si0+  Si100  1  0.17936551  0.92518909  0.01680948  1
  Si0+  Si101  1  0.57227770  0.17528526  0.31641152  1
  Si0+  Si102  1  0.92923422  0.82087612  0.31761300  1
  Si0+  Si103  1  0.68091712  0.92615463  0.01524556  1
  Si0+  Si104  1  0.32401433  0.57302452  0.68483276  1
  Si0+  Si105  1  0.07358236  0.67593912  0.98370517  1
  Si0+  Si106  1  0.92762019  0.32273955  0.32121689  1
  Si0+  Si107  1  0.42778630  0.82302304  0.32032009  1
  Si0+  Si108  1  0.07323234  0.67662912  0.64912106  1
  Si0+  Si109  1  0.07180943  0.67884770  0.31843929  1
  Si0+  Si110  1  0.42704217  0.82360915  0.64894774  1
  Si0+  Si111  1  0.17791330  0.92574332  0.68367224  1
  Si0+  Si112  1  0.57090443  0.68096450  0.31722125  1
  Si0+  Si113  1  0.06964374  0.17881905  0.31833360  1
  Si0+  Si114  1  0.57253044  0.17576339  0.64976614  1
  Si0+  Si115  1  0.17909285  0.42999727  0.01629462  1
  Si0+  Si116  1  0.82109159  0.57159561  0.01369663  1
  Si0+  Si117  1  0.67528872  0.42827620  0.68468967  1
  Si0+  Si118  1  0.57378350  0.17757054  0.98535317  1
  Si0+  Si119  1  0.67611763  0.43065154  0.01366687  1
  O2-  O120  1  0.25108803  -0.00881684  0.06070581  1
  O2-  O121  1  0.24656811  -0.00625860  0.39307502  1
  O2-  O122  1  0.24870258  -0.00852096  0.72821277  1
  O2-  O123  1  0.25042585  0.50151751  0.05664472  1
  O2-  O124  1  0.25489926  0.49773366  0.39663616  1
  O2-  O125  1  0.25548740  0.50502563  0.73051234  1
  O2-  O126  1  0.74838094  -0.00344596  0.05886664  1
  O2-  O127  1  0.75103110  0.00102823  0.39734603  1
  O2-  O128  1  0.74711448  -0.00358786  0.72998998  1
  O2-  O129  1  0.75055809  0.49968706  0.05462292  1
  O2-  O130  1  0.75379877  0.49470635  0.39758428  1
  O2-  O131  1  0.74616412  0.49382799  0.73100945  1
  O2-  O132  1  -0.00521255  0.24777239  0.27863682  1
  O2-  O133  1  -0.00036184  0.24463066  0.60304830  1
  O2-  O134  1  -0.00715278  0.24567734  0.93659505  1
  O2-  O135  1  -0.00007387  0.74911393  0.27566373  1
  O2-  O136  1  0.00509327  0.74544733  0.60361671  1
  O2-  O137  1  0.00515949  0.74453612  0.93988155  1
  O2-  O138  1  0.50435308  0.24498203  0.27170867  1
  O2-  O139  1  0.50235683  0.24244019  0.60489081  1
  O2-  O140  1  0.50039590  0.24088897  0.94058612  1
  O2-  O141  1  0.49686442  0.75025038  0.27700854  1
  O2-  O142  1  0.49356326  0.75463760  0.60212922  1
  O2-  O143  1  0.49980728  0.75203955  0.93629590  1
  O2-  O144  1  0.07157059  0.18294380  0.09935349  1
  O2-  O145  1  0.07144745  0.17700461  0.42325421  1
  O2-  O146  1  0.07074146  0.18034019  0.75371140  1
  O2-  O147  1  0.07307313  0.67571384  0.08970541  1
  O2-  O148  1  0.07332371  0.68061178  0.42303078  1
  O2-  O149  1  0.07268607  0.67872086  0.75497929  1
  O2-  O150  1  0.57543503  0.18021534  0.09078626  1
  O2-  O151  1  0.57018761  0.17382294  0.42190602  1
  O2-  O152  1  0.57311862  0.17763581  0.75566249  1
  O2-  O153  1  0.57066587  0.67782832  0.09919183  1
  O2-  O154  1  0.57206342  0.68267196  0.42201692  1
  O2-  O155  1  0.56865349  0.68223572  0.76137996  1
  O2-  O156  1  0.17869253  0.42999844  0.23350470  1
  O2-  O157  1  0.18120945  0.43072262  0.57125185  1
  O2-  O158  1  0.17809967  0.43163294  0.91134778  1
  O2-  O159  1  0.17489609  0.92525589  0.24393760  1
  O2-  O160  1  0.17865676  0.92597424  0.57773631  1
  O2-  O161  1  0.17816599  0.92438023  0.91152807  1
  O2-  O162  1  0.67707487  0.43193605  0.23357830  1
  O2-  O163  1  0.67594269  0.43064839  0.57926820  1
  O2-  O164  1  0.67359224  0.43116342  0.90884300  1
  O2-  O165  1  0.68115165  0.92745358  0.23386818  1
  O2-  O166  1  0.67978822  0.92871700  0.58014728  1
  O2-  O167  1  0.68251088  0.92480429  0.90986843  1
  O2-  O168  1  0.42992527  0.32185493  0.10018638  1
  O2-  O169  1  0.42773949  0.31607872  0.43186612  1
  O2-  O170  1  0.42912677  0.31620100  0.76487007  1
  O2-  O171  1  0.42910024  0.82165115  0.10003951  1
  O2-  O172  1  0.42797393  0.82255083  0.42527885  1
  O2-  O173  1  0.42815780  0.82253828  0.75435894  1
  O2-  O174  1  0.92843197  0.32523844  0.10139278  1
  O2-  O175  1  0.93068142  0.32346599  0.42614844  1
  O2-  O176  1  0.93017236  0.32070462  0.76491004  1
  O2-  O177  1  0.93127836  0.81666143  0.10146502  1
  O2-  O178  1  0.93117788  0.82135072  0.42249049  1
  O2-  O179  1  0.93250260  0.82118882  0.76318981  1
  O2-  O180  1  0.31777849  0.07005353  0.23273512  1
  O2-  O181  1  0.31782144  0.06939873  0.56866270  1
  O2-  O182  1  0.31788148  0.07171487  0.90214737  1
  O2-  O183  1  0.31947022  0.57501532  0.23190676  1
  O2-  O184  1  0.32158805  0.57391967  0.57934770  1
  O2-  O185  1  0.32098779  0.56873160  0.90710543  1
  O2-  O186  1  0.82588608  0.06892986  0.23387692  1
  O2-  O187  1  0.81933387  0.06981227  0.56875890  1
  O2-  O188  1  0.82073932  0.07141303  0.89954935  1
  O2-  O189  1  0.81990982  0.57154485  0.23248621  1
  O2-  O190  1  0.81726192  0.56928477  0.56971335  1
  O2-  O191  1  0.82195843  0.57212930  0.90891457  1
  O2-  O192  1  0.04531540  0.08605023  0.26986923  1
  O2-  O193  1  0.05102978  0.08410838  0.60280374  1
  O2-  O194  1  0.05302143  0.07845674  0.93352822  1
  O2-  O195  1  0.04449632  0.58718742  0.26972281  1
  O2-  O196  1  0.04705197  0.58286624  0.60540495  1
  O2-  O197  1  0.04690046  0.58286512  0.93802107  1
  O2-  O198  1  0.54635882  0.08110416  0.27118154  1
  O2-  O199  1  0.54878123  0.08030845  0.60662986  1
  O2-  O200  1  0.55578378  0.08213939  0.94059954  1
  O2-  O201  1  0.54573567  0.58885229  0.26930521  1
  O2-  O202  1  0.53990941  0.58444433  0.59325645  1
  O2-  O203  1  0.54072618  0.58302772  0.92810507  1
  O2-  O204  1  0.15957696  0.21016551  0.26938285  1
  O2-  O205  1  0.16318281  0.21015605  0.60293951  1
  O2-  O206  1  0.16521661  0.21424487  0.92968776  1
  O2-  O207  1  0.16292805  0.70779670  0.26889151  1
  O2-  O208  1  0.16773924  0.70114194  0.60337817  1
  O2-  O209  1  0.16676101  0.69865917  0.93587402  1
  O2-  O210  1  0.66718881  0.19952279  0.27120145  1
  O2-  O211  1  0.66506131  0.20189473  0.60232581  1
  O2-  O212  1  0.66428616  0.20952893  0.93657594  1
  O2-  O213  1  0.66214594  0.71153023  0.26928979  1
  O2-  O214  1  0.66512516  0.71248633  0.59341382  1
  O2-  O215  1  0.66861149  0.70645228  0.93029081  1
  O2-  O216  1  0.08751872  0.45838378  0.06485227  1
  O2-  O217  1  0.08389984  0.46060283  0.40220024  1
  O2-  O218  1  0.08496680  0.46225230  0.74048437  1
  O2-  O219  1  0.08757918  0.95371820  0.06560467  1
  O2-  O220  1  0.08432321  0.95427207  0.39663524  1
  O2-  O221  1  0.08500781  0.95406409  0.72901161  1
  O2-  O222  1  0.58539582  0.46267232  0.06168112  1
  O2-  O223  1  0.58138553  0.46195316  0.40240787  1
  O2-  O224  1  0.58175579  0.45847200  0.72880215  1
  O2-  O225  1  0.58667932  0.94893496  0.06137221  1
  O2-  O226  1  0.58233325  0.95448196  0.40505391  1
  O2-  O227  1  0.58522261  0.94956338  0.73220051  1
  O2-  O228  1  0.20725226  0.33841878  0.06258426  1
  O2-  O229  1  0.20516897  0.33019983  0.40205319  1
  O2-  O230  1  0.21115238  0.33446329  0.73900868  1
  O2-  O231  1  0.20035482  0.82943026  0.06215495  1
  O2-  O232  1  0.19918317  0.83338161  0.39710852  1
  O2-  O233  1  0.19876231  0.83068566  0.72936167  1
  O2-  O234  1  0.70023923  0.33932495  0.06353936  1
  O2-  O235  1  0.69460429  0.32784624  0.40003940  1
  O2-  O236  1  0.69597105  0.33292600  0.72859669  1
  O2-  O237  1  0.70918590  0.83286197  0.06155396  1
  O2-  O238  1  0.70941825  0.83235062  0.40258690  1
  O2-  O239  1  0.70678225  0.83316965  0.72910177  1
  O2-  O240  1  0.45959324  0.41788141  0.26685942  1
  O2-  O241  1  0.45637599  0.41444451  0.59769405  1
  O2-  O242  1  0.46127014  0.41280720  0.92960338  1
  O2-  O243  1  0.45866374  0.91445515  0.27357961  1
  O2-  O244  1  0.45427264  0.91796390  0.60495430  1
  O2-  O245  1  0.45666430  0.92277908  0.93321869  1
  O2-  O246  1  0.95845877  0.41398123  0.27362561  1
  O2-  O247  1  0.96297413  0.41851849  0.60100295  1
  O2-  O248  1  0.95956339  0.41911852  0.93410227  1
  O2-  O249  1  0.95883637  0.91245640  0.27024628  1
  O2-  O250  1  0.96366719  0.91687969  0.59452106  1
  O2-  O251  1  0.96383947  0.91460172  0.93305056  1
  O2-  O252  1  0.33137262  0.28817344  0.26637910  1
  O2-  O253  1  0.33056247  0.28507634  0.60031225  1
  O2-  O254  1  0.33240402  0.28966618  0.93375672  1
  O2-  O255  1  0.33418146  0.79951523  0.27397775  1
  O2-  O256  1  0.33171156  0.80129729  0.60435526  1
  O2-  O257  1  0.32971816  0.79751617  0.93167927  1
  O2-  O258  1  0.83300758  0.30046975  0.27652297  1
  O2-  O259  1  0.82956749  0.29465582  0.60010996  1
  O2-  O260  1  0.82565135  0.30114695  0.93558517  1
  O2-  O261  1  0.83735974  0.79242748  0.27095024  1
  O2-  O262  1  0.83460919  0.79027047  0.59636047  1
  O2-  O263  1  0.83652035  0.78957714  0.93073082  1
  O2-  O264  1  0.42061834  0.04554224  0.06788321  1
  O2-  O265  1  0.41517769  0.04142826  0.40167726  1
  O2-  O266  1  0.41807414  0.04301479  0.73606619  1
  O2-  O267  1  0.41409218  0.54108784  0.05821877  1
  O2-  O268  1  0.42173732  0.55123572  0.39698156  1
  O2-  O269  1  0.41831859  0.54600021  0.72765285  1
  O2-  O270  1  0.92081260  0.04094371  0.06406392  1
  O2-  O271  1  0.92153287  0.04246938  0.40140885  1
  O2-  O272  1  0.91931287  0.04059457  0.73162722  1
  O2-  O273  1  0.91354033  0.54590521  0.06181245  1
  O2-  O274  1  0.92055540  0.54867596  0.39991160  1
  O2-  O275  1  0.91617818  0.54344492  0.73649274  1
  O2-  O276  1  0.28451976  0.16655895  0.06832567  1
  O2-  O277  1  0.28444908  0.16409270  0.40056064  1
  O2-  O278  1  0.28489389  0.16400388  0.73623792  1
  O2-  O279  1  0.29711990  0.66383736  0.05807192  1
  O2-  O280  1  0.29134586  0.67035315  0.40162166  1
  O2-  O281  1  0.29989204  0.66781274  0.73013186  1
  O2-  O282  1  0.79205876  0.16900387  0.06636093  1
  O2-  O283  1  0.79721045  0.17041902  0.40008364  1
  O2-  O284  1  0.78859883  0.16840140  0.73489068  1
  O2-  O285  1  0.79241899  0.66346823  0.06078587  1
  O2-  O286  1  0.79016119  0.66745384  0.39931944  1
  O2-  O287  1  0.78552935  0.66768886  0.73341281  1
