# generated using pymatgen
data_Ca2Al2SiO7
_symmetry_space_group_name_H-M   'P 1'
_cell_length_a   15.46011783
_cell_length_b   15.46018752
_cell_length_c   15.28519251
_cell_angle_alpha   89.99595152
_cell_angle_beta   90.00202630
_cell_angle_gamma   89.97136337
_symmetry_Int_Tables_number   1
_chemical_formula_structural   Ca2Al2SiO7
_chemical_formula_sum   'Ca48 Al48 Si24 O168'
_cell_volume   3653.41000746
_cell_formula_units_Z   24
loop_
 _symmetry_equiv_pos_site_id
 _symmetry_equiv_pos_as_xyz
  1  'x, y, z'
loop_
 _atom_type_symbol
 _atom_type_oxidation_number
  Ca2+  2.0
  Al0+  0.0
  Si0+  0.0
  O2-  -2.0
loop_
 _atom_site_type_symbol
 _atom_site_label
 _atom_site_symmetry_multiplicity
 _atom_site_fract_x
 _atom_site_fract_y
 _atom_site_fract_z
 _atom_site_occupancy
  Ca2+  Ca0  1  0.17337312  0.08638847  0.16929921  1
  Ca2+  Ca1  1  0.17109612  0.08153158  0.51025932  1
  Ca2+  Ca2  1  0.16300839  0.07521507  0.84229148  1
  Ca2+  Ca3  1  0.16356938  0.58569472  0.16921740  1
  Ca2+  Ca4  1  0.16367421  0.58710030  0.50511128  1
  Ca2+  Ca5  1  0.16306029  0.58628651  0.83810627  1
  Ca2+  Ca6  1  0.66370698  0.08539985  0.16759156  1
  Ca2+  Ca7  1  0.66708190  0.08453996  0.50588478  1
  Ca2+  Ca8  1  0.66219348  0.08693133  0.83678273  1
  Ca2+  Ca9  1  0.67090983  0.58092791  0.17356590  1
  Ca2+  Ca10  1  0.66937424  0.57206358  0.50931199  1
  Ca2+  Ca11  1  0.67888397  0.57881180  0.83833531  1
  Ca2+  Ca12  1  0.07018526  0.33092801  0.15856554  1
  Ca2+  Ca13  1  0.06880837  0.33601642  0.49852811  1
  Ca2+  Ca14  1  0.07553982  0.32297332  0.82936552  1
  Ca2+  Ca15  1  0.08888782  0.82477872  0.16219063  1
  Ca2+  Ca16  1  0.08344398  0.82583663  0.50318061  1
  Ca2+  Ca17  1  0.08551433  0.82803712  0.82461100  1
  Ca2+  Ca18  1  0.57829097  0.33271052  0.16446860  1
  Ca2+  Ca19  1  0.57805988  0.33878130  0.49738889  1
  Ca2+  Ca20  1  0.58020573  0.32360635  0.82443191  1
  Ca2+  Ca21  1  0.58602759  0.82015167  0.16118501  1
  Ca2+  Ca22  1  0.57735602  0.82766748  0.49702539  1
  Ca2+  Ca23  1  0.57704382  0.82810215  0.82831946  1
  Ca2+  Ca24  1  0.33128592  0.41466088  0.17346998  1
  Ca2+  Ca25  1  0.33659016  0.41585238  0.50521820  1
  Ca2+  Ca26  1  0.33309071  0.41373674  0.83334290  1
  Ca2+  Ca27  1  0.32942897  0.92959444  0.16808637  1
  Ca2+  Ca28  1  0.32970498  0.92093565  0.50871970  1
  Ca2+  Ca29  1  0.32311488  0.91909606  0.84000464  1
  Ca2+  Ca30  1  0.83114615  0.41729836  0.17110057  1
  Ca2+  Ca31  1  0.82499340  0.41513297  0.50966500  1
  Ca2+  Ca32  1  0.84109188  0.42356544  0.83499285  1
  Ca2+  Ca33  1  0.83246210  0.92057361  0.16819368  1
  Ca2+  Ca34  1  0.83446673  0.91577515  0.50807231  1
  Ca2+  Ca35  1  0.83632218  0.91601532  0.83467439  1
  Ca2+  Ca36  1  0.41508415  0.16641326  0.16287736  1
  Ca2+  Ca37  1  0.41791789  0.17667472  0.49830780  1
  Ca2+  Ca38  1  0.42450651  0.16400258  0.82813104  1
  Ca2+  Ca39  1  0.43212506  0.66268464  0.16230418  1
  Ca2+  Ca40  1  0.41991114  0.67364660  0.49673312  1
  Ca2+  Ca41  1  0.42195710  0.67195769  0.82826922  1
  Ca2+  Ca42  1  0.91756799  0.18052090  0.15824704  1
  Ca2+  Ca43  1  0.92023206  0.17608693  0.50032331  1
  Ca2+  Ca44  1  0.92443134  0.17567867  0.82652161  1
  Ca2+  Ca45  1  0.92623909  0.66327056  0.15920877  1
  Ca2+  Ca46  1  0.92298507  0.66290298  0.50213015  1
  Ca2+  Ca47  1  0.92310468  0.66655772  0.82702961  1
  Al0+  Al48  1  -0.00179979  -0.00078804  0.00677524  1
  Al0+  Al49  1  0.00034795  -0.00125714  0.33475318  1
  Al0+  Al50  1  0.00041850  -0.00228685  0.66374899  1
  Al0+  Al51  1  -0.00043961  0.50272360  -0.00212450  1
  Al0+  Al52  1  -0.00007633  0.50054176  0.32568870  1
  Al0+  Al53  1  0.00168013  0.49897692  0.66416214  1
  Al0+  Al54  1  0.49863448  -0.00030991  0.00247389  1
  Al0+  Al55  1  0.49873819  0.00076720  0.33875043  1
  Al0+  Al56  1  0.50014683  -0.00050395  0.65931314  1
  Al0+  Al57  1  0.50139730  0.49980329  -0.00474814  1
  Al0+  Al58  1  0.49987774  0.49980302  0.32951143  1
  Al0+  Al59  1  0.50075701  0.49888970  0.67092982  1
  Al0+  Al60  1  0.24824422  0.25117200  0.00170347  1
  Al0+  Al61  1  0.25037105  0.25062328  0.33617887  1
  Al0+  Al62  1  0.25328355  0.25011653  0.66256957  1
  Al0+  Al63  1  0.25123763  0.75005009  0.00361913  1
  Al0+  Al64  1  0.25011796  0.75159333  0.32891261  1
  Al0+  Al65  1  0.25166478  0.75115779  0.66333000  1
  Al0+  Al66  1  0.74636581  0.25218129  -0.00670942  1
  Al0+  Al67  1  0.74911688  0.25023279  0.33375295  1
  Al0+  Al68  1  0.74959686  0.24773933  0.66510212  1
  Al0+  Al69  1  0.75112898  0.74788183  0.00119991  1
  Al0+  Al70  1  0.75134481  0.75084924  0.33125392  1
  Al0+  Al71  1  0.75124850  0.74918948  0.66802955  1
  Al0+  Al72  1  0.92744915  0.31935450  0.31858421  1
  Al0+  Al73  1  0.07016864  0.68091161  0.31772876  1
  Al0+  Al74  1  0.56782264  0.17832033  0.98813826  1
  Al0+  Al75  1  0.07250130  0.17642121  0.65242531  1
  Al0+  Al76  1  0.57184209  0.17783179  0.64948250  1
  Al0+  Al77  1  0.43024779  0.32267588  0.65173756  1
  Al0+  Al78  1  0.92757287  0.32236855  0.98375533  1
  Al0+  Al79  1  0.17624085  0.92736128  0.01752567  1
  Al0+  Al80  1  0.42936407  0.82011681  0.65392432  1
  Al0+  Al81  1  0.82264137  0.57010792  0.68210611  1
  Al0+  Al82  1  0.42848601  0.32063198  0.31855902  1
  Al0+  Al83  1  0.07219958  0.68216117  0.98609136  1
  Al0+  Al84  1  0.07140489  0.17743871  0.98761886  1
  Al0+  Al85  1  0.92996665  0.32108577  0.65135122  1
  Al0+  Al86  1  0.57391528  0.67716613  0.98422937  1
  Al0+  Al87  1  0.07209296  0.67848572  0.65246872  1
  Al0+  Al88  1  0.82131842  0.57013808  0.01632650  1
  Al0+  Al89  1  0.67781473  0.42595531  0.68478641  1
  Al0+  Al90  1  0.67902063  0.43032375  0.34646610  1
  Al0+  Al91  1  0.32078049  0.07228803  0.01466278  1
  Al0+  Al92  1  0.32023504  0.07246597  0.35164192  1
  Al0+  Al93  1  0.92734663  0.82067488  0.65259112  1
  Al0+  Al94  1  0.57041254  0.67986616  0.32144878  1
  Al0+  Al95  1  0.17994716  0.92973089  0.68014315  1
  Si0+  Si96  1  0.67838777  0.92870537  0.01427493  1
  Si0+  Si97  1  0.32109989  0.57218310  0.68109099  1
  Si0+  Si98  1  0.57107259  0.17715654  0.31646730  1
  Si0+  Si99  1  0.32347560  0.57088850  0.01515358  1
  Si0+  Si100  1  0.42584631  0.32298391  0.98405128  1
  Si0+  Si101  1  0.82098581  0.06916191  0.68146354  1
  Si0+  Si102  1  0.82061479  0.07107309  0.34792749  1
  Si0+  Si103  1  0.17846016  0.92680310  0.35290040  1
  Si0+  Si104  1  0.67690845  0.42779656  0.01792355  1
  Si0+  Si105  1  0.43073214  0.82026298  0.98537218  1
  Si0+  Si106  1  0.67722559  0.92837327  0.68120974  1
  Si0+  Si107  1  0.82371093  0.57260302  0.34980290  1
  Si0+  Si108  1  0.92706927  0.82282990  0.98568223  1
  Si0+  Si109  1  0.07168749  0.17720311  0.31783919  1
  Si0+  Si110  1  0.17781971  0.43083562  0.34751103  1
  Si0+  Si111  1  0.17932575  0.43091204  0.01468332  1
  Si0+  Si112  1  0.42841286  0.82411153  0.31461451  1
  Si0+  Si113  1  0.67975794  0.92757277  0.34845726  1
  Si0+  Si114  1  0.18003079  0.42800783  0.68079863  1
  Si0+  Si115  1  0.32095193  0.57123425  0.34652725  1
  Si0+  Si116  1  0.32276855  0.07237553  0.68356220  1
  Si0+  Si117  1  0.92702249  0.82450077  0.31442684  1
  Si0+  Si118  1  0.81888848  0.07350352  0.01388621  1
  Si0+  Si119  1  0.57262939  0.67806677  0.65163052  1
  O2-  O120  1  0.24500975  0.00403839  0.06563699  1
  O2-  O121  1  0.24448876  -0.00208663  0.39686829  1
  O2-  O122  1  0.25090586  0.00754197  0.72782545  1
  O2-  O123  1  0.25259518  0.49994602  0.05775362  1
  O2-  O124  1  0.24852855  0.50249974  0.38988830  1
  O2-  O125  1  0.25044528  0.50047602  0.72289591  1
  O2-  O126  1  0.74830415  0.00129391  0.05653226  1
  O2-  O127  1  0.75078300  -0.00143073  0.39036069  1
  O2-  O128  1  0.74823444  -0.00091356  0.72378763  1
  O2-  O129  1  0.74605876  0.49566037  0.06284252  1
  O2-  O130  1  0.75397100  0.50501965  0.39317085  1
  O2-  O131  1  0.75226425  0.49660823  0.73314974  1
  O2-  O132  1  0.00182956  0.24383206  0.27262881  1
  O2-  O133  1  0.00276614  0.24983316  0.60103979  1
  O2-  O134  1  -0.00211850  0.24699681  0.93719395  1
  O2-  O135  1  -0.00457122  0.75566881  0.27109830  1
  O2-  O136  1  -0.00248163  0.74754519  0.60228976  1
  O2-  O137  1  0.00040512  0.75987853  0.94165628  1
  O2-  O138  1  0.50148235  0.24440852  0.27196101  1
  O2-  O139  1  0.50360449  0.25328377  0.60029629  1
  O2-  O140  1  0.49166016  0.25107150  0.94202395  1
  O2-  O141  1  0.49783082  0.75566328  0.27128740  1
  O2-  O142  1  0.50412314  0.74602679  0.60632809  1
  O2-  O143  1  0.49820377  0.75137628  0.93948051  1
  O2-  O144  1  0.06962607  0.18207682  0.10173100  1
  O2-  O145  1  0.06939838  0.17796031  0.42318515  1
  O2-  O146  1  0.06957307  0.17658384  0.76598361  1
  O2-  O147  1  0.07085948  0.68132055  0.09940277  1
  O2-  O148  1  0.07123124  0.68075210  0.43018586  1
  O2-  O149  1  0.07419936  0.68077303  0.76577569  1
  O2-  O150  1  0.56877044  0.17888941  0.10141024  1
  O2-  O151  1  0.57207761  0.17664792  0.42141030  1
  O2-  O152  1  0.56738373  0.17401424  0.76320677  1
  O2-  O153  1  0.57237203  0.67836545  0.09786856  1
  O2-  O154  1  0.56683318  0.68276928  0.43434483  1
  O2-  O155  1  0.57096612  0.68110600  0.75732122  1
  O2-  O156  1  0.17870150  0.43159961  0.24207634  1
  O2-  O157  1  0.18030015  0.42948804  0.57536530  1
  O2-  O158  1  0.18114357  0.43110289  0.90957983  1
  O2-  O159  1  0.17968153  0.92645233  0.24743505  1
  O2-  O160  1  0.18360435  0.92888993  0.56684578  1
  O2-  O161  1  0.17926614  0.92486507  0.90403521  1
  O2-  O162  1  0.67918996  0.43088728  0.23317042  1
  O2-  O163  1  0.67637324  0.43058410  0.57059358  1
  O2-  O164  1  0.67515373  0.42884982  0.91305839  1
  O2-  O165  1  0.68030665  0.92739908  0.24301144  1
  O2-  O166  1  0.67788875  0.92826052  0.57576238  1
  O2-  O167  1  0.67777154  0.92839529  0.90928034  1
  O2-  O168  1  0.42742472  0.32593127  0.08981973  1
  O2-  O169  1  0.42969985  0.32287394  0.43078964  1
  O2-  O170  1  0.42796226  0.32077899  0.76540465  1
  O2-  O171  1  0.43452221  0.81922618  0.09115751  1
  O2-  O172  1  0.42865183  0.82214126  0.42034676  1
  O2-  O173  1  0.43109507  0.81814164  0.76716959  1
  O2-  O174  1  0.92779781  0.32066873  0.09800774  1
  O2-  O175  1  0.92801899  0.31873938  0.43117123  1
  O2-  O176  1  0.93304676  0.32005737  0.76453821  1
  O2-  O177  1  0.92395625  0.82073943  0.09153893  1
  O2-  O178  1  0.92510007  0.82644589  0.41941113  1
  O2-  O179  1  0.92749777  0.82242457  0.76606663  1
  O2-  O180  1  0.32026030  0.07120300  0.23845127  1
  O2-  O181  1  0.32216091  0.06998712  0.57778711  1
  O2-  O182  1  0.32488070  0.06781096  0.90156977  1
  O2-  O183  1  0.32108053  0.56925870  0.24115586  1
  O2-  O184  1  0.32172292  0.57278050  0.57562973  1
  O2-  O185  1  0.32369038  0.57148031  0.91002127  1
  O2-  O186  1  0.81887461  0.07048436  0.24248810  1
  O2-  O187  1  0.81988754  0.06739547  0.57587076  1
  O2-  O188  1  0.81921616  0.07149311  0.90904844  1
  O2-  O189  1  0.82277897  0.57201100  0.24399578  1
  O2-  O190  1  0.81978277  0.57058484  0.56797772  1
  O2-  O191  1  0.82176591  0.57139465  0.90385164  1
  O2-  O192  1  0.04876786  0.08190383  0.27369636  1
  O2-  O193  1  0.04196785  0.08005691  0.59756608  1
  O2-  O194  1  0.04432002  0.07683173  0.93973953  1
  O2-  O195  1  0.04119189  0.58473415  0.26177404  1
  O2-  O196  1  0.04757016  0.57975777  0.59874781  1
  O2-  O197  1  0.04074609  0.58636698  0.93271554  1
  O2-  O198  1  0.54649848  0.08195882  0.27228905  1
  O2-  O199  1  0.54281503  0.08072452  0.59411580  1
  O2-  O200  1  0.54097231  0.08010800  0.93482662  1
  O2-  O201  1  0.53692648  0.58599758  0.26427712  1
  O2-  O202  1  0.54539882  0.58459582  0.60796976  1
  O2-  O203  1  0.54195403  0.58200521  0.92961714  1
  O2-  O204  1  0.16503605  0.20515850  0.27367093  1
  O2-  O205  1  0.17174354  0.20249384  0.60154226  1
  O2-  O206  1  0.16935891  0.20672752  0.93476457  1
  O2-  O207  1  0.16776726  0.71038538  0.26345780  1
  O2-  O208  1  0.16910506  0.70928199  0.59792265  1
  O2-  O209  1  0.17184197  0.70684312  0.93535154  1
  O2-  O210  1  0.66457063  0.20279319  0.27030937  1
  O2-  O211  1  0.67207516  0.19904506  0.59829514  1
  O2-  O212  1  0.66276881  0.20789076  0.93125143  1
  O2-  O213  1  0.66744212  0.71040735  0.26716105  1
  O2-  O214  1  0.66526682  0.70428466  0.60550258  1
  O2-  O215  1  0.66920841  0.71120909  0.93156974  1
  O2-  O216  1  0.08910386  0.46250924  0.06283686  1
  O2-  O217  1  0.08588031  0.46055520  0.39373656  1
  O2-  O218  1  0.08889812  0.45466262  0.72916301  1
  O2-  O219  1  0.07620304  0.94890089  0.07180221  1
  O2-  O220  1  0.08232379  0.94801427  0.39621243  1
  O2-  O221  1  0.08123657  0.95558148  0.73240642  1
  O2-  O222  1  0.58260345  0.45502111  0.06324837  1
  O2-  O223  1  0.58200219  0.46316114  0.39905045  1
  O2-  O224  1  0.57970441  0.45556601  0.73869245  1
  O2-  O225  1  0.58775483  0.95544709  0.06455448  1
  O2-  O226  1  0.58790209  0.95409193  0.39640783  1
  O2-  O227  1  0.58524382  0.95700717  0.72812789  1
  O2-  O228  1  0.20416876  0.33942484  0.06467284  1
  O2-  O229  1  0.20465985  0.33960444  0.39557143  1
  O2-  O230  1  0.21080095  0.33706444  0.72879529  1
  O2-  O231  1  0.21188055  0.83094286  0.07228796  1
  O2-  O232  1  0.20788577  0.83337890  0.39764618  1
  O2-  O233  1  0.21552537  0.83367473  0.73298416  1
  O2-  O234  1  0.70109143  0.33303882  0.06311174  1
  O2-  O235  1  0.70769803  0.33249620  0.39933150  1
  O2-  O236  1  0.70207057  0.32468998  0.73334440  1
  O2-  O237  1  0.70895450  0.83827532  0.06351444  1
  O2-  O238  1  0.70773905  0.83619274  0.39698913  1
  O2-  O239  1  0.70359594  0.83676802  0.72976885  1
  O2-  O240  1  0.45898246  0.41643137  0.26273542  1
  O2-  O241  1  0.45530846  0.42316360  0.60044261  1
  O2-  O242  1  0.45304472  0.41507266  0.93607823  1
  O2-  O243  1  0.45586065  0.91804556  0.27084422  1
  O2-  O244  1  0.46076428  0.91393096  0.59601996  1
  O2-  O245  1  0.45757941  0.91286754  0.93922813  1
  O2-  O246  1  0.95968521  0.41481503  0.26358448  1
  O2-  O247  1  0.95971233  0.41788284  0.59659035  1
  O2-  O248  1  0.96170594  0.41883786  0.93266197  1
  O2-  O249  1  0.95210956  0.91870376  0.26795922  1
  O2-  O250  1  0.95599064  0.91727435  0.59665657  1
  O2-  O251  1  0.94474386  0.91941071  0.94351495  1
  O2-  O252  1  0.33027823  0.29202878  0.26593116  1
  O2-  O253  1  0.33288148  0.29528629  0.59625348  1
  O2-  O254  1  0.33080805  0.30223407  0.94000591  1
  O2-  O255  1  0.33546754  0.79864327  0.26831953  1
  O2-  O256  1  0.33640356  0.78686292  0.59557522  1
  O2-  O257  1  0.33727453  0.79364042  0.94091042  1
  O2-  O258  1  0.83141848  0.28670689  0.26420132  1
  O2-  O259  1  0.83200949  0.29054883  0.60005323  1
  O2-  O260  1  0.82894364  0.29676540  0.93193241  1
  O2-  O261  1  0.83301720  0.80096490  0.26776618  1
  O2-  O262  1  0.82790467  0.79536169  0.59882629  1
  O2-  O263  1  0.83513346  0.79435901  0.93840267  1
  O2-  O264  1  0.41754051  0.03892112  0.07100492  1
  O2-  O265  1  0.41731552  0.04146829  0.40519597  1
  O2-  O266  1  0.41624697  0.04104844  0.72673653  1
  O2-  O267  1  0.41568616  0.54184295  0.06227362  1
  O2-  O268  1  0.41167895  0.54231673  0.39465409  1
  O2-  O269  1  0.41220576  0.54564582  0.73093793  1
  O2-  O270  1  0.90869996  0.04689100  0.06630895  1
  O2-  O271  1  0.91298739  0.04429767  0.39513080  1
  O2-  O272  1  0.91154467  0.03882618  0.72926337  1
  O2-  O273  1  0.91856159  0.53954159  0.07005419  1
  O2-  O274  1  0.91807001  0.54574025  0.39300079  1
  O2-  O275  1  0.92279576  0.54280277  0.73301997  1
  O2-  O276  1  0.29608515  0.17251802  0.06774555  1
  O2-  O277  1  0.29048383  0.16972701  0.40508206  1
  O2-  O278  1  0.30367409  0.16830993  0.72704361  1
  O2-  O279  1  0.29762197  0.66192598  0.06485255  1
  O2-  O280  1  0.29499517  0.66490238  0.39186453  1
  O2-  O281  1  0.29285004  0.66323237  0.72939031  1
  O2-  O282  1  0.78742117  0.16474173  0.06082360  1
  O2-  O283  1  0.79096341  0.16124172  0.39672915  1
  O2-  O284  1  0.79451232  0.16049902  0.72960106  1
  O2-  O285  1  0.79030009  0.66710047  0.07104483  1
  O2-  O286  1  0.80069953  0.66826530  0.39309156  1
  O2-  O287  1  0.79378534  0.66911057  0.73509070  1
