# generated using pymatgen
data_Ca2Al2SiO7
_symmetry_space_group_name_H-M   'P 1'
_cell_length_a   15.45654613
_cell_length_b   15.45499542
_cell_length_c   15.28148250
_cell_angle_alpha   90.00261660
_cell_angle_beta   90.01692358
_cell_angle_gamma   90.00521593
_symmetry_Int_Tables_number   1
_chemical_formula_structural   Ca2Al2SiO7
_chemical_formula_sum   'Ca48 Al48 Si24 O168'
_cell_volume   3650.45334705
_cell_formula_units_Z   24
loop_
 _symmetry_equiv_pos_site_id
 _symmetry_equiv_pos_as_xyz
  1  'x, y, z'
loop_
 _atom_type_symbol
 _atom_type_oxidation_number
  Ca2+  2.0
  Al0+  0.0
  Si0+  0.0
  O2-  -2.0
loop_
 _atom_site_type_symbol
 _atom_site_label
 _atom_site_symmetry_multiplicity
 _atom_site_fract_x
 _atom_site_fract_y
 _atom_site_fract_z
 _atom_site_occupancy
  Ca2+  Ca0  1  0.17119832  0.07862065  0.17478602  1
  Ca2+  Ca1  1  0.16527326  0.07691485  0.50038598  1
  Ca2+  Ca2  1  0.17068127  0.07379505  0.84322062  1
  Ca2+  Ca3  1  0.15810870  0.57677335  0.17211763  1
  Ca2+  Ca4  1  0.16944046  0.58109685  0.50265598  1
  Ca2+  Ca5  1  0.17236886  0.58074117  0.83999450  1
  Ca2+  Ca6  1  0.67529198  0.08239078  0.17479244  1
  Ca2+  Ca7  1  0.67341586  0.08116711  0.50649593  1
  Ca2+  Ca8  1  0.66242648  0.08056288  0.83224785  1
  Ca2+  Ca9  1  0.66472072  0.57358048  0.17368054  1
  Ca2+  Ca10  1  0.65824074  0.57595448  0.50578944  1
  Ca2+  Ca11  1  0.66029827  0.57390658  0.83396639  1
  Ca2+  Ca12  1  0.08742808  0.32533241  0.16167668  1
  Ca2+  Ca13  1  0.07648086  0.32868085  0.48412611  1
  Ca2+  Ca14  1  0.09278021  0.32628420  0.83418829  1
  Ca2+  Ca15  1  0.09639805  0.82477598  0.16309079  1
  Ca2+  Ca16  1  0.08561470  0.83335903  0.49602903  1
  Ca2+  Ca17  1  0.08420604  0.83418874  0.82912130  1
  Ca2+  Ca18  1  0.58428187  0.33521096  0.16403319  1
  Ca2+  Ca19  1  0.57948305  0.33711725  0.49962438  1
  Ca2+  Ca20  1  0.57994152  0.33062061  0.82137963  1
  Ca2+  Ca21  1  0.57669693  0.82872387  0.16094647  1
  Ca2+  Ca22  1  0.58956321  0.82126154  0.49580760  1
  Ca2+  Ca23  1  0.57509766  0.83116069  0.82315442  1
  Ca2+  Ca24  1  0.31752948  0.41519348  0.17049234  1
  Ca2+  Ca25  1  0.32996604  0.42018884  0.50473330  1
  Ca2+  Ca26  1  0.33689809  0.42349875  0.83483264  1
  Ca2+  Ca27  1  0.32770703  0.92440917  0.16957497  1
  Ca2+  Ca28  1  0.32199130  0.91901427  0.50182059  1
  Ca2+  Ca29  1  0.32553315  0.91928101  0.84315734  1
  Ca2+  Ca30  1  0.82353752  0.41037876  0.17430056  1
  Ca2+  Ca31  1  0.82370287  0.41280389  0.50181722  1
  Ca2+  Ca32  1  0.81955673  0.41411520  0.83782761  1
  Ca2+  Ca33  1  0.83563102  0.92486263  0.17248450  1
  Ca2+  Ca34  1  0.83489566  0.92187296  0.50694472  1
  Ca2+  Ca35  1  0.82784987  0.90912418  0.82925496  1
  Ca2+  Ca36  1  0.41169475  0.16219509  0.16278280  1
  Ca2+  Ca37  1  0.42002036  0.16743659  0.49900605  1
  Ca2+  Ca38  1  0.41862449  0.17315560  0.82610621  1
  Ca2+  Ca39  1  0.41917112  0.67394092  0.16358267  1
  Ca2+  Ca40  1  0.42532312  0.66029288  0.49821311  1
  Ca2+  Ca41  1  0.41689102  0.67106548  0.82690864  1
  Ca2+  Ca42  1  0.92763049  0.16658273  0.16957432  1
  Ca2+  Ca43  1  0.92044249  0.17088909  0.48897528  1
  Ca2+  Ca44  1  0.92524034  0.16505405  0.83272547  1
  Ca2+  Ca45  1  0.92924889  0.66593086  0.16448337  1
  Ca2+  Ca46  1  0.91973876  0.67671434  0.49363718  1
  Ca2+  Ca47  1  0.92503912  0.67106776  0.82902432  1
  Al0+  Al48  1  -0.00114743  -0.00037801  -0.00139256  1
  Al0+  Al49  1  -0.00090843  0.00156719  0.33742620  1
  Al0+  Al50  1  0.00027558  -0.00037715  0.66817493  1
  Al0+  Al51  1  -0.00214800  0.50058338  -0.00365117  1
  Al0+  Al52  1  -0.00458182  0.50161301  0.33108436  1
  Al0+  Al53  1  0.00000679  0.49922916  0.66752987  1
  Al0+  Al54  1  0.50043868  -0.00067826  -0.00117729  1
  Al0+  Al55  1  0.49926467  0.00017279  0.33695183  1
  Al0+  Al56  1  0.50025615  0.00091573  0.66458384  1
  Al0+  Al57  1  0.50067839  0.49954803  0.00570473  1
  Al0+  Al58  1  0.49984191  0.49912051  0.32981352  1
  Al0+  Al59  1  0.49794741  0.50015140  0.66813851  1
  Al0+  Al60  1  0.25151929  0.25147597  -0.00000018  1
  Al0+  Al61  1  0.25109685  0.25053005  0.33865696  1
  Al0+  Al62  1  0.25033065  0.24931829  0.66094828  1
  Al0+  Al63  1  0.25183217  0.75008738  -0.00593403  1
  Al0+  Al64  1  0.25168568  0.75075782  0.33316882  1
  Al0+  Al65  1  0.25015768  0.74901885  0.67410840  1
  Al0+  Al66  1  0.74991358  0.24941821  0.00315252  1
  Al0+  Al67  1  0.74830579  0.24923801  0.33844917  1
  Al0+  Al68  1  0.75162466  0.24913522  0.66912786  1
  Al0+  Al69  1  0.75093195  0.74788478  0.00101680  1
  Al0+  Al70  1  0.74992326  0.74772018  0.32418580  1
  Al0+  Al71  1  0.75209359  0.75105259  0.66290158  1
  Al0+  Al72  1  0.67846953  0.43042809  0.34937782  1
  Al0+  Al73  1  0.57304645  0.17780194  0.65057513  1
  Al0+  Al74  1  0.07275184  0.17956342  0.31844914  1
  Al0+  Al75  1  0.31982656  0.56895368  0.68007812  1
  Al0+  Al76  1  0.81982011  0.06957256  0.34717209  1
  Al0+  Al77  1  0.56943409  0.68084878  0.65463036  1
  Al0+  Al78  1  0.92581094  0.32127376  0.31851181  1
  Al0+  Al79  1  0.43126622  0.82109214  0.98513526  1
  Al0+  Al80  1  0.67896620  0.92797197  0.67850395  1
  Al0+  Al81  1  0.68065074  0.43043895  0.68030583  1
  Al0+  Al82  1  0.07092422  0.67815476  0.98459590  1
  Al0+  Al83  1  0.17897115  0.43075827  0.01199893  1
  Al0+  Al84  1  0.32204328  0.07163286  0.01321191  1
  Al0+  Al85  1  0.17556581  0.43042775  0.34597486  1
  Al0+  Al86  1  0.07189268  0.68074923  0.32163163  1
  Al0+  Al87  1  0.17744203  0.92809435  0.01543002  1
  Al0+  Al88  1  0.17933783  0.92774740  0.34874671  1
  Al0+  Al89  1  0.42886979  0.32181531  0.65028727  1
  Al0+  Al90  1  0.32308420  0.07297732  0.35171570  1
  Al0+  Al91  1  0.07206187  0.17966952  0.98610741  1
  Al0+  Al92  1  0.93126192  0.82025320  0.65266980  1
  Al0+  Al93  1  0.67938065  0.42920918  0.01501244  1
  Al0+  Al94  1  0.57102349  0.67738087  0.31723353  1
  Al0+  Al95  1  0.17920788  0.93060918  0.68267886  1
  Si0+  Si96  1  0.57321344  0.17943837  0.98653518  1
  Si0+  Si97  1  0.57242530  0.67687809  0.98272814  1
  Si0+  Si98  1  0.82093446  0.57432424  0.35060908  1
  Si0+  Si99  1  0.82204731  0.57277400  0.01771753  1
  Si0+  Si100  1  0.82040334  0.07089552  0.01505639  1
  Si0+  Si101  1  0.42540198  0.82310479  0.64919537  1
  Si0+  Si102  1  0.43006027  0.32166304  0.98668796  1
  Si0+  Si103  1  0.56984220  0.17818195  0.31840029  1
  Si0+  Si104  1  0.42921339  0.82334782  0.31698015  1
  Si0+  Si105  1  0.32206237  0.07348618  0.68367351  1
  Si0+  Si106  1  0.42931873  0.32112784  0.31635568  1
  Si0+  Si107  1  0.92803385  0.82355890  0.31575711  1
  Si0+  Si108  1  0.92892079  0.32173624  0.65320288  1
  Si0+  Si109  1  0.07022534  0.17927485  0.65190515  1
  Si0+  Si110  1  0.17568677  0.42611413  0.68218897  1
  Si0+  Si111  1  0.82446303  0.57346245  0.68330985  1
  Si0+  Si112  1  0.92595622  0.32078166  0.98221697  1
  Si0+  Si113  1  0.07389766  0.67688338  0.65044240  1
  Si0+  Si114  1  0.92587018  0.82295497  0.98260629  1
  Si0+  Si115  1  0.82211186  0.07170439  0.68616160  1
  Si0+  Si116  1  0.67875632  0.92772137  0.01366298  1
  Si0+  Si117  1  0.32133370  0.57128322  0.34784877  1
  Si0+  Si118  1  0.67811176  0.92570250  0.34750430  1
  Si0+  Si119  1  0.32257232  0.57290650  0.01805592  1
  O2-  O120  1  0.24754970  0.00274177  0.06379661  1
  O2-  O121  1  0.24868745  0.00227084  0.39933175  1
  O2-  O122  1  0.25601531  0.00335517  0.72883053  1
  O2-  O123  1  0.25005256  0.50792891  0.06112740  1
  O2-  O124  1  0.24912749  0.50638843  0.39224163  1
  O2-  O125  1  0.24388686  0.49492372  0.72629105  1
  O2-  O126  1  0.75095504  -0.00281683  0.05606181  1
  O2-  O127  1  0.74818296  -0.00840051  0.39279078  1
  O2-  O128  1  0.75054959  0.00463439  0.72884783  1
  O2-  O129  1  0.75347038  0.50395356  0.06189402  1
  O2-  O130  1  0.75188033  0.50652593  0.39556247  1
  O2-  O131  1  0.75548506  0.50486075  0.72800524  1
  O2-  O132  1  0.00344103  0.25507887  0.26854446  1
  O2-  O133  1  0.00328520  0.25467481  0.61128221  1
  O2-  O134  1  -0.00150754  0.25602559  0.93755059  1
  O2-  O135  1  -0.00000883  0.75792668  0.27280959  1
  O2-  O136  1  0.00561460  0.74550525  0.60606942  1
  O2-  O137  1  -0.00226708  0.75624543  0.94044452  1
  O2-  O138  1  0.49751290  0.24672273  0.27425777  1
  O2-  O139  1  0.50136008  0.24984819  0.60026943  1
  O2-  O140  1  0.50174632  0.25042930  0.94564321  1
  O2-  O141  1  0.49920233  0.75541233  0.27248640  1
  O2-  O142  1  0.49731396  0.75731228  0.60527732  1
  O2-  O143  1  0.50609178  0.74648045  0.93775454  1
  O2-  O144  1  0.07051001  0.17942645  0.09848895  1
  O2-  O145  1  0.06872310  0.18005240  0.43263847  1
  O2-  O146  1  0.06978104  0.17963244  0.75745957  1
  O2-  O147  1  0.06861445  0.67734565  0.09779505  1
  O2-  O148  1  0.07016989  0.68144006  0.43484523  1
  O2-  O149  1  0.07179270  0.67580571  0.75609967  1
  O2-  O150  1  0.57603159  0.17960929  0.09180941  1
  O2-  O151  1  0.57041946  0.17859029  0.42298213  1
  O2-  O152  1  0.57210386  0.17968618  0.76515640  1
  O2-  O153  1  0.57124793  0.67787420  0.08838384  1
  O2-  O154  1  0.56946578  0.67700174  0.43044571  1
  O2-  O155  1  0.56723354  0.68133527  0.76792521  1
  O2-  O156  1  0.17837811  0.43031936  0.23259851  1
  O2-  O157  1  0.17309277  0.42819710  0.57678069  1
  O2-  O158  1  0.18412711  0.43021765  0.89867980  1
  O2-  O159  1  0.18286551  0.92556084  0.23548878  1
  O2-  O160  1  0.17832000  0.93189185  0.56983681  1
  O2-  O161  1  0.17857099  0.93048934  0.90151572  1
  O2-  O162  1  0.67868619  0.43030565  0.23594367  1
  O2-  O163  1  0.68177566  0.43126751  0.56752539  1
  O2-  O164  1  0.67877707  0.42857515  0.90185148  1
  O2-  O165  1  0.67818966  0.92899824  0.24113719  1
  O2-  O166  1  0.68416235  0.92682296  0.56566070  1
  O2-  O167  1  0.67894377  0.92831459  0.90863066  1
  O2-  O168  1  0.43083989  0.32221879  0.09186998  1
  O2-  O169  1  0.43205912  0.32470325  0.42103911  1
  O2-  O170  1  0.42984545  0.32107094  0.76475647  1
  O2-  O171  1  0.43527196  0.82057549  0.09841417  1
  O2-  O172  1  0.42953637  0.82245046  0.42247742  1
  O2-  O173  1  0.42703270  0.82132994  0.75502647  1
  O2-  O174  1  0.92247957  0.31750856  0.08723599  1
  O2-  O175  1  0.92589527  0.31797001  0.43281029  1
  O2-  O176  1  0.92780096  0.32032061  0.75850968  1
  O2-  O177  1  0.92038626  0.82257609  0.08781293  1
  O2-  O178  1  0.92428768  0.82081602  0.42125967  1
  O2-  O179  1  0.93142564  0.81829323  0.76598570  1
  O2-  O180  1  0.32593851  0.07009401  0.23811347  1
  O2-  O181  1  0.31923179  0.07394993  0.57842228  1
  O2-  O182  1  0.32307923  0.07126201  0.89953266  1
  O2-  O183  1  0.32216224  0.56970216  0.24213950  1
  O2-  O184  1  0.31839161  0.56857724  0.56676063  1
  O2-  O185  1  0.32574597  0.56942299  0.91238609  1
  O2-  O186  1  0.81755278  0.06862617  0.23329099  1
  O2-  O187  1  0.82335044  0.07155733  0.58076004  1
  O2-  O188  1  0.81871581  0.07361743  0.91004531  1
  O2-  O189  1  0.81916986  0.57510287  0.24493914  1
  O2-  O190  1  0.82695636  0.57147676  0.57801372  1
  O2-  O191  1  0.82004876  0.57390352  0.91199983  1
  O2-  O192  1  0.03921633  0.08163515  0.26702769  1
  O2-  O193  1  0.03717445  0.08936352  0.60525123  1
  O2-  O194  1  0.03717562  0.08403303  0.93129748  1
  O2-  O195  1  0.03680753  0.58609199  0.26593214  1
  O2-  O196  1  0.04911114  0.58206858  0.60580205  1
  O2-  O197  1  0.03720618  0.58303518  0.92780541  1
  O2-  O198  1  0.54554043  0.08479305  0.27104364  1
  O2-  O199  1  0.54700543  0.07890085  0.59696418  1
  O2-  O200  1  0.54703799  0.08735476  0.93908512  1
  O2-  O201  1  0.53642770  0.58263313  0.26157445  1
  O2-  O202  1  0.53517057  0.58548576  0.60096539  1
  O2-  O203  1  0.54459198  0.58250495  0.93908811  1
  O2-  O204  1  0.17323730  0.20551140  0.26885155  1
  O2-  O205  1  0.16277764  0.20139997  0.60419225  1
  O2-  O206  1  0.16825103  0.21215916  0.93100229  1
  O2-  O207  1  0.16983383  0.70709661  0.26707927  1
  O2-  O208  1  0.16791551  0.70303310  0.60656160  1
  O2-  O209  1  0.16849266  0.70446706  0.93078514  1
  O2-  O210  1  0.66073709  0.20859092  0.27068892  1
  O2-  O211  1  0.67327318  0.20505104  0.60104656  1
  O2-  O212  1  0.66430928  0.20782243  0.93776973  1
  O2-  O213  1  0.66724819  0.70470045  0.25992591  1
  O2-  O214  1  0.66691794  0.70801639  0.60043452  1
  O2-  O215  1  0.66787409  0.69929130  0.93915060  1
  O2-  O216  1  0.07920186  0.45620729  0.06160455  1
  O2-  O217  1  0.07760269  0.45889921  0.39833765  1
  O2-  O218  1  0.08186795  0.44920552  0.73007733  1
  O2-  O219  1  0.07615247  0.95092622  0.06465625  1
  O2-  O220  1  0.07970966  0.95300746  0.40031596  1
  O2-  O221  1  0.08309896  0.96364797  0.73669084  1
  O2-  O222  1  0.58337069  0.45896260  0.07109406  1
  O2-  O223  1  0.58090247  0.46243087  0.40053193  1
  O2-  O224  1  0.58427148  0.46158419  0.73392182  1
  O2-  O225  1  0.58889445  0.95766303  0.06271845  1
  O2-  O226  1  0.58551328  0.95091321  0.39419775  1
  O2-  O227  1  0.58106349  0.95636302  0.73231451  1
  O2-  O228  1  0.21368684  0.33602174  0.06680505  1
  O2-  O229  1  0.20805809  0.33563001  0.40139292  1
  O2-  O230  1  0.20234269  0.33149887  0.72582648  1
  O2-  O231  1  0.21015733  0.82907054  0.06398205  1
  O2-  O232  1  0.21139762  0.83026659  0.40319203  1
  O2-  O233  1  0.20646983  0.83300824  0.73602468  1
  O2-  O234  1  0.71034051  0.33226073  0.06890354  1
  O2-  O235  1  0.70845208  0.33414250  0.40325817  1
  O2-  O236  1  0.71258505  0.33376834  0.73473289  1
  O2-  O237  1  0.70412209  0.83475333  0.06075119  1
  O2-  O238  1  0.70224618  0.82980276  0.38872441  1
  O2-  O239  1  0.71324058  0.83279218  0.73426405  1
  O2-  O240  1  0.46021893  0.41047982  0.26592196  1
  O2-  O241  1  0.45828257  0.41953852  0.59748701  1
  O2-  O242  1  0.45932570  0.41401968  0.94025303  1
  O2-  O243  1  0.45580526  0.91681140  0.27048811  1
  O2-  O244  1  0.44635161  0.91808677  0.60511236  1
  O2-  O245  1  0.46380239  0.91699786  0.92972424  1
  O2-  O246  1  0.94388368  0.42251425  0.26812412  1
  O2-  O247  1  0.95168193  0.41519346  0.60620908  1
  O2-  O248  1  0.94469113  0.41607794  0.93723309  1
  O2-  O249  1  0.94933874  0.91879830  0.27238498  1
  O2-  O250  1  0.96079903  0.91789082  0.59994642  1
  O2-  O251  1  0.94655741  0.91724723  0.93589054  1
  O2-  O252  1  0.33639505  0.29526318  0.27069539  1
  O2-  O253  1  0.33018029  0.29489065  0.59625455  1
  O2-  O254  1  0.33964238  0.29548747  0.93652622  1
  O2-  O255  1  0.33735313  0.79504741  0.26923456  1
  O2-  O256  1  0.33246285  0.79260451  0.60509223  1
  O2-  O257  1  0.33615467  0.79066205  0.92874616  1
  O2-  O258  1  0.82861148  0.28577694  0.26641135  1
  O2-  O259  1  0.83867623  0.29095691  0.60536906  1
  O2-  O260  1  0.83410776  0.28812706  0.93457782  1
  O2-  O261  1  0.83624775  0.79590906  0.26567477  1
  O2-  O262  1  0.83586585  0.79073239  0.59599538  1
  O2-  O263  1  0.83299776  0.79286121  0.93501313  1
  O2-  O264  1  0.42094668  0.04192863  0.06628720  1
  O2-  O265  1  0.42121994  0.04267357  0.40553153  1
  O2-  O266  1  0.41785961  0.05242852  0.72688787  1
  O2-  O267  1  0.41458350  0.54449583  0.06624186  1
  O2-  O268  1  0.41308797  0.53946768  0.39394227  1
  O2-  O269  1  0.41432061  0.53695620  0.73772524  1
  O2-  O270  1  0.91177180  0.04339119  0.06262943  1
  O2-  O271  1  0.91545306  0.04235650  0.40393339  1
  O2-  O272  1  0.91392084  0.04195810  0.73357451  1
  O2-  O273  1  0.91562187  0.54713737  0.06279036  1
  O2-  O274  1  0.91395298  0.55073585  0.39802473  1
  O2-  O275  1  0.91778274  0.54705568  0.73130188  1
  O2-  O276  1  0.29820195  0.17143254  0.06467146  1
  O2-  O277  1  0.29898553  0.17193101  0.40462587  1
  O2-  O278  1  0.29466783  0.16763007  0.72865347  1
  O2-  O279  1  0.30075416  0.66810928  0.06073189  1
  O2-  O280  1  0.30143065  0.66580898  0.39374824  1
  O2-  O281  1  0.29116909  0.66437101  0.73778172  1
  O2-  O282  1  0.78919961  0.16037905  0.06462871  1
  O2-  O283  1  0.78501926  0.16317248  0.40363142  1
  O2-  O284  1  0.79877840  0.16511322  0.73386904  1
  O2-  O285  1  0.79771655  0.66629193  0.06568684  1
  O2-  O286  1  0.79531003  0.66921856  0.39469735  1
  O2-  O287  1  0.79930424  0.66707692  0.72856616  1
