# generated using pymatgen
data_Ca2Al2SiO7
_symmetry_space_group_name_H-M   'P 1'
_cell_length_a   15.46087345
_cell_length_b   15.46089915
_cell_length_c   15.28591010
_cell_angle_alpha   90.00752703
_cell_angle_beta   90.00356640
_cell_angle_gamma   89.98965542
_symmetry_Int_Tables_number   1
_chemical_formula_structural   Ca2Al2SiO7
_chemical_formula_sum   'Ca48 Al48 Si24 O168'
_cell_volume   3653.92864709
_cell_formula_units_Z   24
loop_
 _symmetry_equiv_pos_site_id
 _symmetry_equiv_pos_as_xyz
  1  'x, y, z'
loop_
 _atom_type_symbol
 _atom_type_oxidation_number
  Ca2+  2.0
  Al0+  0.0
  Si0+  0.0
  O2-  -2.0
loop_
 _atom_site_type_symbol
 _atom_site_label
 _atom_site_symmetry_multiplicity
 _atom_site_fract_x
 _atom_site_fract_y
 _atom_site_fract_z
 _atom_site_occupancy
  Ca2+  Ca0  1  0.18184010  0.08420085  0.16922102  1
  Ca2+  Ca1  1  0.17742826  0.08976699  0.50761494  1
  Ca2+  Ca2  1  0.17622774  0.08898309  0.83703568  1
  Ca2+  Ca3  1  0.16076536  0.57784782  0.16809688  1
  Ca2+  Ca4  1  0.15877494  0.57361882  0.50088094  1
  Ca2+  Ca5  1  0.17027372  0.57397279  0.84496504  1
  Ca2+  Ca6  1  0.65873174  0.07422986  0.17056791  1
  Ca2+  Ca7  1  0.66554141  0.07998742  0.49706143  1
  Ca2+  Ca8  1  0.66606645  0.07809804  0.84515175  1
  Ca2+  Ca9  1  0.65785742  0.56948989  0.16649752  1
  Ca2+  Ca10  1  0.66660708  0.57714921  0.50095985  1
  Ca2+  Ca11  1  0.66770559  0.57887230  0.84498051  1
  Ca2+  Ca12  1  0.08075710  0.33997684  0.16023117  1
  Ca2+  Ca13  1  0.09269882  0.33110915  0.49976589  1
  Ca2+  Ca14  1  0.08655225  0.33428418  0.83162729  1
  Ca2+  Ca15  1  0.07702097  0.82202788  0.15671024  1
  Ca2+  Ca16  1  0.07124784  0.82972762  0.48803394  1
  Ca2+  Ca17  1  0.07650221  0.83056257  0.83016452  1
  Ca2+  Ca18  1  0.58259016  0.32361202  0.15535663  1
  Ca2+  Ca19  1  0.57499001  0.32716077  0.49125164  1
  Ca2+  Ca20  1  0.56849426  0.33710335  0.83520018  1
  Ca2+  Ca21  1  0.58334400  0.83090079  0.15563063  1
  Ca2+  Ca22  1  0.58389270  0.83439492  0.49361850  1
  Ca2+  Ca23  1  0.58003517  0.83306135  0.84180687  1
  Ca2+  Ca24  1  0.32645439  0.41971969  0.16493159  1
  Ca2+  Ca25  1  0.32299367  0.41286629  0.50626601  1
  Ca2+  Ca26  1  0.32617331  0.41424634  0.84326273  1
  Ca2+  Ca27  1  0.34526153  0.92821378  0.16773181  1
  Ca2+  Ca28  1  0.33352723  0.93145962  0.50436537  1
  Ca2+  Ca29  1  0.33952128  0.92909079  0.84263782  1
  Ca2+  Ca30  1  0.82166748  0.41051980  0.16825347  1
  Ca2+  Ca31  1  0.82471782  0.41422033  0.49987072  1
  Ca2+  Ca32  1  0.82736611  0.41499478  0.84587138  1
  Ca2+  Ca33  1  0.82446619  0.90602776  0.16769538  1
  Ca2+  Ca34  1  0.83057400  0.90779948  0.50135423  1
  Ca2+  Ca35  1  0.83282642  0.91425581  0.84079754  1
  Ca2+  Ca36  1  0.42381271  0.16745652  0.15895288  1
  Ca2+  Ca37  1  0.41468418  0.16919539  0.49646485  1
  Ca2+  Ca38  1  0.41286238  0.17405600  0.83465606  1
  Ca2+  Ca39  1  0.42081032  0.67234571  0.15166527  1
  Ca2+  Ca40  1  0.41699740  0.67037075  0.49625603  1
  Ca2+  Ca41  1  0.41946126  0.66158037  0.83902852  1
  Ca2+  Ca42  1  0.91962550  0.17386484  0.15952571  1
  Ca2+  Ca43  1  0.92655384  0.16613836  0.49900656  1
  Ca2+  Ca44  1  0.92325555  0.17416279  0.83215933  1
  Ca2+  Ca45  1  0.92515613  0.67221501  0.16103767  1
  Ca2+  Ca46  1  0.92126013  0.67538859  0.49186618  1
  Ca2+  Ca47  1  0.92038427  0.67528938  0.83516810  1
  Al0+  Al48  1  0.00142841  0.00120740  -0.00208186  1
  Al0+  Al49  1  -0.00112160  0.00185897  0.32673642  1
  Al0+  Al50  1  -0.00129593  0.00068206  0.65776573  1
  Al0+  Al51  1  -0.00162441  0.50064092  -0.00508705  1
  Al0+  Al52  1  -0.00072132  0.50017067  0.33643262  1
  Al0+  Al53  1  -0.00323053  0.50103307  0.67038629  1
  Al0+  Al54  1  0.50284064  -0.00079999  0.00035039  1
  Al0+  Al55  1  0.50211458  0.00132434  0.34121000  1
  Al0+  Al56  1  0.50113930  -0.00074270  0.67039707  1
  Al0+  Al57  1  0.49924452  0.49880376  0.00089829  1
  Al0+  Al58  1  0.49750870  0.49962332  0.33953052  1
  Al0+  Al59  1  0.49935478  0.49912740  0.65996379  1
  Al0+  Al60  1  0.25103332  0.24961416  0.00782331  1
  Al0+  Al61  1  0.25089557  0.25186854  0.33964832  1
  Al0+  Al62  1  0.25064052  0.25103841  0.66744048  1
  Al0+  Al63  1  0.25027890  0.75128291  -0.00695394  1
  Al0+  Al64  1  0.24948415  0.75131480  0.33000983  1
  Al0+  Al65  1  0.25108467  0.74946902  0.66444066  1
  Al0+  Al66  1  0.75246530  0.24812127  -0.00413182  1
  Al0+  Al67  1  0.74933568  0.24745180  0.33689176  1
  Al0+  Al68  1  0.74936143  0.24777091  0.66695441  1
  Al0+  Al69  1  0.75071592  0.74969601  -0.00351260  1
  Al0+  Al70  1  0.74862338  0.74895192  0.33488092  1
  Al0+  Al71  1  0.74939436  0.74833780  0.66316510  1
  Al0+  Al72  1  0.32145054  0.57309775  0.01406749  1
  Al0+  Al73  1  0.42810250  0.32019250  0.98770769  1
  Al0+  Al74  1  0.67914082  0.42734014  0.01172642  1
  Al0+  Al75  1  0.17861293  0.43197858  0.34892820  1
  Al0+  Al76  1  0.17743760  0.42998458  0.01586994  1
  Al0+  Al77  1  0.92623253  0.82233668  0.31533726  1
  Al0+  Al78  1  0.32042659  0.06956528  0.34865899  1
  Al0+  Al79  1  0.07287407  0.67766725  0.98224121  1
  Al0+  Al80  1  0.07005329  0.18278100  0.65385745  1
  Al0+  Al81  1  0.17935584  0.43136877  0.68158134  1
  Al0+  Al82  1  0.42985472  0.31980175  0.65139580  1
  Al0+  Al83  1  0.67693290  0.42586263  0.34789799  1
  Al0+  Al84  1  0.92950319  0.81965700  0.65071428  1
  Al0+  Al85  1  0.92942272  0.82216874  0.98398359  1
  Al0+  Al86  1  0.07136871  0.67797375  0.31769499  1
  Al0+  Al87  1  0.68216337  0.92893447  0.34768147  1
  Al0+  Al88  1  0.32121121  0.06946565  0.01453884  1
  Al0+  Al89  1  0.68265029  0.92987995  0.01277960  1
  Al0+  Al90  1  0.57198957  0.17734226  0.98517488  1
  Al0+  Al91  1  0.42844019  0.82269230  0.98588941  1
  Al0+  Al92  1  0.32044200  0.06994941  0.68301262  1
  Al0+  Al93  1  0.92949697  0.32110479  0.98833165  1
  Al0+  Al94  1  0.57093187  0.67694917  0.98670704  1
  Al0+  Al95  1  0.57000837  0.17982947  0.32029938  1
  Si0+  Si96  1  0.92453213  0.32399019  0.64888162  1
  Si0+  Si97  1  0.07407668  0.18057886  0.31812394  1
  Si0+  Si98  1  0.56935346  0.67706880  0.32010145  1
  Si0+  Si99  1  0.92884043  0.31981222  0.32117988  1
  Si0+  Si100  1  0.81971982  0.56967067  0.35038037  1
  Si0+  Si101  1  0.57000522  0.67942991  0.64961233  1
  Si0+  Si102  1  0.17614892  0.92831942  0.34786944  1
  Si0+  Si103  1  0.42660307  0.32277260  0.31616082  1
  Si0+  Si104  1  0.07287855  0.67687531  0.64924539  1
  Si0+  Si105  1  0.82514321  0.07361014  0.35131248  1
  Si0+  Si106  1  0.42944763  0.82342477  0.65023403  1
  Si0+  Si107  1  0.32448993  0.57400085  0.68290409  1
  Si0+  Si108  1  0.82119802  0.57213633  0.01655711  1
  Si0+  Si109  1  0.32226577  0.57597727  0.35103473  1
  Si0+  Si110  1  0.67827924  0.42801584  0.68135702  1
  Si0+  Si111  1  0.82548113  0.07259272  0.01638774  1
  Si0+  Si112  1  0.17580310  0.92772084  0.01519233  1
  Si0+  Si113  1  0.57352078  0.17565457  0.64888798  1
  Si0+  Si114  1  0.17636176  0.92750365  0.68035646  1
  Si0+  Si115  1  0.43088058  0.82198392  0.32154005  1
  Si0+  Si116  1  0.68080557  0.92753154  0.68286875  1
  Si0+  Si117  1  0.82262836  0.07068193  0.68154463  1
  Si0+  Si118  1  0.81753789  0.57149901  0.68213599  1
  Si0+  Si119  1  0.07402472  0.17903267  0.98565670  1
  O2-  O120  1  0.24825094  -0.00786603  0.06043807  1
  O2-  O121  1  0.24288234  -0.00283528  0.39533560  1
  O2-  O122  1  0.24621985  -0.00680092  0.72723933  1
  O2-  O123  1  0.24675837  0.50488542  0.06563852  1
  O2-  O124  1  0.25240512  0.50832496  0.39511605  1
  O2-  O125  1  0.25248433  0.50859221  0.72534281  1
  O2-  O126  1  0.75804801  0.00313060  0.06050828  1
  O2-  O127  1  0.76056056  -0.00002018  0.39479258  1
  O2-  O128  1  0.75075516  0.00030691  0.72323946  1
  O2-  O129  1  0.75256081  0.50282780  0.06023592  1
  O2-  O130  1  0.75040332  0.50154502  0.39596141  1
  O2-  O131  1  0.75139012  0.49599613  0.72412905  1
  O2-  O132  1  0.00128635  0.25067428  0.27817819  1
  O2-  O133  1  -0.00350193  0.25873138  0.60492764  1
  O2-  O134  1  0.00656383  0.24910925  0.94192135  1
  O2-  O135  1  0.00237737  0.75332329  0.26878170  1
  O2-  O136  1  0.00796200  0.74882615  0.60438999  1
  O2-  O137  1  0.00347388  0.75309595  0.93329049  1
  O2-  O138  1  0.49873253  0.25725350  0.27371792  1
  O2-  O139  1  0.50524552  0.24492117  0.60526869  1
  O2-  O140  1  0.50055756  0.24957332  0.93542173  1
  O2-  O141  1  0.49629820  0.74602356  0.27973368  1
  O2-  O142  1  0.49833605  0.75015020  0.60748169  1
  O2-  O143  1  0.49668622  0.74653355  0.93578972  1
  O2-  O144  1  0.07223841  0.17790868  0.09158980  1
  O2-  O145  1  0.07395970  0.18100189  0.42350462  1
  O2-  O146  1  0.06733310  0.18266438  0.76662368  1
  O2-  O147  1  0.06887572  0.67708422  0.09580272  1
  O2-  O148  1  0.06822004  0.67821793  0.43202217  1
  O2-  O149  1  0.07121519  0.67733123  0.75412565  1
  O2-  O150  1  0.57062150  0.17750041  0.09904397  1
  O2-  O151  1  0.56811055  0.18018731  0.43399417  1
  O2-  O152  1  0.57653600  0.17538233  0.75371200  1
  O2-  O153  1  0.57125388  0.67801704  0.10065427  1
  O2-  O154  1  0.56909599  0.67823880  0.42609546  1
  O2-  O155  1  0.57174831  0.67785456  0.75388893  1
  O2-  O156  1  0.17705395  0.43043717  0.23679253  1
  O2-  O157  1  0.18040189  0.43272103  0.56802767  1
  O2-  O158  1  0.17909707  0.42847557  0.90221393  1
  O2-  O159  1  0.17843102  0.92980645  0.24270939  1
  O2-  O160  1  0.17901710  0.92890735  0.57448071  1
  O2-  O161  1  0.17248495  0.93302958  0.90945556  1
  O2-  O162  1  0.67843163  0.42576801  0.23532462  1
  O2-  O163  1  0.67955065  0.42998738  0.57587383  1
  O2-  O164  1  0.68105306  0.42942000  0.89802542  1
  O2-  O165  1  0.67946593  0.92873073  0.23540023  1
  O2-  O166  1  0.68073940  0.92695010  0.57744792  1
  O2-  O167  1  0.68388873  0.93075379  0.89907356  1
  O2-  O168  1  0.42847733  0.31877300  0.10126058  1
  O2-  O169  1  0.42684676  0.32066342  0.42242747  1
  O2-  O170  1  0.43070415  0.32189275  0.76377206  1
  O2-  O171  1  0.43419805  0.82483762  0.10002158  1
  O2-  O172  1  0.43328939  0.82083498  0.42745994  1
  O2-  O173  1  0.43105096  0.82587498  0.75434493  1
  O2-  O174  1  0.92775669  0.31833568  0.10199612  1
  O2-  O175  1  0.92827129  0.31785052  0.42659754  1
  O2-  O176  1  0.92043651  0.32166648  0.75389526  1
  O2-  O177  1  0.92927577  0.81964557  0.09713003  1
  O2-  O178  1  0.92703473  0.81849483  0.42963455  1
  O2-  O179  1  0.92772231  0.81813383  0.76313509  1
  O2-  O180  1  0.32166014  0.06842659  0.23600563  1
  O2-  O181  1  0.32050211  0.06824185  0.56950464  1
  O2-  O182  1  0.31807507  0.07069031  0.90132045  1
  O2-  O183  1  0.32641948  0.57591690  0.24642476  1
  O2-  O184  1  0.32604138  0.57491413  0.57698783  1
  O2-  O185  1  0.32138772  0.56837668  0.90007507  1
  O2-  O186  1  0.82450024  0.07983877  0.24656209  1
  O2-  O187  1  0.82186454  0.07226178  0.57646859  1
  O2-  O188  1  0.82599612  0.07238651  0.91030803  1
  O2-  O189  1  0.81961549  0.56816126  0.24544824  1
  O2-  O190  1  0.81481065  0.57221382  0.57682015  1
  O2-  O191  1  0.81886503  0.57082536  0.91021879  1
  O2-  O192  1  0.04860843  0.08919610  0.26930129  1
  O2-  O193  1  0.03858223  0.08776295  0.59589975  1
  O2-  O194  1  0.04794763  0.08694516  0.93710203  1
  O2-  O195  1  0.03830246  0.57993359  0.26711174  1
  O2-  O196  1  0.04039741  0.58441986  0.60366442  1
  O2-  O197  1  0.03939359  0.58195889  0.92726191  1
  O2-  O198  1  0.53714721  0.08240296  0.26978555  1
  O2-  O199  1  0.54708258  0.08125479  0.60403884  1
  O2-  O200  1  0.54321859  0.08018653  0.93141491  1
  O2-  O201  1  0.54351676  0.58366054  0.27538444  1
  O2-  O202  1  0.54309388  0.58836223  0.59926498  1
  O2-  O203  1  0.54408626  0.57912627  0.93177196  1
  O2-  O204  1  0.16543434  0.21081435  0.27219040  1
  O2-  O205  1  0.16574406  0.21408221  0.59841952  1
  O2-  O206  1  0.16729617  0.20502159  0.94065449  1
  O2-  O207  1  0.17133254  0.70232169  0.26611618  1
  O2-  O208  1  0.16888974  0.69617586  0.60432750  1
  O2-  O209  1  0.17106650  0.70241556  0.92794948  1
  O2-  O210  1  0.66887231  0.20617625  0.26936623  1
  O2-  O211  1  0.66761947  0.20081644  0.60211477  1
  O2-  O212  1  0.67122577  0.20183424  0.93275606  1
  O2-  O213  1  0.66078387  0.70487403  0.27440506  1
  O2-  O214  1  0.66032202  0.70931664  0.59990369  1
  O2-  O215  1  0.66747901  0.70745924  0.93106409  1
  O2-  O216  1  0.07666578  0.45706795  0.06518553  1
  O2-  O217  1  0.08130260  0.45993336  0.40489968  1
  O2-  O218  1  0.07941720  0.45631632  0.73239232  1
  O2-  O219  1  0.08431174  0.95725988  0.06424513  1
  O2-  O220  1  0.08089213  0.95322963  0.39155023  1
  O2-  O221  1  0.08194655  0.95467393  0.72335595  1
  O2-  O222  1  0.58363298  0.45691675  0.06721764  1
  O2-  O223  1  0.58108956  0.45760125  0.40410139  1
  O2-  O224  1  0.58641884  0.45992097  0.72523404  1
  O2-  O225  1  0.58701989  0.96052597  0.06801755  1
  O2-  O226  1  0.58846584  0.96334132  0.40666339  1
  O2-  O227  1  0.58865579  0.95351095  0.72967599  1
  O2-  O228  1  0.20594920  0.33259267  0.07076595  1
  O2-  O229  1  0.21187553  0.33645674  0.40466966  1
  O2-  O230  1  0.21149149  0.33521373  0.73383952  1
  O2-  O231  1  0.19622572  0.83187000  0.05709495  1
  O2-  O232  1  0.20122930  0.83438919  0.39441898  1
  O2-  O233  1  0.19894814  0.83195487  0.72390902  1
  O2-  O234  1  0.71402008  0.33121184  0.06447224  1
  O2-  O235  1  0.71110123  0.33147713  0.40482491  1
  O2-  O236  1  0.70306059  0.33454351  0.72614432  1
  O2-  O237  1  0.71171116  0.83197824  0.06555971  1
  O2-  O238  1  0.70855620  0.83108982  0.40394785  1
  O2-  O239  1  0.70992256  0.83515417  0.72763497  1
  O2-  O240  1  0.44840863  0.41911570  0.27534438  1
  O2-  O241  1  0.46032393  0.41586391  0.59427689  1
  O2-  O242  1  0.45681579  0.41738654  0.93319952  1
  O2-  O243  1  0.46484466  0.91212896  0.27654352  1
  O2-  O244  1  0.46168431  0.91369948  0.60136869  1
  O2-  O245  1  0.46570073  0.91689936  0.93012190  1
  O2-  O246  1  0.95433555  0.41227820  0.27569997  1
  O2-  O247  1  0.94525531  0.41987471  0.60541293  1
  O2-  O248  1  0.95391984  0.41708785  0.93110038  1
  O2-  O249  1  0.94637569  0.92376128  0.26582332  1
  O2-  O250  1  0.95437316  0.91698398  0.59498270  1
  O2-  O251  1  0.95533430  0.92221551  0.93203479  1
  O2-  O252  1  0.33360346  0.29392161  0.27214060  1
  O2-  O253  1  0.33417241  0.28732638  0.59709599  1
  O2-  O254  1  0.32991179  0.28860930  0.93588206  1
  O2-  O255  1  0.33711693  0.80269278  0.27546893  1
  O2-  O256  1  0.33673616  0.79803566  0.60195947  1
  O2-  O257  1  0.32925425  0.80474185  0.93094856  1
  O2-  O258  1  0.83755725  0.28997871  0.27445317  1
  O2-  O259  1  0.83229146  0.29332238  0.60118116  1
  O2-  O260  1  0.83662496  0.28689447  0.92905653  1
  O2-  O261  1  0.82813122  0.78833019  0.26584901  1
  O2-  O262  1  0.83366329  0.78348246  0.59673322  1
  O2-  O263  1  0.83297477  0.79043768  0.92924016  1
  O2-  O264  1  0.41779982  0.03735716  0.06736001  1
  O2-  O265  1  0.41450662  0.03570606  0.40599681  1
  O2-  O266  1  0.41798209  0.03908837  0.73496511  1
  O2-  O267  1  0.41891134  0.54341718  0.06849407  1
  O2-  O268  1  0.41462393  0.54982363  0.40112036  1
  O2-  O269  1  0.41856748  0.54556333  0.72630977  1
  O2-  O270  1  0.91996635  0.05038120  0.06258000  1
  O2-  O271  1  0.92100186  0.05232791  0.39588417  1
  O2-  O272  1  0.91455295  0.04214365  0.72766802  1
  O2-  O273  1  0.91439520  0.54580824  0.06129942  1
  O2-  O274  1  0.91159413  0.54268738  0.39975903  1
  O2-  O275  1  0.91049934  0.54983042  0.72934040  1
  O2-  O276  1  0.28885846  0.16323149  0.07251725  1
  O2-  O277  1  0.28953816  0.16601048  0.40320819  1
  O2-  O278  1  0.28683634  0.16580097  0.73484484  1
  O2-  O279  1  0.30073084  0.67582367  0.06167489  1
  O2-  O280  1  0.29887330  0.67092386  0.39721154  1
  O2-  O281  1  0.30439803  0.66994840  0.72688352  1
  O2-  O282  1  0.79968177  0.16581708  0.06250444  1
  O2-  O283  1  0.79454043  0.16349233  0.40311159  1
  O2-  O284  1  0.79634051  0.16322188  0.72928391  1
  O2-  O285  1  0.79589024  0.66536279  0.06194593  1
  O2-  O286  1  0.79171772  0.66213044  0.39841624  1
  O2-  O287  1  0.78363074  0.66107782  0.73001255  1
