# generated using pymatgen
data_Ca2Al2SiO7
_symmetry_space_group_name_H-M   'P 1'
_cell_length_a   15.45852543
_cell_length_b   15.45985818
_cell_length_c   15.28433802
_cell_angle_alpha   89.99260135
_cell_angle_beta   90.00324742
_cell_angle_gamma   89.99182358
_symmetry_Int_Tables_number   1
_chemical_formula_structural   Ca2Al2SiO7
_chemical_formula_sum   'Ca48 Al48 Si24 O168'
_cell_volume   3652.75206917
_cell_formula_units_Z   24
loop_
 _symmetry_equiv_pos_site_id
 _symmetry_equiv_pos_as_xyz
  1  'x, y, z'
loop_
 _atom_type_symbol
 _atom_type_oxidation_number
  Ca2+  2.0
  Al0+  0.0
  Si0+  0.0
  O2-  -2.0
loop_
 _atom_site_type_symbol
 _atom_site_label
 _atom_site_symmetry_multiplicity
 _atom_site_fract_x
 _atom_site_fract_y
 _atom_site_fract_z
 _atom_site_occupancy
  Ca2+  Ca0  1  0.17160200  0.07850266  0.17389136  1
  Ca2+  Ca1  1  0.15855577  0.07704324  0.50440287  1
  Ca2+  Ca2  1  0.17079323  0.07767219  0.83449305  1
  Ca2+  Ca3  1  0.17466143  0.57954414  0.18281934  1
  Ca2+  Ca4  1  0.16577428  0.57379665  0.49869188  1
  Ca2+  Ca5  1  0.16347421  0.57409402  0.83578693  1
  Ca2+  Ca6  1  0.66981568  0.08717961  0.17131413  1
  Ca2+  Ca7  1  0.67917268  0.09215735  0.50238926  1
  Ca2+  Ca8  1  0.67719444  0.07797149  0.84696061  1
  Ca2+  Ca9  1  0.66945536  0.59167654  0.17040426  1
  Ca2+  Ca10  1  0.66070474  0.58558482  0.50239169  1
  Ca2+  Ca11  1  0.66785101  0.59007666  0.83985584  1
  Ca2+  Ca12  1  0.08175865  0.33226997  0.16972962  1
  Ca2+  Ca13  1  0.08377505  0.32492152  0.49119803  1
  Ca2+  Ca14  1  0.08234584  0.32496124  0.82461945  1
  Ca2+  Ca15  1  0.08821735  0.83037956  0.16980844  1
  Ca2+  Ca16  1  0.08133735  0.83858091  0.49401709  1
  Ca2+  Ca17  1  0.07568846  0.83714746  0.82317735  1
  Ca2+  Ca18  1  0.57922150  0.32243528  0.16900301  1
  Ca2+  Ca19  1  0.57608198  0.32917318  0.48868062  1
  Ca2+  Ca20  1  0.58410315  0.32610908  0.83380017  1
  Ca2+  Ca21  1  0.58139290  0.82655079  0.15618572  1
  Ca2+  Ca22  1  0.57754186  0.82364132  0.49736093  1
  Ca2+  Ca23  1  0.57705008  0.83386776  0.82966537  1
  Ca2+  Ca24  1  0.33239892  0.42406920  0.17986632  1
  Ca2+  Ca25  1  0.32710681  0.41726563  0.50002848  1
  Ca2+  Ca26  1  0.32623741  0.41503518  0.83418270  1
  Ca2+  Ca27  1  0.33436390  0.91955146  0.16981518  1
  Ca2+  Ca28  1  0.32136171  0.91204595  0.50370020  1
  Ca2+  Ca29  1  0.33204310  0.91307706  0.83726896  1
  Ca2+  Ca30  1  0.83364757  0.41915674  0.17159489  1
  Ca2+  Ca31  1  0.83604319  0.41550129  0.50009509  1
  Ca2+  Ca32  1  0.83037189  0.42642979  0.84039813  1
  Ca2+  Ca33  1  0.82404278  0.92717291  0.16977950  1
  Ca2+  Ca34  1  0.83798152  0.92866572  0.50545516  1
  Ca2+  Ca35  1  0.83005001  0.92326567  0.83823174  1
  Ca2+  Ca36  1  0.42197053  0.16602428  0.16046392  1
  Ca2+  Ca37  1  0.42235012  0.17460612  0.48915910  1
  Ca2+  Ca38  1  0.42374839  0.15486240  0.83521571  1
  Ca2+  Ca39  1  0.42369758  0.67019481  0.16145680  1
  Ca2+  Ca40  1  0.42107039  0.66652934  0.49426326  1
  Ca2+  Ca41  1  0.42757769  0.67932500  0.82736360  1
  Ca2+  Ca42  1  0.91672014  0.16448296  0.16993139  1
  Ca2+  Ca43  1  0.92487837  0.16604769  0.49145674  1
  Ca2+  Ca44  1  0.92091080  0.15842735  0.82622954  1
  Ca2+  Ca45  1  0.92503044  0.66104531  0.16327313  1
  Ca2+  Ca46  1  0.92399542  0.67728276  0.49463897  1
  Ca2+  Ca47  1  0.91276618  0.67485986  0.82858568  1
  Al0+  Al48  1  0.00028681  -0.00061619  0.00435300  1
  Al0+  Al49  1  -0.00185550  0.00145198  0.33400522  1
  Al0+  Al50  1  0.00109420  0.00036729  0.66765496  1
  Al0+  Al51  1  -0.00185324  0.49788522  0.00163186  1
  Al0+  Al52  1  -0.00003987  0.50155661  0.33116144  1
  Al0+  Al53  1  -0.00101987  0.49973445  0.67271445  1
  Al0+  Al54  1  0.49849063  -0.00014785  -0.00065677  1
  Al0+  Al55  1  0.50112108  -0.00214910  0.33346070  1
  Al0+  Al56  1  0.50108797  -0.00155514  0.65837668  1
  Al0+  Al57  1  0.49836965  0.49824775  -0.00489328  1
  Al0+  Al58  1  0.50188530  0.50108130  0.32915474  1
  Al0+  Al59  1  0.50028552  0.49871222  0.66713413  1
  Al0+  Al60  1  0.24731952  0.24763406  0.00287308  1
  Al0+  Al61  1  0.24917993  0.25039311  0.32897479  1
  Al0+  Al62  1  0.25054406  0.24928712  0.66834318  1
  Al0+  Al63  1  0.24927015  0.74587053  -0.00529665  1
  Al0+  Al64  1  0.24964562  0.75038515  0.33805065  1
  Al0+  Al65  1  0.25032213  0.74817161  0.66979302  1
  Al0+  Al66  1  0.75050837  0.25337458  -0.00101735  1
  Al0+  Al67  1  0.75054141  0.25202332  0.33125786  1
  Al0+  Al68  1  0.75153063  0.25260946  0.67319199  1
  Al0+  Al69  1  0.75382234  0.74982819  0.00619698  1
  Al0+  Al70  1  0.74957115  0.75242132  0.33201337  1
  Al0+  Al71  1  0.75107203  0.75165454  0.65703815  1
  Al0+  Al72  1  0.57104269  0.18015876  0.98561573  1
  Al0+  Al73  1  0.93120584  0.82147909  0.65309005  1
  Al0+  Al74  1  0.57101162  0.17746990  0.31996650  1
  Al0+  Al75  1  0.32385673  0.57112564  0.34872550  1
  Al0+  Al76  1  0.07124240  0.17657768  0.31635847  1
  Al0+  Al77  1  0.17746164  0.42767707  0.34807503  1
  Al0+  Al78  1  0.82047967  0.07155635  0.68092322  1
  Al0+  Al79  1  0.81963527  0.57073094  0.01442947  1
  Al0+  Al80  1  0.42749226  0.82167429  0.98493666  1
  Al0+  Al81  1  0.57355214  0.67876312  0.98509183  1
  Al0+  Al82  1  0.57125954  0.68021039  0.31763469  1
  Al0+  Al83  1  0.31959805  0.06913163  0.01286529  1
  Al0+  Al84  1  0.42769427  0.32123324  0.31896229  1
  Al0+  Al85  1  0.92929559  0.32225489  0.31844665  1
  Al0+  Al86  1  0.42602588  0.82249858  0.64824087  1
  Al0+  Al87  1  0.07040586  0.68132153  0.32163864  1
  Al0+  Al88  1  0.57074903  0.67860504  0.65060118  1
  Al0+  Al89  1  0.67827322  0.92931014  0.01393581  1
  Al0+  Al90  1  0.81698105  0.07178945  0.34843370  1
  Al0+  Al91  1  0.82252612  0.07370658  0.01692737  1
  Al0+  Al92  1  0.07062674  0.18037939  0.65461061  1
  Al0+  Al93  1  0.18029224  0.92823533  0.68046172  1
  Al0+  Al94  1  0.17925565  0.42826438  0.68121546  1
  Al0+  Al95  1  0.18039879  0.93137682  0.34623891  1
  Si0+  Si96  1  0.93234081  0.82086158  0.98666731  1
  Si0+  Si97  1  0.68132935  0.43137285  0.34780481  1
  Si0+  Si98  1  0.07174077  0.67451672  0.65195086  1
  Si0+  Si99  1  0.32450534  0.07302650  0.34948494  1
  Si0+  Si100  1  0.42431521  0.32051688  0.98147377  1
  Si0+  Si101  1  0.07006705  0.17827229  0.98397570  1
  Si0+  Si102  1  0.67529989  0.42851417  0.01793231  1
  Si0+  Si103  1  0.42632717  0.82089964  0.31674063  1
  Si0+  Si104  1  0.82213054  0.57401314  0.34993793  1
  Si0+  Si105  1  0.92778819  0.82377492  0.31427504  1
  Si0+  Si106  1  0.57402113  0.17977826  0.65354427  1
  Si0+  Si107  1  0.07046555  0.67557459  0.98404849  1
  Si0+  Si108  1  0.67642885  0.92565137  0.35337009  1
  Si0+  Si109  1  0.32484116  0.07208921  0.68108592  1
  Si0+  Si110  1  0.32429115  0.57048491  0.68635716  1
  Si0+  Si111  1  0.42974914  0.31994352  0.65324340  1
  Si0+  Si112  1  0.67856302  0.92815504  0.68079282  1
  Si0+  Si113  1  0.92978275  0.32247017  0.98276924  1
  Si0+  Si114  1  0.17820968  0.42822728  0.01606488  1
  Si0+  Si115  1  0.92741308  0.32412691  0.65252710  1
  Si0+  Si116  1  0.17734599  0.92441868  0.01591295  1
  Si0+  Si117  1  0.67728358  0.42933386  0.68281740  1
  Si0+  Si118  1  0.31972054  0.56900052  0.01328171  1
  Si0+  Si119  1  0.81944786  0.57247152  0.67954087  1
  O2-  O120  1  0.24902181  -0.00971595  0.05872380  1
  O2-  O121  1  0.25346594  0.00730722  0.39429584  1
  O2-  O122  1  0.25912977  -0.00016635  0.72513795  1
  O2-  O123  1  0.25035500  0.49762394  0.05723884  1
  O2-  O124  1  0.25212817  0.49761118  0.39748918  1
  O2-  O125  1  0.25206610  0.50420501  0.73023286  1
  O2-  O126  1  0.74492315  0.00651061  0.06464076  1
  O2-  O127  1  0.74182514  -0.00182544  0.39665685  1
  O2-  O128  1  0.74293242  -0.00013217  0.72697991  1
  O2-  O129  1  0.74018764  0.50130268  0.06135906  1
  O2-  O130  1  0.75075593  0.50337842  0.39204826  1
  O2-  O131  1  0.74663308  0.50337791  0.72254385  1
  O2-  O132  1  0.00139122  0.25132897  0.26666456  1
  O2-  O133  1  -0.00409231  0.25568484  0.60941899  1
  O2-  O134  1  -0.00405222  0.24653818  0.94142402  1
  O2-  O135  1  -0.00423078  0.75389764  0.27063304  1
  O2-  O136  1  0.00883402  0.74856762  0.60817760  1
  O2-  O137  1  0.00321372  0.75003711  0.94225478  1
  O2-  O138  1  0.49316299  0.24296176  0.26955101  1
  O2-  O139  1  0.50048012  0.24825524  0.61196431  1
  O2-  O140  1  0.49388797  0.25249475  0.93682483  1
  O2-  O141  1  0.49713910  0.75492862  0.27194564  1
  O2-  O142  1  0.49613384  0.74742354  0.60039447  1
  O2-  O143  1  0.50383777  0.75305229  0.93572172  1
  O2-  O144  1  0.07215473  0.17983538  0.08835297  1
  O2-  O145  1  0.06826037  0.17559684  0.43017337  1
  O2-  O146  1  0.06973766  0.18114988  0.76853139  1
  O2-  O147  1  0.07091191  0.67413141  0.08887531  1
  O2-  O148  1  0.06715603  0.68127634  0.43470175  1
  O2-  O149  1  0.06613061  0.67191604  0.75815550  1
  O2-  O150  1  0.57023886  0.18327726  0.09798861  1
  O2-  O151  1  0.57226746  0.18350996  0.43437521  1
  O2-  O152  1  0.57397879  0.18116051  0.75877589  1
  O2-  O153  1  0.56987911  0.67882077  0.09844691  1
  O2-  O154  1  0.57144265  0.68045075  0.43063813  1
  O2-  O155  1  0.57267446  0.67968678  0.76399361  1
  O2-  O156  1  0.17702832  0.43306311  0.23395173  1
  O2-  O157  1  0.17938642  0.42845641  0.56915156  1
  O2-  O158  1  0.17777065  0.42916935  0.91035218  1
  O2-  O159  1  0.18354223  0.92981454  0.23276911  1
  O2-  O160  1  0.17796374  0.93158567  0.56775865  1
  O2-  O161  1  0.17379999  0.92689508  0.91021128  1
  O2-  O162  1  0.68272794  0.43163314  0.24290201  1
  O2-  O163  1  0.67707039  0.42570822  0.57787139  1
  O2-  O164  1  0.67878040  0.42689182  0.91169066  1
  O2-  O165  1  0.67848534  0.92286697  0.24797860  1
  O2-  O166  1  0.68082625  0.92952415  0.57539123  1
  O2-  O167  1  0.68266449  0.92930007  0.89962545  1
  O2-  O168  1  0.42363748  0.32132336  0.08641902  1
  O2-  O169  1  0.43190013  0.32129913  0.43343828  1
  O2-  O170  1  0.43075586  0.32116274  0.75852347  1
  O2-  O171  1  0.42299435  0.81654841  0.09829725  1
  O2-  O172  1  0.42670820  0.81936446  0.42222719  1
  O2-  O173  1  0.42895129  0.82329460  0.76176807  1
  O2-  O174  1  0.93306900  0.32765134  0.08708170  1
  O2-  O175  1  0.92835963  0.32145189  0.43248548  1
  O2-  O176  1  0.92771443  0.32580648  0.75848506  1
  O2-  O177  1  0.93537783  0.82025462  0.09133723  1
  O2-  O178  1  0.92879871  0.82256354  0.42022148  1
  O2-  O179  1  0.92963945  0.81872891  0.76687852  1
  O2-  O180  1  0.32523328  0.06936769  0.24376856  1
  O2-  O181  1  0.32407257  0.07613240  0.57592598  1
  O2-  O182  1  0.31524682  0.07212134  0.89954479  1
  O2-  O183  1  0.32212682  0.57122407  0.23427860  1
  O2-  O184  1  0.32728185  0.56691836  0.58131526  1
  O2-  O185  1  0.31628641  0.56715312  0.90811796  1
  O2-  O186  1  0.81570901  0.07021424  0.23558839  1
  O2-  O187  1  0.81925026  0.07386608  0.56805108  1
  O2-  O188  1  0.82508231  0.06916958  0.90288946  1
  O2-  O189  1  0.82170819  0.57325045  0.24485064  1
  O2-  O190  1  0.82175783  0.56944317  0.57465309  1
  O2-  O191  1  0.82263960  0.56848487  0.90071984  1
  O2-  O192  1  0.03840965  0.07995554  0.26208392  1
  O2-  O193  1  0.03847768  0.08500413  0.60117185  1
  O2-  O194  1  0.04437531  0.08453966  0.93855846  1
  O2-  O195  1  0.03920219  0.58628491  0.26503463  1
  O2-  O196  1  0.03921221  0.58321933  0.60538985  1
  O2-  O197  1  0.03784269  0.58488774  0.93624751  1
  O2-  O198  1  0.55091131  0.07617236  0.27002389  1
  O2-  O199  1  0.55257821  0.08747353  0.60529139  1
  O2-  O200  1  0.54152428  0.08351245  0.93124923  1
  O2-  O201  1  0.54452259  0.58343349  0.26329562  1
  O2-  O202  1  0.54479607  0.57749139  0.60083479  1
  O2-  O203  1  0.54450313  0.57962597  0.93236991  1
  O2-  O204  1  0.17049406  0.20078610  0.26379503  1
  O2-  O205  1  0.16792401  0.20983363  0.60195568  1
  O2-  O206  1  0.16043841  0.20982127  0.93528301  1
  O2-  O207  1  0.16693152  0.71252686  0.26727946  1
  O2-  O208  1  0.16849657  0.69141958  0.61171022  1
  O2-  O209  1  0.16255195  0.69750625  0.93473900  1
  O2-  O210  1  0.66555840  0.21463293  0.26609900  1
  O2-  O211  1  0.66493690  0.21362995  0.60791926  1
  O2-  O212  1  0.66713269  0.21468536  0.93077933  1
  O2-  O213  1  0.66908480  0.71052089  0.26547393  1
  O2-  O214  1  0.66808681  0.70668367  0.59533356  1
  O2-  O215  1  0.67582843  0.70294860  0.93787541  1
  O2-  O216  1  0.08676196  0.45774714  0.06178803  1
  O2-  O217  1  0.07974579  0.46044708  0.40076179  1
  O2-  O218  1  0.08251010  0.45845801  0.73805343  1
  O2-  O219  1  0.08615902  0.95301658  0.06450780  1
  O2-  O220  1  0.08235306  0.95995668  0.39855612  1
  O2-  O221  1  0.08579916  0.96347598  0.73654215  1
  O2-  O222  1  0.57892137  0.44778921  0.06005541  1
  O2-  O223  1  0.58974935  0.45902663  0.39558353  1
  O2-  O224  1  0.58542525  0.45358902  0.73207358  1
  O2-  O225  1  0.57762500  0.95015813  0.06403163  1
  O2-  O226  1  0.58101889  0.94602326  0.39794135  1
  O2-  O227  1  0.58268204  0.95023900  0.72372611  1
  O2-  O228  1  0.20265141  0.33554123  0.06190428  1
  O2-  O229  1  0.20255607  0.32737581  0.39873129  1
  O2-  O230  1  0.21301220  0.33290407  0.73767135  1
  O2-  O231  1  0.19918606  0.82793898  0.05782829  1
  O2-  O232  1  0.20988484  0.83576040  0.40254714  1
  O2-  O233  1  0.20300545  0.82914445  0.73507758  1
  O2-  O234  1  0.70680600  0.33756594  0.06510447  1
  O2-  O235  1  0.71010450  0.34089871  0.39745644  1
  O2-  O236  1  0.70844224  0.34052380  0.73504520  1
  O2-  O237  1  0.71267960  0.83401925  0.06947347  1
  O2-  O238  1  0.70708040  0.83378572  0.40097833  1
  O2-  O239  1  0.70883185  0.83496292  0.72506395  1
  O2-  O240  1  0.46343074  0.41624755  0.26404945  1
  O2-  O241  1  0.45853522  0.41090374  0.60559109  1
  O2-  O242  1  0.44967749  0.41350967  0.93312849  1
  O2-  O243  1  0.44969766  0.91572534  0.27248753  1
  O2-  O244  1  0.45446407  0.91988539  0.59237605  1
  O2-  O245  1  0.44977536  0.92134956  0.93216460  1
  O2-  O246  1  0.95518182  0.42116758  0.26468689  1
  O2-  O247  1  0.95186205  0.41826588  0.60745900  1
  O2-  O248  1  0.96289116  0.41199496  0.93232391  1
  O2-  O249  1  0.95481516  0.91605648  0.26801241  1
  O2-  O250  1  0.96263681  0.91712895  0.59894758  1
  O2-  O251  1  0.96032443  0.91269997  0.93829547  1
  O2-  O252  1  0.32783254  0.30247008  0.26629036  1
  O2-  O253  1  0.33820015  0.29259835  0.60608699  1
  O2-  O254  1  0.33007758  0.29368202  0.93626136  1
  O2-  O255  1  0.33356774  0.79412031  0.27081984  1
  O2-  O256  1  0.32561588  0.79443461  0.59942580  1
  O2-  O257  1  0.33015921  0.78839415  0.92965223  1
  O2-  O258  1  0.83157932  0.29455662  0.26406051  1
  O2-  O259  1  0.83259220  0.30054721  0.60803416  1
  O2-  O260  1  0.83580351  0.30260652  0.93629453  1
  O2-  O261  1  0.83405449  0.79822944  0.26973376  1
  O2-  O262  1  0.83778177  0.78982071  0.59439473  1
  O2-  O263  1  0.84111023  0.79141706  0.93958766  1
  O2-  O264  1  0.41695612  0.04429047  0.06690919  1
  O2-  O265  1  0.41802390  0.04724532  0.39654796  1
  O2-  O266  1  0.42062699  0.04815085  0.72457369  1
  O2-  O267  1  0.41262555  0.54220445  0.05878892  1
  O2-  O268  1  0.42281224  0.54172108  0.40030318  1
  O2-  O269  1  0.41601349  0.53943694  0.73433593  1
  O2-  O270  1  0.91941344  0.04071304  0.07014979  1
  O2-  O271  1  0.91348255  0.03883824  0.40112637  1
  O2-  O272  1  0.91564893  0.03698212  0.73485831  1
  O2-  O273  1  0.91483820  0.53376168  0.06866898  1
  O2-  O274  1  0.91312346  0.54557074  0.39778418  1
  O2-  O275  1  0.90928534  0.54403765  0.73126100  1
  O2-  O276  1  0.28539241  0.16429212  0.06839125  1
  O2-  O277  1  0.30276077  0.16870074  0.39202134  1
  O2-  O278  1  0.29730019  0.16376771  0.73055074  1
  O2-  O279  1  0.29073224  0.66051927  0.06028923  1
  O2-  O280  1  0.29306361  0.66770501  0.40281847  1
  O2-  O281  1  0.30146156  0.66469648  0.73199311  1
  O2-  O282  1  0.79959900  0.17557804  0.06397381  1
  O2-  O283  1  0.78741971  0.16954544  0.40169931  1
  O2-  O284  1  0.79384799  0.16941415  0.73605834  1
  O2-  O285  1  0.79881674  0.66741797  0.07156556  1
  O2-  O286  1  0.79450688  0.66644538  0.39632803  1
  O2-  O287  1  0.79257696  0.66553818  0.72504851  1
