# generated using pymatgen
data_Ca2Al2SiO7
_symmetry_space_group_name_H-M   'P 1'
_cell_length_a   15.46037525
_cell_length_b   15.46123875
_cell_length_c   15.28546783
_cell_angle_alpha   90.01178174
_cell_angle_beta   90.00304442
_cell_angle_gamma   89.98159625
_symmetry_Int_Tables_number   1
_chemical_formula_structural   Ca2Al2SiO7
_chemical_formula_sum   'Ca48 Al48 Si24 O168'
_cell_volume   3653.78526969
_cell_formula_units_Z   24
loop_
 _symmetry_equiv_pos_site_id
 _symmetry_equiv_pos_as_xyz
  1  'x, y, z'
loop_
 _atom_type_symbol
 _atom_type_oxidation_number
  Ca2+  2.0
  Al0+  0.0
  Si0+  0.0
  O2-  -2.0
loop_
 _atom_site_type_symbol
 _atom_site_label
 _atom_site_symmetry_multiplicity
 _atom_site_fract_x
 _atom_site_fract_y
 _atom_site_fract_z
 _atom_site_occupancy
  Ca2+  Ca0  1  0.17640417  0.08434144  0.16751191  1
  Ca2+  Ca1  1  0.16645196  0.08635316  0.50409691  1
  Ca2+  Ca2  1  0.16720575  0.07586328  0.83805378  1
  Ca2+  Ca3  1  0.17056960  0.57303996  0.16666505  1
  Ca2+  Ca4  1  0.16170534  0.57670572  0.50405146  1
  Ca2+  Ca5  1  0.17279106  0.57974328  0.84295467  1
  Ca2+  Ca6  1  0.66991768  0.08162292  0.17120873  1
  Ca2+  Ca7  1  0.66981948  0.08481638  0.50678377  1
  Ca2+  Ca8  1  0.66721598  0.08653457  0.83640952  1
  Ca2+  Ca9  1  0.66238489  0.57187343  0.16770638  1
  Ca2+  Ca10  1  0.66670744  0.57833052  0.50302768  1
  Ca2+  Ca11  1  0.66401083  0.58231904  0.84065473  1
  Ca2+  Ca12  1  0.08434694  0.33399059  0.16254742  1
  Ca2+  Ca13  1  0.08371907  0.32279348  0.48786904  1
  Ca2+  Ca14  1  0.08266329  0.33188980  0.83031003  1
  Ca2+  Ca15  1  0.07469429  0.83929428  0.15989920  1
  Ca2+  Ca16  1  0.07916701  0.83405204  0.49979591  1
  Ca2+  Ca17  1  0.08019970  0.83741775  0.82629664  1
  Ca2+  Ca18  1  0.57417713  0.34001150  0.16106415  1
  Ca2+  Ca19  1  0.57269678  0.33185991  0.49679926  1
  Ca2+  Ca20  1  0.57077871  0.33384211  0.82998716  1
  Ca2+  Ca21  1  0.57546165  0.82417040  0.15505148  1
  Ca2+  Ca22  1  0.58688857  0.82455040  0.49797819  1
  Ca2+  Ca23  1  0.57478872  0.82213832  0.83318768  1
  Ca2+  Ca24  1  0.32801389  0.41400793  0.16829054  1
  Ca2+  Ca25  1  0.33126554  0.40981528  0.49867694  1
  Ca2+  Ca26  1  0.33142188  0.41773700  0.84389281  1
  Ca2+  Ca27  1  0.33574325  0.92655397  0.16918972  1
  Ca2+  Ca28  1  0.32610320  0.92727643  0.50817641  1
  Ca2+  Ca29  1  0.32244231  0.92045802  0.84637863  1
  Ca2+  Ca30  1  0.82332054  0.40597946  0.17214543  1
  Ca2+  Ca31  1  0.82718747  0.40754520  0.50037148  1
  Ca2+  Ca32  1  0.82558797  0.41734981  0.84576146  1
  Ca2+  Ca33  1  0.83605474  0.91224206  0.16966543  1
  Ca2+  Ca34  1  0.83892453  0.91330499  0.50450404  1
  Ca2+  Ca35  1  0.83744081  0.91404866  0.83735278  1
  Ca2+  Ca36  1  0.40782428  0.17404625  0.16357166  1
  Ca2+  Ca37  1  0.41357233  0.17627604  0.49512726  1
  Ca2+  Ca38  1  0.41226769  0.17728919  0.83119148  1
  Ca2+  Ca39  1  0.42086887  0.66648338  0.15461120  1
  Ca2+  Ca40  1  0.42176617  0.66596537  0.50032003  1
  Ca2+  Ca41  1  0.42383196  0.65974993  0.83403873  1
  Ca2+  Ca42  1  0.92470012  0.17719954  0.16529020  1
  Ca2+  Ca43  1  0.93159758  0.16819966  0.49348526  1
  Ca2+  Ca44  1  0.92346132  0.17363560  0.83114527  1
  Ca2+  Ca45  1  0.91747092  0.67547821  0.16138277  1
  Ca2+  Ca46  1  0.92157914  0.67622768  0.49916392  1
  Ca2+  Ca47  1  0.92746839  0.67622565  0.82788929  1
  Al0+  Al48  1  -0.00050724  0.00210781  0.00042469  1
  Al0+  Al49  1  0.00043119  -0.00001123  0.32477452  1
  Al0+  Al50  1  -0.00110612  0.00335131  0.66433884  1
  Al0+  Al51  1  -0.00220969  0.50161535  -0.00038898  1
  Al0+  Al52  1  -0.00160042  0.50216122  0.33506019  1
  Al0+  Al53  1  -0.00292202  0.50263131  0.66527516  1
  Al0+  Al54  1  0.50184762  -0.00150585  0.00024400  1
  Al0+  Al55  1  0.50062175  -0.00066465  0.34105553  1
  Al0+  Al56  1  0.50151493  0.00106045  0.66699519  1
  Al0+  Al57  1  0.50098061  0.49799682  -0.00056989  1
  Al0+  Al58  1  0.50154473  0.49890156  0.33582440  1
  Al0+  Al59  1  0.49912000  0.50031683  0.65805893  1
  Al0+  Al60  1  0.24964006  0.24741751  0.00094905  1
  Al0+  Al61  1  0.25193319  0.24985757  0.33336407  1
  Al0+  Al62  1  0.24877908  0.25100931  0.66107867  1
  Al0+  Al63  1  0.24853636  0.75012760  0.00718994  1
  Al0+  Al64  1  0.25073325  0.75038795  0.33451127  1
  Al0+  Al65  1  0.24954873  0.74900237  0.66695672  1
  Al0+  Al66  1  0.75193192  0.24975069  0.00127657  1
  Al0+  Al67  1  0.75007797  0.24709902  0.33836020  1
  Al0+  Al68  1  0.74686653  0.24953455  0.66764061  1
  Al0+  Al69  1  0.75121627  0.75007755  -0.00724748  1
  Al0+  Al70  1  0.75032302  0.74782683  0.32982631  1
  Al0+  Al71  1  0.74904215  0.74977340  0.66102674  1
  Al0+  Al72  1  0.06866315  0.18208263  0.65425334  1
  Al0+  Al73  1  0.57225914  0.17754114  0.65188805  1
  Al0+  Al74  1  0.68044770  0.42865673  0.01230997  1
  Al0+  Al75  1  0.17888518  0.43111941  0.34745472  1
  Al0+  Al76  1  0.67971132  0.42798922  0.34993118  1
  Al0+  Al77  1  0.07351130  0.17984284  0.31483571  1
  Al0+  Al78  1  0.92743468  0.32226374  0.31991806  1
  Al0+  Al79  1  0.42861310  0.31820060  0.98802975  1
  Al0+  Al80  1  0.93129959  0.82231670  0.98475025  1
  Al0+  Al81  1  0.07423552  0.67717878  0.65181609  1
  Al0+  Al82  1  0.92821129  0.32269502  0.98655081  1
  Al0+  Al83  1  0.17663236  0.42784644  0.01293065  1
  Al0+  Al84  1  0.93071282  0.81870103  0.31800037  1
  Al0+  Al85  1  0.32082361  0.07045959  0.34998114  1
  Al0+  Al86  1  0.43201558  0.31991477  0.31682880  1
  Al0+  Al87  1  0.56930931  0.67747272  0.98568344  1
  Al0+  Al88  1  0.32363728  0.06984021  0.01422110  1
  Al0+  Al89  1  0.56968277  0.68032887  0.65075934  1
  Al0+  Al90  1  0.32266743  0.57021479  0.01396332  1
  Al0+  Al91  1  0.17912775  0.93063618  0.67913620  1
  Al0+  Al92  1  0.42846362  0.32066006  0.65004119  1
  Al0+  Al93  1  0.93084383  0.82171934  0.65174419  1
  Al0+  Al94  1  0.17643929  0.92819419  0.01592276  1
  Al0+  Al95  1  0.42571715  0.82294114  0.98670177  1
  Si0+  Si96  1  0.42956774  0.82257437  0.32123314  1
  Si0+  Si97  1  0.68113476  0.92741270  0.01371105  1
  Si0+  Si98  1  0.67856269  0.43034132  0.68242302  1
  Si0+  Si99  1  0.56965126  0.67960523  0.31769724  1
  Si0+  Si100  1  0.82120450  0.57397905  0.01592291  1
  Si0+  Si101  1  0.82083978  0.07140309  0.01611821  1
  Si0+  Si102  1  0.57482729  0.17648747  0.98610953  1
  Si0+  Si103  1  0.92569631  0.32423655  0.65210577  1
  Si0+  Si104  1  0.17734132  0.42858393  0.67961164  1
  Si0+  Si105  1  0.32322026  0.57369474  0.35182174  1
  Si0+  Si106  1  0.17668843  0.92784355  0.35063321  1
  Si0+  Si107  1  0.67853916  0.92630726  0.68304522  1
  Si0+  Si108  1  0.07117253  0.18001297  0.98215091  1
  Si0+  Si109  1  0.82185693  0.06852283  0.34887378  1
  Si0+  Si110  1  0.32163997  0.56971389  0.68012549  1
  Si0+  Si111  1  0.68042188  0.92693897  0.34863285  1
  Si0+  Si112  1  0.82063908  0.57480992  0.35170676  1
  Si0+  Si113  1  0.81964755  0.07098386  0.68261632  1
  Si0+  Si114  1  0.07486136  0.67680409  0.31492577  1
  Si0+  Si115  1  0.42657016  0.82332282  0.65063996  1
  Si0+  Si116  1  0.81954731  0.57290540  0.68247689  1
  Si0+  Si117  1  0.57252812  0.17499073  0.31753021  1
  Si0+  Si118  1  0.07244537  0.67743326  0.98511015  1
  Si0+  Si119  1  0.32271280  0.07400608  0.68385018  1
  O2-  O120  1  0.25405761  -0.00494792  0.06440425  1
  O2-  O121  1  0.24490221  -0.00371233  0.39578571  1
  O2-  O122  1  0.25726284  0.00170247  0.72653624  1
  O2-  O123  1  0.25050945  0.49802708  0.06310292  1
  O2-  O124  1  0.25187380  0.50767599  0.39590605  1
  O2-  O125  1  0.24762272  0.50085444  0.72074853  1
  O2-  O126  1  0.75063401  -0.00108302  0.05785915  1
  O2-  O127  1  0.75167844  -0.00322276  0.39198699  1
  O2-  O128  1  0.74813599  -0.00044110  0.72455629  1
  O2-  O129  1  0.75531977  0.50294667  0.06032500  1
  O2-  O130  1  0.75811731  0.49997280  0.39618555  1
  O2-  O131  1  0.75135239  0.49919467  0.72505255  1
  O2-  O132  1  0.00419502  0.25674724  0.26806077  1
  O2-  O133  1  -0.00239691  0.26015705  0.60764977  1
  O2-  O134  1  0.00638497  0.25308990  0.93855255  1
  O2-  O135  1  0.00748414  0.74702985  0.27090148  1
  O2-  O136  1  0.00466307  0.75183464  0.60209422  1
  O2-  O137  1  0.00962706  0.75142461  0.93997805  1
  O2-  O138  1  0.50672830  0.24416092  0.27134642  1
  O2-  O139  1  0.49810357  0.24545689  0.60094348  1
  O2-  O140  1  0.50279017  0.24177936  0.94284472  1
  O2-  O141  1  0.49625384  0.74843918  0.27745239  1
  O2-  O142  1  0.49679398  0.75698936  0.60396696  1
  O2-  O143  1  0.49352596  0.74660111  0.93664350  1
  O2-  O144  1  0.06891234  0.17848788  0.08740312  1
  O2-  O145  1  0.06965008  0.17782180  0.42892797  1
  O2-  O146  1  0.06675503  0.18261578  0.76732209  1
  O2-  O147  1  0.06698514  0.67494371  0.09060815  1
  O2-  O148  1  0.07447615  0.67808590  0.42060203  1
  O2-  O149  1  0.07211220  0.67378211  0.76509447  1
  O2-  O150  1  0.57892051  0.17691438  0.09161930  1
  O2-  O151  1  0.57165887  0.17446030  0.42300066  1
  O2-  O152  1  0.57609790  0.18111752  0.76534226  1
  O2-  O153  1  0.57163000  0.68042921  0.09971583  1
  O2-  O154  1  0.57101163  0.68180856  0.42313922  1
  O2-  O155  1  0.56921745  0.67883967  0.76314813  1
  O2-  O156  1  0.18056249  0.43246607  0.23480681  1
  O2-  O157  1  0.17774675  0.42875453  0.57452395  1
  O2-  O158  1  0.17690534  0.42981237  0.89848252  1
  O2-  O159  1  0.17853605  0.92663872  0.24552045  1
  O2-  O160  1  0.17993837  0.93339023  0.56576560  1
  O2-  O161  1  0.17354298  0.93321867  0.90191862  1
  O2-  O162  1  0.67817049  0.43048461  0.23703308  1
  O2-  O163  1  0.68067090  0.43092142  0.57719350  1
  O2-  O164  1  0.68117292  0.42902041  0.89873575  1
  O2-  O165  1  0.67968542  0.92731932  0.24348903  1
  O2-  O166  1  0.68024713  0.92488897  0.57756236  1
  O2-  O167  1  0.68242029  0.92806255  0.90859438  1
  O2-  O168  1  0.43021866  0.31858441  0.10085779  1
  O2-  O169  1  0.43326271  0.31972668  0.42987775  1
  O2-  O170  1  0.42856858  0.32271698  0.76377156  1
  O2-  O171  1  0.43350203  0.82454550  0.10083053  1
  O2-  O172  1  0.43306113  0.82181145  0.42655759  1
  O2-  O173  1  0.42777415  0.82159303  0.75571607  1
  O2-  O174  1  0.92429229  0.31749878  0.09884583  1
  O2-  O175  1  0.92709763  0.31574555  0.43398180  1
  O2-  O176  1  0.92505169  0.32289474  0.75785574  1
  O2-  O177  1  0.92836971  0.81940271  0.09793585  1
  O2-  O178  1  0.92926799  0.81811068  0.43080867  1
  O2-  O179  1  0.93083304  0.82039894  0.76508090  1
  O2-  O180  1  0.32442171  0.06668963  0.23746956  1
  O2-  O181  1  0.32130245  0.07326536  0.57804508  1
  O2-  O182  1  0.32114835  0.07164159  0.90034821  1
  O2-  O183  1  0.32500103  0.57489821  0.24678303  1
  O2-  O184  1  0.32320080  0.56939956  0.57490335  1
  O2-  O185  1  0.32251946  0.56730679  0.89965048  1
  O2-  O186  1  0.81864353  0.06829142  0.24369229  1
  O2-  O187  1  0.81929080  0.07073062  0.57741092  1
  O2-  O188  1  0.81971010  0.07257017  0.91076076  1
  O2-  O189  1  0.81486375  0.58179948  0.24669309  1
  O2-  O190  1  0.81808306  0.57309561  0.57739213  1
  O2-  O191  1  0.81975869  0.57360418  0.90998017  1
  O2-  O192  1  0.04060570  0.08360236  0.26096072  1
  O2-  O193  1  0.03341182  0.08869946  0.59749870  1
  O2-  O194  1  0.03732758  0.08931135  0.93509780  1
  O2-  O195  1  0.04680316  0.58428120  0.26908588  1
  O2-  O196  1  0.03985478  0.58084812  0.59652168  1
  O2-  O197  1  0.04158482  0.58695955  0.93533451  1
  O2-  O198  1  0.54780867  0.07983100  0.27361286  1
  O2-  O199  1  0.55302029  0.07591731  0.60093313  1
  O2-  O200  1  0.55488309  0.08145878  0.94066867  1
  O2-  O201  1  0.54319279  0.58712993  0.27265424  1
  O2-  O202  1  0.53734198  0.58616196  0.59346566  1
  O2-  O203  1  0.54335775  0.57947717  0.93126701  1
  O2-  O204  1  0.17245492  0.20590607  0.26433360  1
  O2-  O205  1  0.16467202  0.20908243  0.59837756  1
  O2-  O206  1  0.16533550  0.20050029  0.93608354  1
  O2-  O207  1  0.17002237  0.70004525  0.27096542  1
  O2-  O208  1  0.17314765  0.70129978  0.59798603  1
  O2-  O209  1  0.16863951  0.69590037  0.94296512  1
  O2-  O210  1  0.66800812  0.19703586  0.27446966  1
  O2-  O211  1  0.66992605  0.20787878  0.59737422  1
  O2-  O212  1  0.66699525  0.20457533  0.93831627  1
  O2-  O213  1  0.65986730  0.70986869  0.26965974  1
  O2-  O214  1  0.66483863  0.71182254  0.59429565  1
  O2-  O215  1  0.66570455  0.71021773  0.93086749  1
  O2-  O216  1  0.07819012  0.45781228  0.06575471  1
  O2-  O217  1  0.08076834  0.45913061  0.40178912  1
  O2-  O218  1  0.08349158  0.45390094  0.72501049  1
  O2-  O219  1  0.07964186  0.96328486  0.06941387  1
  O2-  O220  1  0.08164915  0.95405322  0.39337552  1
  O2-  O221  1  0.08264334  0.96534641  0.73147686  1
  O2-  O222  1  0.58545569  0.46061860  0.06759142  1
  O2-  O223  1  0.58533692  0.46436677  0.40544901  1
  O2-  O224  1  0.58610879  0.46184773  0.72571481  1
  O2-  O225  1  0.58989489  0.95302883  0.06314878  1
  O2-  O226  1  0.59012995  0.95356461  0.39970780  1
  O2-  O227  1  0.58594236  0.95176764  0.73050326  1
  O2-  O228  1  0.20280496  0.32886586  0.06412187  1
  O2-  O229  1  0.21214692  0.33486942  0.40063727  1
  O2-  O230  1  0.20603798  0.33703952  0.72688386  1
  O2-  O231  1  0.19396236  0.82797224  0.06885150  1
  O2-  O232  1  0.20198287  0.83351774  0.39679094  1
  O2-  O233  1  0.20517440  0.83160823  0.73115652  1
  O2-  O234  1  0.71181173  0.33251891  0.06736010  1
  O2-  O235  1  0.70795621  0.33021991  0.40441508  1
  O2-  O236  1  0.70360126  0.33751827  0.72928926  1
  O2-  O237  1  0.71127132  0.83619983  0.06136523  1
  O2-  O238  1  0.70913493  0.83467680  0.39530445  1
  O2-  O239  1  0.70860868  0.83499369  0.72990699  1
  O2-  O240  1  0.46433321  0.41769875  0.26631049  1
  O2-  O241  1  0.46050000  0.41630844  0.59406380  1
  O2-  O242  1  0.46204167  0.41306255  0.93295461  1
  O2-  O243  1  0.46248724  0.91290644  0.27473717  1
  O2-  O244  1  0.45076649  0.91794829  0.60609206  1
  O2-  O245  1  0.46055671  0.91858795  0.93134830  1
  O2-  O246  1  0.94365473  0.42537514  0.27294245  1
  O2-  O247  1  0.94371705  0.41956062  0.60749257  1
  O2-  O248  1  0.95159425  0.42132108  0.93304979  1
  O2-  O249  1  0.95657868  0.91558220  0.26280947  1
  O2-  O250  1  0.95574375  0.92085913  0.59934601  1
  O2-  O251  1  0.95670775  0.92127716  0.93289410  1
  O2-  O252  1  0.33542733  0.28886700  0.26526702  1
  O2-  O253  1  0.33034538  0.29375530  0.59623406  1
  O2-  O254  1  0.33207858  0.28837581  0.93275276  1
  O2-  O255  1  0.33578745  0.80060180  0.27587769  1
  O2-  O256  1  0.33463899  0.79548342  0.60291699  1
  O2-  O257  1  0.32407249  0.80125165  0.93897801  1
  O2-  O258  1  0.83003777  0.28599847  0.26886194  1
  O2-  O259  1  0.83299229  0.29425336  0.60746655  1
  O2-  O260  1  0.83389715  0.28567493  0.93058849  1
  O2-  O261  1  0.83359062  0.78669211  0.26441351  1
  O2-  O262  1  0.83320987  0.79108127  0.59826779  1
  O2-  O263  1  0.83594531  0.79046925  0.92931673  1
  O2-  O264  1  0.42373502  0.04516565  0.06715113  1
  O2-  O265  1  0.41688507  0.03802332  0.40646621  1
  O2-  O266  1  0.41892689  0.05377392  0.72706111  1
  O2-  O267  1  0.42076476  0.54198378  0.06713532  1
  O2-  O268  1  0.41595053  0.54514048  0.39869346  1
  O2-  O269  1  0.41340990  0.53873065  0.72617205  1
  O2-  O270  1  0.91166635  0.04391903  0.06433278  1
  O2-  O271  1  0.91427878  0.03924413  0.39411367  1
  O2-  O272  1  0.91053916  0.04339248  0.73132685  1
  O2-  O273  1  0.91510407  0.55263615  0.06209862  1
  O2-  O274  1  0.91665235  0.55817585  0.39583532  1
  O2-  O275  1  0.91253165  0.54891437  0.73011950  1
  O2-  O276  1  0.29057998  0.16599582  0.06857536  1
  O2-  O277  1  0.29074711  0.16702917  0.40341655  1
  O2-  O278  1  0.29236656  0.16722993  0.72795626  1
  O2-  O279  1  0.29741785  0.66842594  0.06921405  1
  O2-  O280  1  0.30134103  0.66891677  0.39817502  1
  O2-  O281  1  0.29819155  0.66233384  0.72768894  1
  O2-  O282  1  0.79098934  0.16110666  0.06612527  1
  O2-  O283  1  0.79388299  0.15814655  0.40025705  1
  O2-  O284  1  0.79061272  0.16247533  0.73144873  1
  O2-  O285  1  0.79264504  0.66725949  0.06163950  1
  O2-  O286  1  0.78592429  0.66496089  0.40128488  1
  O2-  O287  1  0.78802554  0.66400454  0.72895116  1
