# generated using pymatgen
data_Ca2Al2SiO7
_symmetry_space_group_name_H-M   'P 1'
_cell_length_a   15.47020669
_cell_length_b   15.46730171
_cell_length_c   15.29172176
_cell_angle_alpha   90.01784271
_cell_angle_beta   89.99604967
_cell_angle_gamma   89.98565431
_symmetry_Int_Tables_number   1
_chemical_formula_structural   Ca2Al2SiO7
_chemical_formula_sum   'Ca48 Al48 Si24 O168'
_cell_volume   3659.03888536
_cell_formula_units_Z   24
loop_
 _symmetry_equiv_pos_site_id
 _symmetry_equiv_pos_as_xyz
  1  'x, y, z'
loop_
 _atom_type_symbol
 _atom_type_oxidation_number
  Ca2+  2.0
  Al0+  0.0
  Si0+  0.0
  O2-  -2.0
loop_
 _atom_site_type_symbol
 _atom_site_label
 _atom_site_symmetry_multiplicity
 _atom_site_fract_x
 _atom_site_fract_y
 _atom_site_fract_z
 _atom_site_occupancy
  Ca2+  Ca0  1  0.16843341  0.08518329  0.17230482  1
  Ca2+  Ca1  1  0.16805338  0.08200822  0.50501463  1
  Ca2+  Ca2  1  0.16675460  0.07533082  0.83242064  1
  Ca2+  Ca3  1  0.15441508  0.57935021  0.16496140  1
  Ca2+  Ca4  1  0.16791359  0.57809398  0.50936795  1
  Ca2+  Ca5  1  0.15542226  0.57391865  0.84006174  1
  Ca2+  Ca6  1  0.68073953  0.07492078  0.17292346  1
  Ca2+  Ca7  1  0.67524881  0.07263623  0.50638202  1
  Ca2+  Ca8  1  0.67617328  0.08161896  0.83058292  1
  Ca2+  Ca9  1  0.67106146  0.58573883  0.16919985  1
  Ca2+  Ca10  1  0.66068365  0.57969751  0.50596734  1
  Ca2+  Ca11  1  0.66932369  0.58075593  0.83319208  1
  Ca2+  Ca12  1  0.07407769  0.32772071  0.16249891  1
  Ca2+  Ca13  1  0.07373599  0.32797993  0.49536586  1
  Ca2+  Ca14  1  0.07340406  0.33858303  0.82944273  1
  Ca2+  Ca15  1  0.06926091  0.82959638  0.16011524  1
  Ca2+  Ca16  1  0.07054508  0.84538832  0.50084719  1
  Ca2+  Ca17  1  0.07277189  0.83291654  0.82830072  1
  Ca2+  Ca18  1  0.58264258  0.33056184  0.16335402  1
  Ca2+  Ca19  1  0.59409643  0.32528006  0.50204731  1
  Ca2+  Ca20  1  0.58936459  0.32743545  0.82179951  1
  Ca2+  Ca21  1  0.57887272  0.83775513  0.16637722  1
  Ca2+  Ca22  1  0.58577243  0.82899867  0.49382035  1
  Ca2+  Ca23  1  0.57493941  0.83260875  0.82044957  1
  Ca2+  Ca24  1  0.32380086  0.41847579  0.17106897  1
  Ca2+  Ca25  1  0.32475498  0.41948677  0.51062226  1
  Ca2+  Ca26  1  0.31865027  0.41760624  0.83886437  1
  Ca2+  Ca27  1  0.33430800  0.90844471  0.16903864  1
  Ca2+  Ca28  1  0.32747592  0.90669860  0.50618063  1
  Ca2+  Ca29  1  0.33043135  0.90518982  0.83351972  1
  Ca2+  Ca30  1  0.84517405  0.42276690  0.16586219  1
  Ca2+  Ca31  1  0.83519605  0.41796217  0.50861616  1
  Ca2+  Ca32  1  0.83433057  0.42001374  0.83837269  1
  Ca2+  Ca33  1  0.83691641  0.92316151  0.17658197  1
  Ca2+  Ca34  1  0.82990520  0.92311518  0.50897496  1
  Ca2+  Ca35  1  0.83606923  0.92432033  0.83723145  1
  Ca2+  Ca36  1  0.42101528  0.16560464  0.16226891  1
  Ca2+  Ca37  1  0.42648327  0.16242635  0.50134681  1
  Ca2+  Ca38  1  0.42676113  0.16909340  0.82608968  1
  Ca2+  Ca39  1  0.42420247  0.67592187  0.16482981  1
  Ca2+  Ca40  1  0.42860049  0.67604942  0.49746640  1
  Ca2+  Ca41  1  0.42309552  0.67434868  0.82624132  1
  Ca2+  Ca42  1  0.91063418  0.17264589  0.16445202  1
  Ca2+  Ca43  1  0.91052845  0.17422329  0.49500721  1
  Ca2+  Ca44  1  0.90485885  0.17576765  0.82796566  1
  Ca2+  Ca45  1  0.91379179  0.67897887  0.15827162  1
  Ca2+  Ca46  1  0.91007601  0.68371150  0.49932892  1
  Ca2+  Ca47  1  0.91396494  0.67469039  0.83460856  1
  Al0+  Al48  1  0.00219301  0.00142793  0.00236706  1
  Al0+  Al49  1  0.00350909  0.00245341  0.32987075  1
  Al0+  Al50  1  0.00357398  0.00237696  0.67268947  1
  Al0+  Al51  1  -0.00223955  0.49763768  0.00300573  1
  Al0+  Al52  1  -0.00094129  0.49819664  0.33476467  1
  Al0+  Al53  1  -0.00035540  0.50023771  0.66641398  1
  Al0+  Al54  1  0.49939136  0.00050548  -0.00417449  1
  Al0+  Al55  1  0.49996459  0.00093426  0.33226363  1
  Al0+  Al56  1  0.49956018  0.00235648  0.66109874  1
  Al0+  Al57  1  0.49648872  0.49947180  0.00092631  1
  Al0+  Al58  1  0.49894389  0.50125395  0.33026508  1
  Al0+  Al59  1  0.49869939  0.50058723  0.66910559  1
  Al0+  Al60  1  0.24993065  0.24954898  0.00485133  1
  Al0+  Al61  1  0.24895005  0.24976336  0.33283007  1
  Al0+  Al62  1  0.24936817  0.25084796  0.67301551  1
  Al0+  Al63  1  0.25146007  0.74722288  -0.00499889  1
  Al0+  Al64  1  0.25225183  0.74778787  0.33213996  1
  Al0+  Al65  1  0.25063148  0.74876208  0.66876787  1
  Al0+  Al66  1  0.74907110  0.24722824  0.00162539  1
  Al0+  Al67  1  0.74905650  0.25139220  0.32951060  1
  Al0+  Al68  1  0.74960912  0.25131299  0.66416242  1
  Al0+  Al69  1  0.74731993  0.74875532  -0.00000677  1
  Al0+  Al70  1  0.74996983  0.74787051  0.32810444  1
  Al0+  Al71  1  0.74972583  0.75005446  0.66283739  1
  Al0+  Al72  1  0.07299542  0.17944257  0.31816187  1
  Al0+  Al73  1  0.57186425  0.18009183  0.65169205  1
  Al0+  Al74  1  0.92968238  0.31708790  0.98487720  1
  Al0+  Al75  1  0.06881690  0.67825241  0.98620125  1
  Al0+  Al76  1  0.18095011  0.92847099  0.68087580  1
  Al0+  Al77  1  0.67791607  0.92694432  0.68074937  1
  Al0+  Al78  1  0.93045259  0.82364482  0.65423255  1
  Al0+  Al79  1  0.82384644  0.07217049  0.34895666  1
  Al0+  Al80  1  0.93034117  0.82132477  0.32178500  1
  Al0+  Al81  1  0.17834117  0.42921397  0.01751838  1
  Al0+  Al82  1  0.67976936  0.92771706  0.34749838  1
  Al0+  Al83  1  0.57232681  0.67821918  0.65190366  1
  Al0+  Al84  1  0.57205922  0.67716798  0.31533857  1
  Al0+  Al85  1  0.92695774  0.32112899  0.31649310  1
  Al0+  Al86  1  0.82180662  0.07108016  0.68118905  1
  Al0+  Al87  1  0.43145436  0.82074666  0.98402186  1
  Al0+  Al88  1  0.82173903  0.06991977  0.01517648  1
  Al0+  Al89  1  0.81820855  0.57037035  0.01355505  1
  Al0+  Al90  1  0.92673584  0.82423964  0.98449003  1
  Al0+  Al91  1  0.42793848  0.82190685  0.65038409  1
  Al0+  Al92  1  0.42889782  0.82208659  0.31739041  1
  Al0+  Al93  1  0.67971903  0.43031292  0.67808234  1
  Al0+  Al94  1  0.17751955  0.42951025  0.68110660  1
  Al0+  Al95  1  0.92968269  0.32096444  0.65382181  1
  Si0+  Si96  1  0.07119145  0.67796270  0.65089384  1
  Si0+  Si97  1  0.07290068  0.67663452  0.32036682  1
  Si0+  Si98  1  0.32260743  0.57205839  0.02019659  1
  Si0+  Si99  1  0.18164261  0.92791040  0.34591482  1
  Si0+  Si100  1  0.57020215  0.17979677  0.31630600  1
  Si0+  Si101  1  0.42694137  0.32152215  0.98590965  1
  Si0+  Si102  1  0.32213964  0.57005446  0.35012751  1
  Si0+  Si103  1  0.32187447  0.07347823  0.34825332  1
  Si0+  Si104  1  0.56921067  0.18106993  0.98498761  1
  Si0+  Si105  1  0.32117837  0.57112440  0.68557940  1
  Si0+  Si106  1  0.07459631  0.17911426  0.65215219  1
  Si0+  Si107  1  0.67594064  0.92886157  0.01443258  1
  Si0+  Si108  1  0.32183063  0.06966314  0.01517197  1
  Si0+  Si109  1  0.18109025  0.92670495  0.01590478  1
  Si0+  Si110  1  0.82154423  0.56971448  0.34883927  1
  Si0+  Si111  1  0.57169221  0.67444707  0.98160917  1
  Si0+  Si112  1  0.17933110  0.42919793  0.35024874  1
  Si0+  Si113  1  0.42629147  0.32142452  0.65185919  1
  Si0+  Si114  1  0.07625297  0.17790246  0.98124426  1
  Si0+  Si115  1  0.67553738  0.42636829  0.01650259  1
  Si0+  Si116  1  0.82316320  0.57351184  0.68248792  1
  Si0+  Si117  1  0.32300682  0.07382561  0.68390724  1
  Si0+  Si118  1  0.42765472  0.32110110  0.31938760  1
  Si0+  Si119  1  0.67595273  0.43002986  0.34693984  1
  O2-  O120  1  0.25168525  -0.00125615  0.05829597  1
  O2-  O121  1  0.25354273  -0.00090406  0.38789099  1
  O2-  O122  1  0.25911273  0.00044553  0.72757011  1
  O2-  O123  1  0.25160892  0.50561113  0.06513482  1
  O2-  O124  1  0.24869758  0.50146561  0.39272463  1
  O2-  O125  1  0.25047419  0.50463445  0.72972116  1
  O2-  O126  1  0.75253490  -0.01154167  0.05911006  1
  O2-  O127  1  0.75542285  -0.00393761  0.39740841  1
  O2-  O128  1  0.75310957  -0.00457334  0.73136456  1
  O2-  O129  1  0.74230164  0.49595029  0.06134025  1
  O2-  O130  1  0.74887792  0.49895401  0.38876458  1
  O2-  O131  1  0.75276176  0.50538626  0.72516667  1
  O2-  O132  1  -0.00323268  0.24628418  0.26779692  1
  O2-  O133  1  0.00379731  0.24525425  0.60828060  1
  O2-  O134  1  0.00364577  0.24195713  0.93725788  1
  O2-  O135  1  0.00532640  0.74595362  0.27674464  1
  O2-  O136  1  0.00553166  0.74885225  0.60632884  1
  O2-  O137  1  -0.00057041  0.75193233  0.93546364  1
  O2-  O138  1  0.49833717  0.25099595  0.27478201  1
  O2-  O139  1  0.49618279  0.25560982  0.60552454  1
  O2-  O140  1  0.50181489  0.25601919  0.94293781  1
  O2-  O141  1  0.50430358  0.75414353  0.26707080  1
  O2-  O142  1  0.50560622  0.75546299  0.60185409  1
  O2-  O143  1  0.50677446  0.74681474  0.93866870  1
  O2-  O144  1  0.08071216  0.18096301  0.08657679  1
  O2-  O145  1  0.08164222  0.18479673  0.43123198  1
  O2-  O146  1  0.07830707  0.18086279  0.75758128  1
  O2-  O147  1  0.06732870  0.68204331  0.10046536  1
  O2-  O148  1  0.07374222  0.67513752  0.42584045  1
  O2-  O149  1  0.06891018  0.67667425  0.75621822  1
  O2-  O150  1  0.56534835  0.18167516  0.09044408  1
  O2-  O151  1  0.56957805  0.18124827  0.42098406  1
  O2-  O152  1  0.57004999  0.18306286  0.76528150  1
  O2-  O153  1  0.56885119  0.67109537  0.08695861  1
  O2-  O154  1  0.56720057  0.67061227  0.42800248  1
  O2-  O155  1  0.56831947  0.67454718  0.76552453  1
  O2-  O156  1  0.18099010  0.42963942  0.24512930  1
  O2-  O157  1  0.18051437  0.43049998  0.56746049  1
  O2-  O158  1  0.18097837  0.42866177  0.90458196  1
  O2-  O159  1  0.18367978  0.92711953  0.24067289  1
  O2-  O160  1  0.18033267  0.93126612  0.56732296  1
  O2-  O161  1  0.18240400  0.92828460  0.91093755  1
  O2-  O162  1  0.67206726  0.43063524  0.24175751  1
  O2-  O163  1  0.68147157  0.43009907  0.56460923  1
  O2-  O164  1  0.67457737  0.42573655  0.91115124  1
  O2-  O165  1  0.67833359  0.93256172  0.23332009  1
  O2-  O166  1  0.67958758  0.92834983  0.56730731  1
  O2-  O167  1  0.67133930  0.93419427  0.90941960  1
  O2-  O168  1  0.42700378  0.31893883  0.09150383  1
  O2-  O169  1  0.42605950  0.32006614  0.42409703  1
  O2-  O170  1  0.42552906  0.31807155  0.75771599  1
  O2-  O171  1  0.43296881  0.82208117  0.09702418  1
  O2-  O172  1  0.42431532  0.81831092  0.42986845  1
  O2-  O173  1  0.42800364  0.81727254  0.76414661  1
  O2-  O174  1  0.93108330  0.31682322  0.09770994  1
  O2-  O175  1  0.92945642  0.32422963  0.43004690  1
  O2-  O176  1  0.93008011  0.32227008  0.76691036  1
  O2-  O177  1  0.92917559  0.82387333  0.09843480  1
  O2-  O178  1  0.93154854  0.82176861  0.43499606  1
  O2-  O179  1  0.93148026  0.82289344  0.76682002  1
  O2-  O180  1  0.32149674  0.07735720  0.24288585  1
  O2-  O181  1  0.31917863  0.07998934  0.57848832  1
  O2-  O182  1  0.32272601  0.07236520  0.91060029  1
  O2-  O183  1  0.32313455  0.56751134  0.24516170  1
  O2-  O184  1  0.32005738  0.56830481  0.57956107  1
  O2-  O185  1  0.32671566  0.56755470  0.91511687  1
  O2-  O186  1  0.81973534  0.07188793  0.23496872  1
  O2-  O187  1  0.82083855  0.07196694  0.56777427  1
  O2-  O188  1  0.81681709  0.07487368  0.90267384  1
  O2-  O189  1  0.82334609  0.56849717  0.24374398  1
  O2-  O190  1  0.82591889  0.57158285  0.57666450  1
  O2-  O191  1  0.81700711  0.56855658  0.90055771  1
  O2-  O192  1  0.05439453  0.07965761  0.26458434  1
  O2-  O193  1  0.05338419  0.08445288  0.60754838  1
  O2-  O194  1  0.05627896  0.08171232  0.93959177  1
  O2-  O195  1  0.04599449  0.58324744  0.27474430  1
  O2-  O196  1  0.04475533  0.58538324  0.60298686  1
  O2-  O197  1  0.03848752  0.57982280  0.93552542  1
  O2-  O198  1  0.53991461  0.08988998  0.26726415  1
  O2-  O199  1  0.53930974  0.08646372  0.59379054  1
  O2-  O200  1  0.53604998  0.09219409  0.93645821  1
  O2-  O201  1  0.53705582  0.58068607  0.26031547  1
  O2-  O202  1  0.53757369  0.58038547  0.59932425  1
  O2-  O203  1  0.54184097  0.58120340  0.93600141  1
  O2-  O204  1  0.17017247  0.21233651  0.26238044  1
  O2-  O205  1  0.16755629  0.20769314  0.60551593  1
  O2-  O206  1  0.16950585  0.20645124  0.93560391  1
  O2-  O207  1  0.16679382  0.69904585  0.27358223  1
  O2-  O208  1  0.16653482  0.69936246  0.60728404  1
  O2-  O209  1  0.16931893  0.69951663  0.93480496  1
  O2-  O210  1  0.65974158  0.20997590  0.26634631  1
  O2-  O211  1  0.66504842  0.21510074  0.59500734  1
  O2-  O212  1  0.66087644  0.20675975  0.93801321  1
  O2-  O213  1  0.67113556  0.69981109  0.26208920  1
  O2-  O214  1  0.67196168  0.69816852  0.59828684  1
  O2-  O215  1  0.66651109  0.69485278  0.93766571  1
  O2-  O216  1  0.08243410  0.45938209  0.07232512  1
  O2-  O217  1  0.08714995  0.45559853  0.39725712  1
  O2-  O218  1  0.08149704  0.46141185  0.73520816  1
  O2-  O219  1  0.08990735  0.95440392  0.06430886  1
  O2-  O220  1  0.09087655  0.95711970  0.39390146  1
  O2-  O221  1  0.08814264  0.96295477  0.73967051  1
  O2-  O222  1  0.58002188  0.44935167  0.06171133  1
  O2-  O223  1  0.58427804  0.45782417  0.39496527  1
  O2-  O224  1  0.58144118  0.45559586  0.73286956  1
  O2-  O225  1  0.58561561  0.96487451  0.06263339  1
  O2-  O226  1  0.58100590  0.95993284  0.39827543  1
  O2-  O227  1  0.57889257  0.95991590  0.73039712  1
  O2-  O228  1  0.21447699  0.33375715  0.07194765  1
  O2-  O229  1  0.21136343  0.33844223  0.39671295  1
  O2-  O230  1  0.20981685  0.33466953  0.73747720  1
  O2-  O231  1  0.21097284  0.83489264  0.06180337  1
  O2-  O232  1  0.20887643  0.83591144  0.39364383  1
  O2-  O233  1  0.20894785  0.83114982  0.73526623  1
  O2-  O234  1  0.70061482  0.33291789  0.06297131  1
  O2-  O235  1  0.70138089  0.33672484  0.39178658  1
  O2-  O236  1  0.71082110  0.33482536  0.73299780  1
  O2-  O237  1  0.68965750  0.83141071  0.05613012  1
  O2-  O238  1  0.70204822  0.82559808  0.39463871  1
  O2-  O239  1  0.69998828  0.82608552  0.73104712  1
  O2-  O240  1  0.45519479  0.41183281  0.27011248  1
  O2-  O241  1  0.44786655  0.41609772  0.60773381  1
  O2-  O242  1  0.44797449  0.41498737  0.93971315  1
  O2-  O243  1  0.45148314  0.92314407  0.26575262  1
  O2-  O244  1  0.44362972  0.92415898  0.60171541  1
  O2-  O245  1  0.45810404  0.91877991  0.93045791  1
  O2-  O246  1  0.96113514  0.41885802  0.26475247  1
  O2-  O247  1  0.96122785  0.41737039  0.59933889  1
  O2-  O248  1  0.96097049  0.41406912  0.93342069  1
  O2-  O249  1  0.96294584  0.91657767  0.26717125  1
  O2-  O250  1  0.96581638  0.92009309  0.60233365  1
  O2-  O251  1  0.95846652  0.92284706  0.93407086  1
  O2-  O252  1  0.33702581  0.29227241  0.27029783  1
  O2-  O253  1  0.33323098  0.29325701  0.60557570  1
  O2-  O254  1  0.33698524  0.28840989  0.93876029  1
  O2-  O255  1  0.33196521  0.78764997  0.26292272  1
  O2-  O256  1  0.33035779  0.78732992  0.59851883  1
  O2-  O257  1  0.33509256  0.78891760  0.93106379  1
  O2-  O258  1  0.82728384  0.29842674  0.26301698  1
  O2-  O259  1  0.83399192  0.29155338  0.59851291  1
  O2-  O260  1  0.83061013  0.28819398  0.93434214  1
  O2-  O261  1  0.83557844  0.78975582  0.26600149  1
  O2-  O262  1  0.83523424  0.79172904  0.59897325  1
  O2-  O263  1  0.82702879  0.79572305  0.93484198  1
  O2-  O264  1  0.41373256  0.04212813  0.06353356  1
  O2-  O265  1  0.41466669  0.04981925  0.39476460  1
  O2-  O266  1  0.41853605  0.05429452  0.72735295  1
  O2-  O267  1  0.41450407  0.54215606  0.06894209  1
  O2-  O268  1  0.41217973  0.53782435  0.39799220  1
  O2-  O269  1  0.41288572  0.54290603  0.73362991  1
  O2-  O270  1  0.92169504  0.04810354  0.06710864  1
  O2-  O271  1  0.92626630  0.05178353  0.39664671  1
  O2-  O272  1  0.92152070  0.04997157  0.73438300  1
  O2-  O273  1  0.91293081  0.53715769  0.06971820  1
  O2-  O274  1  0.91228550  0.54072120  0.39821570  1
  O2-  O275  1  0.91524836  0.54548791  0.72971058  1
  O2-  O276  1  0.29490222  0.16105046  0.06524288  1
  O2-  O277  1  0.29191261  0.16394551  0.39760656  1
  O2-  O278  1  0.29361928  0.16457670  0.73488455  1
  O2-  O279  1  0.29903636  0.66686103  0.06432861  1
  O2-  O280  1  0.29530311  0.66194666  0.39756793  1
  O2-  O281  1  0.29781744  0.66466800  0.73149555  1
  O2-  O282  1  0.78254984  0.16377254  0.07079011  1
  O2-  O283  1  0.78958250  0.17127546  0.39747703  1
  O2-  O284  1  0.78556884  0.16792425  0.73282656  1
  O2-  O285  1  0.78860566  0.66737110  0.06924889  1
  O2-  O286  1  0.79458178  0.66191973  0.39499745  1
  O2-  O287  1  0.79819507  0.66678433  0.72825116  1
