# generated using pymatgen
data_Ca2Al2SiO7
_symmetry_space_group_name_H-M   'P 1'
_cell_length_a   15.46340943
_cell_length_b   15.46474612
_cell_length_c   15.28832550
_cell_angle_alpha   90.01516064
_cell_angle_beta   90.00701934
_cell_angle_gamma   89.98244862
_symmetry_Int_Tables_number   1
_chemical_formula_structural   Ca2Al2SiO7
_chemical_formula_sum   'Ca48 Al48 Si24 O168'
_cell_volume   3656.01468635
_cell_formula_units_Z   24
loop_
 _symmetry_equiv_pos_site_id
 _symmetry_equiv_pos_as_xyz
  1  'x, y, z'
loop_
 _atom_type_symbol
 _atom_type_oxidation_number
  Ca2+  2.0
  Al0+  0.0
  Si0+  0.0
  O2-  -2.0
loop_
 _atom_site_type_symbol
 _atom_site_label
 _atom_site_symmetry_multiplicity
 _atom_site_fract_x
 _atom_site_fract_y
 _atom_site_fract_z
 _atom_site_occupancy
  Ca2+  Ca0  1  0.15423238  0.08196805  0.16852955  1
  Ca2+  Ca1  1  0.16121077  0.07718890  0.50694952  1
  Ca2+  Ca2  1  0.16184640  0.07241234  0.84060599  1
  Ca2+  Ca3  1  0.17018124  0.56979032  0.17717378  1
  Ca2+  Ca4  1  0.16613576  0.57407567  0.50161170  1
  Ca2+  Ca5  1  0.16437658  0.57249734  0.83226560  1
  Ca2+  Ca6  1  0.66010629  0.07917418  0.17112771  1
  Ca2+  Ca7  1  0.67068094  0.09501408  0.50898774  1
  Ca2+  Ca8  1  0.67207283  0.08914292  0.83351199  1
  Ca2+  Ca9  1  0.67770546  0.57917483  0.17539551  1
  Ca2+  Ca10  1  0.67292380  0.57707592  0.50666627  1
  Ca2+  Ca11  1  0.66020220  0.57698152  0.83154948  1
  Ca2+  Ca12  1  0.07960322  0.33400646  0.15981183  1
  Ca2+  Ca13  1  0.07597622  0.33796239  0.49256181  1
  Ca2+  Ca14  1  0.07541370  0.33741610  0.82933928  1
  Ca2+  Ca15  1  0.08711654  0.82567186  0.16409639  1
  Ca2+  Ca16  1  0.09227587  0.81992977  0.49895072  1
  Ca2+  Ca17  1  0.09202846  0.82840937  0.82469236  1
  Ca2+  Ca18  1  0.57117823  0.33367463  0.16501072  1
  Ca2+  Ca19  1  0.57798495  0.32962785  0.49836337  1
  Ca2+  Ca20  1  0.57118751  0.33429559  0.82057630  1
  Ca2+  Ca21  1  0.58354526  0.83203066  0.16036802  1
  Ca2+  Ca22  1  0.57855219  0.82934318  0.50101653  1
  Ca2+  Ca23  1  0.58032261  0.82932754  0.82459418  1
  Ca2+  Ca24  1  0.32545915  0.41301279  0.17409958  1
  Ca2+  Ca25  1  0.32492656  0.41066265  0.50403652  1
  Ca2+  Ca26  1  0.32344498  0.40661411  0.83646294  1
  Ca2+  Ca27  1  0.32759913  0.92206946  0.16910632  1
  Ca2+  Ca28  1  0.33008463  0.91961733  0.50915976  1
  Ca2+  Ca29  1  0.32705344  0.91523786  0.83445709  1
  Ca2+  Ca30  1  0.83914101  0.41683831  0.17381758  1
  Ca2+  Ca31  1  0.83433511  0.41485906  0.50704917  1
  Ca2+  Ca32  1  0.83006647  0.40939365  0.83156707  1
  Ca2+  Ca33  1  0.82695961  0.91872779  0.17005601  1
  Ca2+  Ca34  1  0.83208044  0.92889825  0.50859094  1
  Ca2+  Ca35  1  0.82883951  0.92749151  0.83733032  1
  Ca2+  Ca36  1  0.41528142  0.17951413  0.16714455  1
  Ca2+  Ca37  1  0.42488007  0.17771144  0.49618916  1
  Ca2+  Ca38  1  0.42156743  0.17627409  0.82772800  1
  Ca2+  Ca39  1  0.41315991  0.66306422  0.16660932  1
  Ca2+  Ca40  1  0.41429800  0.66835494  0.50022489  1
  Ca2+  Ca41  1  0.42200750  0.67435786  0.82128072  1
  Ca2+  Ca42  1  0.92784807  0.17990490  0.16391182  1
  Ca2+  Ca43  1  0.91895003  0.17658957  0.49635683  1
  Ca2+  Ca44  1  0.91965058  0.17389366  0.82977562  1
  Ca2+  Ca45  1  0.92409824  0.65840998  0.16833888  1
  Ca2+  Ca46  1  0.92901323  0.66092697  0.49556295  1
  Ca2+  Ca47  1  0.92501564  0.67151483  0.82568771  1
  Al0+  Al48  1  -0.00231022  -0.00096394  0.00373460  1
  Al0+  Al49  1  -0.00448944  -0.00126623  0.33187432  1
  Al0+  Al50  1  -0.00183321  0.00008094  0.67751728  1
  Al0+  Al51  1  0.00071455  0.50151865  -0.00171501  1
  Al0+  Al52  1  0.00083502  0.50244240  0.33270595  1
  Al0+  Al53  1  0.00090848  0.50154336  0.66466834  1
  Al0+  Al54  1  0.49955389  -0.00082840  0.00401337  1
  Al0+  Al55  1  0.49754517  -0.00273356  0.33102303  1
  Al0+  Al56  1  0.50030017  -0.00033700  0.66086884  1
  Al0+  Al57  1  0.50119364  0.50086565  -0.00302396  1
  Al0+  Al58  1  0.50090003  0.50261453  0.33266839  1
  Al0+  Al59  1  0.50020777  0.50182450  0.66234896  1
  Al0+  Al60  1  0.25016079  0.24745983  -0.00378123  1
  Al0+  Al61  1  0.25081857  0.24545973  0.33223955  1
  Al0+  Al62  1  0.24923094  0.24753223  0.66923797  1
  Al0+  Al63  1  0.25150978  0.75131910  0.00361852  1
  Al0+  Al64  1  0.24967322  0.74938424  0.33056002  1
  Al0+  Al65  1  0.25060386  0.74952225  0.66288437  1
  Al0+  Al66  1  0.75066514  0.25067360  0.00099684  1
  Al0+  Al67  1  0.75001468  0.24737517  0.32370360  1
  Al0+  Al68  1  0.75156746  0.25270563  0.67066718  1
  Al0+  Al69  1  0.75073327  0.74998417  0.00354073  1
  Al0+  Al70  1  0.74878329  0.74997346  0.33908290  1
  Al0+  Al71  1  0.75192331  0.75147593  0.66292833  1
  Al0+  Al72  1  0.57418114  0.67790418  0.64997421  1
  Al0+  Al73  1  0.57120799  0.17726982  0.31706477  1
  Al0+  Al74  1  0.07067742  0.17675466  0.98298232  1
  Al0+  Al75  1  0.42882771  0.32343046  0.31856030  1
  Al0+  Al76  1  0.07034713  0.68039434  0.65330794  1
  Al0+  Al77  1  0.17978484  0.42927157  0.01251787  1
  Al0+  Al78  1  0.42906991  0.82105400  0.65123323  1
  Al0+  Al79  1  0.93170066  0.32012245  0.65352738  1
  Al0+  Al80  1  0.93132492  0.32252726  0.31919757  1
  Al0+  Al81  1  0.81989357  0.07332710  0.68154548  1
  Al0+  Al82  1  0.82156996  0.57032789  0.34805863  1
  Al0+  Al83  1  0.17800229  0.92828885  0.01624529  1
  Al0+  Al84  1  0.92948570  0.32411344  0.98198602  1
  Al0+  Al85  1  0.42462808  0.32215455  0.65123598  1
  Al0+  Al86  1  0.42980104  0.32212537  0.98501472  1
  Al0+  Al87  1  0.07155012  0.17510918  0.32125387  1
  Al0+  Al88  1  0.18090341  0.92882999  0.67919454  1
  Al0+  Al89  1  0.67972830  0.92970082  0.01320678  1
  Al0+  Al90  1  0.07105588  0.68083265  0.31774302  1
  Al0+  Al91  1  0.67916645  0.43155172  0.67921105  1
  Al0+  Al92  1  0.32260435  0.57250950  0.34931444  1
  Al0+  Al93  1  0.18067933  0.42566966  0.34788893  1
  Al0+  Al94  1  0.17841770  0.42759252  0.68086302  1
  Al0+  Al95  1  0.57229371  0.18114699  0.65480557  1
  Si0+  Si96  1  0.32139955  0.57169136  0.68272076  1
  Si0+  Si97  1  0.82332892  0.57385695  0.68403261  1
  Si0+  Si98  1  0.81783836  0.06941780  0.34798956  1
  Si0+  Si99  1  0.07226995  0.68178858  0.98471927  1
  Si0+  Si100  1  0.32263972  0.06877267  0.34935242  1
  Si0+  Si101  1  0.32387119  0.57234211  0.01430719  1
  Si0+  Si102  1  0.92539228  0.82152902  0.31675910  1
  Si0+  Si103  1  0.57323395  0.68080762  0.31665812  1
  Si0+  Si104  1  0.67913208  0.42616030  0.34778676  1
  Si0+  Si105  1  0.17738678  0.93010570  0.34748020  1
  Si0+  Si106  1  0.67579286  0.92841963  0.35086668  1
  Si0+  Si107  1  0.67747705  0.92733657  0.68191441  1
  Si0+  Si108  1  0.07097292  0.17464569  0.65309513  1
  Si0+  Si109  1  0.92685566  0.81970399  0.98639410  1
  Si0+  Si110  1  0.42948573  0.82128432  0.98604561  1
  Si0+  Si111  1  0.57298150  0.68050539  0.98622181  1
  Si0+  Si112  1  0.42878839  0.81955369  0.31506877  1
  Si0+  Si113  1  0.81991985  0.57119206  0.01373676  1
  Si0+  Si114  1  0.67716670  0.42928927  0.01501326  1
  Si0+  Si115  1  0.32442724  0.07134218  0.68386655  1
  Si0+  Si116  1  0.92826780  0.82522678  0.65112097  1
  Si0+  Si117  1  0.32209339  0.07066415  0.01803251  1
  Si0+  Si118  1  0.57078942  0.17651194  0.98418910  1
  Si0+  Si119  1  0.82119602  0.07383637  0.02131151  1
  O2-  O120  1  0.24846525  0.00663600  0.06303598  1
  O2-  O121  1  0.24473616  0.00387316  0.38996593  1
  O2-  O122  1  0.25407598  0.00376096  0.72785292  1
  O2-  O123  1  0.25767302  0.50158573  0.05782238  1
  O2-  O124  1  0.25542349  0.49570331  0.39802356  1
  O2-  O125  1  0.25786036  0.49867623  0.72752998  1
  O2-  O126  1  0.74969782  0.00640723  0.06404207  1
  O2-  O127  1  0.74311481  0.00269378  0.39209815  1
  O2-  O128  1  0.74337348  -0.00172402  0.72625394  1
  O2-  O129  1  0.75307749  0.49591589  0.05601972  1
  O2-  O130  1  0.75110701  0.49113339  0.39246454  1
  O2-  O131  1  0.75139221  0.50888660  0.72841886  1
  O2-  O132  1  0.00873833  0.25508729  0.27089616  1
  O2-  O133  1  0.00876094  0.24787126  0.60764907  1
  O2-  O134  1  0.00167576  0.25161892  0.93288290  1
  O2-  O135  1  -0.00639678  0.75336590  0.27097392  1
  O2-  O136  1  -0.00381649  0.75641870  0.60701571  1
  O2-  O137  1  0.00370346  0.75577333  0.94301690  1
  O2-  O138  1  0.50177311  0.25185207  0.26796709  1
  O2-  O139  1  0.49939357  0.25134383  0.60429883  1
  O2-  O140  1  0.50686352  0.24877456  0.93984453  1
  O2-  O141  1  0.49935430  0.74802502  0.27251107  1
  O2-  O142  1  0.50127447  0.74946768  0.60066625  1
  O2-  O143  1  0.50017660  0.74983288  0.94470468  1
  O2-  O144  1  0.06685127  0.17726039  0.09643883  1
  O2-  O145  1  0.06435957  0.16682278  0.43437711  1
  O2-  O146  1  0.06767648  0.17222624  0.75838921  1
  O2-  O147  1  0.07053687  0.68162051  0.08969659  1
  O2-  O148  1  0.07169019  0.68368676  0.43049261  1
  O2-  O149  1  0.06886866  0.68196876  0.76723813  1
  O2-  O150  1  0.56720160  0.17522849  0.08966015  1
  O2-  O151  1  0.57078561  0.17637782  0.43013874  1
  O2-  O152  1  0.57069619  0.18152037  0.76881251  1
  O2-  O153  1  0.57403846  0.68135086  0.09149509  1
  O2-  O154  1  0.57636856  0.68524924  0.42087831  1
  O2-  O155  1  0.57300939  0.68131041  0.76470380  1
  O2-  O156  1  0.18055168  0.42847115  0.23374821  1
  O2-  O157  1  0.17587799  0.42942125  0.56837692  1
  O2-  O158  1  0.17806980  0.43415080  0.89941240  1
  O2-  O159  1  0.17947368  0.92972615  0.24216297  1
  O2-  O160  1  0.18051206  0.93030131  0.56566480  1
  O2-  O161  1  0.18271201  0.92379450  0.90348174  1
  O2-  O162  1  0.67859255  0.43117264  0.24144601  1
  O2-  O163  1  0.68281123  0.43038055  0.56625631  1
  O2-  O164  1  0.67372772  0.43281683  0.91023906  1
  O2-  O165  1  0.67727904  0.92633229  0.24537762  1
  O2-  O166  1  0.68024277  0.92583994  0.57625422  1
  O2-  O167  1  0.68223424  0.92706761  0.90063959  1
  O2-  O168  1  0.43199690  0.32370251  0.09790734  1
  O2-  O169  1  0.43013399  0.32089547  0.43152398  1
  O2-  O170  1  0.42638347  0.31953024  0.76524959  1
  O2-  O171  1  0.42985309  0.82022810  0.09135124  1
  O2-  O172  1  0.42954157  0.82166419  0.41957962  1
  O2-  O173  1  0.42939668  0.81954254  0.76559868  1
  O2-  O174  1  0.93013136  0.32580910  0.09537068  1
  O2-  O175  1  0.92791106  0.31907467  0.43265988  1
  O2-  O176  1  0.93129816  0.31932016  0.76644162  1
  O2-  O177  1  0.92398628  0.81536469  0.09138855  1
  O2-  O178  1  0.92643902  0.82416461  0.42198430  1
  O2-  O179  1  0.92707521  0.82332017  0.75720243  1
  O2-  O180  1  0.32775673  0.06371830  0.24441398  1
  O2-  O181  1  0.32368954  0.06948753  0.57812773  1
  O2-  O182  1  0.32687708  0.06490652  0.91282027  1
  O2-  O183  1  0.31891594  0.57474069  0.23508001  1
  O2-  O184  1  0.31763058  0.57445382  0.57762554  1
  O2-  O185  1  0.32392372  0.57718882  0.90912219  1
  O2-  O186  1  0.81786635  0.06397086  0.24317554  1
  O2-  O187  1  0.82085515  0.07103630  0.56803253  1
  O2-  O188  1  0.82037687  0.07221849  0.91565267  1
  O2-  O189  1  0.81780681  0.57329217  0.23408765  1
  O2-  O190  1  0.82400378  0.57212114  0.57863871  1
  O2-  O191  1  0.81740514  0.57680154  0.90912899  1
  O2-  O192  1  0.03376716  0.07999461  0.26489785  1
  O2-  O193  1  0.03959600  0.08207511  0.60796886  1
  O2-  O194  1  0.03910795  0.07669324  0.93324561  1
  O2-  O195  1  0.03960154  0.58558585  0.26233564  1
  O2-  O196  1  0.03715095  0.58623595  0.59772939  1
  O2-  O197  1  0.04065536  0.59206176  0.93645557  1
  O2-  O198  1  0.53927447  0.07827310  0.26541959  1
  O2-  O199  1  0.54970004  0.08153677  0.60205420  1
  O2-  O200  1  0.54253819  0.08312067  0.93866799  1
  O2-  O201  1  0.55033018  0.58823283  0.26856018  1
  O2-  O202  1  0.54799909  0.58064408  0.59581827  1
  O2-  O203  1  0.54674973  0.58909326  0.93786636  1
  O2-  O204  1  0.17411370  0.18788685  0.27208469  1
  O2-  O205  1  0.16739916  0.19159558  0.61076941  1
  O2-  O206  1  0.17191292  0.19513562  0.93306368  1
  O2-  O207  1  0.16555078  0.71546151  0.26157589  1
  O2-  O208  1  0.16510212  0.71215985  0.59815638  1
  O2-  O209  1  0.16514790  0.70921720  0.93952456  1
  O2-  O210  1  0.66912526  0.19988373  0.26053074  1
  O2-  O211  1  0.66972621  0.21230360  0.60265461  1
  O2-  O212  1  0.66728227  0.19739905  0.94323276  1
  O2-  O213  1  0.66355867  0.71359960  0.26798173  1
  O2-  O214  1  0.67274425  0.70667934  0.59709854  1
  O2-  O215  1  0.66373568  0.71070511  0.93879383  1
  O2-  O216  1  0.08406403  0.46521035  0.06592613  1
  O2-  O217  1  0.08319106  0.46035338  0.39850407  1
  O2-  O218  1  0.08391328  0.46642181  0.73509595  1
  O2-  O219  1  0.07875639  0.95188201  0.06885779  1
  O2-  O220  1  0.08336755  0.95279356  0.39269654  1
  O2-  O221  1  0.08448276  0.95552119  0.73615918  1
  O2-  O222  1  0.58797899  0.46323592  0.06456599  1
  O2-  O223  1  0.58725118  0.45639793  0.39358074  1
  O2-  O224  1  0.58187381  0.46265103  0.73378222  1
  O2-  O225  1  0.58221514  0.95600797  0.06913526  1
  O2-  O226  1  0.58178210  0.95125620  0.39534854  1
  O2-  O227  1  0.58204371  0.94862924  0.72571716  1
  O2-  O228  1  0.20699546  0.33008430  0.06235590  1
  O2-  O229  1  0.20302258  0.32453078  0.39852618  1
  O2-  O230  1  0.20419830  0.32918204  0.73470146  1
  O2-  O231  1  0.21392617  0.83349417  0.07218363  1
  O2-  O232  1  0.21032672  0.83943315  0.39300860  1
  O2-  O233  1  0.21389708  0.83237607  0.73301595  1
  O2-  O234  1  0.69919138  0.33562986  0.06102858  1
  O2-  O235  1  0.70088390  0.32972676  0.38835599  1
  O2-  O236  1  0.71214982  0.33799157  0.73727224  1
  O2-  O237  1  0.71353297  0.83416625  0.06999511  1
  O2-  O238  1  0.70655773  0.83861888  0.39972068  1
  O2-  O239  1  0.70606015  0.83443759  0.72880773  1
  O2-  O240  1  0.45668365  0.42267871  0.26552280  1
  O2-  O241  1  0.45017955  0.42139627  0.60117881  1
  O2-  O242  1  0.46031424  0.41931578  0.93128101  1
  O2-  O243  1  0.45837811  0.90968236  0.26534572  1
  O2-  O244  1  0.45601317  0.91832910  0.59548598  1
  O2-  O245  1  0.45803726  0.91261514  0.93915974  1
  O2-  O246  1  0.95389147  0.42244633  0.26724169  1
  O2-  O247  1  0.95898276  0.41771296  0.60092250  1
  O2-  O248  1  0.95635381  0.42363364  0.92957655  1
  O2-  O249  1  0.95072825  0.91377441  0.26796354  1
  O2-  O250  1  0.95450295  0.91923555  0.60705686  1
  O2-  O251  1  0.94694408  0.91421469  0.94239245  1
  O2-  O252  1  0.33191717  0.28979503  0.26525762  1
  O2-  O253  1  0.32697897  0.29002502  0.59911383  1
  O2-  O254  1  0.33441894  0.28909660  0.93135300  1
  O2-  O255  1  0.33742969  0.79251556  0.26635438  1
  O2-  O256  1  0.33234201  0.79151154  0.59619692  1
  O2-  O257  1  0.33764423  0.79327113  0.93883628  1
  O2-  O258  1  0.83492867  0.29052881  0.26323207  1
  O2-  O259  1  0.83556575  0.28798391  0.60123389  1
  O2-  O260  1  0.82839106  0.29579787  0.93336751  1
  O2-  O261  1  0.83081694  0.79568015  0.27213764  1
  O2-  O262  1  0.83506397  0.80289210  0.60325494  1
  O2-  O263  1  0.83806456  0.78546277  0.93677240  1
  O2-  O264  1  0.41241751  0.03821650  0.06784492  1
  O2-  O265  1  0.41081298  0.03187483  0.39857450  1
  O2-  O266  1  0.41760714  0.04285511  0.72987622  1
  O2-  O267  1  0.41906783  0.55005125  0.05990853  1
  O2-  O268  1  0.42529546  0.55516639  0.39771358  1
  O2-  O269  1  0.41794128  0.55445038  0.72594421  1
  O2-  O270  1  0.91242828  0.04291318  0.06839464  1
  O2-  O271  1  0.90740516  0.03645307  0.39716760  1
  O2-  O272  1  0.91246245  0.03867426  0.74138695  1
  O2-  O273  1  0.91309086  0.54673898  0.06012419  1
  O2-  O274  1  0.91944782  0.54590428  0.40070047  1
  O2-  O275  1  0.91530465  0.54555528  0.73160256  1
  O2-  O276  1  0.30119976  0.16570671  0.06203115  1
  O2-  O277  1  0.30301294  0.16188181  0.39610557  1
  O2-  O278  1  0.30068733  0.16436729  0.73127141  1
  O2-  O279  1  0.29749239  0.66514361  0.06256346  1
  O2-  O280  1  0.29015965  0.67105568  0.40053691  1
  O2-  O281  1  0.29090606  0.66373504  0.73036937  1
  O2-  O282  1  0.79803122  0.16830816  0.06656789  1
  O2-  O283  1  0.79305940  0.16314551  0.39248783  1
  O2-  O284  1  0.78831097  0.16735306  0.73913496  1
  O2-  O285  1  0.78801315  0.65996687  0.06529210  1
  O2-  O286  1  0.78745688  0.66577707  0.40285193  1
  O2-  O287  1  0.80192719  0.67012384  0.72770395  1
