# generated using pymatgen
data_Ca2Al2SiO7
_symmetry_space_group_name_H-M   'P 1'
_cell_length_a   15.45503503
_cell_length_b   15.45525844
_cell_length_c   15.28200333
_cell_angle_alpha   90.00253842
_cell_angle_beta   89.99912767
_cell_angle_gamma   89.98552159
_symmetry_Int_Tables_number   1
_chemical_formula_structural   Ca2Al2SiO7
_chemical_formula_sum   'Ca48 Al48 Si24 O168'
_cell_volume   3650.28304202
_cell_formula_units_Z   24
loop_
 _symmetry_equiv_pos_site_id
 _symmetry_equiv_pos_as_xyz
  1  'x, y, z'
loop_
 _atom_type_symbol
 _atom_type_oxidation_number
  Ca2+  2.0
  Al0+  0.0
  Si0+  0.0
  O2-  -2.0
loop_
 _atom_site_type_symbol
 _atom_site_label
 _atom_site_symmetry_multiplicity
 _atom_site_fract_x
 _atom_site_fract_y
 _atom_site_fract_z
 _atom_site_occupancy
  Ca2+  Ca0  1  0.17467779  0.08643208  0.17618487  1
  Ca2+  Ca1  1  0.16932523  0.08234502  0.50356352  1
  Ca2+  Ca2  1  0.16729866  0.07525555  0.83391738  1
  Ca2+  Ca3  1  0.16023993  0.58037642  0.17300177  1
  Ca2+  Ca4  1  0.16814017  0.58170265  0.50331672  1
  Ca2+  Ca5  1  0.17370270  0.58824985  0.83828756  1
  Ca2+  Ca6  1  0.66872581  0.07304887  0.17416263  1
  Ca2+  Ca7  1  0.67760894  0.07842930  0.50417794  1
  Ca2+  Ca8  1  0.66646280  0.08305555  0.83910358  1
  Ca2+  Ca9  1  0.67141978  0.57887262  0.17520224  1
  Ca2+  Ca10  1  0.66848073  0.58192109  0.50059315  1
  Ca2+  Ca11  1  0.66244405  0.58752254  0.83751489  1
  Ca2+  Ca12  1  0.08011149  0.33032372  0.16568180  1
  Ca2+  Ca13  1  0.08524822  0.32778667  0.48973982  1
  Ca2+  Ca14  1  0.07553184  0.33264685  0.83424262  1
  Ca2+  Ca15  1  0.06999805  0.82346495  0.16195549  1
  Ca2+  Ca16  1  0.07454476  0.83432810  0.49254827  1
  Ca2+  Ca17  1  0.07525563  0.83601035  0.82823062  1
  Ca2+  Ca18  1  0.58140803  0.32733702  0.15850738  1
  Ca2+  Ca19  1  0.58070883  0.33055766  0.49951366  1
  Ca2+  Ca20  1  0.57634037  0.32330240  0.82674178  1
  Ca2+  Ca21  1  0.58368924  0.83442004  0.15735964  1
  Ca2+  Ca22  1  0.58837078  0.82952776  0.49691797  1
  Ca2+  Ca23  1  0.58479674  0.82656158  0.83430740  1
  Ca2+  Ca24  1  0.32836532  0.41636836  0.17321326  1
  Ca2+  Ca25  1  0.32792889  0.41931109  0.50638644  1
  Ca2+  Ca26  1  0.34327096  0.41878528  0.83385046  1
  Ca2+  Ca27  1  0.33666638  0.92270262  0.17213274  1
  Ca2+  Ca28  1  0.32481726  0.92210783  0.50393570  1
  Ca2+  Ca29  1  0.32817710  0.90911811  0.83835038  1
  Ca2+  Ca30  1  0.82956093  0.42173264  0.17592236  1
  Ca2+  Ca31  1  0.82987790  0.42319571  0.49879829  1
  Ca2+  Ca32  1  0.83259399  0.41833221  0.84117899  1
  Ca2+  Ca33  1  0.82449240  0.91166437  0.17205385  1
  Ca2+  Ca34  1  0.83968505  0.92294763  0.50294922  1
  Ca2+  Ca35  1  0.83198746  0.91927612  0.83800835  1
  Ca2+  Ca36  1  0.42209917  0.17067972  0.15791059  1
  Ca2+  Ca37  1  0.41840512  0.16733706  0.49647319  1
  Ca2+  Ca38  1  0.42929111  0.17352036  0.82910869  1
  Ca2+  Ca39  1  0.42552101  0.67528854  0.15687385  1
  Ca2+  Ca40  1  0.41943336  0.66187870  0.50232311  1
  Ca2+  Ca41  1  0.42620462  0.66714892  0.82958585  1
  Ca2+  Ca42  1  0.91693307  0.16851534  0.16759564  1
  Ca2+  Ca43  1  0.92076483  0.15929084  0.49267427  1
  Ca2+  Ca44  1  0.90945146  0.17146434  0.82905966  1
  Ca2+  Ca45  1  0.91942877  0.67112877  0.16432943  1
  Ca2+  Ca46  1  0.91783982  0.67891968  0.48895380  1
  Ca2+  Ca47  1  0.91908157  0.68171921  0.83131789  1
  Al0+  Al48  1  0.00124953  0.00038539  0.00059881  1
  Al0+  Al49  1  0.00049055  -0.00048782  0.32351038  1
  Al0+  Al50  1  -0.00109588  0.00145214  0.67318288  1
  Al0+  Al51  1  0.00161834  0.49896881  -0.00754774  1
  Al0+  Al52  1  0.00004039  0.49929336  0.34032290  1
  Al0+  Al53  1  -0.00070225  0.50062822  0.66848096  1
  Al0+  Al54  1  0.49969167  -0.00026784  -0.00455753  1
  Al0+  Al55  1  0.50036626  0.00064978  0.34306281  1
  Al0+  Al56  1  0.50062562  -0.00053102  0.66306679  1
  Al0+  Al57  1  0.49963449  0.50031387  -0.00223144  1
  Al0+  Al58  1  0.49866678  0.49942306  0.33553440  1
  Al0+  Al59  1  0.49882295  0.49955532  0.66254591  1
  Al0+  Al60  1  0.24894332  0.25089099  -0.00460515  1
  Al0+  Al61  1  0.25027096  0.25133968  0.33733972  1
  Al0+  Al62  1  0.24871373  0.25014576  0.66704202  1
  Al0+  Al63  1  0.25028001  0.74902398  -0.00096033  1
  Al0+  Al64  1  0.25122981  0.75043295  0.32915939  1
  Al0+  Al65  1  0.25029727  0.74802242  0.67523276  1
  Al0+  Al66  1  0.75182587  0.25043309  -0.00512088  1
  Al0+  Al67  1  0.74847398  0.24857451  0.34046662  1
  Al0+  Al68  1  0.74932714  0.25090060  0.66584955  1
  Al0+  Al69  1  0.75206727  0.75076085  -0.00264589  1
  Al0+  Al70  1  0.74848497  0.74839886  0.33610052  1
  Al0+  Al71  1  0.75066000  0.75079408  0.65844070  1
  Al0+  Al72  1  0.82136254  0.57069294  0.34835573  1
  Al0+  Al73  1  0.81933785  0.07099783  0.68243295  1
  Al0+  Al74  1  0.93006017  0.31966096  0.98843173  1
  Al0+  Al75  1  0.07242127  0.17926637  0.32050096  1
  Al0+  Al76  1  0.57265200  0.67898099  0.98770555  1
  Al0+  Al77  1  0.42873300  0.82257063  0.98603447  1
  Al0+  Al78  1  0.92651241  0.82166051  0.31627121  1
  Al0+  Al79  1  0.68018753  0.93019023  0.01154434  1
  Al0+  Al80  1  0.17933719  0.43028888  0.34588064  1
  Al0+  Al81  1  0.07261665  0.67713060  0.32015337  1
  Al0+  Al82  1  0.07093716  0.67749973  0.98354441  1
  Al0+  Al83  1  0.42854103  0.31971875  0.64846360  1
  Al0+  Al84  1  0.32084728  0.07208956  0.34636671  1
  Al0+  Al85  1  0.18000320  0.93057623  0.67980064  1
  Al0+  Al86  1  0.57290122  0.17683670  0.64740786  1
  Al0+  Al87  1  0.57220857  0.17810104  0.98732172  1
  Al0+  Al88  1  0.42699747  0.32159991  0.98635608  1
  Al0+  Al89  1  0.82305928  0.06942614  0.34655491  1
  Al0+  Al90  1  0.93174548  0.82222829  0.65158600  1
  Al0+  Al91  1  0.32043071  0.56803001  0.68232375  1
  Al0+  Al92  1  0.67813346  0.92734677  0.34983681  1
  Al0+  Al93  1  0.67584648  0.42727805  0.34860969  1
  Al0+  Al94  1  0.92900207  0.82237311  0.98374916  1
  Al0+  Al95  1  0.56996738  0.68047573  0.65045977  1
  Si0+  Si96  1  0.92814231  0.32394322  0.65024539  1
  Si0+  Si97  1  0.42924066  0.32080213  0.31844030  1
  Si0+  Si98  1  0.07355762  0.17756790  0.98240949  1
  Si0+  Si99  1  0.06813089  0.18050276  0.65342959  1
  Si0+  Si100  1  0.32211406  0.57419805  0.34857237  1
  Si0+  Si101  1  0.68011393  0.43142214  0.68305832  1
  Si0+  Si102  1  0.32198841  0.57067734  0.01673715  1
  Si0+  Si103  1  0.32344632  0.07331521  0.68516390  1
  Si0+  Si104  1  0.67903236  0.42833595  0.01258208  1
  Si0+  Si105  1  0.82116225  0.57286603  0.68314553  1
  Si0+  Si106  1  0.43001826  0.82309859  0.32049727  1
  Si0+  Si107  1  0.17560766  0.42580211  0.68674058  1
  Si0+  Si108  1  0.07332147  0.67781447  0.65043130  1
  Si0+  Si109  1  0.31877023  0.07118640  0.01283614  1
  Si0+  Si110  1  0.56904202  0.67764331  0.31868091  1
  Si0+  Si111  1  0.82213830  0.56969398  0.01231551  1
  Si0+  Si112  1  0.17807476  0.92736805  0.01790056  1
  Si0+  Si113  1  0.57087800  0.17839891  0.31944788  1
  Si0+  Si114  1  0.82351326  0.07495854  0.01772639  1
  Si0+  Si115  1  0.17934592  0.92748856  0.34578126  1
  Si0+  Si116  1  0.67762725  0.92599579  0.68413515  1
  Si0+  Si117  1  0.17836884  0.42894100  0.01492781  1
  Si0+  Si118  1  0.92632454  0.32122228  0.32009087  1
  Si0+  Si119  1  0.42437374  0.82132506  0.64914689  1
  O2-  O120  1  0.24933943  -0.00035066  0.05799595  1
  O2-  O121  1  0.24454194  -0.00157318  0.39184667  1
  O2-  O122  1  0.25881474  0.00069025  0.72923232  1
  O2-  O123  1  0.25030019  0.49920982  0.05751335  1
  O2-  O124  1  0.25003210  0.50871581  0.39193028  1
  O2-  O125  1  0.24502246  0.49383750  0.73036130  1
  O2-  O126  1  0.75489813  0.00500804  0.05944669  1
  O2-  O127  1  0.75466521  -0.00474277  0.39842704  1
  O2-  O128  1  0.74210773  -0.00136899  0.72849541  1
  O2-  O129  1  0.74926083  0.50011009  0.05463271  1
  O2-  O130  1  0.74811658  0.49931346  0.39846264  1
  O2-  O131  1  0.75075081  0.50208037  0.72720122  1
  O2-  O132  1  -0.00511660  0.25234376  0.27545569  1
  O2-  O133  1  0.00049090  0.25393493  0.60984973  1
  O2-  O134  1  -0.00014825  0.24143647  0.93933723  1
  O2-  O135  1  -0.00168437  0.74660719  0.27024276  1
  O2-  O136  1  0.00577346  0.74647700  0.60550792  1
  O2-  O137  1  0.00392384  0.75349943  0.93319975  1
  O2-  O138  1  0.50131147  0.25090835  0.27629859  1
  O2-  O139  1  0.49704346  0.24524617  0.59729873  1
  O2-  O140  1  0.50152133  0.25191677  0.93806490  1
  O2-  O141  1  0.50113369  0.75216978  0.27803251  1
  O2-  O142  1  0.49631169  0.75673979  0.60358713  1
  O2-  O143  1  0.50060685  0.75037440  0.93694719  1
  O2-  O144  1  0.07844344  0.18074813  0.08777005  1
  O2-  O145  1  0.07358848  0.18100952  0.43396993  1
  O2-  O146  1  0.06691335  0.18184053  0.75877931  1
  O2-  O147  1  0.06760824  0.67496463  0.09696746  1
  O2-  O148  1  0.07566416  0.68120184  0.43380294  1
  O2-  O149  1  0.07075647  0.67782408  0.75597954  1
  O2-  O150  1  0.57036596  0.17937927  0.10161605  1
  O2-  O151  1  0.56867390  0.17914031  0.42404096  1
  O2-  O152  1  0.57331592  0.18045406  0.76118686  1
  O2-  O153  1  0.57052543  0.67692593  0.10162106  1
  O2-  O154  1  0.56587861  0.67577533  0.42374406  1
  O2-  O155  1  0.56991024  0.68060621  0.76341039  1
  O2-  O156  1  0.18229360  0.42785127  0.23231825  1
  O2-  O157  1  0.17422215  0.42568621  0.58118043  1
  O2-  O158  1  0.17739810  0.42865619  0.90998767  1
  O2-  O159  1  0.18454943  0.92765349  0.24017910  1
  O2-  O160  1  0.18023640  0.93414969  0.56644263  1
  O2-  O161  1  0.17782803  0.92918723  0.91257117  1
  O2-  O162  1  0.67504264  0.42828878  0.23412687  1
  O2-  O163  1  0.68233598  0.43241145  0.57812843  1
  O2-  O164  1  0.68060621  0.42830846  0.90738379  1
  O2-  O165  1  0.67372237  0.93021377  0.23592428  1
  O2-  O166  1  0.68070361  0.92548986  0.57871972  1
  O2-  O167  1  0.68141479  0.93041032  0.89856294  1
  O2-  O168  1  0.42551301  0.31968375  0.10061574  1
  O2-  O169  1  0.42854910  0.32062286  0.42307868  1
  O2-  O170  1  0.43228724  0.31927274  0.76205242  1
  O2-  O171  1  0.42930677  0.82237469  0.10040602  1
  O2-  O172  1  0.42708838  0.82144787  0.42541854  1
  O2-  O173  1  0.42385572  0.81867865  0.75451356  1
  O2-  O174  1  0.93167111  0.32203293  0.10140167  1
  O2-  O175  1  0.92850060  0.32096758  0.42586467  1
  O2-  O176  1  0.92871782  0.32431491  0.75572309  1
  O2-  O177  1  0.92759694  0.81895475  0.09678129  1
  O2-  O178  1  0.93148524  0.82348559  0.43012955  1
  O2-  O179  1  0.93184857  0.82160072  0.76460830  1
  O2-  O180  1  0.32255484  0.07157570  0.23260197  1
  O2-  O181  1  0.31909213  0.07444220  0.57942014  1
  O2-  O182  1  0.31506683  0.07148853  0.90795124  1
  O2-  O183  1  0.32590407  0.57174188  0.24297229  1
  O2-  O184  1  0.31727666  0.56765646  0.56880865  1
  O2-  O185  1  0.32278195  0.56957577  0.91183601  1
  O2-  O186  1  0.81806040  0.07392983  0.23313097  1
  O2-  O187  1  0.82404704  0.06895308  0.56982050  1
  O2-  O188  1  0.82271185  0.07606359  0.91198780  1
  O2-  O189  1  0.81973846  0.56810609  0.23386771  1
  O2-  O190  1  0.82188190  0.57009377  0.57846917  1
  O2-  O191  1  0.82116831  0.56739496  0.90680887  1
  O2-  O192  1  0.04724311  0.08398303  0.26183862  1
  O2-  O193  1  0.03776504  0.08978938  0.60666868  1
  O2-  O194  1  0.05307366  0.08233644  0.93861406  1
  O2-  O195  1  0.04579862  0.57638813  0.27062326  1
  O2-  O196  1  0.04772236  0.58283509  0.60656038  1
  O2-  O197  1  0.04296229  0.58090063  0.92732886  1
  O2-  O198  1  0.53991032  0.08631376  0.27425244  1
  O2-  O199  1  0.54905397  0.07633845  0.59651279  1
  O2-  O200  1  0.54110782  0.08293000  0.93105645  1
  O2-  O201  1  0.53823994  0.58670329  0.27050553  1
  O2-  O202  1  0.53647402  0.58501684  0.59643020  1
  O2-  O203  1  0.54356879  0.58144453  0.93344056  1
  O2-  O204  1  0.16808893  0.21487464  0.26623012  1
  O2-  O205  1  0.16137154  0.20431965  0.60693957  1
  O2-  O206  1  0.16320825  0.20846930  0.93155812  1
  O2-  O207  1  0.17107400  0.70471327  0.26488347  1
  O2-  O208  1  0.16863389  0.70114155  0.60815009  1
  O2-  O209  1  0.17118806  0.70263563  0.93418980  1
  O2-  O210  1  0.66339763  0.20504113  0.27318981  1
  O2-  O211  1  0.67020619  0.21137249  0.59559487  1
  O2-  O212  1  0.66984665  0.20539203  0.93321136  1
  O2-  O213  1  0.66234591  0.70044203  0.27309048  1
  O2-  O214  1  0.66623977  0.70885677  0.59471214  1
  O2-  O215  1  0.67007982  0.70564414  0.93306476  1
  O2-  O216  1  0.08649423  0.45798230  0.06193052  1
  O2-  O217  1  0.08315300  0.45361720  0.40372419  1
  O2-  O218  1  0.08137332  0.45222400  0.73245980  1
  O2-  O219  1  0.08640383  0.95538777  0.06533395  1
  O2-  O220  1  0.08434433  0.95117127  0.38795677  1
  O2-  O221  1  0.08737526  0.96779412  0.73791723  1
  O2-  O222  1  0.58663172  0.45435223  0.06017715  1
  O2-  O223  1  0.57841152  0.45778371  0.40268993  1
  O2-  O224  1  0.58774025  0.45958524  0.72811002  1
  O2-  O225  1  0.58149305  0.95890917  0.06428879  1
  O2-  O226  1  0.58255091  0.95844493  0.40704766  1
  O2-  O227  1  0.58065328  0.94567744  0.72612003  1
  O2-  O228  1  0.20522437  0.33597815  0.06134042  1
  O2-  O229  1  0.21441340  0.33686580  0.40346616  1
  O2-  O230  1  0.19916701  0.33137401  0.73252394  1
  O2-  O231  1  0.20637068  0.83537286  0.06432556  1
  O2-  O232  1  0.20815364  0.83544796  0.39369661  1
  O2-  O233  1  0.20662662  0.83373289  0.73577502  1
  O2-  O234  1  0.70836038  0.33675650  0.05994791  1
  O2-  O235  1  0.70322176  0.33039309  0.40402831  1
  O2-  O236  1  0.70899859  0.33975051  0.73004344  1
  O2-  O237  1  0.71087180  0.83270211  0.06570077  1
  O2-  O238  1  0.69935497  0.82697187  0.40030150  1
  O2-  O239  1  0.70770328  0.83262607  0.72835170  1
  O2-  O240  1  0.45503926  0.41359934  0.27117200  1
  O2-  O241  1  0.45891875  0.41698299  0.59518309  1
  O2-  O242  1  0.45452966  0.41969677  0.93414220  1
  O2-  O243  1  0.45838965  0.91577131  0.27478473  1
  O2-  O244  1  0.44387649  0.91721029  0.60542323  1
  O2-  O245  1  0.45285052  0.91981223  0.93017344  1
  O2-  O246  1  0.95286271  0.41474232  0.27506776  1
  O2-  O247  1  0.95531263  0.41638630  0.60369303  1
  O2-  O248  1  0.96424545  0.41232544  0.92867582  1
  O2-  O249  1  0.95530569  0.91780362  0.25944685  1
  O2-  O250  1  0.96582948  0.91943167  0.60117088  1
  O2-  O251  1  0.95603299  0.92261343  0.93359208  1
  O2-  O252  1  0.33801303  0.29143968  0.27122534  1
  O2-  O253  1  0.32678446  0.29498956  0.59952926  1
  O2-  O254  1  0.32980760  0.29363714  0.93099132  1
  O2-  O255  1  0.33922088  0.79681742  0.27000893  1
  O2-  O256  1  0.33168868  0.79077125  0.60359013  1
  O2-  O257  1  0.33075998  0.79302607  0.93400365  1
  O2-  O258  1  0.83201772  0.29613362  0.27467122  1
  O2-  O259  1  0.83635594  0.29720249  0.60408643  1
  O2-  O260  1  0.83438443  0.29386246  0.92991602  1
  O2-  O261  1  0.82692313  0.79138276  0.26645783  1
  O2-  O262  1  0.83613939  0.79181807  0.59685212  1
  O2-  O263  1  0.83331516  0.79039848  0.92846381  1
  O2-  O264  1  0.41141442  0.04506285  0.05928399  1
  O2-  O265  1  0.41386550  0.03986132  0.40511830  1
  O2-  O266  1  0.41948350  0.05179089  0.72729876  1
  O2-  O267  1  0.41369752  0.54265941  0.06521023  1
  O2-  O268  1  0.41304373  0.54411840  0.39725544  1
  O2-  O269  1  0.41746047  0.53542398  0.73514422  1
  O2-  O270  1  0.91917376  0.05264213  0.06144661  1
  O2-  O271  1  0.92460711  0.04416565  0.39564995  1
  O2-  O272  1  0.91462405  0.04083780  0.73951350  1
  O2-  O273  1  0.91358421  0.53771618  0.05768555  1
  O2-  O274  1  0.91775693  0.54250495  0.40529546  1
  O2-  O275  1  0.91313000  0.54472681  0.73101414  1
  O2-  O276  1  0.28911415  0.16325579  0.06016922  1
  O2-  O277  1  0.28964255  0.16692158  0.40255888  1
  O2-  O278  1  0.29246346  0.16532010  0.73187137  1
  O2-  O279  1  0.29510098  0.66278815  0.06445517  1
  O2-  O280  1  0.30033087  0.66894497  0.39418377  1
  O2-  O281  1  0.29209056  0.66384345  0.73937957  1
  O2-  O282  1  0.79875961  0.16957529  0.06251908  1
  O2-  O283  1  0.79511372  0.16673150  0.40219720  1
  O2-  O284  1  0.79096300  0.17013082  0.73435081  1
  O2-  O285  1  0.79633118  0.66167382  0.05940290  1
  O2-  O286  1  0.79167612  0.66742087  0.40272600  1
  O2-  O287  1  0.79199179  0.66542505  0.72783302  1
