# generated using pymatgen
data_Ca2Al2SiO7
_symmetry_space_group_name_H-M   'P 1'
_cell_length_a   15.45609369
_cell_length_b   15.45692712
_cell_length_c   15.28253616
_cell_angle_alpha   89.99918494
_cell_angle_beta   89.99005469
_cell_angle_gamma   89.98723944
_symmetry_Int_Tables_number   1
_chemical_formula_structural   Ca2Al2SiO7
_chemical_formula_sum   'Ca48 Al48 Si24 O168'
_cell_volume   3651.05449539
_cell_formula_units_Z   24
loop_
 _symmetry_equiv_pos_site_id
 _symmetry_equiv_pos_as_xyz
  1  'x, y, z'
loop_
 _atom_type_symbol
 _atom_type_oxidation_number
  Ca2+  2.0
  Al0+  0.0
  Si0+  0.0
  O2-  -2.0
loop_
 _atom_site_type_symbol
 _atom_site_label
 _atom_site_symmetry_multiplicity
 _atom_site_fract_x
 _atom_site_fract_y
 _atom_site_fract_z
 _atom_site_occupancy
  Ca2+  Ca0  1  0.16855373  0.07696294  0.16808031  1
  Ca2+  Ca1  1  0.17234435  0.07733922  0.50792247  1
  Ca2+  Ca2  1  0.15927067  0.07478196  0.83715107  1
  Ca2+  Ca3  1  0.16911653  0.59171521  0.16731891  1
  Ca2+  Ca4  1  0.17223651  0.58595694  0.50501471  1
  Ca2+  Ca5  1  0.17982702  0.59035851  0.84025568  1
  Ca2+  Ca6  1  0.67974399  0.08326539  0.17133497  1
  Ca2+  Ca7  1  0.67298732  0.07484338  0.50571780  1
  Ca2+  Ca8  1  0.67132366  0.07441382  0.83823234  1
  Ca2+  Ca9  1  0.67357537  0.58516734  0.17314069  1
  Ca2+  Ca10  1  0.66522596  0.58817074  0.50664405  1
  Ca2+  Ca11  1  0.65956244  0.57967637  0.83238310  1
  Ca2+  Ca12  1  0.07501945  0.32406529  0.15491181  1
  Ca2+  Ca13  1  0.08659588  0.32502460  0.49860050  1
  Ca2+  Ca14  1  0.08091621  0.32015386  0.83143136  1
  Ca2+  Ca15  1  0.08214149  0.82423566  0.15716542  1
  Ca2+  Ca16  1  0.08128984  0.83113391  0.50092047  1
  Ca2+  Ca17  1  0.07618889  0.84077714  0.83192327  1
  Ca2+  Ca18  1  0.57800110  0.32996322  0.15956437  1
  Ca2+  Ca19  1  0.58035368  0.33908719  0.50391938  1
  Ca2+  Ca20  1  0.57634502  0.33504624  0.82778610  1
  Ca2+  Ca21  1  0.57342616  0.83184077  0.16514964  1
  Ca2+  Ca22  1  0.57763962  0.82861192  0.49660204  1
  Ca2+  Ca23  1  0.57184700  0.83019885  0.82192681  1
  Ca2+  Ca24  1  0.33397673  0.42174647  0.16480630  1
  Ca2+  Ca25  1  0.33516081  0.42498339  0.51115704  1
  Ca2+  Ca26  1  0.34279106  0.42803283  0.83752863  1
  Ca2+  Ca27  1  0.32973769  0.91254523  0.16987485  1
  Ca2+  Ca28  1  0.33165346  0.91398164  0.50686324  1
  Ca2+  Ca29  1  0.32183062  0.90602922  0.83938966  1
  Ca2+  Ca30  1  0.83555969  0.42010248  0.17295584  1
  Ca2+  Ca31  1  0.82636540  0.42864792  0.50567880  1
  Ca2+  Ca32  1  0.82743184  0.41195713  0.83759873  1
  Ca2+  Ca33  1  0.84244959  0.92639269  0.16742306  1
  Ca2+  Ca34  1  0.83057676  0.91739024  0.50859637  1
  Ca2+  Ca35  1  0.83199360  0.91337080  0.83813940  1
  Ca2+  Ca36  1  0.41401058  0.17042533  0.16185866  1
  Ca2+  Ca37  1  0.41274406  0.17125397  0.49596920  1
  Ca2+  Ca38  1  0.40915373  0.18210787  0.82922745  1
  Ca2+  Ca39  1  0.41783280  0.67633586  0.16174301  1
  Ca2+  Ca40  1  0.42422794  0.67449723  0.49876089  1
  Ca2+  Ca41  1  0.41444863  0.67344041  0.82665105  1
  Ca2+  Ca42  1  0.91717955  0.16780176  0.15378642  1
  Ca2+  Ca43  1  0.92161184  0.16267644  0.49882588  1
  Ca2+  Ca44  1  0.92643075  0.15843092  0.83509771  1
  Ca2+  Ca45  1  0.92719244  0.66695132  0.15947317  1
  Ca2+  Ca46  1  0.91734874  0.67282744  0.49287688  1
  Ca2+  Ca47  1  0.92372174  0.67759492  0.82978926  1
  Al0+  Al48  1  0.00002061  -0.00144657  0.00369482  1
  Al0+  Al49  1  0.00209758  0.00010783  0.33875111  1
  Al0+  Al50  1  0.00240536  0.00036133  0.65977898  1
  Al0+  Al51  1  0.00073483  0.49837018  -0.00985578  1
  Al0+  Al52  1  -0.00103749  0.49903967  0.33601719  1
  Al0+  Al53  1  0.00055743  0.49848855  0.66819617  1
  Al0+  Al54  1  0.49989728  -0.00078204  -0.00300804  1
  Al0+  Al55  1  0.49945229  0.00333098  0.33250908  1
  Al0+  Al56  1  0.50076616  0.00323131  0.66900455  1
  Al0+  Al57  1  0.49996377  0.49931186  0.00504365  1
  Al0+  Al58  1  0.49911298  0.50020043  0.32886051  1
  Al0+  Al59  1  0.50106505  0.50005073  0.66682169  1
  Al0+  Al60  1  0.24991282  0.25115920  -0.00748442  1
  Al0+  Al61  1  0.24871857  0.24893781  0.33550224  1
  Al0+  Al62  1  0.24896451  0.25058654  0.65757674  1
  Al0+  Al63  1  0.25222736  0.74927366  0.00424664  1
  Al0+  Al64  1  0.24870627  0.74912920  0.32870333  1
  Al0+  Al65  1  0.24913464  0.75086298  0.67063619  1
  Al0+  Al66  1  0.74837168  0.24888540  0.00132604  1
  Al0+  Al67  1  0.74884583  0.25008599  0.34021105  1
  Al0+  Al68  1  0.75134040  0.25219260  0.66998363  1
  Al0+  Al69  1  0.74900409  0.74741116  -0.00037250  1
  Al0+  Al70  1  0.74951784  0.75103432  0.33170447  1
  Al0+  Al71  1  0.75128852  0.75158643  0.66507401  1
  Al0+  Al72  1  0.81865170  0.06780314  0.01258156  1
  Al0+  Al73  1  0.07338966  0.67817264  0.98342079  1
  Al0+  Al74  1  0.32065037  0.07202728  0.34656928  1
  Al0+  Al75  1  0.67830501  0.92831249  0.68025244  1
  Al0+  Al76  1  0.68073507  0.43116601  0.68135744  1
  Al0+  Al77  1  0.82095066  0.57161485  0.34562438  1
  Al0+  Al78  1  0.32083619  0.57004688  0.01683458  1
  Al0+  Al79  1  0.18079326  0.93094351  0.68051464  1
  Al0+  Al80  1  0.43036773  0.82117401  0.98552943  1
  Al0+  Al81  1  0.06859889  0.67767393  0.32070349  1
  Al0+  Al82  1  0.93016435  0.82018148  0.65189065  1
  Al0+  Al83  1  0.43122674  0.32039175  0.65169371  1
  Al0+  Al84  1  0.92558359  0.32165522  0.98511182  1
  Al0+  Al85  1  0.43024814  0.32076310  0.98724778  1
  Al0+  Al86  1  0.18000927  0.92996488  0.01534696  1
  Al0+  Al87  1  0.82263661  0.07166504  0.34899426  1
  Al0+  Al88  1  0.92846054  0.82070138  0.98675307  1
  Al0+  Al89  1  0.57264364  0.67776400  0.31614782  1
  Al0+  Al90  1  0.57021067  0.67980370  0.65315350  1
  Al0+  Al91  1  0.31907252  0.56925592  0.67895331  1
  Al0+  Al92  1  0.06898438  0.17982823  0.64985225  1
  Al0+  Al93  1  0.42898022  0.82286278  0.31798885  1
  Al0+  Al94  1  0.42590434  0.82373276  0.65253678  1
  Al0+  Al95  1  0.07076708  0.17728441  0.98650520  1
  Si0+  Si96  1  0.32057090  0.57061759  0.34819233  1
  Si0+  Si97  1  0.67959983  0.42900890  0.01681555  1
  Si0+  Si98  1  0.67591236  0.42846001  0.35016780  1
  Si0+  Si99  1  0.17884814  0.42801818  0.34780569  1
  Si0+  Si100  1  0.92589867  0.32377664  0.64717149  1
  Si0+  Si101  1  0.57275871  0.17759021  0.98352623  1
  Si0+  Si102  1  0.82292067  0.07088021  0.68346954  1
  Si0+  Si103  1  0.67504939  0.92492902  0.01779345  1
  Si0+  Si104  1  0.82300170  0.57019015  0.01332537  1
  Si0+  Si105  1  0.57524798  0.17851798  0.64967579  1
  Si0+  Si106  1  0.07238567  0.67621079  0.65091641  1
  Si0+  Si107  1  0.57205723  0.18065265  0.31899501  1
  Si0+  Si108  1  0.67749817  0.92967691  0.34899995  1
  Si0+  Si109  1  0.32260061  0.07520983  0.68341233  1
  Si0+  Si110  1  0.42694482  0.32085563  0.31772605  1
  Si0+  Si111  1  0.07107869  0.17871472  0.31788499  1
  Si0+  Si112  1  0.92854453  0.31877129  0.32144389  1
  Si0+  Si113  1  0.57217914  0.67708188  0.98387025  1
  Si0+  Si114  1  0.17690674  0.42489823  0.68399547  1
  Si0+  Si115  1  0.32304486  0.07482327  0.01413924  1
  Si0+  Si116  1  0.17723914  0.42644733  0.01505432  1
  Si0+  Si117  1  0.18027736  0.92611948  0.35148452  1
  Si0+  Si118  1  0.92805169  0.82405146  0.31728755  1
  Si0+  Si119  1  0.82457784  0.57400875  0.68521262  1
  O2-  O120  1  0.25661006  0.00489981  0.05973527  1
  O2-  O121  1  0.25089138  -0.00619411  0.39423318  1
  O2-  O122  1  0.25906418  0.00250799  0.72769680  1
  O2-  O123  1  0.24274105  0.49678354  0.06233014  1
  O2-  O124  1  0.24990067  0.49890290  0.39026705  1
  O2-  O125  1  0.24313807  0.49557321  0.72720280  1
  O2-  O126  1  0.74569782  -0.00783569  0.06193123  1
  O2-  O127  1  0.75073391  -0.00612727  0.39376269  1
  O2-  O128  1  0.75303425  0.00349098  0.72702691  1
  O2-  O129  1  0.75373563  0.49738905  0.05731431  1
  O2-  O130  1  0.74087554  0.50186135  0.39196969  1
  O2-  O131  1  0.75618526  0.50450417  0.72918375  1
  O2-  O132  1  -0.00491562  0.24482368  0.27673551  1
  O2-  O133  1  -0.00478903  0.25603055  0.60254395  1
  O2-  O134  1  -0.00249862  0.24888492  0.93709958  1
  O2-  O135  1  -0.00632233  0.75222348  0.27417716  1
  O2-  O136  1  0.00085642  0.74113547  0.60580995  1
  O2-  O137  1  0.00134983  0.75070264  0.93505080  1
  O2-  O138  1  0.49968939  0.25087476  0.27660171  1
  O2-  O139  1  0.50388988  0.24408900  0.60386960  1
  O2-  O140  1  0.50085627  0.24282919  0.93997679  1
  O2-  O141  1  0.50040892  0.74996497  0.26753432  1
  O2-  O142  1  0.50110412  0.75467533  0.60332471  1
  O2-  O143  1  0.50713903  0.74843795  0.94004349  1
  O2-  O144  1  0.07017935  0.17953721  0.10093839  1
  O2-  O145  1  0.07199817  0.18185549  0.42288555  1
  O2-  O146  1  0.06715298  0.17898324  0.76249099  1
  O2-  O147  1  0.06942296  0.67795615  0.09763105  1
  O2-  O148  1  0.06890228  0.67771745  0.43390000  1
  O2-  O149  1  0.07186275  0.67660596  0.75598941  1
  O2-  O150  1  0.57478011  0.18070775  0.08971221  1
  O2-  O151  1  0.57316797  0.18207922  0.42380409  1
  O2-  O152  1  0.57652658  0.18093638  0.75512297  1
  O2-  O153  1  0.57242710  0.67684863  0.08952318  1
  O2-  O154  1  0.57000006  0.67629222  0.42928170  1
  O2-  O155  1  0.56755750  0.67895632  0.76686877  1
  O2-  O156  1  0.17941217  0.42445875  0.24300238  1
  O2-  O157  1  0.17790066  0.42550739  0.57749069  1
  O2-  O158  1  0.18035219  0.42488939  0.90993501  1
  O2-  O159  1  0.17827801  0.92796836  0.24599536  1
  O2-  O160  1  0.18032971  0.93217519  0.56700284  1
  O2-  O161  1  0.17907074  0.93177497  0.90239605  1
  O2-  O162  1  0.67824795  0.42347218  0.24445128  1
  O2-  O163  1  0.68222971  0.43177136  0.56798735  1
  O2-  O164  1  0.67714360  0.42984456  0.91201968  1
  O2-  O165  1  0.67640518  0.93372096  0.24333640  1
  O2-  O166  1  0.68048071  0.93051767  0.56671645  1
  O2-  O167  1  0.67450666  0.92698252  0.91234289  1
  O2-  O168  1  0.43236682  0.31950057  0.10116367  1
  O2-  O169  1  0.42690057  0.32160841  0.42265921  1
  O2-  O170  1  0.43288615  0.32075722  0.76463742  1
  O2-  O171  1  0.43153589  0.82122511  0.09879694  1
  O2-  O172  1  0.42908323  0.82174400  0.43130959  1
  O2-  O173  1  0.42514231  0.81966801  0.76597791  1
  O2-  O174  1  0.92595113  0.32078112  0.09988052  1
  O2-  O175  1  0.93143993  0.31893666  0.42631474  1
  O2-  O176  1  0.92506482  0.32340026  0.75225037  1
  O2-  O177  1  0.92905348  0.81906756  0.10077535  1
  O2-  O178  1  0.92969610  0.82412240  0.42304461  1
  O2-  O179  1  0.93096294  0.82136378  0.76460196  1
  O2-  O180  1  0.31573510  0.07822668  0.23372239  1
  O2-  O181  1  0.31956418  0.07654833  0.57741720  1
  O2-  O182  1  0.32258498  0.07680842  0.90893741  1
  O2-  O183  1  0.32003304  0.56833259  0.24320567  1
  O2-  O184  1  0.31723057  0.56768634  0.56501097  1
  O2-  O185  1  0.32400029  0.56783820  0.90400417  1
  O2-  O186  1  0.82136711  0.07472443  0.23592158  1
  O2-  O187  1  0.82102205  0.07023333  0.57728981  1
  O2-  O188  1  0.81609899  0.06836770  0.89973942  1
  O2-  O189  1  0.82370865  0.56524601  0.23232315  1
  O2-  O190  1  0.82568118  0.57174288  0.57922597  1
  O2-  O191  1  0.81949577  0.57111484  0.90863032  1
  O2-  O192  1  0.04846143  0.08421792  0.27437497  1
  O2-  O193  1  0.03735002  0.08584678  0.59175876  1
  O2-  O194  1  0.03918671  0.08029382  0.93418475  1
  O2-  O195  1  0.03856955  0.58003550  0.26730875  1
  O2-  O196  1  0.05202774  0.57994118  0.60646603  1
  O2-  O197  1  0.04821917  0.58008881  0.92933311  1
  O2-  O198  1  0.54632886  0.09004818  0.26904769  1
  O2-  O199  1  0.55270823  0.08437840  0.60381360  1
  O2-  O200  1  0.55241340  0.08279822  0.93862761  1
  O2-  O201  1  0.54562070  0.57827407  0.26297915  1
  O2-  O202  1  0.54041957  0.58246507  0.59913579  1
  O2-  O203  1  0.54365009  0.58332660  0.94046006  1
  O2-  O204  1  0.16095298  0.21177605  0.27019852  1
  O2-  O205  1  0.16417296  0.21145017  0.59249200  1
  O2-  O206  1  0.16733481  0.20586328  0.93076727  1
  O2-  O207  1  0.16449832  0.70749521  0.26544528  1
  O2-  O208  1  0.16419641  0.70617650  0.60424107  1
  O2-  O209  1  0.17270136  0.70644776  0.93532504  1
  O2-  O210  1  0.66353661  0.21166620  0.27118170  1
  O2-  O211  1  0.66813267  0.20776024  0.60317949  1
  O2-  O212  1  0.66351282  0.20762474  0.93546821  1
  O2-  O213  1  0.67183055  0.70531300  0.26302468  1
  O2-  O214  1  0.67014140  0.70449031  0.60169918  1
  O2-  O215  1  0.66702758  0.69651348  0.93811324  1
  O2-  O216  1  0.08099781  0.44810271  0.05844963  1
  O2-  O217  1  0.08776360  0.45496437  0.39716668  1
  O2-  O218  1  0.08125998  0.44470599  0.72836335  1
  O2-  O219  1  0.08462125  0.96073050  0.07200003  1
  O2-  O220  1  0.08773030  0.95406250  0.39888636  1
  O2-  O221  1  0.08432521  0.96704802  0.73179739  1
  O2-  O222  1  0.58996010  0.45875984  0.06779157  1
  O2-  O223  1  0.57996096  0.45006720  0.39345909  1
  O2-  O224  1  0.58494914  0.46210315  0.73642083  1
  O2-  O225  1  0.58235628  0.95421797  0.06457915  1
  O2-  O226  1  0.58630243  0.96148611  0.39600539  1
  O2-  O227  1  0.58236883  0.96037903  0.73603889  1
  O2-  O228  1  0.20611078  0.33354541  0.06264161  1
  O2-  O229  1  0.20781700  0.33726315  0.39741172  1
  O2-  O230  1  0.20470711  0.33107087  0.72727509  1
  O2-  O231  1  0.21226467  0.83435888  0.07049444  1
  O2-  O232  1  0.20433988  0.83166211  0.39659885  1
  O2-  O233  1  0.20570485  0.83376074  0.73551041  1
  O2-  O234  1  0.70416211  0.33642810  0.06514576  1
  O2-  O235  1  0.70451482  0.33741148  0.39995955  1
  O2-  O236  1  0.71012376  0.33413162  0.73671712  1
  O2-  O237  1  0.69785411  0.82997934  0.06239028  1
  O2-  O238  1  0.69821567  0.83424984  0.39274764  1
  O2-  O239  1  0.70942460  0.83225485  0.73458450  1
  O2-  O240  1  0.45310356  0.41229088  0.26901917  1
  O2-  O241  1  0.46555161  0.41501817  0.59646853  1
  O2-  O242  1  0.46677068  0.41604330  0.93522523  1
  O2-  O243  1  0.45624596  0.92270467  0.26597025  1
  O2-  O244  1  0.45070267  0.92538104  0.60422342  1
  O2-  O245  1  0.45557049  0.91920562  0.93168565  1
  O2-  O246  1  0.95926896  0.40920347  0.27341591  1
  O2-  O247  1  0.95129288  0.41832956  0.60174895  1
  O2-  O248  1  0.95148651  0.41798074  0.92823114  1
  O2-  O249  1  0.95806611  0.91753251  0.27260865  1
  O2-  O250  1  0.96380104  0.91444868  0.59529651  1
  O2-  O251  1  0.95569317  0.91919190  0.93503016  1
  O2-  O252  1  0.33547055  0.29046573  0.27099861  1
  O2-  O253  1  0.33459412  0.29293518  0.59564363  1
  O2-  O254  1  0.33424187  0.29514367  0.93069270  1
  O2-  O255  1  0.33096260  0.79260170  0.26529821  1
  O2-  O256  1  0.32821996  0.79192161  0.59979765  1
  O2-  O257  1  0.33465981  0.78660761  0.93457520  1
  O2-  O258  1  0.83414174  0.29546557  0.27672820  1
  O2-  O259  1  0.83246505  0.29763919  0.60069728  1
  O2-  O260  1  0.82638692  0.29401762  0.93413139  1
  O2-  O261  1  0.83277555  0.80506719  0.27304721  1
  O2-  O262  1  0.83365346  0.79218158  0.59658371  1
  O2-  O263  1  0.82923152  0.79204553  0.93498438  1
  O2-  O264  1  0.41856088  0.05235060  0.05919649  1
  O2-  O265  1  0.42039824  0.05100439  0.39885975  1
  O2-  O266  1  0.41916766  0.06108283  0.72694788  1
  O2-  O267  1  0.41569747  0.53444672  0.07307198  1
  O2-  O268  1  0.41283010  0.54133008  0.39390522  1
  O2-  O269  1  0.41449517  0.53546986  0.73241939  1
  O2-  O270  1  0.91470380  0.03971502  0.06944941  1
  O2-  O271  1  0.92011191  0.04400205  0.40312137  1
  O2-  O272  1  0.91652606  0.04250973  0.72590621  1
  O2-  O273  1  0.91621297  0.54272903  0.05839946  1
  O2-  O274  1  0.91440260  0.53517236  0.40335730  1
  O2-  O275  1  0.91866020  0.54804377  0.73060342  1
  O2-  O276  1  0.29618950  0.16879981  0.06021647  1
  O2-  O277  1  0.28596707  0.16701698  0.40343390  1
  O2-  O278  1  0.29056513  0.16844057  0.72709531  1
  O2-  O279  1  0.29088697  0.66533172  0.07335876  1
  O2-  O280  1  0.29110224  0.66225089  0.39421871  1
  O2-  O281  1  0.28859710  0.66489016  0.73429706  1
  O2-  O282  1  0.78576540  0.16452590  0.06798334  1
  O2-  O283  1  0.78909981  0.16674481  0.40507825  1
  O2-  O284  1  0.80002147  0.16581408  0.72753196  1
  O2-  O285  1  0.79378527  0.66071777  0.06342572  1
  O2-  O286  1  0.79587642  0.67057664  0.39793462  1
  O2-  O287  1  0.79947824  0.66752022  0.72991860  1
