# generated using pymatgen
data_Ca2Al2SiO7
_symmetry_space_group_name_H-M   'P 1'
_cell_length_a   15.46036452
_cell_length_b   15.46095428
_cell_length_c   15.28612930
_cell_angle_alpha   89.99737858
_cell_angle_beta   90.00448092
_cell_angle_gamma   90.01376701
_symmetry_Int_Tables_number   1
_chemical_formula_structural   Ca2Al2SiO7
_chemical_formula_sum   'Ca48 Al48 Si24 O168'
_cell_volume   3653.87377028
_cell_formula_units_Z   24
loop_
 _symmetry_equiv_pos_site_id
 _symmetry_equiv_pos_as_xyz
  1  'x, y, z'
loop_
 _atom_type_symbol
 _atom_type_oxidation_number
  Ca2+  2.0
  Al0+  0.0
  Si0+  0.0
  O2-  -2.0
loop_
 _atom_site_type_symbol
 _atom_site_label
 _atom_site_symmetry_multiplicity
 _atom_site_fract_x
 _atom_site_fract_y
 _atom_site_fract_z
 _atom_site_occupancy
  Ca2+  Ca0  1  0.17932954  0.07544384  0.17554270  1
  Ca2+  Ca1  1  0.17220351  0.07365197  0.51035883  1
  Ca2+  Ca2  1  0.17135540  0.08351579  0.83399107  1
  Ca2+  Ca3  1  0.16984476  0.58119778  0.18054097  1
  Ca2+  Ca4  1  0.15513997  0.57614994  0.50183513  1
  Ca2+  Ca5  1  0.15935089  0.58033683  0.82919078  1
  Ca2+  Ca6  1  0.67433784  0.08289687  0.16593076  1
  Ca2+  Ca7  1  0.67647581  0.08057385  0.50836723  1
  Ca2+  Ca8  1  0.67282054  0.07619788  0.83811103  1
  Ca2+  Ca9  1  0.66225501  0.58046861  0.16501187  1
  Ca2+  Ca10  1  0.66867811  0.57942163  0.50512840  1
  Ca2+  Ca11  1  0.66507286  0.57811054  0.84348385  1
  Ca2+  Ca12  1  0.07861047  0.33612021  0.16822921  1
  Ca2+  Ca13  1  0.08469526  0.32866518  0.49593831  1
  Ca2+  Ca14  1  0.08275047  0.32578497  0.82316647  1
  Ca2+  Ca15  1  0.08349397  0.83354792  0.16579803  1
  Ca2+  Ca16  1  0.09362178  0.82813584  0.49580160  1
  Ca2+  Ca17  1  0.07173770  0.83522464  0.82257670  1
  Ca2+  Ca18  1  0.58087327  0.32642798  0.15666380  1
  Ca2+  Ca19  1  0.58066394  0.32371194  0.49817260  1
  Ca2+  Ca20  1  0.58596397  0.31960830  0.83056982  1
  Ca2+  Ca21  1  0.57844665  0.83266398  0.15949594  1
  Ca2+  Ca22  1  0.57646547  0.84017560  0.49634645  1
  Ca2+  Ca23  1  0.59101295  0.83577109  0.82972967  1
  Ca2+  Ca24  1  0.32603719  0.42577427  0.17677051  1
  Ca2+  Ca25  1  0.32199134  0.42430382  0.50239379  1
  Ca2+  Ca26  1  0.32631738  0.41372914  0.83341805  1
  Ca2+  Ca27  1  0.33507982  0.92438511  0.17541358  1
  Ca2+  Ca28  1  0.32580672  0.92046312  0.50056203  1
  Ca2+  Ca29  1  0.32805096  0.92693968  0.83258439  1
  Ca2+  Ca30  1  0.82637755  0.41071224  0.17155989  1
  Ca2+  Ca31  1  0.84056575  0.41685757  0.50012750  1
  Ca2+  Ca32  1  0.82685647  0.41975936  0.83940419  1
  Ca2+  Ca33  1  0.83230401  0.92322301  0.16587522  1
  Ca2+  Ca34  1  0.83015355  0.92507345  0.51007788  1
  Ca2+  Ca35  1  0.83286346  0.92403303  0.83897639  1
  Ca2+  Ca36  1  0.41968319  0.16165984  0.15847971  1
  Ca2+  Ca37  1  0.42194383  0.15121027  0.49919215  1
  Ca2+  Ca38  1  0.42572938  0.15368685  0.82947686  1
  Ca2+  Ca39  1  0.41429627  0.67471042  0.16452955  1
  Ca2+  Ca40  1  0.41354452  0.67458552  0.49047966  1
  Ca2+  Ca41  1  0.42502918  0.66786612  0.83159603  1
  Ca2+  Ca42  1  0.91264330  0.16496862  0.16645098  1
  Ca2+  Ca43  1  0.92068698  0.16343997  0.49655806  1
  Ca2+  Ca44  1  0.91780207  0.16337066  0.82614513  1
  Ca2+  Ca45  1  0.92448162  0.67480891  0.16078899  1
  Ca2+  Ca46  1  0.92659875  0.67826552  0.49901042  1
  Ca2+  Ca47  1  0.91660279  0.68329116  0.82633693  1
  Al0+  Al48  1  0.00106121  0.00084236  0.00097743  1
  Al0+  Al49  1  0.00012378  0.00012099  0.33825213  1
  Al0+  Al50  1  -0.00046846  0.00231182  0.66515718  1
  Al0+  Al51  1  -0.00091721  0.49939145  -0.00074529  1
  Al0+  Al52  1  -0.00264534  0.49941406  0.32697333  1
  Al0+  Al53  1  -0.00098724  0.50159053  0.67025809  1
  Al0+  Al54  1  0.50002394  -0.00022039  0.00196416  1
  Al0+  Al55  1  0.50244011  -0.00242648  0.32933840  1
  Al0+  Al56  1  0.50140770  -0.00148270  0.66778438  1
  Al0+  Al57  1  0.49738239  0.50042597  0.00016580  1
  Al0+  Al58  1  0.50053051  0.49680646  0.33775379  1
  Al0+  Al59  1  0.49886747  0.49925172  0.66599635  1
  Al0+  Al60  1  0.24889050  0.25135223  0.00526388  1
  Al0+  Al61  1  0.25240224  0.25094218  0.33860388  1
  Al0+  Al62  1  0.25051019  0.25362114  0.67002081  1
  Al0+  Al63  1  0.25001372  0.74866758  -0.00414069  1
  Al0+  Al64  1  0.25296913  0.75122810  0.32805528  1
  Al0+  Al65  1  0.25167353  0.74853397  0.66908835  1
  Al0+  Al66  1  0.74863921  0.25135684  0.00276396  1
  Al0+  Al67  1  0.74996649  0.24909197  0.33387042  1
  Al0+  Al68  1  0.74745815  0.25073868  0.66445602  1
  Al0+  Al69  1  0.75082930  0.74951313  -0.00289677  1
  Al0+  Al70  1  0.75059393  0.74793940  0.33261081  1
  Al0+  Al71  1  0.75087011  0.74813889  0.66316452  1
  Al0+  Al72  1  0.56925030  0.67937450  0.98715697  1
  Al0+  Al73  1  0.67942658  0.92648353  0.01589924  1
  Al0+  Al74  1  0.43143054  0.81965777  0.31894264  1
  Al0+  Al75  1  0.17972213  0.92941084  0.34686579  1
  Al0+  Al76  1  0.92792357  0.82395969  0.65006766  1
  Al0+  Al77  1  0.93124241  0.82185075  0.98699374  1
  Al0+  Al78  1  0.82301013  0.07214558  0.01607250  1
  Al0+  Al79  1  0.67820782  0.43018223  0.01339397  1
  Al0+  Al80  1  0.57039693  0.17894372  0.98614987  1
  Al0+  Al81  1  0.32009529  0.07035858  0.01391519  1
  Al0+  Al82  1  0.07131582  0.68029523  0.65181551  1
  Al0+  Al83  1  0.07254030  0.18016610  0.65401022  1
  Al0+  Al84  1  0.17801977  0.43103538  0.68159279  1
  Al0+  Al85  1  0.32115871  0.07183379  0.68179465  1
  Al0+  Al86  1  0.06976687  0.68087531  0.31888544  1
  Al0+  Al87  1  0.82159508  0.07341904  0.68141967  1
  Al0+  Al88  1  0.32515554  0.07197078  0.34806230  1
  Al0+  Al89  1  0.17837718  0.92674817  0.68225920  1
  Al0+  Al90  1  0.81942495  0.07130759  0.34805529  1
  Al0+  Al91  1  0.56895646  0.17833845  0.65198099  1
  Al0+  Al92  1  0.67995036  0.92757447  0.68028607  1
  Al0+  Al93  1  0.92975007  0.31862617  0.31927186  1
  Al0+  Al94  1  0.17554798  0.43051324  0.34852386  1
  Al0+  Al95  1  0.32212585  0.57182707  0.34758086  1
  Si0+  Si96  1  0.67986888  0.92551996  0.34852786  1
  Si0+  Si97  1  0.07462341  0.17675281  0.31678334  1
  Si0+  Si98  1  0.92704056  0.32272502  0.65207283  1
  Si0+  Si99  1  0.42723084  0.82289230  0.98017281  1
  Si0+  Si100  1  0.42868139  0.32272575  0.31830135  1
  Si0+  Si101  1  0.31980224  0.57110962  0.01448123  1
  Si0+  Si102  1  0.57166418  0.67571664  0.65111141  1
  Si0+  Si103  1  0.92561926  0.82400649  0.31536424  1
  Si0+  Si104  1  0.92796928  0.32175848  0.98475931  1
  Si0+  Si105  1  0.81994380  0.56964186  0.68183280  1
  Si0+  Si106  1  0.82223695  0.57144029  0.01765616  1
  Si0+  Si107  1  0.07142596  0.18168285  0.98736777  1
  Si0+  Si108  1  0.17829937  0.92679730  0.01565777  1
  Si0+  Si109  1  0.67641980  0.42996608  0.68151090  1
  Si0+  Si110  1  0.57390438  0.67391109  0.31748112  1
  Si0+  Si111  1  0.82043056  0.57102995  0.34776731  1
  Si0+  Si112  1  0.07320241  0.67589011  0.98206376  1
  Si0+  Si113  1  0.56983872  0.18008906  0.31724396  1
  Si0+  Si114  1  0.17714949  0.42967345  0.01608886  1
  Si0+  Si115  1  0.43084129  0.81922153  0.65241992  1
  Si0+  Si116  1  0.32444779  0.57199874  0.68593030  1
  Si0+  Si117  1  0.67937613  0.42785312  0.35001308  1
  Si0+  Si118  1  0.42802590  0.32449825  0.64826447  1
  Si0+  Si119  1  0.42579371  0.32205816  0.98381807  1
  O2-  O120  1  0.24967492  -0.00790395  0.06029565  1
  O2-  O121  1  0.24740353  0.00587792  0.39623346  1
  O2-  O122  1  0.24565215  0.00357406  0.73221279  1
  O2-  O123  1  0.24464056  0.50443937  0.05649577  1
  O2-  O124  1  0.24586845  0.50475860  0.39795896  1
  O2-  O125  1  0.25333408  0.50517416  0.72937701  1
  O2-  O126  1  0.75048901  -0.00018062  0.06531554  1
  O2-  O127  1  0.75021302  -0.00859154  0.39291630  1
  O2-  O128  1  0.75307616  -0.00217493  0.73050722  1
  O2-  O129  1  0.75317618  0.50341608  0.06279078  1
  O2-  O130  1  0.74808523  0.50140305  0.39141690  1
  O2-  O131  1  0.74720019  0.50042927  0.72413337  1
  O2-  O132  1  0.00586615  0.24574218  0.27139366  1
  O2-  O133  1  -0.00593841  0.25251862  0.60883664  1
  O2-  O134  1  -0.00240252  0.24978219  0.94365637  1
  O2-  O135  1  -0.00276425  0.75755138  0.27174237  1
  O2-  O136  1  0.00667166  0.75828834  0.60072001  1
  O2-  O137  1  0.00662616  0.74705411  0.94051055  1
  O2-  O138  1  0.49445568  0.24709625  0.27572731  1
  O2-  O139  1  0.49142200  0.25054521  0.60428076  1
  O2-  O140  1  0.49286594  0.25206246  0.93972581  1
  O2-  O141  1  0.50556361  0.74267474  0.27412815  1
  O2-  O142  1  0.50260346  0.74798480  0.60977796  1
  O2-  O143  1  0.49929662  0.75663778  0.93678767  1
  O2-  O144  1  0.07314404  0.18513069  0.09233130  1
  O2-  O145  1  0.07361711  0.17841741  0.42208171  1
  O2-  O146  1  0.07291677  0.18448873  0.76791433  1
  O2-  O147  1  0.07352411  0.67333651  0.08766886  1
  O2-  O148  1  0.06613628  0.67903707  0.43139683  1
  O2-  O149  1  0.06502745  0.67769093  0.76558004  1
  O2-  O150  1  0.56977298  0.18302336  0.09981017  1
  O2-  O151  1  0.57063985  0.18208930  0.42243705  1
  O2-  O152  1  0.57010509  0.18144552  0.76489975  1
  O2-  O153  1  0.56394859  0.67657794  0.10007671  1
  O2-  O154  1  0.57522024  0.67320457  0.42330908  1
  O2-  O155  1  0.57004958  0.67156319  0.75608446  1
  O2-  O156  1  0.17762549  0.43212312  0.23403870  1
  O2-  O157  1  0.17681073  0.43290239  0.56916219  1
  O2-  O158  1  0.17728834  0.42841767  0.91112821  1
  O2-  O159  1  0.18112231  0.93028876  0.23256747  1
  O2-  O160  1  0.18443201  0.92424309  0.56912700  1
  O2-  O161  1  0.17782862  0.92833331  0.91037046  1
  O2-  O162  1  0.67867661  0.42749632  0.24497486  1
  O2-  O163  1  0.67550280  0.43206895  0.57612601  1
  O2-  O164  1  0.68098655  0.43138901  0.90008137  1
  O2-  O165  1  0.67932820  0.92499729  0.24314635  1
  O2-  O166  1  0.67862385  0.92902550  0.56625013  1
  O2-  O167  1  0.68160416  0.92723141  0.90275165  1
  O2-  O168  1  0.42631428  0.32302808  0.08966843  1
  O2-  O169  1  0.43375990  0.32883452  0.42273798  1
  O2-  O170  1  0.43295912  0.33114935  0.75371388  1
  O2-  O171  1  0.42502017  0.81951839  0.08567535  1
  O2-  O172  1  0.43464642  0.82016458  0.43231137  1
  O2-  O173  1  0.43180800  0.81683025  0.75758949  1
  O2-  O174  1  0.92978433  0.32479257  0.08965496  1
  O2-  O175  1  0.92829346  0.31864009  0.43215913  1
  O2-  O176  1  0.92713750  0.32502008  0.75813452  1
  O2-  O177  1  0.93381894  0.81936920  0.10046366  1
  O2-  O178  1  0.92019387  0.82035581  0.42016482  1
  O2-  O179  1  0.92516818  0.81866416  0.76383347  1
  O2-  O180  1  0.32530189  0.06962500  0.23407175  1
  O2-  O181  1  0.32218282  0.06686479  0.56859295  1
  O2-  O182  1  0.31696542  0.07183820  0.90132107  1
  O2-  O183  1  0.32239047  0.56809696  0.23325655  1
  O2-  O184  1  0.33048310  0.56995544  0.58107544  1
  O2-  O185  1  0.32154571  0.56936698  0.90948114  1
  O2-  O186  1  0.81551980  0.07292272  0.23509459  1
  O2-  O187  1  0.81668132  0.07607766  0.56772400  1
  O2-  O188  1  0.82393485  0.07338250  0.90316327  1
  O2-  O189  1  0.81829317  0.57115395  0.24277679  1
  O2-  O190  1  0.81875866  0.56766230  0.57644144  1
  O2-  O191  1  0.82285250  0.56798763  0.91187105  1
  O2-  O192  1  0.04755967  0.08318896  0.27088555  1
  O2-  O193  1  0.04576939  0.08385116  0.59875831  1
  O2-  O194  1  0.04786672  0.08875267  0.94110220  1
  O2-  O195  1  0.03567381  0.58588267  0.26264837  1
  O2-  O196  1  0.03390165  0.58331897  0.60051745  1
  O2-  O197  1  0.04492872  0.58227879  0.93634409  1
  O2-  O198  1  0.54736165  0.08705604  0.27032343  1
  O2-  O199  1  0.54010652  0.08123067  0.59761024  1
  O2-  O200  1  0.54092558  0.08160873  0.93347318  1
  O2-  O201  1  0.54895388  0.57901610  0.27338667  1
  O2-  O202  1  0.54263323  0.58450891  0.60225360  1
  O2-  O203  1  0.53416786  0.58374402  0.93146303  1
  O2-  O204  1  0.16931110  0.20301928  0.27204695  1
  O2-  O205  1  0.16836234  0.21494467  0.60075959  1
  O2-  O206  1  0.16157791  0.21474140  0.93939586  1
  O2-  O207  1  0.16704482  0.70838751  0.26422010  1
  O2-  O208  1  0.17405899  0.69825600  0.60342149  1
  O2-  O209  1  0.16786767  0.69659003  0.93584238  1
  O2-  O210  1  0.65923750  0.21492195  0.27000813  1
  O2-  O211  1  0.66329454  0.21527915  0.59590864  1
  O2-  O212  1  0.66603721  0.21492488  0.93327923  1
  O2-  O213  1  0.66788682  0.69785698  0.27083785  1
  O2-  O214  1  0.66405276  0.69856181  0.60299455  1
  O2-  O215  1  0.66811439  0.70157524  0.93376201  1
  O2-  O216  1  0.08363093  0.45427870  0.06205045  1
  O2-  O217  1  0.07562042  0.45806012  0.39825017  1
  O2-  O218  1  0.08210853  0.46255900  0.73814190  1
  O2-  O219  1  0.08692144  0.95555555  0.06353271  1
  O2-  O220  1  0.07991309  0.95005554  0.39935509  1
  O2-  O221  1  0.07848866  0.95329832  0.73162915  1
  O2-  O222  1  0.58107916  0.46102442  0.06699684  1
  O2-  O223  1  0.58829664  0.45337502  0.39978593  1
  O2-  O224  1  0.58558105  0.45894401  0.72965098  1
  O2-  O225  1  0.58011205  0.95351007  0.06748574  1
  O2-  O226  1  0.58753749  0.95512641  0.39395736  1
  O2-  O227  1  0.58253273  0.95580118  0.73405050  1
  O2-  O228  1  0.20718757  0.34032277  0.06634698  1
  O2-  O229  1  0.20517694  0.33266519  0.40062778  1
  O2-  O230  1  0.21047244  0.33681915  0.73919908  1
  O2-  O231  1  0.20069753  0.83036034  0.05807442  1
  O2-  O232  1  0.21379992  0.83229877  0.39735245  1
  O2-  O233  1  0.20993432  0.82938625  0.73678788  1
  O2-  O234  1  0.70973911  0.33566357  0.07022651  1
  O2-  O235  1  0.71056168  0.33797803  0.39841494  1
  O2-  O236  1  0.70433210  0.33848430  0.72817052  1
  O2-  O237  1  0.70686467  0.82701936  0.06788944  1
  O2-  O238  1  0.70003710  0.82987379  0.39371419  1
  O2-  O239  1  0.70296536  0.82550304  0.72888737  1
  O2-  O240  1  0.46224890  0.41220701  0.26809759  1
  O2-  O241  1  0.46088544  0.41516257  0.59889406  1
  O2-  O242  1  0.45168356  0.41510459  0.93711108  1
  O2-  O243  1  0.46552545  0.91416340  0.26128783  1
  O2-  O244  1  0.45977902  0.90972931  0.60404900  1
  O2-  O245  1  0.44985659  0.91740959  0.93640015  1
  O2-  O246  1  0.95608526  0.41493555  0.26139709  1
  O2-  O247  1  0.95513554  0.41592452  0.60653627  1
  O2-  O248  1  0.95651588  0.41336537  0.93589382  1
  O2-  O249  1  0.95005062  0.91881308  0.27146155  1
  O2-  O250  1  0.94631915  0.92496893  0.60094271  1
  O2-  O251  1  0.96167750  0.91870976  0.93324182  1
  O2-  O252  1  0.33459944  0.30197065  0.27190559  1
  O2-  O253  1  0.33196941  0.30667551  0.60607256  1
  O2-  O254  1  0.33083419  0.29804730  0.93931147  1
  O2-  O255  1  0.33710231  0.79054274  0.25952678  1
  O2-  O256  1  0.33996726  0.78941657  0.60503807  1
  O2-  O257  1  0.33501859  0.79263298  0.93282460  1
  O2-  O258  1  0.83246863  0.28693497  0.26498290  1
  O2-  O259  1  0.83232993  0.30243478  0.60583147  1
  O2-  O260  1  0.83514297  0.29769271  0.93837831  1
  O2-  O261  1  0.83343156  0.79310228  0.26772970  1
  O2-  O262  1  0.83280574  0.78522929  0.59476150  1
  O2-  O263  1  0.83588154  0.78862269  0.93243058  1
  O2-  O264  1  0.41725878  0.04263742  0.06732650  1
  O2-  O265  1  0.42254746  0.03657155  0.39867533  1
  O2-  O266  1  0.41762349  0.03648853  0.73452117  1
  O2-  O267  1  0.40915542  0.54026325  0.06402943  1
  O2-  O268  1  0.41913821  0.53958284  0.40213223  1
  O2-  O269  1  0.41691099  0.54185000  0.73382995  1
  O2-  O270  1  0.92179114  0.04399924  0.06961007  1
  O2-  O271  1  0.91807294  0.04758847  0.39972860  1
  O2-  O272  1  0.92162115  0.05129489  0.73243772  1
  O2-  O273  1  0.91600601  0.54429331  0.06342363  1
  O2-  O274  1  0.91018213  0.53879989  0.39484455  1
  O2-  O275  1  0.90877822  0.53991486  0.73291076  1
  O2-  O276  1  0.28854668  0.16709139  0.06864497  1
  O2-  O277  1  0.30852749  0.17363282  0.39774633  1
  O2-  O278  1  0.30053144  0.17299945  0.73214782  1
  O2-  O279  1  0.29539973  0.66475592  0.06035216  1
  O2-  O280  1  0.30082962  0.67260773  0.39542585  1
  O2-  O281  1  0.30154027  0.66497723  0.73350027  1
  O2-  O282  1  0.79376406  0.17090514  0.06835015  1
  O2-  O283  1  0.78354840  0.16610890  0.40225978  1
  O2-  O284  1  0.79047998  0.17252947  0.73294172  1
  O2-  O285  1  0.79705771  0.66446326  0.06334899  1
  O2-  O286  1  0.79406664  0.66246099  0.39716545  1
  O2-  O287  1  0.79168805  0.66101731  0.72887371  1
