# generated using pymatgen
data_Ca2Al2SiO7
_symmetry_space_group_name_H-M   'P 1'
_cell_length_a   15.45485006
_cell_length_b   15.45479892
_cell_length_c   15.28133635
_cell_angle_alpha   89.99442319
_cell_angle_beta   90.00565876
_cell_angle_gamma   90.00061841
_symmetry_Int_Tables_number   1
_chemical_formula_structural   Ca2Al2SiO7
_chemical_formula_sum   'Ca48 Al48 Si24 O168'
_cell_volume   3649.97160107
_cell_formula_units_Z   24
loop_
 _symmetry_equiv_pos_site_id
 _symmetry_equiv_pos_as_xyz
  1  'x, y, z'
loop_
 _atom_type_symbol
 _atom_type_oxidation_number
  Ca2+  2.0
  Al0+  0.0
  Si0+  0.0
  O2-  -2.0
loop_
 _atom_site_type_symbol
 _atom_site_label
 _atom_site_symmetry_multiplicity
 _atom_site_fract_x
 _atom_site_fract_y
 _atom_site_fract_z
 _atom_site_occupancy
  Ca2+  Ca0  1  0.16550399  0.07487131  0.17725454  1
  Ca2+  Ca1  1  0.16817338  0.07880650  0.50314078  1
  Ca2+  Ca2  1  0.17497402  0.08377364  0.83576537  1
  Ca2+  Ca3  1  0.15537010  0.57345797  0.16929438  1
  Ca2+  Ca4  1  0.17036908  0.57241189  0.50917622  1
  Ca2+  Ca5  1  0.16161947  0.57987758  0.83447225  1
  Ca2+  Ca6  1  0.67328327  0.07893674  0.17200268  1
  Ca2+  Ca7  1  0.66320979  0.07980045  0.50532515  1
  Ca2+  Ca8  1  0.67775672  0.08810790  0.83711980  1
  Ca2+  Ca9  1  0.67892282  0.58608588  0.17310328  1
  Ca2+  Ca10  1  0.67080824  0.59212829  0.50170311  1
  Ca2+  Ca11  1  0.66975367  0.57835746  0.84255578  1
  Ca2+  Ca12  1  0.07491515  0.33771267  0.16484555  1
  Ca2+  Ca13  1  0.08274407  0.33028001  0.49043772  1
  Ca2+  Ca14  1  0.07743181  0.34454849  0.83376903  1
  Ca2+  Ca15  1  0.07885877  0.82694896  0.15554260  1
  Ca2+  Ca16  1  0.08668132  0.82880277  0.49633843  1
  Ca2+  Ca17  1  0.07681279  0.82131578  0.83219037  1
  Ca2+  Ca18  1  0.59132954  0.32817104  0.16385945  1
  Ca2+  Ca19  1  0.58289889  0.31899980  0.49393123  1
  Ca2+  Ca20  1  0.58583740  0.33062660  0.82640190  1
  Ca2+  Ca21  1  0.57653740  0.83510975  0.16751470  1
  Ca2+  Ca22  1  0.57807138  0.82595190  0.48886088  1
  Ca2+  Ca23  1  0.57921034  0.82590569  0.82905837  1
  Ca2+  Ca24  1  0.31926117  0.41786632  0.17270074  1
  Ca2+  Ca25  1  0.32125514  0.41833627  0.50908280  1
  Ca2+  Ca26  1  0.32217961  0.42390891  0.83774828  1
  Ca2+  Ca27  1  0.33013873  0.91024018  0.17342685  1
  Ca2+  Ca28  1  0.33180540  0.91693165  0.49907168  1
  Ca2+  Ca29  1  0.33952768  0.92050326  0.83520316  1
  Ca2+  Ca30  1  0.84026725  0.42601229  0.16709988  1
  Ca2+  Ca31  1  0.83744167  0.41985077  0.49625415  1
  Ca2+  Ca32  1  0.82613291  0.42127388  0.84727880  1
  Ca2+  Ca33  1  0.83389743  0.91992676  0.17320635  1
  Ca2+  Ca34  1  0.82441084  0.92444490  0.50435984  1
  Ca2+  Ca35  1  0.83858747  0.92845525  0.84015368  1
  Ca2+  Ca36  1  0.42491376  0.16434618  0.16660433  1
  Ca2+  Ca37  1  0.42450139  0.15897584  0.49696934  1
  Ca2+  Ca38  1  0.42356771  0.16809083  0.82374155  1
  Ca2+  Ca39  1  0.41817468  0.67841486  0.16308066  1
  Ca2+  Ca40  1  0.42695454  0.66370028  0.49349836  1
  Ca2+  Ca41  1  0.41837874  0.66940566  0.82509288  1
  Ca2+  Ca42  1  0.92002847  0.17555255  0.16212373  1
  Ca2+  Ca43  1  0.92105369  0.17403615  0.49098771  1
  Ca2+  Ca44  1  0.90916028  0.17213719  0.83103570  1
  Ca2+  Ca45  1  0.91711286  0.66901086  0.15759651  1
  Ca2+  Ca46  1  0.92316073  0.66220115  0.49591565  1
  Ca2+  Ca47  1  0.92608907  0.65904038  0.83438812  1
  Al0+  Al48  1  0.00335616  0.00059126  0.00006770  1
  Al0+  Al49  1  0.00122120  0.00011197  0.33700470  1
  Al0+  Al50  1  -0.00170451  0.00160829  0.67116864  1
  Al0+  Al51  1  -0.00099464  0.49792148  -0.00112279  1
  Al0+  Al52  1  -0.00009361  0.49997038  0.34039205  1
  Al0+  Al53  1  -0.00248353  0.50098225  0.66429485  1
  Al0+  Al54  1  0.50143427  0.00067956  -0.00570875  1
  Al0+  Al55  1  0.50078810  -0.00067341  0.32814134  1
  Al0+  Al56  1  0.49970760  -0.00147506  0.66751759  1
  Al0+  Al57  1  0.49758372  0.49794104  0.00534924  1
  Al0+  Al58  1  0.50254830  0.49860471  0.32773389  1
  Al0+  Al59  1  0.49835089  0.49988138  0.66473546  1
  Al0+  Al60  1  0.25313023  0.25036179  0.00520339  1
  Al0+  Al61  1  0.25082749  0.24800172  0.33431488  1
  Al0+  Al62  1  0.24699479  0.24894957  0.67656327  1
  Al0+  Al63  1  0.25180650  0.75129854  -0.01086444  1
  Al0+  Al64  1  0.25068732  0.74896640  0.33506864  1
  Al0+  Al65  1  0.24776161  0.74952598  0.66528371  1
  Al0+  Al66  1  0.75198358  0.24751815  0.00414910  1
  Al0+  Al67  1  0.75147672  0.25317100  0.32446292  1
  Al0+  Al68  1  0.74927339  0.25024087  0.66354579  1
  Al0+  Al69  1  0.74773048  0.75285128  -0.00192946  1
  Al0+  Al70  1  0.75135464  0.75093586  0.34046690  1
  Al0+  Al71  1  0.74936345  0.75182034  0.66521338  1
  Al0+  Al72  1  0.18023846  0.42883479  0.34782578  1
  Al0+  Al73  1  0.82393469  0.06898128  0.01595167  1
  Al0+  Al74  1  0.81907283  0.57240233  0.01336655  1
  Al0+  Al75  1  0.43037686  0.82117213  0.98317693  1
  Al0+  Al76  1  0.93171515  0.32303417  0.31703130  1
  Al0+  Al77  1  0.06862439  0.67949509  0.64939666  1
  Al0+  Al78  1  0.57025326  0.18031817  0.65400728  1
  Al0+  Al79  1  0.32246802  0.57172686  0.68109406  1
  Al0+  Al80  1  0.07316660  0.17643631  0.31951127  1
  Al0+  Al81  1  0.42855582  0.81894000  0.31862276  1
  Al0+  Al82  1  0.67902866  0.93132900  0.34673395  1
  Al0+  Al83  1  0.17614886  0.42899840  0.68366102  1
  Al0+  Al84  1  0.67614746  0.42736404  0.01523553  1
  Al0+  Al85  1  0.57085932  0.67755930  0.65337734  1
  Al0+  Al86  1  0.57525690  0.67753563  0.31638517  1
  Al0+  Al87  1  0.17973455  0.43083354  0.01591346  1
  Al0+  Al88  1  0.17767750  0.92676330  0.34610276  1
  Al0+  Al89  1  0.92553038  0.82458273  0.98599029  1
  Al0+  Al90  1  0.06906311  0.67775283  0.98558424  1
  Al0+  Al91  1  0.81900177  0.07205356  0.67912640  1
  Al0+  Al92  1  0.32118456  0.06841357  0.68009925  1
  Al0+  Al93  1  0.81958359  0.57078405  0.34916627  1
  Al0+  Al94  1  0.93056622  0.31730200  0.98496583  1
  Al0+  Al95  1  0.57071804  0.17894962  0.31805843  1
  Si0+  Si96  1  0.18276235  0.92921689  0.01261997  1
  Si0+  Si97  1  0.57100136  0.67552286  0.98417529  1
  Si0+  Si98  1  0.07605447  0.17751632  0.98270728  1
  Si0+  Si99  1  0.57021287  0.18092630  0.98397679  1
  Si0+  Si100  1  0.32192488  0.57525554  0.01757872  1
  Si0+  Si101  1  0.42691583  0.32235955  0.31625760  1
  Si0+  Si102  1  0.17583173  0.92713871  0.68598223  1
  Si0+  Si103  1  0.67655603  0.42629775  0.35147263  1
  Si0+  Si104  1  0.67620306  0.92989630  0.01559329  1
  Si0+  Si105  1  0.92856001  0.32021254  0.65188774  1
  Si0+  Si106  1  0.92961890  0.82155642  0.32239619  1
  Si0+  Si107  1  0.32262513  0.07068915  0.34851197  1
  Si0+  Si108  1  0.82183976  0.07445754  0.34941394  1
  Si0+  Si109  1  0.07026549  0.67992460  0.32118589  1
  Si0+  Si110  1  0.92833838  0.82553979  0.64809339  1
  Si0+  Si111  1  0.67962980  0.42891377  0.67760156  1
  Si0+  Si112  1  0.32411177  0.57141292  0.34822245  1
  Si0+  Si113  1  0.67771645  0.92724460  0.68501257  1
  Si0+  Si114  1  0.42700696  0.32129411  0.98488105  1
  Si0+  Si115  1  0.81928743  0.57244068  0.68136001  1
  Si0+  Si116  1  0.32405388  0.07078423  0.01588873  1
  Si0+  Si117  1  0.42761632  0.82217312  0.64859136  1
  Si0+  Si118  1  0.07191030  0.17806601  0.65383315  1
  Si0+  Si119  1  0.42484511  0.32074783  0.65193085  1
  O2-  O120  1  0.25250527  0.00046923  0.05724375  1
  O2-  O121  1  0.25120256  0.00383170  0.39128157  1
  O2-  O122  1  0.24774760  -0.00646997  0.72929766  1
  O2-  O123  1  0.25071534  0.50953733  0.06241094  1
  O2-  O124  1  0.25847789  0.50020264  0.39311318  1
  O2-  O125  1  0.24838425  0.50210219  0.73183979  1
  O2-  O126  1  0.75241708  -0.00994280  0.06024825  1
  O2-  O127  1  0.75054718  0.00905422  0.39439921  1
  O2-  O128  1  0.74585752  -0.00311553  0.72822799  1
  O2-  O129  1  0.74492562  0.50295612  0.06419606  1
  O2-  O130  1  0.74183151  0.49811915  0.39619877  1
  O2-  O131  1  0.74512436  0.50404235  0.72127879  1
  O2-  O132  1  0.00282860  0.24902347  0.26859780  1
  O2-  O133  1  0.00251602  0.25086294  0.61213587  1
  O2-  O134  1  0.00647452  0.24427035  0.93649718  1
  O2-  O135  1  0.00223004  0.75320911  0.27896721  1
  O2-  O136  1  -0.00462854  0.75587789  0.60252112  1
  O2-  O137  1  -0.00689271  0.74755632  0.93679739  1
  O2-  O138  1  0.49789581  0.25580770  0.27131030  1
  O2-  O139  1  0.49175013  0.25070186  0.60653767  1
  O2-  O140  1  0.50257458  0.25528558  0.94196419  1
  O2-  O141  1  0.50056495  0.74734558  0.26770213  1
  O2-  O142  1  0.49373500  0.75020565  0.60661019  1
  O2-  O143  1  0.50221634  0.74325930  0.93801321  1
  O2-  O144  1  0.07602932  0.17712944  0.08801980  1
  O2-  O145  1  0.07121804  0.17611201  0.43389609  1
  O2-  O146  1  0.07156587  0.17591607  0.75878723  1
  O2-  O147  1  0.07069426  0.68084878  0.09981578  1
  O2-  O148  1  0.06902402  0.68057476  0.42640338  1
  O2-  O149  1  0.06503258  0.67817400  0.76219673  1
  O2-  O150  1  0.56693301  0.17840513  0.08899605  1
  O2-  O151  1  0.56841730  0.17848858  0.43158584  1
  O2-  O152  1  0.57227958  0.18475137  0.76727123  1
  O2-  O153  1  0.57014035  0.67771826  0.08929308  1
  O2-  O154  1  0.57282431  0.68049270  0.43034282  1
  O2-  O155  1  0.57235892  0.67910795  0.76673287  1
  O2-  O156  1  0.17902601  0.43200054  0.23464746  1
  O2-  O157  1  0.17747047  0.42738543  0.56990307  1
  O2-  O158  1  0.18193566  0.43025827  0.90307362  1
  O2-  O159  1  0.17825101  0.92571724  0.23265486  1
  O2-  O160  1  0.17468020  0.92960404  0.58024537  1
  O2-  O161  1  0.18394043  0.93188373  0.90757558  1
  O2-  O162  1  0.67822881  0.42568572  0.24634144  1
  O2-  O163  1  0.68273471  0.42558472  0.57285797  1
  O2-  O164  1  0.67710614  0.42776639  0.90031091  1
  O2-  O165  1  0.68178064  0.93202952  0.23352398  1
  O2-  O166  1  0.67827015  0.92834671  0.57930309  1
  O2-  O167  1  0.67236191  0.93540189  0.90999488  1
  O2-  O168  1  0.42359069  0.31650506  0.08969257  1
  O2-  O169  1  0.42692481  0.32064089  0.42198602  1
  O2-  O170  1  0.42862325  0.31982381  0.75779204  1
  O2-  O171  1  0.42955361  0.82304488  0.09586643  1
  O2-  O172  1  0.42851086  0.81913196  0.43218816  1
  O2-  O173  1  0.43152499  0.82371816  0.75447586  1
  O2-  O174  1  0.93250098  0.31841076  0.09733529  1
  O2-  O175  1  0.93244314  0.32116374  0.43163486  1
  O2-  O176  1  0.92569927  0.31968553  0.75691532  1
  O2-  O177  1  0.93071584  0.82620282  0.10015096  1
  O2-  O178  1  0.93088067  0.82111695  0.42760721  1
  O2-  O179  1  0.92990919  0.82642895  0.75343975  1
  O2-  O180  1  0.32312303  0.07003624  0.24260111  1
  O2-  O181  1  0.32078238  0.06787217  0.56718384  1
  O2-  O182  1  0.32434687  0.07095211  0.91064374  1
  O2-  O183  1  0.32061076  0.57253599  0.24253362  1
  O2-  O184  1  0.32316440  0.56699556  0.56736488  1
  O2-  O185  1  0.32475288  0.57192968  0.91213520  1
  O2-  O186  1  0.82265450  0.07046402  0.24386648  1
  O2-  O187  1  0.81802318  0.07245866  0.56614038  1
  O2-  O188  1  0.81918616  0.07197352  0.90243726  1
  O2-  O189  1  0.82235670  0.57210393  0.23650970  1
  O2-  O190  1  0.82059044  0.57087166  0.57626256  1
  O2-  O191  1  0.81772514  0.56844163  0.89896879  1
  O2-  O192  1  0.04404334  0.07760503  0.26684953  1
  O2-  O193  1  0.04288747  0.08642673  0.60641261  1
  O2-  O194  1  0.05343730  0.08333180  0.93665103  1
  O2-  O195  1  0.03823322  0.58909350  0.27577264  1
  O2-  O196  1  0.03415724  0.58365860  0.59496436  1
  O2-  O197  1  0.04040598  0.58018051  0.93119532  1
  O2-  O198  1  0.53791046  0.08476271  0.26126736  1
  O2-  O199  1  0.54167529  0.08183549  0.60264351  1
  O2-  O200  1  0.53906419  0.09157523  0.93373843  1
  O2-  O201  1  0.55331327  0.57707282  0.26515406  1
  O2-  O202  1  0.54335696  0.58025998  0.59808493  1
  O2-  O203  1  0.54576848  0.58025624  0.94059113  1
  O2-  O204  1  0.17357477  0.19886955  0.26832640  1
  O2-  O205  1  0.16463955  0.20422114  0.60746491  1
  O2-  O206  1  0.17094893  0.20416973  0.93901715  1
  O2-  O207  1  0.16280999  0.70371667  0.27447057  1
  O2-  O208  1  0.16664900  0.70778833  0.59655761  1
  O2-  O209  1  0.16553766  0.70904042  0.92993160  1
  O2-  O210  1  0.66703574  0.20806954  0.26297820  1
  O2-  O211  1  0.66428292  0.21442498  0.59702498  1
  O2-  O212  1  0.66345908  0.20619914  0.93898771  1
  O2-  O213  1  0.67362760  0.71115536  0.26746673  1
  O2-  O214  1  0.66748752  0.71017191  0.59959777  1
  O2-  O215  1  0.66410323  0.70112664  0.93666621  1
  O2-  O216  1  0.08242965  0.46014088  0.06817602  1
  O2-  O217  1  0.08651015  0.46287147  0.40437955  1
  O2-  O218  1  0.07712528  0.46113286  0.73374653  1
  O2-  O219  1  0.09109706  0.95506841  0.06106825  1
  O2-  O220  1  0.08234731  0.95635702  0.40418358  1
  O2-  O221  1  0.08401282  0.95652239  0.73321936  1
  O2-  O222  1  0.57541696  0.44663841  0.06782976  1
  O2-  O223  1  0.58033195  0.44548488  0.39538105  1
  O2-  O224  1  0.58580136  0.45080916  0.72367293  1
  O2-  O225  1  0.58596833  0.96544204  0.06321204  1
  O2-  O226  1  0.58162505  0.96132129  0.39972242  1
  O2-  O227  1  0.58374031  0.95119303  0.73029738  1
  O2-  O228  1  0.21463033  0.33486547  0.06947844  1
  O2-  O229  1  0.20837771  0.33028315  0.40017637  1
  O2-  O230  1  0.20129467  0.33109179  0.73890634  1
  O2-  O231  1  0.21171220  0.83676525  0.05773786  1
  O2-  O232  1  0.21062046  0.83175541  0.40285093  1
  O2-  O233  1  0.19844352  0.83232899  0.72982468  1
  O2-  O234  1  0.70774030  0.32998932  0.06715883  1
  O2-  O235  1  0.70672101  0.33292889  0.39687025  1
  O2-  O236  1  0.71191137  0.33951156  0.72739687  1
  O2-  O237  1  0.69069309  0.83312157  0.05821087  1
  O2-  O238  1  0.71218017  0.83751065  0.40443793  1
  O2-  O239  1  0.70432419  0.83409913  0.73186175  1
  O2-  O240  1  0.44838305  0.41612040  0.26878069  1
  O2-  O241  1  0.45058577  0.41321142  0.60462492  1
  O2-  O242  1  0.44890196  0.41546447  0.93919564  1
  O2-  O243  1  0.45670389  0.91668571  0.26421126  1
  O2-  O244  1  0.45617277  0.91460456  0.60181852  1
  O2-  O245  1  0.46422824  0.91699915  0.92784646  1
  O2-  O246  1  0.96487275  0.42119516  0.26658289  1
  O2-  O247  1  0.95410937  0.41221264  0.60408007  1
  O2-  O248  1  0.95974267  0.41391072  0.93011337  1
  O2-  O249  1  0.95437215  0.91424971  0.27572785  1
  O2-  O250  1  0.95517471  0.91939709  0.60243083  1
  O2-  O251  1  0.96174626  0.92058693  0.93138135  1
  O2-  O252  1  0.33470249  0.29348478  0.26905673  1
  O2-  O253  1  0.32973505  0.29475342  0.60971861  1
  O2-  O254  1  0.33787356  0.28804558  0.93516803  1
  O2-  O255  1  0.33003351  0.78928862  0.26483753  1
  O2-  O256  1  0.33128722  0.80298657  0.60634756  1
  O2-  O257  1  0.33494785  0.79488245  0.92495153  1
  O2-  O258  1  0.83316008  0.29999102  0.26314041  1
  O2-  O259  1  0.83896949  0.28945291  0.60186071  1
  O2-  O260  1  0.83329634  0.28455713  0.93175516  1
  O2-  O261  1  0.83880489  0.79225637  0.27544292  1
  O2-  O262  1  0.83339087  0.80125543  0.60426562  1
  O2-  O263  1  0.82426696  0.80655361  0.93412268  1
  O2-  O264  1  0.41611662  0.04135718  0.06139075  1
  O2-  O265  1  0.41504739  0.04134448  0.39449694  1
  O2-  O266  1  0.41793743  0.03886825  0.73612026  1
  O2-  O267  1  0.41376185  0.54764558  0.06607253  1
  O2-  O268  1  0.42011233  0.54816866  0.39082459  1
  O2-  O269  1  0.42060215  0.54229993  0.73553862  1
  O2-  O270  1  0.92289438  0.04361677  0.06787658  1
  O2-  O271  1  0.91403201  0.04630034  0.39713137  1
  O2-  O272  1  0.91553107  0.04413022  0.73533528  1
  O2-  O273  1  0.91681486  0.54095437  0.06531850  1
  O2-  O274  1  0.91358000  0.53535830  0.40674610  1
  O2-  O275  1  0.90931597  0.54015188  0.72839619  1
  O2-  O276  1  0.29907939  0.16227942  0.06478184  1
  O2-  O277  1  0.30142272  0.16442714  0.39608208  1
  O2-  O278  1  0.29075344  0.16349029  0.73809827  1
  O2-  O279  1  0.29848819  0.67145996  0.05854716  1
  O2-  O280  1  0.29676882  0.66325748  0.39631225  1
  O2-  O281  1  0.29631069  0.67192165  0.73147147  1
  O2-  O282  1  0.78854150  0.16283073  0.07115974  1
  O2-  O283  1  0.79865616  0.17051099  0.39066050  1
  O2-  O284  1  0.78500603  0.16806349  0.73348589  1
  O2-  O285  1  0.79550786  0.67363895  0.06369715  1
  O2-  O286  1  0.79262236  0.66691849  0.40662064  1
  O2-  O287  1  0.79569793  0.66594320  0.72696867  1
