# generated using pymatgen
data_Ca2Al2SiO7
_symmetry_space_group_name_H-M   'P 1'
_cell_length_a   15.46848865
_cell_length_b   15.46656578
_cell_length_c   15.28991061
_cell_angle_alpha   90.00998650
_cell_angle_beta   89.97201755
_cell_angle_gamma   89.99344874
_symmetry_Int_Tables_number   1
_chemical_formula_structural   Ca2Al2SiO7
_chemical_formula_sum   'Ca48 Al48 Si24 O168'
_cell_volume   3658.02493178
_cell_formula_units_Z   24
loop_
 _symmetry_equiv_pos_site_id
 _symmetry_equiv_pos_as_xyz
  1  'x, y, z'
loop_
 _atom_type_symbol
 _atom_type_oxidation_number
  Ca2+  2.0
  Al0+  0.0
  Si0+  0.0
  O2-  -2.0
loop_
 _atom_site_type_symbol
 _atom_site_label
 _atom_site_symmetry_multiplicity
 _atom_site_fract_x
 _atom_site_fract_y
 _atom_site_fract_z
 _atom_site_occupancy
  Ca2+  Ca0  1  0.17493770  0.08336260  0.16620815  1
  Ca2+  Ca1  1  0.17414951  0.07394561  0.51068759  1
  Ca2+  Ca2  1  0.17779472  0.07765686  0.83456861  1
  Ca2+  Ca3  1  0.16352331  0.58758888  0.17179062  1
  Ca2+  Ca4  1  0.16586175  0.58280799  0.50208285  1
  Ca2+  Ca5  1  0.16770897  0.58251604  0.83836618  1
  Ca2+  Ca6  1  0.67126658  0.07344586  0.17102005  1
  Ca2+  Ca7  1  0.66865689  0.08515274  0.49555443  1
  Ca2+  Ca8  1  0.67646950  0.07956307  0.84007421  1
  Ca2+  Ca9  1  0.66334612  0.57917015  0.16963352  1
  Ca2+  Ca10  1  0.68005287  0.58185818  0.50426250  1
  Ca2+  Ca11  1  0.66603631  0.57851358  0.84060525  1
  Ca2+  Ca12  1  0.07434945  0.33133404  0.16585968  1
  Ca2+  Ca13  1  0.07134693  0.32940015  0.49614045  1
  Ca2+  Ca14  1  0.07509786  0.32776587  0.82683953  1
  Ca2+  Ca15  1  0.07474465  0.82289768  0.15892831  1
  Ca2+  Ca16  1  0.08396097  0.82934756  0.49490012  1
  Ca2+  Ca17  1  0.08205756  0.83318508  0.83394521  1
  Ca2+  Ca18  1  0.58082934  0.32858611  0.16026693  1
  Ca2+  Ca19  1  0.57391382  0.32416203  0.49219930  1
  Ca2+  Ca20  1  0.57576898  0.33494265  0.83055033  1
  Ca2+  Ca21  1  0.58164411  0.83581241  0.15933760  1
  Ca2+  Ca22  1  0.57291430  0.84298738  0.49492381  1
  Ca2+  Ca23  1  0.57647493  0.84316425  0.83571327  1
  Ca2+  Ca24  1  0.33633939  0.41499663  0.16972869  1
  Ca2+  Ca25  1  0.33550126  0.41364846  0.50471108  1
  Ca2+  Ca26  1  0.33794281  0.41507806  0.84182423  1
  Ca2+  Ca27  1  0.34277572  0.91889110  0.16911416  1
  Ca2+  Ca28  1  0.33123064  0.91782687  0.51034258  1
  Ca2+  Ca29  1  0.33796963  0.92269692  0.83706207  1
  Ca2+  Ca30  1  0.82669132  0.42109363  0.17320475  1
  Ca2+  Ca31  1  0.84203487  0.42383908  0.50436444  1
  Ca2+  Ca32  1  0.82866138  0.42056253  0.83701518  1
  Ca2+  Ca33  1  0.82417672  0.91756000  0.17294604  1
  Ca2+  Ca34  1  0.82647699  0.92780691  0.50589776  1
  Ca2+  Ca35  1  0.83146745  0.92661019  0.84622540  1
  Ca2+  Ca36  1  0.42411434  0.17189051  0.16185222  1
  Ca2+  Ca37  1  0.41829534  0.17194891  0.49222566  1
  Ca2+  Ca38  1  0.41034894  0.17256850  0.82754779  1
  Ca2+  Ca39  1  0.42373814  0.68170378  0.15837671  1
  Ca2+  Ca40  1  0.41820248  0.67985974  0.49586475  1
  Ca2+  Ca41  1  0.42735541  0.67713384  0.83346873  1
  Ca2+  Ca42  1  0.90468241  0.16754831  0.16537485  1
  Ca2+  Ca43  1  0.90471771  0.17440078  0.49553785  1
  Ca2+  Ca44  1  0.90897489  0.16920283  0.82488104  1
  Ca2+  Ca45  1  0.92387743  0.66626861  0.16120703  1
  Ca2+  Ca46  1  0.92081623  0.66116052  0.49226150  1
  Ca2+  Ca47  1  0.91551554  0.67232290  0.83350818  1
  Al0+  Al48  1  0.00454753  0.00212705  0.00116935  1
  Al0+  Al49  1  0.00160371  0.00038830  0.33732600  1
  Al0+  Al50  1  0.00101888  -0.00191952  0.67356862  1
  Al0+  Al51  1  0.00135477  0.49700925  -0.00393532  1
  Al0+  Al52  1  0.00123904  0.49726605  0.32924028  1
  Al0+  Al53  1  0.00032095  0.49970234  0.66915703  1
  Al0+  Al54  1  0.50283104  0.00344909  0.00310778  1
  Al0+  Al55  1  0.49966086  0.00305530  0.32988502  1
  Al0+  Al56  1  0.50045159  0.00150008  0.66575657  1
  Al0+  Al57  1  0.49853313  0.50099929  -0.00139517  1
  Al0+  Al58  1  0.49773036  0.50258198  0.33520487  1
  Al0+  Al59  1  0.50035157  0.50074637  0.66071147  1
  Al0+  Al60  1  0.24814201  0.25054831  0.00184688  1
  Al0+  Al61  1  0.24702006  0.25084459  0.33149315  1
  Al0+  Al62  1  0.24679439  0.24949363  0.66489819  1
  Al0+  Al63  1  0.25073033  0.74953520  -0.00723019  1
  Al0+  Al64  1  0.25035385  0.74907662  0.32617291  1
  Al0+  Al65  1  0.25007020  0.74701671  0.66732187  1
  Al0+  Al66  1  0.74788794  0.25291678  0.00575871  1
  Al0+  Al67  1  0.74738031  0.25041496  0.32774973  1
  Al0+  Al68  1  0.74729330  0.25195963  0.66457634  1
  Al0+  Al69  1  0.75305724  0.74883192  -0.00376040  1
  Al0+  Al70  1  0.74854761  0.74966087  0.34473659  1
  Al0+  Al71  1  0.75138501  0.74895264  0.67075545  1
  Al0+  Al72  1  0.82231323  0.07179310  0.34950256  1
  Al0+  Al73  1  0.32176492  0.07138532  0.68008519  1
  Al0+  Al74  1  0.67690289  0.43245103  0.01366722  1
  Al0+  Al75  1  0.42882759  0.31904321  0.98657426  1
  Al0+  Al76  1  0.67640122  0.92870414  0.35035427  1
  Al0+  Al77  1  0.92831698  0.31980305  0.65411982  1
  Al0+  Al78  1  0.57037653  0.18004263  0.31479530  1
  Al0+  Al79  1  0.68153120  0.92697416  0.01431962  1
  Al0+  Al80  1  0.82445671  0.07277484  0.01501716  1
  Al0+  Al81  1  0.57344911  0.67778521  0.98674115  1
  Al0+  Al82  1  0.42621461  0.32303397  0.31749077  1
  Al0+  Al83  1  0.06921943  0.67933558  0.32161565  1
  Al0+  Al84  1  0.43015853  0.82090577  0.32054180  1
  Al0+  Al85  1  0.07089089  0.67664500  0.98246768  1
  Al0+  Al86  1  0.42655580  0.32108680  0.65269648  1
  Al0+  Al87  1  0.43168242  0.82508616  0.98396197  1
  Al0+  Al88  1  0.82304064  0.57066854  0.68268188  1
  Al0+  Al89  1  0.92974526  0.82302399  0.98618924  1
  Al0+  Al90  1  0.43095037  0.82007507  0.65317069  1
  Al0+  Al91  1  0.82192304  0.56823255  0.34566051  1
  Al0+  Al92  1  0.17928927  0.92421215  0.68269834  1
  Al0+  Al93  1  0.92904583  0.31921272  0.31880172  1
  Al0+  Al94  1  0.81891777  0.07201494  0.67922350  1
  Al0+  Al95  1  0.32094161  0.07192904  0.01492978  1
  Si0+  Si96  1  0.31891040  0.07164622  0.34704331  1
  Si0+  Si97  1  0.31964336  0.57140482  0.01497714  1
  Si0+  Si98  1  0.57419960  0.67857676  0.31974126  1
  Si0+  Si99  1  0.67773872  0.92747159  0.68377423  1
  Si0+  Si100  1  0.57449781  0.67711753  0.64774794  1
  Si0+  Si101  1  0.82487190  0.57001648  0.01589746  1
  Si0+  Si102  1  0.07202033  0.17572465  0.31623136  1
  Si0+  Si103  1  0.17834047  0.42920855  0.01614308  1
  Si0+  Si104  1  0.57163918  0.17868563  0.64962963  1
  Si0+  Si105  1  0.92849155  0.82208943  0.65156276  1
  Si0+  Si106  1  0.06971238  0.67864791  0.65114780  1
  Si0+  Si107  1  0.67651919  0.43009583  0.68198475  1
  Si0+  Si108  1  0.92793169  0.31812096  0.98467601  1
  Si0+  Si109  1  0.92680205  0.82316632  0.32173322  1
  Si0+  Si110  1  0.67503911  0.42828387  0.35091182  1
  Si0+  Si111  1  0.07017508  0.17571625  0.65006922  1
  Si0+  Si112  1  0.17908665  0.42880509  0.34937725  1
  Si0+  Si113  1  0.17908306  0.42934444  0.68136435  1
  Si0+  Si114  1  0.31963988  0.57275580  0.34860374  1
  Si0+  Si115  1  0.07324748  0.18004212  0.98450260  1
  Si0+  Si116  1  0.32207795  0.56912757  0.68155340  1
  Si0+  Si117  1  0.18069697  0.92657619  0.34634910  1
  Si0+  Si118  1  0.18044092  0.92606534  0.01886720  1
  Si0+  Si119  1  0.57333411  0.18046389  0.98095977  1
  O2-  O120  1  0.25243603  -0.00854450  0.06325796  1
  O2-  O121  1  0.25042231  -0.00164040  0.38919785  1
  O2-  O122  1  0.25366842  -0.00458055  0.73009741  1
  O2-  O123  1  0.24641285  0.50275670  0.05822481  1
  O2-  O124  1  0.25245761  0.49773050  0.39155072  1
  O2-  O125  1  0.25593606  0.49339073  0.72411726  1
  O2-  O126  1  0.75758378  -0.00449536  0.06335713  1
  O2-  O127  1  0.75127270  -0.00117960  0.39938970  1
  O2-  O128  1  0.74874291  -0.00577870  0.72663164  1
  O2-  O129  1  0.75059121  0.50821074  0.06050745  1
  O2-  O130  1  0.74706191  0.49403985  0.39461392  1
  O2-  O131  1  0.74552980  0.49804634  0.72687020  1
  O2-  O132  1  -0.00209080  0.23873879  0.27211307  1
  O2-  O133  1  -0.00262036  0.24018042  0.60617380  1
  O2-  O134  1  -0.00605589  0.24235382  0.94294937  1
  O2-  O135  1  -0.00809969  0.75133340  0.27677327  1
  O2-  O136  1  -0.00084498  0.75003710  0.60900988  1
  O2-  O137  1  0.00020970  0.74988544  0.93334456  1
  O2-  O138  1  0.50018911  0.25520586  0.26622512  1
  O2-  O139  1  0.49784214  0.24357721  0.60700241  1
  O2-  O140  1  0.50108420  0.24501353  0.93590019  1
  O2-  O141  1  0.50898593  0.75012540  0.27578238  1
  O2-  O142  1  0.50861193  0.74917705  0.60466585  1
  O2-  O143  1  0.50754308  0.75539040  0.93603042  1
  O2-  O144  1  0.07810200  0.18529039  0.08942060  1
  O2-  O145  1  0.07767074  0.17917207  0.42147859  1
  O2-  O146  1  0.07258311  0.18052052  0.75571350  1
  O2-  O147  1  0.06879140  0.67520890  0.09626948  1
  O2-  O148  1  0.07118911  0.67995601  0.43513670  1
  O2-  O149  1  0.06952292  0.67616505  0.75565960  1
  O2-  O150  1  0.57299239  0.18331179  0.08614667  1
  O2-  O151  1  0.56640924  0.18058236  0.42912355  1
  O2-  O152  1  0.57466540  0.18122002  0.75495973  1
  O2-  O153  1  0.56723578  0.67527188  0.10039998  1
  O2-  O154  1  0.57045907  0.67589715  0.42536396  1
  O2-  O155  1  0.57138365  0.67246724  0.75282749  1
  O2-  O156  1  0.17767012  0.42912504  0.24431267  1
  O2-  O157  1  0.17692000  0.43259202  0.57618798  1
  O2-  O158  1  0.17824287  0.42818916  0.91081958  1
  O2-  O159  1  0.18047794  0.92646801  0.24161264  1
  O2-  O160  1  0.18030787  0.92423542  0.56808961  1
  O2-  O161  1  0.17962486  0.92844413  0.91348178  1
  O2-  O162  1  0.67396881  0.43203785  0.24531098  1
  O2-  O163  1  0.67580849  0.43171538  0.57649690  1
  O2-  O164  1  0.67924392  0.43081159  0.90021308  1
  O2-  O165  1  0.67804429  0.92661968  0.23728984  1
  O2-  O166  1  0.67767581  0.92758345  0.57828731  1
  O2-  O167  1  0.68055606  0.93267402  0.90037064  1
  O2-  O168  1  0.42905497  0.31876085  0.09913231  1
  O2-  O169  1  0.42520604  0.31950079  0.43143142  1
  O2-  O170  1  0.42817915  0.32276902  0.76568433  1
  O2-  O171  1  0.42987060  0.82138132  0.09757872  1
  O2-  O172  1  0.42621275  0.81810804  0.43396232  1
  O2-  O173  1  0.43181669  0.81884639  0.76562675  1
  O2-  O174  1  0.93115262  0.32121926  0.08965052  1
  O2-  O175  1  0.93411651  0.32167364  0.43202500  1
  O2-  O176  1  0.93095595  0.31985555  0.76746904  1
  O2-  O177  1  0.93209291  0.82074873  0.10033291  1
  O2-  O178  1  0.93190332  0.82337964  0.42762858  1
  O2-  O179  1  0.92937409  0.82158511  0.75620696  1
  O2-  O180  1  0.31595666  0.07240619  0.24203173  1
  O2-  O181  1  0.31838232  0.07150121  0.56588156  1
  O2-  O182  1  0.31605279  0.07514576  0.90214496  1
  O2-  O183  1  0.31716699  0.57437182  0.24377542  1
  O2-  O184  1  0.31852685  0.57056666  0.57616115  1
  O2-  O185  1  0.31939618  0.56798209  0.90957245  1
  O2-  O186  1  0.82377201  0.06724295  0.23655340  1
  O2-  O187  1  0.81683347  0.07211681  0.56654027  1
  O2-  O188  1  0.82027903  0.07504697  0.90093430  1
  O2-  O189  1  0.82272490  0.56680359  0.23290514  1
  O2-  O190  1  0.82560122  0.56772959  0.56929785  1
  O2-  O191  1  0.82778793  0.56374165  0.91033297  1
  O2-  O192  1  0.05401732  0.07982065  0.27193768  1
  O2-  O193  1  0.05075291  0.07952814  0.60741220  1
  O2-  O194  1  0.05718335  0.08548554  0.93904520  1
  O2-  O195  1  0.04252476  0.58247984  0.26684241  1
  O2-  O196  1  0.04091120  0.58688741  0.60358765  1
  O2-  O197  1  0.04375051  0.57722104  0.92965647  1
  O2-  O198  1  0.53815308  0.08399871  0.26067727  1
  O2-  O199  1  0.55061588  0.08433196  0.60352635  1
  O2-  O200  1  0.55187676  0.08577840  0.93701585  1
  O2-  O201  1  0.54476298  0.58623116  0.27334212  1
  O2-  O202  1  0.54535067  0.58594586  0.59828123  1
  O2-  O203  1  0.53551508  0.58369285  0.92995089  1
  O2-  O204  1  0.16175683  0.20934802  0.26655606  1
  O2-  O205  1  0.16080549  0.20674873  0.60064923  1
  O2-  O206  1  0.15941793  0.21862118  0.93361241  1
  O2-  O207  1  0.16363435  0.71085411  0.26451038  1
  O2-  O208  1  0.16223700  0.70384851  0.60330086  1
  O2-  O209  1  0.16965245  0.70243524  0.92929864  1
  O2-  O210  1  0.66840663  0.20521746  0.26082933  1
  O2-  O211  1  0.66150630  0.21091019  0.59957718  1
  O2-  O212  1  0.66546708  0.21240010  0.93505766  1
  O2-  O213  1  0.66995847  0.69888446  0.27659607  1
  O2-  O214  1  0.67047203  0.69950368  0.60498416  1
  O2-  O215  1  0.67479422  0.69324219  0.93581101  1
  O2-  O216  1  0.08577136  0.45517685  0.06370948  1
  O2-  O217  1  0.08914822  0.46005739  0.39823600  1
  O2-  O218  1  0.09089392  0.46296372  0.73214933  1
  O2-  O219  1  0.08895055  0.95619969  0.06673831  1
  O2-  O220  1  0.08937047  0.95234982  0.39623877  1
  O2-  O221  1  0.08257182  0.95402101  0.73788938  1
  O2-  O222  1  0.58041466  0.46265142  0.06837716  1
  O2-  O223  1  0.58228277  0.45632258  0.39862220  1
  O2-  O224  1  0.58281112  0.45740275  0.72785862  1
  O2-  O225  1  0.58434371  0.95859868  0.06778339  1
  O2-  O226  1  0.57860702  0.96386551  0.40228541  1
  O2-  O227  1  0.58517226  0.95647533  0.72933913  1
  O2-  O228  1  0.20788895  0.33949030  0.06591111  1
  O2-  O229  1  0.20394138  0.33641098  0.39772998  1
  O2-  O230  1  0.19897195  0.33527230  0.72728500  1
  O2-  O231  1  0.20193940  0.82969290  0.06103378  1
  O2-  O232  1  0.21021186  0.83487292  0.39346444  1
  O2-  O233  1  0.20460099  0.82485544  0.73453616  1
  O2-  O234  1  0.70967460  0.33819411  0.07011684  1
  O2-  O235  1  0.69772990  0.33314219  0.39330784  1
  O2-  O236  1  0.70137687  0.33673404  0.72805064  1
  O2-  O237  1  0.70510405  0.82584407  0.06477187  1
  O2-  O238  1  0.69898062  0.83022089  0.40681967  1
  O2-  O239  1  0.69942801  0.83267686  0.72838050  1
  O2-  O240  1  0.44845160  0.42537443  0.27037286  1
  O2-  O241  1  0.45735050  0.41754364  0.59756155  1
  O2-  O242  1  0.45858146  0.41608261  0.93346507  1
  O2-  O243  1  0.45521756  0.91864474  0.26842310  1
  O2-  O244  1  0.45770470  0.91851103  0.59992124  1
  O2-  O245  1  0.45879265  0.92482729  0.93280215  1
  O2-  O246  1  0.96773521  0.41158392  0.26212695  1
  O2-  O247  1  0.96737725  0.41460856  0.60123095  1
  O2-  O248  1  0.96204024  0.40703793  0.93539690  1
  O2-  O249  1  0.95635120  0.91510647  0.27513907  1
  O2-  O250  1  0.95793783  0.91379509  0.60469120  1
  O2-  O251  1  0.96090660  0.92191636  0.93425545  1
  O2-  O252  1  0.32695889  0.29483612  0.26637391  1
  O2-  O253  1  0.32768707  0.29518581  0.60020273  1
  O2-  O254  1  0.33020230  0.29085026  0.93459804  1
  O2-  O255  1  0.33666979  0.78577078  0.26361966  1
  O2-  O256  1  0.33462531  0.78394295  0.60041597  1
  O2-  O257  1  0.33436812  0.79342391  0.93132263  1
  O2-  O258  1  0.83091319  0.29724600  0.26538740  1
  O2-  O259  1  0.83031588  0.29593859  0.60006682  1
  O2-  O260  1  0.83431229  0.29557149  0.93911812  1
  O2-  O261  1  0.83104303  0.79957262  0.28103282  1
  O2-  O262  1  0.83569740  0.79530695  0.60553979  1
  O2-  O263  1  0.83242397  0.79705080  0.93016332  1
  O2-  O264  1  0.41929909  0.04812042  0.06751285  1
  O2-  O265  1  0.41126536  0.04709548  0.39303313  1
  O2-  O266  1  0.42164935  0.04857005  0.73179165  1
  O2-  O267  1  0.40937652  0.54089779  0.06360919  1
  O2-  O268  1  0.41187546  0.55011662  0.39818000  1
  O2-  O269  1  0.41570712  0.54498900  0.72647379  1
  O2-  O270  1  0.92732226  0.05568535  0.06335866  1
  O2-  O271  1  0.92289494  0.04816690  0.40240370  1
  O2-  O272  1  0.91715507  0.04623845  0.73195874  1
  O2-  O273  1  0.91639394  0.53606681  0.06221714  1
  O2-  O274  1  0.91890144  0.53428826  0.39904316  1
  O2-  O275  1  0.91805855  0.53657681  0.73736317  1
  O2-  O276  1  0.28173293  0.16586385  0.06980015  1
  O2-  O277  1  0.28784330  0.16297290  0.39417972  1
  O2-  O278  1  0.28773107  0.16906541  0.73246865  1
  O2-  O279  1  0.29298940  0.66424692  0.06087603  1
  O2-  O280  1  0.28587319  0.66262064  0.39708955  1
  O2-  O281  1  0.28889390  0.65765633  0.73077395  1
  O2-  O282  1  0.79082658  0.16958006  0.06770518  1
  O2-  O283  1  0.79086992  0.17199999  0.39810129  1
  O2-  O284  1  0.78679932  0.16928567  0.73171021  1
  O2-  O285  1  0.80939856  0.66676194  0.05722512  1
  O2-  O286  1  0.79515538  0.66401961  0.40401848  1
  O2-  O287  1  0.79560625  0.66814611  0.73629439  1
