# generated using pymatgen
data_Ca2Al2SiO7
_symmetry_space_group_name_H-M   'P 1'
_cell_length_a   15.46769090
_cell_length_b   15.46862062
_cell_length_c   15.29123276
_cell_angle_alpha   89.99148831
_cell_angle_beta   90.01444286
_cell_angle_gamma   89.97148679
_symmetry_Int_Tables_number   1
_chemical_formula_structural   Ca2Al2SiO7
_chemical_formula_sum   'Ca48 Al48 Si24 O168'
_cell_volume   3658.63849726
_cell_formula_units_Z   24
loop_
 _symmetry_equiv_pos_site_id
 _symmetry_equiv_pos_as_xyz
  1  'x, y, z'
loop_
 _atom_type_symbol
 _atom_type_oxidation_number
  Ca2+  2.0
  Al0+  0.0
  Si0+  0.0
  O2-  -2.0
loop_
 _atom_site_type_symbol
 _atom_site_label
 _atom_site_symmetry_multiplicity
 _atom_site_fract_x
 _atom_site_fract_y
 _atom_site_fract_z
 _atom_site_occupancy
  Ca2+  Ca0  1  0.17489691  0.08700727  0.16891968  1
  Ca2+  Ca1  1  0.17154302  0.09672691  0.49805187  1
  Ca2+  Ca2  1  0.17129873  0.08277814  0.84651645  1
  Ca2+  Ca3  1  0.17039520  0.58146727  0.17860335  1
  Ca2+  Ca4  1  0.16703563  0.57696382  0.49481103  1
  Ca2+  Ca5  1  0.16803030  0.58009064  0.84235768  1
  Ca2+  Ca6  1  0.66374431  0.08180835  0.17338694  1
  Ca2+  Ca7  1  0.67420197  0.09526212  0.49675993  1
  Ca2+  Ca8  1  0.66816913  0.07980983  0.84799119  1
  Ca2+  Ca9  1  0.65834802  0.57945514  0.16874898  1
  Ca2+  Ca10  1  0.66409384  0.57625863  0.50457171  1
  Ca2+  Ca11  1  0.66114043  0.57311343  0.84271253  1
  Ca2+  Ca12  1  0.08310658  0.32752439  0.16612537  1
  Ca2+  Ca13  1  0.07890432  0.32623154  0.48792882  1
  Ca2+  Ca14  1  0.08689927  0.31794514  0.83064999  1
  Ca2+  Ca15  1  0.08428796  0.82553503  0.15599897  1
  Ca2+  Ca16  1  0.08243464  0.82598409  0.49153722  1
  Ca2+  Ca17  1  0.08332267  0.83452124  0.83868343  1
  Ca2+  Ca18  1  0.57315152  0.32329445  0.16063554  1
  Ca2+  Ca19  1  0.57451729  0.33409694  0.49284855  1
  Ca2+  Ca20  1  0.57572323  0.33760576  0.83487660  1
  Ca2+  Ca21  1  0.58070180  0.82383030  0.15602564  1
  Ca2+  Ca22  1  0.58156885  0.82351436  0.49108990  1
  Ca2+  Ca23  1  0.58031971  0.83657072  0.83900280  1
  Ca2+  Ca24  1  0.33141711  0.41752262  0.17554723  1
  Ca2+  Ca25  1  0.33488962  0.41496333  0.49631885  1
  Ca2+  Ca26  1  0.33885801  0.41366591  0.83835062  1
  Ca2+  Ca27  1  0.33701361  0.92797917  0.16694267  1
  Ca2+  Ca28  1  0.33277066  0.92638419  0.49865742  1
  Ca2+  Ca29  1  0.32875617  0.92496514  0.84957611  1
  Ca2+  Ca30  1  0.82706442  0.41015130  0.17107132  1
  Ca2+  Ca31  1  0.82770439  0.41233028  0.50286933  1
  Ca2+  Ca32  1  0.81882472  0.41534071  0.84103796  1
  Ca2+  Ca33  1  0.83095600  0.91939326  0.16759586  1
  Ca2+  Ca34  1  0.83389395  0.92447019  0.49805193  1
  Ca2+  Ca35  1  0.82814786  0.91560832  0.84491936  1
  Ca2+  Ca36  1  0.41559638  0.17231984  0.16030690  1
  Ca2+  Ca37  1  0.42034949  0.17870913  0.48881026  1
  Ca2+  Ca38  1  0.41825693  0.17392878  0.83516716  1
  Ca2+  Ca39  1  0.42272765  0.66792205  0.16097546  1
  Ca2+  Ca40  1  0.42012479  0.66588135  0.48955655  1
  Ca2+  Ca41  1  0.41952557  0.67288870  0.83984319  1
  Ca2+  Ca42  1  0.92502052  0.16430972  0.16839613  1
  Ca2+  Ca43  1  0.92553273  0.17058327  0.48808927  1
  Ca2+  Ca44  1  0.93100163  0.15839604  0.83299655  1
  Ca2+  Ca45  1  0.92982533  0.67035978  0.15936660  1
  Ca2+  Ca46  1  0.92221483  0.66814710  0.49030992  1
  Ca2+  Ca47  1  0.91809524  0.67120426  0.84021627  1
  Al0+  Al48  1  0.00000546  -0.00171938  -0.00349898  1
  Al0+  Al49  1  -0.00297345  -0.00013082  0.33570670  1
  Al0+  Al50  1  0.00094684  -0.00232541  0.66118715  1
  Al0+  Al51  1  -0.00146033  0.49949168  -0.00554824  1
  Al0+  Al52  1  -0.00176390  0.50083534  0.33103802  1
  Al0+  Al53  1  0.00083365  0.50074857  0.66935757  1
  Al0+  Al54  1  0.50110602  0.00034338  0.00168833  1
  Al0+  Al55  1  0.49906862  -0.00194528  0.33994278  1
  Al0+  Al56  1  0.50001029  0.00006481  0.66500244  1
  Al0+  Al57  1  0.49977591  0.49928982  -0.00144855  1
  Al0+  Al58  1  0.49927613  0.50056610  0.33119752  1
  Al0+  Al59  1  0.49977257  0.50105865  0.66770850  1
  Al0+  Al60  1  0.24943686  0.25156777  -0.00408322  1
  Al0+  Al61  1  0.24836941  0.25034085  0.33558282  1
  Al0+  Al62  1  0.25198310  0.25125099  0.65998581  1
  Al0+  Al63  1  0.25125328  0.74880558  -0.00498251  1
  Al0+  Al64  1  0.25030984  0.75025481  0.33565142  1
  Al0+  Al65  1  0.25063221  0.75046299  0.66603424  1
  Al0+  Al66  1  0.74969329  0.25065569  0.00253785  1
  Al0+  Al67  1  0.74981095  0.24919918  0.33264917  1
  Al0+  Al68  1  0.75158992  0.24964457  0.67527136  1
  Al0+  Al69  1  0.75251668  0.74829186  -0.00302145  1
  Al0+  Al70  1  0.74897298  0.74879266  0.33159309  1
  Al0+  Al71  1  0.75138998  0.75097666  0.66620468  1
  Al0+  Al72  1  0.93024725  0.82096148  0.98553993  1
  Al0+  Al73  1  0.81947746  0.07064093  0.34717398  1
  Al0+  Al74  1  0.07366731  0.67664662  0.98407255  1
  Al0+  Al75  1  0.06935222  0.18046398  0.98756763  1
  Al0+  Al76  1  0.07016067  0.17858943  0.65144981  1
  Al0+  Al77  1  0.32212128  0.57160335  0.34795341  1
  Al0+  Al78  1  0.57129531  0.17749099  0.32047636  1
  Al0+  Al79  1  0.32115087  0.07181060  0.34870932  1
  Al0+  Al80  1  0.57202481  0.67830538  0.98428454  1
  Al0+  Al81  1  0.07100615  0.68049487  0.32118990  1
  Al0+  Al82  1  0.43221389  0.32191747  0.65047160  1
  Al0+  Al83  1  0.17653454  0.42928433  0.34777450  1
  Al0+  Al84  1  0.67792824  0.42920968  0.01776090  1
  Al0+  Al85  1  0.17798024  0.92747119  0.01444575  1
  Al0+  Al86  1  0.92744820  0.32255846  0.31902120  1
  Al0+  Al87  1  0.42869091  0.32053584  0.98500411  1
  Al0+  Al88  1  0.32065661  0.07300267  0.01438184  1
  Al0+  Al89  1  0.07107800  0.17758837  0.31692246  1
  Al0+  Al90  1  0.42958023  0.82252285  0.98659142  1
  Al0+  Al91  1  0.42820229  0.32067470  0.31804676  1
  Al0+  Al92  1  0.57265579  0.17793164  0.98590772  1
  Al0+  Al93  1  0.67949393  0.92817951  0.01389058  1
  Al0+  Al94  1  0.57079553  0.67931701  0.32061270  1
  Al0+  Al95  1  0.67919928  0.43025440  0.68116200  1
  Si0+  Si96  1  0.92864722  0.81936134  0.64899957  1
  Si0+  Si97  1  0.17959176  0.42918472  0.68227173  1
  Si0+  Si98  1  0.42687339  0.82268534  0.31833147  1
  Si0+  Si99  1  0.17979798  0.92745471  0.68114799  1
  Si0+  Si100  1  0.67936149  0.42973112  0.34803040  1
  Si0+  Si101  1  0.31991757  0.07167767  0.68122415  1
  Si0+  Si102  1  0.32066466  0.57258553  0.68329463  1
  Si0+  Si103  1  0.17691124  0.42909058  0.01238191  1
  Si0+  Si104  1  0.56998326  0.68145299  0.65266127  1
  Si0+  Si105  1  0.67976388  0.92799918  0.68113204  1
  Si0+  Si106  1  0.82250247  0.06910430  0.68227778  1
  Si0+  Si107  1  0.17687777  0.92835890  0.35024009  1
  Si0+  Si108  1  0.67802207  0.92533742  0.35142354  1
  Si0+  Si109  1  0.31986324  0.57003294  0.01328988  1
  Si0+  Si110  1  0.57424948  0.17569512  0.65110824  1
  Si0+  Si111  1  0.92703089  0.82195238  0.31716983  1
  Si0+  Si112  1  0.82329934  0.07223442  0.01690351  1
  Si0+  Si113  1  0.82293581  0.57047214  0.01842538  1
  Si0+  Si114  1  0.92756177  0.32226832  0.65254404  1
  Si0+  Si115  1  0.07261204  0.67817572  0.65046314  1
  Si0+  Si116  1  0.82020710  0.57222617  0.34763433  1
  Si0+  Si117  1  0.92632513  0.32295496  0.98146408  1
  Si0+  Si118  1  0.42795794  0.82273917  0.65011918  1
  Si0+  Si119  1  0.82361122  0.57452046  0.68456637  1
  O2-  O120  1  0.24945299  -0.00049233  0.06396124  1
  O2-  O121  1  0.24281781  -0.00059404  0.39594720  1
  O2-  O122  1  0.24842407  0.00074242  0.72279421  1
  O2-  O123  1  0.24439555  0.50337743  0.05340970  1
  O2-  O124  1  0.25077665  0.49928224  0.39925161  1
  O2-  O125  1  0.24979128  0.50100117  0.72504516  1
  O2-  O126  1  0.75089033  0.00637926  0.05944131  1
  O2-  O127  1  0.74291093  -0.00222703  0.39619866  1
  O2-  O128  1  0.74681082  0.00265107  0.72351368  1
  O2-  O129  1  0.75394010  0.50322384  0.06390945  1
  O2-  O130  1  0.75036057  0.50089563  0.39117619  1
  O2-  O131  1  0.75601736  0.50427352  0.72719431  1
  O2-  O132  1  0.00095084  0.25244755  0.26923020  1
  O2-  O133  1  -0.00468204  0.25419068  0.60696977  1
  O2-  O134  1  -0.00592307  0.25324170  0.93750875  1
  O2-  O135  1  -0.00059522  0.75727260  0.27485698  1
  O2-  O136  1  -0.00060294  0.74730328  0.60831425  1
  O2-  O137  1  0.00395423  0.75105160  0.93385927  1
  O2-  O138  1  0.49562928  0.24410931  0.26982406  1
  O2-  O139  1  0.50831704  0.24683057  0.60729412  1
  O2-  O140  1  0.50127375  0.24930750  0.93425129  1
  O2-  O141  1  0.49594345  0.75389989  0.27613411  1
  O2-  O142  1  0.49999090  0.75238110  0.60863334  1
  O2-  O143  1  0.50348202  0.75337109  0.93388343  1
  O2-  O144  1  0.06971395  0.18217737  0.09964854  1
  O2-  O145  1  0.06738756  0.17926031  0.43116531  1
  O2-  O146  1  0.06964899  0.17752034  0.76469143  1
  O2-  O147  1  0.07173023  0.67484861  0.09728865  1
  O2-  O148  1  0.06732902  0.68189680  0.43537551  1
  O2-  O149  1  0.07408375  0.67874385  0.75490073  1
  O2-  O150  1  0.57243070  0.17910926  0.09882988  1
  O2-  O151  1  0.57298586  0.18385247  0.43500275  1
  O2-  O152  1  0.57217021  0.17069368  0.75602635  1
  O2-  O153  1  0.56817370  0.67798226  0.09757322  1
  O2-  O154  1  0.57200570  0.68081562  0.43500732  1
  O2-  O155  1  0.56945637  0.68287345  0.75704435  1
  O2-  O156  1  0.17524936  0.43276425  0.23414585  1
  O2-  O157  1  0.17670003  0.43148663  0.57785347  1
  O2-  O158  1  0.17821278  0.42920467  0.90642157  1
  O2-  O159  1  0.17790194  0.92590018  0.24557560  1
  O2-  O160  1  0.18177848  0.92301959  0.57620200  1
  O2-  O161  1  0.17932295  0.93128848  0.89962898  1
  O2-  O162  1  0.68016162  0.43121543  0.24351519  1
  O2-  O163  1  0.68029821  0.43301696  0.56762598  1
  O2-  O164  1  0.67931851  0.43220501  0.90399444  1
  O2-  O165  1  0.68068765  0.92148940  0.24661311  1
  O2-  O166  1  0.68263202  0.92354098  0.57631079  1
  O2-  O167  1  0.68260537  0.92993081  0.89958657  1
  O2-  O168  1  0.42712464  0.32179658  0.09767934  1
  O2-  O169  1  0.43335083  0.32207753  0.43229826  1
  O2-  O170  1  0.43104084  0.32135267  0.76302256  1
  O2-  O171  1  0.42941399  0.81906051  0.09981399  1
  O2-  O172  1  0.42886398  0.82148322  0.42516637  1
  O2-  O173  1  0.42732495  0.82417741  0.75448112  1
  O2-  O174  1  0.92820344  0.32536381  0.08655650  1
  O2-  O175  1  0.92608050  0.32106524  0.43354488  1
  O2-  O176  1  0.92904356  0.32158736  0.75786825  1
  O2-  O177  1  0.92997160  0.81850721  0.09882322  1
  O2-  O178  1  0.92625616  0.81906086  0.42389293  1
  O2-  O179  1  0.92713698  0.82076800  0.75329955  1
  O2-  O180  1  0.32329865  0.06945176  0.23657656  1
  O2-  O181  1  0.31984137  0.06949376  0.57619858  1
  O2-  O182  1  0.31786045  0.07344628  0.89962644  1
  O2-  O183  1  0.32109397  0.57323779  0.23467780  1
  O2-  O184  1  0.32042544  0.57544818  0.57867619  1
  O2-  O185  1  0.31981167  0.56870924  0.90725982  1
  O2-  O186  1  0.82070011  0.06701674  0.23484260  1
  O2-  O187  1  0.82220731  0.06857525  0.57729535  1
  O2-  O188  1  0.82386742  0.06993975  0.91029577  1
  O2-  O189  1  0.81924142  0.57500370  0.24340147  1
  O2-  O190  1  0.82348006  0.57714725  0.57878767  1
  O2-  O191  1  0.82344951  0.56769515  0.91222508  1
  O2-  O192  1  0.03867389  0.07920046  0.26765622  1
  O2-  O193  1  0.04082779  0.08143802  0.59777721  1
  O2-  O194  1  0.03931219  0.08431516  0.93179856  1
  O2-  O195  1  0.03779601  0.58612215  0.26727883  1
  O2-  O196  1  0.04566702  0.58529018  0.60457928  1
  O2-  O197  1  0.04084935  0.58025613  0.92744498  1
  O2-  O198  1  0.55061740  0.07431619  0.27629083  1
  O2-  O199  1  0.54874759  0.08258095  0.60283265  1
  O2-  O200  1  0.54674890  0.07929589  0.93279396  1
  O2-  O201  1  0.54113982  0.58385189  0.26663594  1
  O2-  O202  1  0.54123581  0.59023245  0.60536211  1
  O2-  O203  1  0.53663749  0.58295278  0.92990398  1
  O2-  O204  1  0.17035547  0.20311329  0.26764937  1
  O2-  O205  1  0.16609828  0.21100852  0.59850435  1
  O2-  O206  1  0.16332554  0.21436590  0.92988709  1
  O2-  O207  1  0.16875898  0.70810213  0.26983058  1
  O2-  O208  1  0.16356685  0.70892399  0.60290085  1
  O2-  O209  1  0.17131310  0.70178775  0.92850800  1
  O2-  O210  1  0.66829041  0.20651252  0.26785993  1
  O2-  O211  1  0.67076000  0.20028778  0.61035553  1
  O2-  O212  1  0.67215425  0.20567322  0.93348042  1
  O2-  O213  1  0.66696576  0.70888444  0.26635388  1
  O2-  O214  1  0.66290241  0.70854785  0.60588053  1
  O2-  O215  1  0.67154494  0.70107631  0.93210608  1
  O2-  O216  1  0.08300763  0.45277701  0.05667108  1
  O2-  O217  1  0.07883140  0.46225448  0.40250679  1
  O2-  O218  1  0.08745609  0.45571411  0.73093033  1
  O2-  O219  1  0.07803338  0.95227562  0.06439486  1
  O2-  O220  1  0.08179622  0.94922496  0.39655125  1
  O2-  O221  1  0.08543090  0.95219189  0.72482995  1
  O2-  O222  1  0.58156542  0.46274014  0.06959238  1
  O2-  O223  1  0.58876302  0.46047042  0.39609175  1
  O2-  O224  1  0.58372731  0.46518108  0.73498107  1
  O2-  O225  1  0.58242798  0.95336795  0.06794652  1
  O2-  O226  1  0.58370396  0.94421984  0.39907150  1
  O2-  O227  1  0.58522754  0.95135287  0.72538478  1
  O2-  O228  1  0.20726400  0.33908907  0.05982295  1
  O2-  O229  1  0.20199777  0.33105577  0.40234390  1
  O2-  O230  1  0.20993599  0.33700628  0.72780124  1
  O2-  O231  1  0.20494579  0.82682879  0.06255672  1
  O2-  O232  1  0.20596046  0.83648645  0.40004973  1
  O2-  O233  1  0.20902282  0.83625499  0.72949498  1
  O2-  O234  1  0.70905802  0.33242444  0.07056382  1
  O2-  O235  1  0.70793825  0.33886426  0.39670215  1
  O2-  O236  1  0.70783672  0.33355686  0.73711528  1
  O2-  O237  1  0.71270800  0.83098778  0.06517577  1
  O2-  O238  1  0.70993251  0.83353222  0.40042477  1
  O2-  O239  1  0.71119717  0.83763338  0.72964873  1
  O2-  O240  1  0.45871476  0.41810916  0.26640787  1
  O2-  O241  1  0.46201243  0.42002675  0.59833071  1
  O2-  O242  1  0.45947649  0.41774571  0.93052534  1
  O2-  O243  1  0.45238197  0.91623978  0.27462329  1
  O2-  O244  1  0.45576265  0.91418087  0.60124651  1
  O2-  O245  1  0.45693744  0.92019744  0.93178928  1
  O2-  O246  1  0.95066474  0.42152446  0.26619644  1
  O2-  O247  1  0.95099970  0.41781507  0.60847321  1
  O2-  O248  1  0.95121574  0.41532537  0.93250101  1
  O2-  O249  1  0.94757424  0.91662213  0.27402139  1
  O2-  O250  1  0.95788528  0.90965910  0.59919200  1
  O2-  O251  1  0.95547405  0.91834615  0.92811950  1
  O2-  O252  1  0.32750580  0.29819022  0.27019623  1
  O2-  O253  1  0.33602870  0.29145860  0.59613339  1
  O2-  O254  1  0.33117138  0.29314346  0.92882599  1
  O2-  O255  1  0.33334656  0.79876893  0.27401783  1
  O2-  O256  1  0.33680944  0.79286732  0.60235835  1
  O2-  O257  1  0.33421976  0.79023472  0.92871860  1
  O2-  O258  1  0.83071211  0.29155502  0.26606638  1
  O2-  O259  1  0.83281478  0.29668160  0.60855034  1
  O2-  O260  1  0.83248551  0.29762927  0.93656651  1
  O2-  O261  1  0.83512612  0.79272945  0.27156842  1
  O2-  O262  1  0.83701418  0.79183130  0.60019871  1
  O2-  O263  1  0.83462318  0.78832488  0.92824827  1
  O2-  O264  1  0.41901594  0.04553422  0.06615133  1
  O2-  O265  1  0.41568116  0.03767359  0.40776513  1
  O2-  O266  1  0.41280695  0.04297699  0.72634135  1
  O2-  O267  1  0.41015825  0.53954666  0.06054623  1
  O2-  O268  1  0.42067831  0.54280573  0.40271255  1
  O2-  O269  1  0.41236146  0.54509631  0.73046210  1
  O2-  O270  1  0.91501557  0.04136616  0.06246646  1
  O2-  O271  1  0.91400753  0.03693466  0.40596404  1
  O2-  O272  1  0.91347041  0.03464139  0.72789967  1
  O2-  O273  1  0.91734467  0.54382114  0.06259654  1
  O2-  O274  1  0.91122151  0.54548762  0.39748553  1
  O2-  O275  1  0.91812729  0.55144241  0.73049024  1
  O2-  O276  1  0.28814537  0.17103738  0.06524828  1
  O2-  O277  1  0.29126672  0.16787569  0.40459985  1
  O2-  O278  1  0.29250698  0.16447265  0.72621137  1
  O2-  O279  1  0.29665053  0.66306877  0.05892366  1
  O2-  O280  1  0.29373884  0.66995144  0.40360357  1
  O2-  O281  1  0.29166787  0.66456986  0.73069323  1
  O2-  O282  1  0.80354317  0.16731388  0.06079759  1
  O2-  O283  1  0.78912187  0.16708976  0.40394437  1
  O2-  O284  1  0.80254469  0.16192229  0.73116058  1
  O2-  O285  1  0.80054532  0.66505294  0.06213979  1
  O2-  O286  1  0.79140819  0.66326882  0.39814093  1
  O2-  O287  1  0.79606724  0.66790224  0.73043706  1
