# generated using pymatgen
data_Ca2Al2SiO7
_symmetry_space_group_name_H-M   'P 1'
_cell_length_a   15.46408390
_cell_length_b   15.46312992
_cell_length_c   15.28690107
_cell_angle_alpha   89.97948761
_cell_angle_beta   89.98436932
_cell_angle_gamma   89.98563001
_symmetry_Int_Tables_number   1
_chemical_formula_structural   Ca2Al2SiO7
_chemical_formula_sum   'Ca48 Al48 Si24 O168'
_cell_volume   3655.45127606
_cell_formula_units_Z   24
loop_
 _symmetry_equiv_pos_site_id
 _symmetry_equiv_pos_as_xyz
  1  'x, y, z'
loop_
 _atom_type_symbol
 _atom_type_oxidation_number
  Ca2+  2.0
  Al0+  0.0
  Si0+  0.0
  O2-  -2.0
loop_
 _atom_site_type_symbol
 _atom_site_label
 _atom_site_symmetry_multiplicity
 _atom_site_fract_x
 _atom_site_fract_y
 _atom_site_fract_z
 _atom_site_occupancy
  Ca2+  Ca0  1  0.16170901  0.08007320  0.16480792  1
  Ca2+  Ca1  1  0.16964003  0.08034004  0.50386057  1
  Ca2+  Ca2  1  0.16660976  0.07910655  0.84439820  1
  Ca2+  Ca3  1  0.17901912  0.58563625  0.17320884  1
  Ca2+  Ca4  1  0.17159680  0.58702423  0.49746816  1
  Ca2+  Ca5  1  0.17861179  0.57829109  0.84242302  1
  Ca2+  Ca6  1  0.67012510  0.09013666  0.17136203  1
  Ca2+  Ca7  1  0.67349548  0.08873636  0.50168318  1
  Ca2+  Ca8  1  0.67329119  0.08061115  0.84349843  1
  Ca2+  Ca9  1  0.67406529  0.58583329  0.17019438  1
  Ca2+  Ca10  1  0.67367998  0.59075531  0.50357696  1
  Ca2+  Ca11  1  0.67289765  0.58738337  0.84089659  1
  Ca2+  Ca12  1  0.07034917  0.32965992  0.15903614  1
  Ca2+  Ca13  1  0.06918241  0.33544337  0.49507417  1
  Ca2+  Ca14  1  0.07238087  0.32837920  0.83400479  1
  Ca2+  Ca15  1  0.08331712  0.82919467  0.16432442  1
  Ca2+  Ca16  1  0.07823458  0.82533491  0.49267147  1
  Ca2+  Ca17  1  0.08279043  0.83490816  0.83366949  1
  Ca2+  Ca18  1  0.58357772  0.32307859  0.16109689  1
  Ca2+  Ca19  1  0.58220149  0.32949925  0.49830954  1
  Ca2+  Ca20  1  0.57553036  0.33206748  0.83650025  1
  Ca2+  Ca21  1  0.58611210  0.82354098  0.16228279  1
  Ca2+  Ca22  1  0.57701538  0.82410510  0.49444347  1
  Ca2+  Ca23  1  0.59029861  0.82347474  0.83106179  1
  Ca2+  Ca24  1  0.34127698  0.42700317  0.16848768  1
  Ca2+  Ca25  1  0.33704080  0.42258323  0.50456625  1
  Ca2+  Ca26  1  0.34041046  0.41851653  0.84305592  1
  Ca2+  Ca27  1  0.32846384  0.91001545  0.17039575  1
  Ca2+  Ca28  1  0.33831503  0.90980585  0.50158087  1
  Ca2+  Ca29  1  0.32653894  0.91000491  0.83925785  1
  Ca2+  Ca30  1  0.83884790  0.42126148  0.17127421  1
  Ca2+  Ca31  1  0.83536308  0.42309545  0.50315402  1
  Ca2+  Ca32  1  0.83841908  0.42401281  0.83637188  1
  Ca2+  Ca33  1  0.82386638  0.92983964  0.16677200  1
  Ca2+  Ca34  1  0.83245202  0.93027633  0.50503479  1
  Ca2+  Ca35  1  0.82684215  0.92810586  0.84391013  1
  Ca2+  Ca36  1  0.42920394  0.17138790  0.15800586  1
  Ca2+  Ca37  1  0.42319541  0.17289114  0.49330425  1
  Ca2+  Ca38  1  0.41977692  0.17509923  0.83113513  1
  Ca2+  Ca39  1  0.42608667  0.66289450  0.16263194  1
  Ca2+  Ca40  1  0.42710198  0.67327818  0.49159453  1
  Ca2+  Ca41  1  0.43026976  0.66822190  0.82918836  1
  Ca2+  Ca42  1  0.91237632  0.17503138  0.15800648  1
  Ca2+  Ca43  1  0.90431643  0.17725060  0.49551893  1
  Ca2+  Ca44  1  0.91013406  0.17297190  0.83149072  1
  Ca2+  Ca45  1  0.92052103  0.65846816  0.16209976  1
  Ca2+  Ca46  1  0.91994690  0.65971672  0.49121826  1
  Ca2+  Ca47  1  0.91311152  0.66415265  0.82918552  1
  Al0+  Al48  1  -0.00015934  -0.00174825  0.00622279  1
  Al0+  Al49  1  0.00004240  0.00023974  0.34009831  1
  Al0+  Al50  1  0.00160045  -0.00032972  0.67003135  1
  Al0+  Al51  1  0.00351935  0.49956264  -0.00204835  1
  Al0+  Al52  1  0.00104891  0.49951969  0.32837897  1
  Al0+  Al53  1  0.00168092  0.49788959  0.66742150  1
  Al0+  Al54  1  0.49774337  -0.00240690  -0.00089127  1
  Al0+  Al55  1  0.49844134  -0.00001340  0.32711764  1
  Al0+  Al56  1  0.49932433  -0.00068425  0.66492207  1
  Al0+  Al57  1  0.50325214  0.50213961  -0.00272250  1
  Al0+  Al58  1  0.50034028  0.50117110  0.33693840  1
  Al0+  Al59  1  0.50212040  0.49928451  0.65941764  1
  Al0+  Al60  1  0.24680321  0.24994886  -0.00494669  1
  Al0+  Al61  1  0.24722387  0.24910035  0.33518094  1
  Al0+  Al62  1  0.24880041  0.24913059  0.66289645  1
  Al0+  Al63  1  0.25002115  0.74839621  0.00757797  1
  Al0+  Al64  1  0.24765569  0.74897551  0.33284068  1
  Al0+  Al65  1  0.24990222  0.74873515  0.66541633  1
  Al0+  Al66  1  0.74861894  0.25302857  -0.00675679  1
  Al0+  Al67  1  0.74922399  0.25260150  0.33033053  1
  Al0+  Al68  1  0.74995264  0.25287144  0.66839745  1
  Al0+  Al69  1  0.75230595  0.75163036  0.00466925  1
  Al0+  Al70  1  0.75007138  0.75309725  0.33474903  1
  Al0+  Al71  1  0.75294702  0.75203031  0.66523024  1
  Al0+  Al72  1  0.81906497  0.07248157  0.34757247  1
  Al0+  Al73  1  0.42706937  0.82004758  0.65292671  1
  Al0+  Al74  1  0.57358523  0.67815199  0.31598827  1
  Al0+  Al75  1  0.42706458  0.32034620  0.65161170  1
  Al0+  Al76  1  0.81805452  0.07381948  0.01515880  1
  Al0+  Al77  1  0.82123708  0.57109086  0.34578221  1
  Al0+  Al78  1  0.56954295  0.18143064  0.32132624  1
  Al0+  Al79  1  0.92794249  0.32311826  0.98260471  1
  Al0+  Al80  1  0.06778137  0.67979936  0.31886451  1
  Al0+  Al81  1  0.17924027  0.92872893  0.01528377  1
  Al0+  Al82  1  0.93018426  0.31951408  0.31943351  1
  Al0+  Al83  1  0.82151793  0.57078320  0.67961103  1
  Al0+  Al84  1  0.42820138  0.82027401  0.31612234  1
  Al0+  Al85  1  0.82301311  0.56990332  0.01316108  1
  Al0+  Al86  1  0.57344627  0.68188528  0.98624244  1
  Al0+  Al87  1  0.92961842  0.32033985  0.65101829  1
  Al0+  Al88  1  0.57510843  0.67939359  0.65104412  1
  Al0+  Al89  1  0.32318287  0.56857792  0.01272399  1
  Al0+  Al90  1  0.67581586  0.92832459  0.01535971  1
  Al0+  Al91  1  0.82021730  0.07254984  0.68140235  1
  Al0+  Al92  1  0.06858471  0.17578850  0.98555253  1
  Al0+  Al93  1  0.42955032  0.32144600  0.98827971  1
  Al0+  Al94  1  0.57144942  0.17514906  0.98345734  1
  Al0+  Al95  1  0.32151265  0.57055655  0.34957277  1
  Si0+  Si96  1  0.17938038  0.92893331  0.35114637  1
  Si0+  Si97  1  0.07043048  0.67849020  0.65323605  1
  Si0+  Si98  1  0.57120996  0.17784115  0.65062345  1
  Si0+  Si99  1  0.17873328  0.42664892  0.01687614  1
  Si0+  Si100  1  0.32163776  0.07140278  0.34806592  1
  Si0+  Si101  1  0.18058600  0.92794023  0.68134026  1
  Si0+  Si102  1  0.92787772  0.82594287  0.31694177  1
  Si0+  Si103  1  0.32104593  0.07221044  0.68067309  1
  Si0+  Si104  1  0.93107158  0.82317902  0.65265128  1
  Si0+  Si105  1  0.32085935  0.07416365  0.01621063  1
  Si0+  Si106  1  0.17952942  0.42730033  0.68203970  1
  Si0+  Si107  1  0.93104523  0.81917397  0.98607798  1
  Si0+  Si108  1  0.67621874  0.42875982  0.68495134  1
  Si0+  Si109  1  0.67762745  0.92882871  0.68220758  1
  Si0+  Si110  1  0.32109311  0.56924842  0.68086550  1
  Si0+  Si111  1  0.17814809  0.42736925  0.35041828  1
  Si0+  Si112  1  0.07114144  0.17551410  0.64842495  1
  Si0+  Si113  1  0.67780001  0.43003005  0.01616276  1
  Si0+  Si114  1  0.42422665  0.32248700  0.31849113  1
  Si0+  Si115  1  0.07347781  0.67924696  0.98389944  1
  Si0+  Si116  1  0.67531540  0.92932345  0.35165114  1
  Si0+  Si117  1  0.42467629  0.81966828  0.98432244  1
  Si0+  Si118  1  0.67814579  0.42815212  0.35046272  1
  Si0+  Si119  1  0.07332892  0.17536504  0.31781372  1
  O2-  O120  1  0.25392137  0.00375858  0.06137916  1
  O2-  O121  1  0.25157573  -0.00048462  0.39216372  1
  O2-  O122  1  0.25261913  -0.00183816  0.72257183  1
  O2-  O123  1  0.25164447  0.49091352  0.06007678  1
  O2-  O124  1  0.24972630  0.49226268  0.39660192  1
  O2-  O125  1  0.25484382  0.49413560  0.72424687  1
  O2-  O126  1  0.73918799  0.00872575  0.06489315  1
  O2-  O127  1  0.74479843  -0.00224378  0.39596857  1
  O2-  O128  1  0.74391339  -0.00048862  0.72668626  1
  O2-  O129  1  0.75132090  0.49346515  0.06035566  1
  O2-  O130  1  0.74319197  0.50107816  0.39414755  1
  O2-  O131  1  0.74357974  0.50028120  0.72700888  1
  O2-  O132  1  0.00301969  0.24209163  0.27517028  1
  O2-  O133  1  0.00051708  0.24162732  0.60396026  1
  O2-  O134  1  -0.00514700  0.24486729  0.93413244  1
  O2-  O135  1  -0.00978911  0.75153244  0.27230615  1
  O2-  O136  1  -0.00306527  0.74699672  0.61086099  1
  O2-  O137  1  0.00062490  0.74745163  0.94087897  1
  O2-  O138  1  0.49281293  0.25418486  0.27538195  1
  O2-  O139  1  0.50097423  0.24482374  0.60570094  1
  O2-  O140  1  0.49658582  0.24600506  0.93597754  1
  O2-  O141  1  0.50006340  0.74882672  0.26606183  1
  O2-  O142  1  0.50042024  0.75001007  0.60333801  1
  O2-  O143  1  0.49926487  0.75793335  0.94007522  1
  O2-  O144  1  0.06841041  0.17804345  0.09934065  1
  O2-  O145  1  0.07676593  0.17600353  0.42357364  1
  O2-  O146  1  0.07317383  0.17466562  0.75349627  1
  O2-  O147  1  0.07379550  0.68031701  0.08869231  1
  O2-  O148  1  0.06798420  0.68192805  0.43295705  1
  O2-  O149  1  0.07335380  0.68069961  0.75836266  1
  O2-  O150  1  0.57033317  0.17926761  0.09720396  1
  O2-  O151  1  0.56811686  0.18320053  0.43497444  1
  O2-  O152  1  0.56875608  0.17706577  0.75564097  1
  O2-  O153  1  0.57313888  0.68021757  0.09868209  1
  O2-  O154  1  0.57342030  0.68049475  0.42970584  1
  O2-  O155  1  0.57487026  0.68059046  0.76492081  1
  O2-  O156  1  0.17895036  0.42743983  0.24527334  1
  O2-  O157  1  0.17780136  0.43001666  0.57694623  1
  O2-  O158  1  0.17716577  0.43092925  0.91074815  1
  O2-  O159  1  0.17743754  0.92996338  0.24650449  1
  O2-  O160  1  0.17867946  0.92803583  0.57629175  1
  O2-  O161  1  0.18159380  0.92606249  0.90145148  1
  O2-  O162  1  0.67937206  0.42522663  0.24519723  1
  O2-  O163  1  0.67745953  0.42554004  0.57929377  1
  O2-  O164  1  0.67429178  0.43401977  0.91049561  1
  O2-  O165  1  0.67636362  0.92996133  0.24646504  1
  O2-  O166  1  0.67940779  0.92947106  0.57657889  1
  O2-  O167  1  0.68320065  0.92525446  0.90137478  1
  O2-  O168  1  0.43186373  0.32125398  0.10196664  1
  O2-  O169  1  0.42327475  0.31885037  0.42445779  1
  O2-  O170  1  0.42579953  0.31892566  0.76424668  1
  O2-  O171  1  0.42055262  0.81473462  0.08930103  1
  O2-  O172  1  0.43002412  0.81919248  0.43003143  1
  O2-  O173  1  0.42077375  0.81638811  0.76602853  1
  O2-  O174  1  0.93197921  0.32555747  0.09610880  1
  O2-  O175  1  0.93115778  0.31980753  0.43299696  1
  O2-  O176  1  0.93368340  0.32279120  0.76325873  1
  O2-  O177  1  0.93360246  0.81797088  0.09092437  1
  O2-  O178  1  0.93321531  0.82816409  0.42321268  1
  O2-  O179  1  0.93415443  0.82501116  0.75771647  1
  O2-  O180  1  0.31901692  0.07378371  0.24357208  1
  O2-  O181  1  0.31829082  0.07337808  0.57534076  1
  O2-  O182  1  0.31833900  0.07339056  0.91013302  1
  O2-  O183  1  0.32063177  0.56918061  0.23658957  1
  O2-  O184  1  0.31645259  0.57026378  0.57590231  1
  O2-  O185  1  0.32045862  0.56932117  0.89880781  1
  O2-  O186  1  0.81919538  0.07215447  0.23519637  1
  O2-  O187  1  0.81920652  0.07094990  0.56787933  1
  O2-  O188  1  0.82023057  0.06883288  0.90127228  1
  O2-  O189  1  0.82327799  0.56692212  0.23307142  1
  O2-  O190  1  0.82422719  0.56856232  0.56653701  1
  O2-  O191  1  0.82191173  0.57059749  0.89964564  1
  O2-  O192  1  0.04957610  0.08024693  0.27512407  1
  O2-  O193  1  0.04915151  0.08027251  0.60335576  1
  O2-  O194  1  0.04615062  0.07440967  0.93548100  1
  O2-  O195  1  0.04214189  0.58349602  0.26329747  1
  O2-  O196  1  0.04545943  0.58639645  0.60590373  1
  O2-  O197  1  0.04943912  0.58717048  0.93557097  1
  O2-  O198  1  0.54059992  0.08557084  0.26663582  1
  O2-  O199  1  0.54796022  0.08393228  0.60389779  1
  O2-  O200  1  0.54471857  0.07561847  0.93130959  1
  O2-  O201  1  0.54619084  0.57750493  0.26745224  1
  O2-  O202  1  0.54953323  0.58073140  0.59834902  1
  O2-  O203  1  0.54114268  0.58690910  0.93067490  1
  O2-  O204  1  0.16655186  0.20087404  0.27065559  1
  O2-  O205  1  0.16388179  0.20267369  0.60087175  1
  O2-  O206  1  0.16586828  0.20511409  0.92961437  1
  O2-  O207  1  0.16262445  0.71423817  0.26505747  1
  O2-  O208  1  0.16024910  0.70980747  0.60382296  1
  O2-  O209  1  0.16427768  0.71101663  0.93634311  1
  O2-  O210  1  0.66355489  0.21540613  0.26574647  1
  O2-  O211  1  0.66391432  0.20770426  0.60519177  1
  O2-  O212  1  0.66744474  0.20660450  0.92845134  1
  O2-  O213  1  0.67293635  0.70804728  0.26543441  1
  O2-  O214  1  0.67304053  0.71043712  0.59774647  1
  O2-  O215  1  0.67065284  0.71414278  0.93351737  1
  O2-  O216  1  0.08815588  0.45881907  0.06447770  1
  O2-  O217  1  0.08650959  0.45922978  0.39729436  1
  O2-  O218  1  0.09078383  0.46028787  0.73185156  1
  O2-  O219  1  0.08383495  0.95684151  0.07256674  1
  O2-  O220  1  0.08917797  0.95761802  0.40241553  1
  O2-  O221  1  0.08973721  0.95568315  0.73078712  1
  O2-  O222  1  0.58729699  0.46016733  0.06523974  1
  O2-  O223  1  0.58319083  0.44788862  0.39703777  1
  O2-  O224  1  0.58117585  0.45230686  0.72949236  1
  O2-  O225  1  0.57274631  0.94302349  0.06336728  1
  O2-  O226  1  0.58111211  0.95622872  0.39610163  1
  O2-  O227  1  0.58228845  0.94995724  0.72714825  1
  O2-  O228  1  0.19724377  0.33105213  0.06089969  1
  O2-  O229  1  0.19790658  0.33210710  0.39747436  1
  O2-  O230  1  0.20265760  0.33323425  0.72702310  1
  O2-  O231  1  0.21010307  0.83324081  0.07153767  1
  O2-  O232  1  0.20577153  0.83714794  0.39937825  1
  O2-  O233  1  0.20700031  0.83560602  0.72947144  1
  O2-  O234  1  0.69851307  0.33425740  0.05894679  1
  O2-  O235  1  0.70903008  0.33723869  0.39957232  1
  O2-  O236  1  0.70376850  0.33660822  0.73257917  1
  O2-  O237  1  0.71590450  0.83554082  0.07187973  1
  O2-  O238  1  0.70158213  0.83641884  0.39909583  1
  O2-  O239  1  0.70790748  0.83672763  0.72854134  1
  O2-  O240  1  0.44957757  0.41696716  0.27643930  1
  O2-  O241  1  0.45799673  0.41581726  0.59600668  1
  O2-  O242  1  0.46303015  0.41738673  0.93258495  1
  O2-  O243  1  0.45047354  0.92011095  0.26398215  1
  O2-  O244  1  0.45097182  0.92056292  0.60083133  1
  O2-  O245  1  0.43948402  0.91637416  0.94107730  1
  O2-  O246  1  0.96489198  0.41346904  0.26411647  1
  O2-  O247  1  0.96660516  0.41564166  0.59708933  1
  O2-  O248  1  0.96594047  0.41889446  0.92831505  1
  O2-  O249  1  0.96224751  0.91672737  0.27084748  1
  O2-  O250  1  0.96519871  0.91226205  0.60291158  1
  O2-  O251  1  0.96185926  0.90984439  0.93835492  1
  O2-  O252  1  0.33009889  0.29749262  0.27380897  1
  O2-  O253  1  0.33037683  0.29053430  0.59651723  1
  O2-  O254  1  0.32938501  0.29905817  0.93576290  1
  O2-  O255  1  0.32776379  0.79387065  0.26766523  1
  O2-  O256  1  0.32882324  0.79080589  0.59817592  1
  O2-  O257  1  0.33287216  0.78716832  0.93727708  1
  O2-  O258  1  0.83377886  0.29176975  0.26561339  1
  O2-  O259  1  0.83099937  0.29337928  0.59892840  1
  O2-  O260  1  0.82829982  0.30326717  0.92974632  1
  O2-  O261  1  0.83180047  0.80897127  0.27510068  1
  O2-  O262  1  0.83857836  0.80217877  0.60480457  1
  O2-  O263  1  0.84009759  0.79205634  0.93749348  1
  O2-  O264  1  0.41525020  0.05105942  0.06084226  1
  O2-  O265  1  0.41345091  0.04442909  0.39601386  1
  O2-  O266  1  0.41422566  0.04864363  0.72691208  1
  O2-  O267  1  0.41995087  0.53924617  0.06641381  1
  O2-  O268  1  0.41825337  0.54247285  0.40526045  1
  O2-  O269  1  0.41552880  0.54490811  0.72381784  1
  O2-  O270  1  0.91394099  0.03804108  0.06840656  1
  O2-  O271  1  0.91600097  0.04219494  0.40331299  1
  O2-  O272  1  0.91754358  0.03966860  0.73294802  1
  O2-  O273  1  0.92218357  0.54211876  0.06380760  1
  O2-  O274  1  0.91843331  0.53705363  0.39824666  1
  O2-  O275  1  0.91864726  0.53857798  0.73309003  1
  O2-  O276  1  0.29271065  0.16706744  0.06229014  1
  O2-  O277  1  0.29226889  0.16245695  0.39819705  1
  O2-  O278  1  0.28981027  0.16280255  0.72862611  1
  O2-  O279  1  0.28680954  0.66142841  0.06917568  1
  O2-  O280  1  0.28297071  0.66538498  0.40296546  1
  O2-  O281  1  0.28721912  0.65919296  0.72839269  1
  O2-  O282  1  0.79580515  0.17595355  0.06245437  1
  O2-  O283  1  0.78494751  0.16894022  0.40058918  1
  O2-  O284  1  0.79167832  0.17007679  0.73349360  1
  O2-  O285  1  0.79406086  0.66620020  0.06725229  1
  O2-  O286  1  0.79825427  0.67123313  0.39802880  1
  O2-  O287  1  0.79799364  0.67097547  0.73079173  1
