# generated using pymatgen
data_Ca2Al2SiO7
_symmetry_space_group_name_H-M   'P 1'
_cell_length_a   15.46516591
_cell_length_b   15.46396498
_cell_length_c   15.28874056
_cell_angle_alpha   89.99326689
_cell_angle_beta   89.99689417
_cell_angle_gamma   89.99767189
_symmetry_Int_Tables_number   1
_chemical_formula_structural   Ca2Al2SiO7
_chemical_formula_sum   'Ca48 Al48 Si24 O168'
_cell_volume   3656.34483322
_cell_formula_units_Z   24
loop_
 _symmetry_equiv_pos_site_id
 _symmetry_equiv_pos_as_xyz
  1  'x, y, z'
loop_
 _atom_type_symbol
 _atom_type_oxidation_number
  Ca2+  2.0
  Al0+  0.0
  Si0+  0.0
  O2-  -2.0
loop_
 _atom_site_type_symbol
 _atom_site_label
 _atom_site_symmetry_multiplicity
 _atom_site_fract_x
 _atom_site_fract_y
 _atom_site_fract_z
 _atom_site_occupancy
  Ca2+  Ca0  1  0.16976114  0.08320502  0.17578028  1
  Ca2+  Ca1  1  0.17486518  0.07711573  0.50721715  1
  Ca2+  Ca2  1  0.17069880  0.07661540  0.83167858  1
  Ca2+  Ca3  1  0.15773868  0.58092620  0.16833333  1
  Ca2+  Ca4  1  0.16796545  0.58268407  0.51066034  1
  Ca2+  Ca5  1  0.16219184  0.57821284  0.83521312  1
  Ca2+  Ca6  1  0.67358704  0.08326005  0.17986979  1
  Ca2+  Ca7  1  0.66954718  0.08454490  0.49875487  1
  Ca2+  Ca8  1  0.66867785  0.08082995  0.83507784  1
  Ca2+  Ca9  1  0.67403823  0.57580292  0.18022709  1
  Ca2+  Ca10  1  0.67366892  0.58266939  0.51019649  1
  Ca2+  Ca11  1  0.66664808  0.58719825  0.82899885  1
  Ca2+  Ca12  1  0.08831137  0.32134107  0.16096026  1
  Ca2+  Ca13  1  0.08838106  0.32766762  0.49460233  1
  Ca2+  Ca14  1  0.09744443  0.32988217  0.83046057  1
  Ca2+  Ca15  1  0.07863136  0.82041914  0.16686769  1
  Ca2+  Ca16  1  0.07950658  0.82477966  0.49873936  1
  Ca2+  Ca17  1  0.08178884  0.82217358  0.82228588  1
  Ca2+  Ca18  1  0.59080639  0.32729969  0.16936633  1
  Ca2+  Ca19  1  0.58189779  0.33565842  0.49730887  1
  Ca2+  Ca20  1  0.57718509  0.33366869  0.82083894  1
  Ca2+  Ca21  1  0.57063006  0.83943786  0.16565210  1
  Ca2+  Ca22  1  0.57294388  0.82892694  0.50123799  1
  Ca2+  Ca23  1  0.57145515  0.82804733  0.82426908  1
  Ca2+  Ca24  1  0.32526371  0.41829253  0.16813312  1
  Ca2+  Ca25  1  0.32867941  0.42275608  0.51260372  1
  Ca2+  Ca26  1  0.32794455  0.42354127  0.82775558  1
  Ca2+  Ca27  1  0.33428827  0.91916012  0.17551745  1
  Ca2+  Ca28  1  0.33504116  0.92453959  0.50751810  1
  Ca2+  Ca29  1  0.33084482  0.91073108  0.83195729  1
  Ca2+  Ca30  1  0.82795361  0.42226298  0.17905413  1
  Ca2+  Ca31  1  0.82361640  0.42868687  0.50419413  1
  Ca2+  Ca32  1  0.83055461  0.42411921  0.82931132  1
  Ca2+  Ca33  1  0.83459561  0.92099703  0.17744880  1
  Ca2+  Ca34  1  0.84648691  0.91941327  0.50318945  1
  Ca2+  Ca35  1  0.83390260  0.91046630  0.83177827  1
  Ca2+  Ca36  1  0.42125438  0.16318176  0.16926516  1
  Ca2+  Ca37  1  0.41414482  0.17101145  0.49533099  1
  Ca2+  Ca38  1  0.41252870  0.17441491  0.82355290  1
  Ca2+  Ca39  1  0.41384687  0.68119462  0.16309038  1
  Ca2+  Ca40  1  0.41108108  0.67515198  0.49881164  1
  Ca2+  Ca41  1  0.41820048  0.67337542  0.82027696  1
  Ca2+  Ca42  1  0.92881877  0.16121242  0.16645070  1
  Ca2+  Ca43  1  0.92325407  0.16757311  0.49068358  1
  Ca2+  Ca44  1  0.92536261  0.17000433  0.82963875  1
  Ca2+  Ca45  1  0.92342844  0.66168078  0.16759703  1
  Ca2+  Ca46  1  0.92297600  0.66732572  0.49508480  1
  Ca2+  Ca47  1  0.92528288  0.66767613  0.82174315  1
  Al0+  Al48  1  0.00149114  0.00085345  -0.00419783  1
  Al0+  Al49  1  0.00072041  -0.00155353  0.32979535  1
  Al0+  Al50  1  0.00313705  0.00138262  0.66978236  1
  Al0+  Al51  1  -0.00150143  0.49772380  0.00180861  1
  Al0+  Al52  1  -0.00205459  0.49777745  0.33385750  1
  Al0+  Al53  1  -0.00261323  0.49687005  0.67099581  1
  Al0+  Al54  1  0.50093795  0.00070983  -0.00409139  1
  Al0+  Al55  1  0.50034635  0.00317847  0.33024241  1
  Al0+  Al56  1  0.50375820  0.00201733  0.66826742  1
  Al0+  Al57  1  0.50011420  0.49992289  0.00385586  1
  Al0+  Al58  1  0.49586927  0.49964931  0.33370627  1
  Al0+  Al59  1  0.49935041  0.49793118  0.66647748  1
  Al0+  Al60  1  0.25199410  0.24981524  0.00051374  1
  Al0+  Al61  1  0.25142514  0.24973552  0.33135023  1
  Al0+  Al62  1  0.25301211  0.24916446  0.66806890  1
  Al0+  Al63  1  0.24857009  0.75132948  -0.00575682  1
  Al0+  Al64  1  0.24807006  0.74953019  0.32357849  1
  Al0+  Al65  1  0.24887409  0.75211155  0.66536813  1
  Al0+  Al66  1  0.75203389  0.24925494  0.00012000  1
  Al0+  Al67  1  0.74904253  0.24880664  0.33772452  1
  Al0+  Al68  1  0.75231884  0.25008064  0.67133474  1
  Al0+  Al69  1  0.74793903  0.75062638  0.00444971  1
  Al0+  Al70  1  0.74805838  0.75083308  0.33357629  1
  Al0+  Al71  1  0.74979237  0.75345416  0.66477055  1
  Al0+  Al72  1  0.81988020  0.57432281  0.68276337  1
  Al0+  Al73  1  0.67839457  0.42889088  0.68284031  1
  Al0+  Al74  1  0.43024018  0.82135849  0.31991158  1
  Al0+  Al75  1  0.42957856  0.31924877  0.65301999  1
  Al0+  Al76  1  0.17730280  0.42848745  0.67949498  1
  Al0+  Al77  1  0.82287390  0.06815410  0.34694325  1
  Al0+  Al78  1  0.92961830  0.82298781  0.65286994  1
  Al0+  Al79  1  0.07325466  0.17909131  0.98373417  1
  Al0+  Al80  1  0.06756973  0.67731870  0.98461805  1
  Al0+  Al81  1  0.32135509  0.07052569  0.34611815  1
  Al0+  Al82  1  0.32414571  0.07035750  0.68199638  1
  Al0+  Al83  1  0.57052933  0.67817629  0.65211676  1
  Al0+  Al84  1  0.07272926  0.17921605  0.32136442  1
  Al0+  Al85  1  0.07018702  0.67541279  0.65231126  1
  Al0+  Al86  1  0.17886510  0.92947159  0.68175611  1
  Al0+  Al87  1  0.82114541  0.57302095  0.34959851  1
  Al0+  Al88  1  0.67623453  0.42839521  0.34916444  1
  Al0+  Al89  1  0.06976930  0.67577597  0.31749217  1
  Al0+  Al90  1  0.92659250  0.82105114  0.31819223  1
  Al0+  Al91  1  0.32048013  0.57356817  0.67900702  1
  Al0+  Al92  1  0.18012144  0.42929036  0.01551412  1
  Al0+  Al93  1  0.42714801  0.82298526  0.65094466  1
  Al0+  Al94  1  0.42980572  0.82188612  0.98481395  1
  Al0+  Al95  1  0.57035413  0.18215551  0.32075738  1
  Si0+  Si96  1  0.43081346  0.32151694  0.98554991  1
  Si0+  Si97  1  0.32185345  0.07024727  0.01612005  1
  Si0+  Si98  1  0.67928980  0.93040116  0.68280265  1
  Si0+  Si99  1  0.67788096  0.42733604  0.01613396  1
  Si0+  Si100  1  0.57631435  0.17848724  0.65051013  1
  Si0+  Si101  1  0.57055085  0.67592982  0.31683821  1
  Si0+  Si102  1  0.92813236  0.31922663  0.31787797  1
  Si0+  Si103  1  0.57334581  0.18041297  0.98488444  1
  Si0+  Si104  1  0.81945532  0.57097090  0.01597281  1
  Si0+  Si105  1  0.17858685  0.92852901  0.01655908  1
  Si0+  Si106  1  0.67609603  0.92880605  0.35036981  1
  Si0+  Si107  1  0.92582289  0.82192254  0.98427831  1
  Si0+  Si108  1  0.17935350  0.42814377  0.34594591  1
  Si0+  Si109  1  0.32211885  0.57407240  0.01757945  1
  Si0+  Si110  1  0.67865779  0.93068236  0.01580548  1
  Si0+  Si111  1  0.42613606  0.32411369  0.31385704  1
  Si0+  Si112  1  0.07141672  0.18140334  0.65186237  1
  Si0+  Si113  1  0.82175359  0.07096637  0.01526960  1
  Si0+  Si114  1  0.92648258  0.31966011  0.65115990  1
  Si0+  Si115  1  0.57209019  0.67713097  0.98587793  1
  Si0+  Si116  1  0.17874745  0.92640168  0.34767220  1
  Si0+  Si117  1  0.92722289  0.32022504  0.98261829  1
  Si0+  Si118  1  0.31807251  0.57286967  0.34540993  1
  Si0+  Si119  1  0.82354564  0.07157212  0.68338403  1
  O2-  O120  1  0.25089160  -0.00086033  0.05861349  1
  O2-  O121  1  0.24774716  -0.00493953  0.39133570  1
  O2-  O122  1  0.25605182  -0.00416307  0.73354949  1
  O2-  O123  1  0.25164758  0.50714349  0.06290041  1
  O2-  O124  1  0.24641033  0.50248782  0.38680922  1
  O2-  O125  1  0.24359667  0.50620709  0.72943272  1
  O2-  O126  1  0.75230467  -0.00117121  0.05792239  1
  O2-  O127  1  0.75183367  -0.00979802  0.39432772  1
  O2-  O128  1  0.75300667  -0.00019281  0.72489664  1
  O2-  O129  1  0.74731840  0.50003912  0.05727851  1
  O2-  O130  1  0.74337844  0.50557736  0.39692073  1
  O2-  O131  1  0.74601171  0.50423109  0.73443701  1
  O2-  O132  1  -0.00234785  0.25235667  0.27195283  1
  O2-  O133  1  0.00242989  0.25379923  0.60944959  1
  O2-  O134  1  -0.00023627  0.25563093  0.93779312  1
  O2-  O135  1  -0.00540638  0.74554804  0.26783215  1
  O2-  O136  1  -0.00329476  0.74673039  0.60349359  1
  O2-  O137  1  -0.00788545  0.75199401  0.94004189  1
  O2-  O138  1  0.49827921  0.25792910  0.27063034  1
  O2-  O139  1  0.50650056  0.24607006  0.60789738  1
  O2-  O140  1  0.50472449  0.25303906  0.94363766  1
  O2-  O141  1  0.50454262  0.74664032  0.27115139  1
  O2-  O142  1  0.49429104  0.74575792  0.60201088  1
  O2-  O143  1  0.50122719  0.74291750  0.94171637  1
  O2-  O144  1  0.07167763  0.17825382  0.09695601  1
  O2-  O145  1  0.07298480  0.18187102  0.43433191  1
  O2-  O146  1  0.06915925  0.18144285  0.75733727  1
  O2-  O147  1  0.06529213  0.67791764  0.09767450  1
  O2-  O148  1  0.07345665  0.67477019  0.42996627  1
  O2-  O149  1  0.06759394  0.67629602  0.76634873  1
  O2-  O150  1  0.57477664  0.17977053  0.08986016  1
  O2-  O151  1  0.56953027  0.18102572  0.43308672  1
  O2-  O152  1  0.57828836  0.17986734  0.75698246  1
  O2-  O153  1  0.57294199  0.67841117  0.09153240  1
  O2-  O154  1  0.56747690  0.67507089  0.42172453  1
  O2-  O155  1  0.57079951  0.68327696  0.76659157  1
  O2-  O156  1  0.18176699  0.42632807  0.24052750  1
  O2-  O157  1  0.18065845  0.42433671  0.56559960  1
  O2-  O158  1  0.18448414  0.42787549  0.90336500  1
  O2-  O159  1  0.18079212  0.92778128  0.24121533  1
  O2-  O160  1  0.17408436  0.93517623  0.56850015  1
  O2-  O161  1  0.17819333  0.92963333  0.91187516  1
  O2-  O162  1  0.68043318  0.42825917  0.23409643  1
  O2-  O163  1  0.68306212  0.42440658  0.57017777  1
  O2-  O164  1  0.67684089  0.42477734  0.91181434  1
  O2-  O165  1  0.67429033  0.93427561  0.24396512  1
  O2-  O166  1  0.67526109  0.93341504  0.57827430  1
  O2-  O167  1  0.67882994  0.93203352  0.91085377  1
  O2-  O168  1  0.43124914  0.32053064  0.09073584  1
  O2-  O169  1  0.42236406  0.32293992  0.41872915  1
  O2-  O170  1  0.42993741  0.31689567  0.76705381  1
  O2-  O171  1  0.43261213  0.82469061  0.09832466  1
  O2-  O172  1  0.42994788  0.82124533  0.43197938  1
  O2-  O173  1  0.43291709  0.82392787  0.76480839  1
  O2-  O174  1  0.92341289  0.31636088  0.08807469  1
  O2-  O175  1  0.93066736  0.31792815  0.42338054  1
  O2-  O176  1  0.92245469  0.31468677  0.75638365  1
  O2-  O177  1  0.92523832  0.82300906  0.08952017  1
  O2-  O178  1  0.93282852  0.82400625  0.43077170  1
  O2-  O179  1  0.93130431  0.82286088  0.76721885  1
  O2-  O180  1  0.32053379  0.06948909  0.23202821  1
  O2-  O181  1  0.32062568  0.07196070  0.56845216  1
  O2-  O182  1  0.32256782  0.07110866  0.91150216  1
  O2-  O183  1  0.31898667  0.57159744  0.23992752  1
  O2-  O184  1  0.31951908  0.57007337  0.56486720  1
  O2-  O185  1  0.32570541  0.57165079  0.91277236  1
  O2-  O186  1  0.82061729  0.06881297  0.23304093  1
  O2-  O187  1  0.82439224  0.07331581  0.57859861  1
  O2-  O188  1  0.81922881  0.07267243  0.91012200  1
  O2-  O189  1  0.82075573  0.56752633  0.23471350  1
  O2-  O190  1  0.81983617  0.57167741  0.56983617  1
  O2-  O191  1  0.81817688  0.57219142  0.91139773  1
  O2-  O192  1  0.04246078  0.08357694  0.26540923  1
  O2-  O193  1  0.04031661  0.09075115  0.60574705  1
  O2-  O194  1  0.03956644  0.08385244  0.92867298  1
  O2-  O195  1  0.04128852  0.57627182  0.26447627  1
  O2-  O196  1  0.04364843  0.57480279  0.60294924  1
  O2-  O197  1  0.03802001  0.57901489  0.93398077  1
  O2-  O198  1  0.53881892  0.08757689  0.26212144  1
  O2-  O199  1  0.55430054  0.08439331  0.60570638  1
  O2-  O200  1  0.54500228  0.08941947  0.93659550  1
  O2-  O201  1  0.54252479  0.58310344  0.26892896  1
  O2-  O202  1  0.55048334  0.57724124  0.60305365  1
  O2-  O203  1  0.55060073  0.58146837  0.94211296  1
  O2-  O204  1  0.16761966  0.21222332  0.26426208  1
  O2-  O205  1  0.16352996  0.20758534  0.60565531  1
  O2-  O206  1  0.17057226  0.20995745  0.93178590  1
  O2-  O207  1  0.16537480  0.70692703  0.25886261  1
  O2-  O208  1  0.16831931  0.70431957  0.60057606  1
  O2-  O209  1  0.16477567  0.70732437  0.93298743  1
  O2-  O210  1  0.66764878  0.21134575  0.26492543  1
  O2-  O211  1  0.67024511  0.20449889  0.60565055  1
  O2-  O212  1  0.66618416  0.20521987  0.93757355  1
  O2-  O213  1  0.66511477  0.69845935  0.27129236  1
  O2-  O214  1  0.66642498  0.71331320  0.59897311  1
  O2-  O215  1  0.66501657  0.70613939  0.94000861  1
  O2-  O216  1  0.08067082  0.45382346  0.06803600  1
  O2-  O217  1  0.08546187  0.44856129  0.39119726  1
  O2-  O218  1  0.07709097  0.44534998  0.73364716  1
  O2-  O219  1  0.08632247  0.95860337  0.06236389  1
  O2-  O220  1  0.08586544  0.95321839  0.39220899  1
  O2-  O221  1  0.08420103  0.96559126  0.73985149  1
  O2-  O222  1  0.58585670  0.45208573  0.06533598  1
  O2-  O223  1  0.57396347  0.44968201  0.39614424  1
  O2-  O224  1  0.57895271  0.45189360  0.73539191  1
  O2-  O225  1  0.58801082  0.96339059  0.06320947  1
  O2-  O226  1  0.58667878  0.96459398  0.39728695  1
  O2-  O227  1  0.59095368  0.96216050  0.73544887  1
  O2-  O228  1  0.21578952  0.33322071  0.06972567  1
  O2-  O229  1  0.21110689  0.33800176  0.39363644  1
  O2-  O230  1  0.21426889  0.33301235  0.73387421  1
  O2-  O231  1  0.20592442  0.83618859  0.06323338  1
  O2-  O232  1  0.20441069  0.83198467  0.39053035  1
  O2-  O233  1  0.20218874  0.83031982  0.73467166  1
  O2-  O234  1  0.70884934  0.33531310  0.06295471  1
  O2-  O235  1  0.70733408  0.33164568  0.40191659  1
  O2-  O236  1  0.71251246  0.33168053  0.73825978  1
  O2-  O237  1  0.70130771  0.83790582  0.06445509  1
  O2-  O238  1  0.69050774  0.83207388  0.39211964  1
  O2-  O239  1  0.70575540  0.83984954  0.73296958  1
  O2-  O240  1  0.44721072  0.41850168  0.26662158  1
  O2-  O241  1  0.45694373  0.41547795  0.59819927  1
  O2-  O242  1  0.45664368  0.41473848  0.94019825  1
  O2-  O243  1  0.46328880  0.91704090  0.26434412  1
  O2-  O244  1  0.46384291  0.92068435  0.60082557  1
  O2-  O245  1  0.46482985  0.91703635  0.93051594  1
  O2-  O246  1  0.95204062  0.41244187  0.27052300  1
  O2-  O247  1  0.94803970  0.41298685  0.60594283  1
  O2-  O248  1  0.94785146  0.41525645  0.93904843  1
  O2-  O249  1  0.95838438  0.91771099  0.26190408  1
  O2-  O250  1  0.96181680  0.92177897  0.60221546  1
  O2-  O251  1  0.95103477  0.91572367  0.93848042  1
  O2-  O252  1  0.33551274  0.29272926  0.26424108  1
  O2-  O253  1  0.33477814  0.28525259  0.59717159  1
  O2-  O254  1  0.34109331  0.28930564  0.93821267  1
  O2-  O255  1  0.33516810  0.79028004  0.26208689  1
  O2-  O256  1  0.32722246  0.80290670  0.59920883  1
  O2-  O257  1  0.33216323  0.79566294  0.93270253  1
  O2-  O258  1  0.83491797  0.29221947  0.27216323  1
  O2-  O259  1  0.83793820  0.28478435  0.60234676  1
  O2-  O260  1  0.83571519  0.28919743  0.93394462  1
  O2-  O261  1  0.82450322  0.80165246  0.26701156  1
  O2-  O262  1  0.82833290  0.80619770  0.60305107  1
  O2-  O263  1  0.82981929  0.79873628  0.94105573  1
  O2-  O264  1  0.41541076  0.04255934  0.06144354  1
  O2-  O265  1  0.41858725  0.04227364  0.39849222  1
  O2-  O266  1  0.42544567  0.05094584  0.73364936  1
  O2-  O267  1  0.41508928  0.54618594  0.06600350  1
  O2-  O268  1  0.40941269  0.54595574  0.39306643  1
  O2-  O269  1  0.41646571  0.53948283  0.73400918  1
  O2-  O270  1  0.91506593  0.04448364  0.06039655  1
  O2-  O271  1  0.92078443  0.04117048  0.40021405  1
  O2-  O272  1  0.91442953  0.04484395  0.73303636  1
  O2-  O273  1  0.90997468  0.54071767  0.06407301  1
  O2-  O274  1  0.91785855  0.53837199  0.40180892  1
  O2-  O275  1  0.91510322  0.53878454  0.73833075  1
  O2-  O276  1  0.29488573  0.16201606  0.06380811  1
  O2-  O277  1  0.29095550  0.16790712  0.39807506  1
  O2-  O278  1  0.28974933  0.16615314  0.73674698  1
  O2-  O279  1  0.29678514  0.66910913  0.06127682  1
  O2-  O280  1  0.29053319  0.66531765  0.39057881  1
  O2-  O281  1  0.30071558  0.67399644  0.73014660  1
  O2-  O282  1  0.79251403  0.16216957  0.06336403  1
  O2-  O283  1  0.78969086  0.16318405  0.40163096  1
  O2-  O284  1  0.79360962  0.16116844  0.73432459  1
  O2-  O285  1  0.79249569  0.66311062  0.06439594  1
  O2-  O286  1  0.79842440  0.67392023  0.39851673  1
  O2-  O287  1  0.79317845  0.67400844  0.73502612  1
