# generated using pymatgen
data_Ca2Al2SiO7
_symmetry_space_group_name_H-M   'P 1'
_cell_length_a   15.46190310
_cell_length_b   15.46325248
_cell_length_c   15.28652682
_cell_angle_alpha   90.00287808
_cell_angle_beta   89.99233287
_cell_angle_gamma   89.98753793
_symmetry_Int_Tables_number   1
_chemical_formula_structural   Ca2Al2SiO7
_chemical_formula_sum   'Ca48 Al48 Si24 O168'
_cell_volume   3654.87561956
_cell_formula_units_Z   24
loop_
 _symmetry_equiv_pos_site_id
 _symmetry_equiv_pos_as_xyz
  1  'x, y, z'
loop_
 _atom_type_symbol
 _atom_type_oxidation_number
  Ca2+  2.0
  Al0+  0.0
  Si0+  0.0
  O2-  -2.0
loop_
 _atom_site_type_symbol
 _atom_site_label
 _atom_site_symmetry_multiplicity
 _atom_site_fract_x
 _atom_site_fract_y
 _atom_site_fract_z
 _atom_site_occupancy
  Ca2+  Ca0  1  0.17638076  0.08833299  0.17080828  1
  Ca2+  Ca1  1  0.17583703  0.09415325  0.50436524  1
  Ca2+  Ca2  1  0.17506525  0.08509222  0.83823234  1
  Ca2+  Ca3  1  0.16208303  0.58326996  0.16866799  1
  Ca2+  Ca4  1  0.16894347  0.58006122  0.50155005  1
  Ca2+  Ca5  1  0.16529472  0.58485887  0.84080050  1
  Ca2+  Ca6  1  0.66127169  0.08306838  0.16670218  1
  Ca2+  Ca7  1  0.67307084  0.07926582  0.50776725  1
  Ca2+  Ca8  1  0.66894372  0.07222820  0.84032341  1
  Ca2+  Ca9  1  0.67336665  0.57290996  0.17162105  1
  Ca2+  Ca10  1  0.67006484  0.57824263  0.50632742  1
  Ca2+  Ca11  1  0.66135624  0.57257397  0.83669081  1
  Ca2+  Ca12  1  0.07364908  0.32985416  0.16588762  1
  Ca2+  Ca13  1  0.07824741  0.31989274  0.49295211  1
  Ca2+  Ca14  1  0.07402900  0.32751421  0.82989902  1
  Ca2+  Ca15  1  0.07300960  0.83127322  0.15612076  1
  Ca2+  Ca16  1  0.06894534  0.83789235  0.49557407  1
  Ca2+  Ca17  1  0.07375757  0.84295891  0.83345991  1
  Ca2+  Ca18  1  0.57889649  0.32076854  0.15779894  1
  Ca2+  Ca19  1  0.58047461  0.32616438  0.49274993  1
  Ca2+  Ca20  1  0.58401358  0.33056045  0.83425291  1
  Ca2+  Ca21  1  0.57811109  0.83764003  0.16291103  1
  Ca2+  Ca22  1  0.58487954  0.83169273  0.49737653  1
  Ca2+  Ca23  1  0.59239743  0.83023357  0.82697432  1
  Ca2+  Ca24  1  0.33714648  0.41096107  0.17042307  1
  Ca2+  Ca25  1  0.33441053  0.41172040  0.50178673  1
  Ca2+  Ca26  1  0.33402042  0.41769768  0.84100733  1
  Ca2+  Ca27  1  0.32945011  0.92714823  0.17212673  1
  Ca2+  Ca28  1  0.33647959  0.92899593  0.50277788  1
  Ca2+  Ca29  1  0.32771432  0.93077722  0.84437526  1
  Ca2+  Ca30  1  0.83557387  0.41681652  0.17250998  1
  Ca2+  Ca31  1  0.83145871  0.41982853  0.50309095  1
  Ca2+  Ca32  1  0.82111414  0.41216574  0.84189204  1
  Ca2+  Ca33  1  0.82912057  0.90828145  0.16867642  1
  Ca2+  Ca34  1  0.83229135  0.91988857  0.50895461  1
  Ca2+  Ca35  1  0.82984756  0.91581520  0.83437175  1
  Ca2+  Ca36  1  0.42240132  0.16832228  0.16346030  1
  Ca2+  Ca37  1  0.42270546  0.16511015  0.48900314  1
  Ca2+  Ca38  1  0.41718812  0.16350292  0.83551343  1
  Ca2+  Ca39  1  0.41400221  0.67613225  0.16446077  1
  Ca2+  Ca40  1  0.42602747  0.67481079  0.49575246  1
  Ca2+  Ca41  1  0.42443416  0.67184474  0.82655242  1
  Ca2+  Ca42  1  0.91890544  0.17564049  0.16293583  1
  Ca2+  Ca43  1  0.92660458  0.16345703  0.49384173  1
  Ca2+  Ca44  1  0.91799082  0.16558866  0.82769219  1
  Ca2+  Ca45  1  0.91648485  0.67348576  0.16086650  1
  Ca2+  Ca46  1  0.90819176  0.67776822  0.49497449  1
  Ca2+  Ca47  1  0.91856070  0.67909592  0.83348883  1
  Al0+  Al48  1  -0.00049465  0.00063058  -0.00047835  1
  Al0+  Al49  1  0.00000768  -0.00230379  0.32312531  1
  Al0+  Al50  1  0.00183214  0.00138104  0.66049435  1
  Al0+  Al51  1  0.00018869  0.50069143  -0.00844425  1
  Al0+  Al52  1  0.00042630  0.50048760  0.33925724  1
  Al0+  Al53  1  0.00031444  0.50120263  0.66742424  1
  Al0+  Al54  1  0.50065262  0.00072874  0.00381053  1
  Al0+  Al55  1  0.49876410  -0.00206250  0.33103773  1
  Al0+  Al56  1  0.49932631  0.00133594  0.67461067  1
  Al0+  Al57  1  0.50002295  0.49947754  0.00358045  1
  Al0+  Al58  1  0.50004418  0.50036383  0.33311856  1
  Al0+  Al59  1  0.49977805  0.50203914  0.66482419  1
  Al0+  Al60  1  0.25039725  0.25335381  0.00153174  1
  Al0+  Al61  1  0.25046399  0.24996355  0.33203387  1
  Al0+  Al62  1  0.24867124  0.25222265  0.66915492  1
  Al0+  Al63  1  0.25038320  0.74985443  -0.00003438  1
  Al0+  Al64  1  0.25003181  0.74985649  0.33332140  1
  Al0+  Al65  1  0.24976107  0.75022862  0.66573434  1
  Al0+  Al66  1  0.74748916  0.24832509  -0.00320181  1
  Al0+  Al67  1  0.74996398  0.24783276  0.32887853  1
  Al0+  Al68  1  0.74867101  0.25153794  0.67288963  1
  Al0+  Al69  1  0.75070511  0.74922680  0.00055736  1
  Al0+  Al70  1  0.74969081  0.74702201  0.33379200  1
  Al0+  Al71  1  0.75041118  0.74774662  0.66114311  1
  Al0+  Al72  1  0.92731279  0.82277617  0.98305410  1
  Al0+  Al73  1  0.42904154  0.32210586  0.98339602  1
  Al0+  Al74  1  0.56975420  0.17655871  0.98093845  1
  Al0+  Al75  1  0.57226508  0.17662149  0.31989062  1
  Al0+  Al76  1  0.67999049  0.92804592  0.67972565  1
  Al0+  Al77  1  0.07067489  0.18136191  0.65368526  1
  Al0+  Al78  1  0.67812221  0.42738999  0.01609836  1
  Al0+  Al79  1  0.17733453  0.92792974  0.01567217  1
  Al0+  Al80  1  0.31980447  0.07324202  0.01854993  1
  Al0+  Al81  1  0.82409285  0.07146226  0.67980749  1
  Al0+  Al82  1  0.92744923  0.81935553  0.31859806  1
  Al0+  Al83  1  0.82118972  0.56992225  0.34773886  1
  Al0+  Al84  1  0.07196737  0.17765957  0.31669590  1
  Al0+  Al85  1  0.93114698  0.81949357  0.65147135  1
  Al0+  Al86  1  0.42898249  0.81994421  0.32026335  1
  Al0+  Al87  1  0.31919056  0.07010096  0.34848929  1
  Al0+  Al88  1  0.68142439  0.92709353  0.01526727  1
  Al0+  Al89  1  0.32063621  0.07301430  0.68082096  1
  Al0+  Al90  1  0.92805372  0.32064817  0.98545045  1
  Al0+  Al91  1  0.57006308  0.67899594  0.65267422  1
  Al0+  Al92  1  0.07245416  0.67973139  0.98485321  1
  Al0+  Al93  1  0.67792696  0.43040135  0.68028378  1
  Al0+  Al94  1  0.42943507  0.32219478  0.32036754  1
  Al0+  Al95  1  0.92914541  0.32240451  0.32103374  1
  Si0+  Si96  1  0.82208221  0.56907298  0.01532459  1
  Si0+  Si97  1  0.07452090  0.67561321  0.64725429  1
  Si0+  Si98  1  0.82274057  0.07054123  0.34553786  1
  Si0+  Si99  1  0.17847032  0.92716961  0.68095945  1
  Si0+  Si100  1  0.32025812  0.57176266  0.68095173  1
  Si0+  Si101  1  0.57012025  0.67943221  0.98711314  1
  Si0+  Si102  1  0.17744891  0.43149851  0.01507154  1
  Si0+  Si103  1  0.67786923  0.42624691  0.34969394  1
  Si0+  Si104  1  0.67931935  0.92837208  0.34761580  1
  Si0+  Si105  1  0.07265603  0.67771240  0.31928171  1
  Si0+  Si106  1  0.92513572  0.32328649  0.65072535  1
  Si0+  Si107  1  0.82233671  0.07250500  0.01767968  1
  Si0+  Si108  1  0.57210893  0.67770967  0.31510101  1
  Si0+  Si109  1  0.42925940  0.82108056  0.98513914  1
  Si0+  Si110  1  0.42935524  0.32137950  0.65287428  1
  Si0+  Si111  1  0.32265845  0.57348750  0.34995756  1
  Si0+  Si112  1  0.32194580  0.57139026  0.01568473  1
  Si0+  Si113  1  0.18014086  0.42978337  0.34946234  1
  Si0+  Si114  1  0.42698887  0.82414634  0.65184182  1
  Si0+  Si115  1  0.07232186  0.17934078  0.98338601  1
  Si0+  Si116  1  0.17657314  0.92633035  0.35059736  1
  Si0+  Si117  1  0.17914357  0.43048662  0.68256487  1
  Si0+  Si118  1  0.57079933  0.17808419  0.65315379  1
  Si0+  Si119  1  0.82310941  0.57207843  0.68508874  1
  O2-  O120  1  0.24626285  0.00173140  0.06715124  1
  O2-  O121  1  0.24251108  -0.00285765  0.39624509  1
  O2-  O122  1  0.24844146  -0.00541989  0.72474337  1
  O2-  O123  1  0.24950496  0.50163864  0.05749743  1
  O2-  O124  1  0.25410969  0.49929132  0.39126951  1
  O2-  O125  1  0.24697812  0.50455108  0.72493746  1
  O2-  O126  1  0.75695267  0.00057054  0.06257375  1
  O2-  O127  1  0.75114592  -0.00055412  0.38802719  1
  O2-  O128  1  0.75177394  -0.00020222  0.73004016  1
  O2-  O129  1  0.75679070  0.49836753  0.06156377  1
  O2-  O130  1  0.74789762  0.49342397  0.39437333  1
  O2-  O131  1  0.75642828  0.50114643  0.72830039  1
  O2-  O132  1  -0.00210676  0.24869819  0.26910843  1
  O2-  O133  1  -0.00835282  0.25236035  0.60737502  1
  O2-  O134  1  0.00015508  0.24385805  0.93826196  1
  O2-  O135  1  0.00439807  0.74568667  0.27502156  1
  O2-  O136  1  0.00583979  0.74395759  0.60392295  1
  O2-  O137  1  0.00461524  0.75502058  0.93462515  1
  O2-  O138  1  0.50238454  0.25168316  0.27149661  1
  O2-  O139  1  0.49886450  0.24892472  0.61110039  1
  O2-  O140  1  0.49789604  0.24933552  0.93093188  1
  O2-  O141  1  0.50264428  0.74523814  0.27108928  1
  O2-  O142  1  0.49878783  0.75820160  0.60769664  1
  O2-  O143  1  0.50272264  0.75283914  0.94259384  1
  O2-  O144  1  0.07250110  0.18302257  0.08877875  1
  O2-  O145  1  0.07190672  0.18036127  0.43072097  1
  O2-  O146  1  0.07301552  0.18548550  0.76660261  1
  O2-  O147  1  0.06973645  0.67625476  0.09866352  1
  O2-  O148  1  0.07431409  0.67839639  0.42500129  1
  O2-  O149  1  0.07631035  0.67371844  0.75220942  1
  O2-  O150  1  0.56889658  0.17752331  0.09442629  1
  O2-  O151  1  0.57257414  0.17679330  0.43459422  1
  O2-  O152  1  0.56988000  0.17802348  0.75754470  1
  O2-  O153  1  0.56717231  0.67950202  0.09217876  1
  O2-  O154  1  0.57081563  0.67813397  0.42094859  1
  O2-  O155  1  0.56562955  0.67639273  0.76605456  1
  O2-  O156  1  0.17778855  0.43297014  0.24449801  1
  O2-  O157  1  0.18144239  0.43030609  0.57735550  1
  O2-  O158  1  0.17861309  0.43287900  0.90962004  1
  O2-  O159  1  0.18015344  0.92354116  0.24560173  1
  O2-  O160  1  0.18012704  0.92517486  0.57537059  1
  O2-  O161  1  0.18151109  0.92886264  0.90142913  1
  O2-  O162  1  0.67691522  0.42934401  0.24445370  1
  O2-  O163  1  0.67689816  0.43125145  0.56700141  1
  O2-  O164  1  0.67653230  0.43278384  0.90277624  1
  O2-  O165  1  0.67992127  0.92656200  0.24262405  1
  O2-  O166  1  0.67890238  0.93030186  0.56551015  1
  O2-  O167  1  0.68254067  0.92468100  0.90239436  1
  O2-  O168  1  0.43091927  0.32409455  0.09640893  1
  O2-  O169  1  0.43091405  0.32213955  0.43495623  1
  O2-  O170  1  0.42882357  0.32418640  0.75742506  1
  O2-  O171  1  0.42884936  0.81727851  0.09034188  1
  O2-  O172  1  0.43149019  0.81890091  0.43368284  1
  O2-  O173  1  0.42380034  0.81965017  0.75733634  1
  O2-  O174  1  0.93232699  0.32272158  0.09845904  1
  O2-  O175  1  0.93132992  0.32207985  0.43485811  1
  O2-  O176  1  0.92840731  0.32501434  0.75625623  1
  O2-  O177  1  0.92485893  0.81611415  0.09649069  1
  O2-  O178  1  0.92702288  0.81959869  0.43186754  1
  O2-  O179  1  0.93191605  0.81868246  0.76399761  1
  O2-  O180  1  0.31948487  0.06926010  0.23626162  1
  O2-  O181  1  0.32164381  0.07388805  0.56750711  1
  O2-  O182  1  0.31748343  0.07198481  0.90436534  1
  O2-  O183  1  0.32117211  0.57631801  0.24511614  1
  O2-  O184  1  0.32013629  0.57022543  0.57577448  1
  O2-  O185  1  0.32339841  0.57099583  0.91021740  1
  O2-  O186  1  0.82240053  0.07084137  0.24077316  1
  O2-  O187  1  0.82246662  0.07035177  0.56535039  1
  O2-  O188  1  0.82130383  0.07220737  0.91201582  1
  O2-  O189  1  0.81979048  0.57011503  0.23465010  1
  O2-  O190  1  0.82244131  0.57059634  0.57917701  1
  O2-  O191  1  0.81908515  0.56935491  0.90971751  1
  O2-  O192  1  0.04753110  0.07980613  0.26271290  1
  O2-  O193  1  0.04682371  0.08478925  0.59685925  1
  O2-  O194  1  0.05128712  0.08442159  0.93877157  1
  O2-  O195  1  0.04778275  0.58351934  0.27518200  1
  O2-  O196  1  0.04994013  0.58101392  0.60150424  1
  O2-  O197  1  0.04223121  0.58375381  0.92747800  1
  O2-  O198  1  0.54202871  0.07964311  0.26670368  1
  O2-  O199  1  0.54302047  0.08566234  0.60663701  1
  O2-  O200  1  0.54049684  0.07730641  0.92962557  1
  O2-  O201  1  0.54686745  0.58391624  0.27020520  1
  O2-  O202  1  0.53267259  0.58583749  0.59512311  1
  O2-  O203  1  0.53798276  0.58917821  0.93956180  1
  O2-  O204  1  0.16817038  0.21172574  0.26462619  1
  O2-  O205  1  0.16533433  0.21997625  0.59905041  1
  O2-  O206  1  0.16412661  0.21081216  0.93754659  1
  O2-  O207  1  0.16661827  0.70028143  0.27277576  1
  O2-  O208  1  0.16926252  0.69961769  0.60139360  1
  O2-  O209  1  0.17349211  0.70142104  0.93313512  1
  O2-  O210  1  0.67033229  0.20084559  0.26512993  1
  O2-  O211  1  0.66303365  0.20717554  0.60680626  1
  O2-  O212  1  0.66805130  0.20437586  0.92848569  1
  O2-  O213  1  0.66461716  0.70400562  0.26889063  1
  O2-  O214  1  0.66662483  0.70411158  0.59662254  1
  O2-  O215  1  0.66243336  0.70383811  0.93987264  1
  O2-  O216  1  0.08615277  0.46221703  0.06183363  1
  O2-  O217  1  0.09123770  0.46008352  0.40146335  1
  O2-  O218  1  0.08617756  0.45560775  0.72950883  1
  O2-  O219  1  0.07625920  0.95045990  0.06537950  1
  O2-  O220  1  0.08046687  0.95025449  0.39243524  1
  O2-  O221  1  0.08578579  0.95565963  0.72577223  1
  O2-  O222  1  0.58386479  0.46379597  0.07110214  1
  O2-  O223  1  0.58456013  0.45452734  0.39634127  1
  O2-  O224  1  0.58235402  0.46674231  0.73362556  1
  O2-  O225  1  0.58432537  0.95729793  0.06859746  1
  O2-  O226  1  0.58744345  0.95508973  0.39490918  1
  O2-  O227  1  0.58167861  0.95326152  0.73431498  1
  O2-  O228  1  0.20377661  0.34052538  0.06384411  1
  O2-  O229  1  0.20813776  0.33863498  0.39787303  1
  O2-  O230  1  0.21004118  0.34166520  0.73284289  1
  O2-  O231  1  0.20762244  0.82907030  0.06749038  1
  O2-  O232  1  0.20345017  0.83291642  0.39783803  1
  O2-  O233  1  0.20060626  0.83230094  0.72708398  1
  O2-  O234  1  0.70572014  0.32901976  0.06645644  1
  O2-  O235  1  0.70175426  0.33148471  0.39437598  1
  O2-  O236  1  0.70404319  0.33406741  0.73649337  1
  O2-  O237  1  0.70976366  0.82963737  0.07031269  1
  O2-  O238  1  0.70640128  0.83588348  0.39446776  1
  O2-  O239  1  0.70751287  0.82765540  0.72898893  1
  O2-  O240  1  0.45132720  0.42312606  0.26934323  1
  O2-  O241  1  0.45703885  0.41287758  0.60441013  1
  O2-  O242  1  0.45816077  0.42203173  0.93202515  1
  O2-  O243  1  0.46054541  0.91393527  0.26385158  1
  O2-  O244  1  0.45103660  0.91911702  0.60832486  1
  O2-  O245  1  0.45433298  0.91373285  0.94021251  1
  O2-  O246  1  0.96185925  0.42045487  0.26956327  1
  O2-  O247  1  0.95394426  0.41709285  0.60582654  1
  O2-  O248  1  0.96113628  0.41488914  0.92852729  1
  O2-  O249  1  0.95445090  0.91443329  0.26155061  1
  O2-  O250  1  0.96230965  0.91535209  0.59577293  1
  O2-  O251  1  0.95175782  0.92301044  0.93158734  1
  O2-  O252  1  0.33104978  0.29627038  0.26836525  1
  O2-  O253  1  0.33620586  0.29615648  0.60695858  1
  O2-  O254  1  0.32800204  0.29886801  0.93234902  1
  O2-  O255  1  0.33313033  0.78684905  0.26620203  1
  O2-  O256  1  0.33498465  0.79492083  0.60370790  1
  O2-  O257  1  0.33947479  0.78961984  0.93656976  1
  O2-  O258  1  0.83064891  0.29768856  0.26806212  1
  O2-  O259  1  0.82972605  0.30225614  0.60702170  1
  O2-  O260  1  0.83121337  0.29191420  0.93241833  1
  O2-  O261  1  0.83169784  0.78473529  0.26574843  1
  O2-  O262  1  0.83523301  0.78770835  0.59631997  1
  O2-  O263  1  0.83086875  0.78698044  0.92986802  1
  O2-  O264  1  0.41785080  0.04205687  0.06913186  1
  O2-  O265  1  0.41597685  0.03504702  0.40146579  1
  O2-  O266  1  0.41593822  0.04435596  0.73757673  1
  O2-  O267  1  0.41196588  0.54345964  0.06599247  1
  O2-  O268  1  0.41532281  0.54820264  0.39779431  1
  O2-  O269  1  0.41057082  0.54140352  0.72916101  1
  O2-  O270  1  0.91785182  0.05291289  0.06192192  1
  O2-  O271  1  0.91528145  0.04110525  0.39117760  1
  O2-  O272  1  0.92338742  0.04372582  0.73094767  1
  O2-  O273  1  0.91725195  0.54502095  0.05862485  1
  O2-  O274  1  0.91790571  0.54345309  0.40476998  1
  O2-  O275  1  0.91864706  0.55097856  0.72954042  1
  O2-  O276  1  0.29226154  0.17319029  0.06894692  1
  O2-  O277  1  0.29049293  0.16834646  0.40181598  1
  O2-  O278  1  0.28664420  0.16861538  0.73494612  1
  O2-  O279  1  0.29514971  0.66300304  0.06398760  1
  O2-  O280  1  0.29166115  0.66318825  0.40057511  1
  O2-  O281  1  0.29604514  0.66469105  0.72857176  1
  O2-  O282  1  0.79273058  0.16481936  0.06384899  1
  O2-  O283  1  0.79656365  0.16255300  0.39406168  1
  O2-  O284  1  0.79873557  0.17039043  0.73233333  1
  O2-  O285  1  0.79318667  0.66129229  0.06213582  1
  O2-  O286  1  0.78546373  0.66469691  0.40377203  1
  O2-  O287  1  0.79433411  0.66475449  0.72955475  1
