# generated using pymatgen
data_Ca2Al2SiO7
_symmetry_space_group_name_H-M   'P 1'
_cell_length_a   15.45057714
_cell_length_b   15.45138461
_cell_length_c   15.27885400
_cell_angle_alpha   89.99987972
_cell_angle_beta   90.00335264
_cell_angle_gamma   90.00545877
_symmetry_Int_Tables_number   1
_chemical_formula_structural   Ca2Al2SiO7
_chemical_formula_sum   'Ca48 Al48 Si24 O168'
_cell_volume   3647.56372356
_cell_formula_units_Z   24
loop_
 _symmetry_equiv_pos_site_id
 _symmetry_equiv_pos_as_xyz
  1  'x, y, z'
loop_
 _atom_type_symbol
 _atom_type_oxidation_number
  Ca2+  2.0
  Al0+  0.0
  Si0+  0.0
  O2-  -2.0
loop_
 _atom_site_type_symbol
 _atom_site_label
 _atom_site_symmetry_multiplicity
 _atom_site_fract_x
 _atom_site_fract_y
 _atom_site_fract_z
 _atom_site_occupancy
  Ca2+  Ca0  1  0.16408160  0.07267692  0.16982505  1
  Ca2+  Ca1  1  0.16808442  0.08595170  0.50476622  1
  Ca2+  Ca2  1  0.17836325  0.08738604  0.84121134  1
  Ca2+  Ca3  1  0.16464553  0.57870784  0.16989850  1
  Ca2+  Ca4  1  0.17449437  0.57529281  0.50258692  1
  Ca2+  Ca5  1  0.15973688  0.57254879  0.84012378  1
  Ca2+  Ca6  1  0.67160980  0.08428128  0.16682926  1
  Ca2+  Ca7  1  0.67032981  0.08326557  0.50616919  1
  Ca2+  Ca8  1  0.67571322  0.09267364  0.83923818  1
  Ca2+  Ca9  1  0.67306847  0.58068453  0.17755283  1
  Ca2+  Ca10  1  0.67024494  0.56915925  0.49991732  1
  Ca2+  Ca11  1  0.66402914  0.57682582  0.83730247  1
  Ca2+  Ca12  1  0.07224911  0.33353573  0.16118538  1
  Ca2+  Ca13  1  0.08456386  0.32055031  0.49233335  1
  Ca2+  Ca14  1  0.07948530  0.33349952  0.82772268  1
  Ca2+  Ca15  1  0.08357663  0.82987761  0.15734832  1
  Ca2+  Ca16  1  0.08314599  0.83446416  0.49209302  1
  Ca2+  Ca17  1  0.08403529  0.83737663  0.83822073  1
  Ca2+  Ca18  1  0.57809696  0.33428406  0.16270345  1
  Ca2+  Ca19  1  0.58565742  0.33083323  0.49503752  1
  Ca2+  Ca20  1  0.58393143  0.32111803  0.82765421  1
  Ca2+  Ca21  1  0.58082498  0.83061292  0.16303200  1
  Ca2+  Ca22  1  0.57476406  0.83660698  0.48936901  1
  Ca2+  Ca23  1  0.58607761  0.82619730  0.83289584  1
  Ca2+  Ca24  1  0.33002374  0.42062164  0.17251963  1
  Ca2+  Ca25  1  0.33334103  0.41691733  0.50162654  1
  Ca2+  Ca26  1  0.31641894  0.41119911  0.83774911  1
  Ca2+  Ca27  1  0.32612941  0.91832025  0.17160228  1
  Ca2+  Ca28  1  0.32841076  0.92088914  0.50173285  1
  Ca2+  Ca29  1  0.32886087  0.93016111  0.84158196  1
  Ca2+  Ca30  1  0.83165741  0.41874738  0.17496765  1
  Ca2+  Ca31  1  0.82755607  0.41092879  0.49715439  1
  Ca2+  Ca32  1  0.82737007  0.40896297  0.83797750  1
  Ca2+  Ca33  1  0.83132489  0.92001124  0.16972582  1
  Ca2+  Ca34  1  0.82494218  0.92284198  0.50313759  1
  Ca2+  Ca35  1  0.83871703  0.93085739  0.84030143  1
  Ca2+  Ca36  1  0.42179745  0.16874195  0.16262859  1
  Ca2+  Ca37  1  0.41942955  0.17147569  0.49600968  1
  Ca2+  Ca38  1  0.42538757  0.15664739  0.82848628  1
  Ca2+  Ca39  1  0.41788746  0.67004658  0.16476713  1
  Ca2+  Ca40  1  0.41541118  0.67120301  0.48839799  1
  Ca2+  Ca41  1  0.42061665  0.66674272  0.83432650  1
  Ca2+  Ca42  1  0.91746235  0.17507867  0.16251604  1
  Ca2+  Ca43  1  0.92665131  0.16835381  0.49412384  1
  Ca2+  Ca44  1  0.91939396  0.16688422  0.82815804  1
  Ca2+  Ca45  1  0.91842265  0.67297090  0.15565572  1
  Ca2+  Ca46  1  0.91734560  0.66406660  0.49449866  1
  Ca2+  Ca47  1  0.92174464  0.67433216  0.83704956  1
  Al0+  Al48  1  -0.00019805  0.00248578  0.00513162  1
  Al0+  Al49  1  0.00099878  -0.00202308  0.33376984  1
  Al0+  Al50  1  -0.00135928  -0.00082345  0.66476530  1
  Al0+  Al51  1  -0.00269143  0.50029516  -0.00472474  1
  Al0+  Al52  1  0.00092495  0.49905601  0.33580323  1
  Al0+  Al53  1  -0.00122825  0.50286328  0.66791520  1
  Al0+  Al54  1  0.50124893  0.00037814  -0.00036759  1
  Al0+  Al55  1  0.49892045  -0.00053083  0.33152866  1
  Al0+  Al56  1  0.50007684  -0.00229920  0.66537623  1
  Al0+  Al57  1  0.49780056  0.49900757  -0.00626019  1
  Al0+  Al58  1  0.50046304  0.49990023  0.33735308  1
  Al0+  Al59  1  0.50126044  0.50094176  0.67132596  1
  Al0+  Al60  1  0.24918415  0.25206512  0.01224596  1
  Al0+  Al61  1  0.25213470  0.24777870  0.32237567  1
  Al0+  Al62  1  0.25011509  0.25005293  0.67113442  1
  Al0+  Al63  1  0.25126776  0.74888769  -0.00429044  1
  Al0+  Al64  1  0.25024257  0.75076900  0.33773939  1
  Al0+  Al65  1  0.24971550  0.74931141  0.66691328  1
  Al0+  Al66  1  0.74853771  0.25024523  -0.00151726  1
  Al0+  Al67  1  0.75196322  0.24930853  0.33378826  1
  Al0+  Al68  1  0.74920839  0.25012485  0.66898170  1
  Al0+  Al69  1  0.75001245  0.75018727  -0.01102605  1
  Al0+  Al70  1  0.75035313  0.75053830  0.34339871  1
  Al0+  Al71  1  0.74981463  0.74838814  0.66480229  1
  Al0+  Al72  1  0.92899942  0.82456645  0.98518327  1
  Al0+  Al73  1  0.67875813  0.42724412  0.34651483  1
  Al0+  Al74  1  0.42764600  0.82130127  0.31931214  1
  Al0+  Al75  1  0.92863720  0.32045107  0.98508526  1
  Al0+  Al76  1  0.67772581  0.92988103  0.34547442  1
  Al0+  Al77  1  0.32505939  0.07214397  0.01844995  1
  Al0+  Al78  1  0.81998902  0.06911131  0.67930817  1
  Al0+  Al79  1  0.43083843  0.32319535  0.32009205  1
  Al0+  Al80  1  0.07228099  0.17551366  0.31529308  1
  Al0+  Al81  1  0.07262796  0.67900136  0.98530012  1
  Al0+  Al82  1  0.32083928  0.06997825  0.67835877  1
  Al0+  Al83  1  0.17526616  0.43118834  0.01589960  1
  Al0+  Al84  1  0.17960760  0.42987719  0.67803601  1
  Al0+  Al85  1  0.92947079  0.32114142  0.31852397  1
  Al0+  Al86  1  0.17943366  0.92973095  0.34817923  1
  Al0+  Al87  1  0.18013433  0.92870139  0.01466548  1
  Al0+  Al88  1  0.68016603  0.42980185  0.68306337  1
  Al0+  Al89  1  0.82402229  0.57185648  0.34736052  1
  Al0+  Al90  1  0.56852311  0.18009570  0.98709317  1
  Al0+  Al91  1  0.57148327  0.17849980  0.65204265  1
  Al0+  Al92  1  0.07189986  0.17982304  0.65554033  1
  Al0+  Al93  1  0.82020320  0.07291004  0.01481160  1
  Al0+  Al94  1  0.57114281  0.67787746  0.98693019  1
  Al0+  Al95  1  0.31996547  0.57031572  0.34497533  1
  Si0+  Si96  1  0.92760770  0.32369743  0.64984710  1
  Si0+  Si97  1  0.17872871  0.42571309  0.34885841  1
  Si0+  Si98  1  0.32352926  0.57084246  0.01559907  1
  Si0+  Si99  1  0.42823976  0.32229820  0.65217019  1
  Si0+  Si100  1  0.32217569  0.57416287  0.68496110  1
  Si0+  Si101  1  0.07247008  0.17939120  0.98448143  1
  Si0+  Si102  1  0.82203213  0.07141553  0.35027734  1
  Si0+  Si103  1  0.67699592  0.92626506  0.68405993  1
  Si0+  Si104  1  0.57111274  0.67706752  0.64849903  1
  Si0+  Si105  1  0.32218415  0.07312704  0.35031304  1
  Si0+  Si106  1  0.42945890  0.81906082  0.65104324  1
  Si0+  Si107  1  0.92937288  0.82103913  0.64913908  1
  Si0+  Si108  1  0.67773858  0.42958165  0.01383267  1
  Si0+  Si109  1  0.07094665  0.67849776  0.64910206  1
  Si0+  Si110  1  0.42522579  0.32245007  0.98203878  1
  Si0+  Si111  1  0.92715446  0.81932509  0.32054135  1
  Si0+  Si112  1  0.82206727  0.57445908  0.68747352  1
  Si0+  Si113  1  0.42830127  0.82224017  0.98187145  1
  Si0+  Si114  1  0.17715028  0.92631775  0.68326758  1
  Si0+  Si115  1  0.67956005  0.92532129  0.01455979  1
  Si0+  Si116  1  0.81797231  0.57179004  0.01184422  1
  Si0+  Si117  1  0.57238042  0.67954781  0.31960774  1
  Si0+  Si118  1  0.07133407  0.67973804  0.32132420  1
  Si0+  Si119  1  0.57300556  0.17718120  0.31707502  1
  O2-  O120  1  0.25208531  -0.00028117  0.06627144  1
  O2-  O121  1  0.25086387  0.00721684  0.39519268  1
  O2-  O122  1  0.24354526  -0.00239329  0.72525494  1
  O2-  O123  1  0.25092430  0.50675292  0.05990594  1
  O2-  O124  1  0.24938373  0.49252439  0.39337713  1
  O2-  O125  1  0.25399624  0.50460731  0.72717413  1
  O2-  O126  1  0.74772303  -0.00576289  0.05898703  1
  O2-  O127  1  0.74976332  0.00591534  0.39401201  1
  O2-  O128  1  0.74375218  -0.00376607  0.72787486  1
  O2-  O129  1  0.74595772  0.50309169  0.05539919  1
  O2-  O130  1  0.75385597  0.49706720  0.39595728  1
  O2-  O131  1  0.75639946  0.50281227  0.73111038  1
  O2-  O132  1  0.00124547  0.24981051  0.26743196  1
  O2-  O133  1  -0.00159266  0.25598223  0.60779235  1
  O2-  O134  1  0.00475693  0.24764583  0.93793512  1
  O2-  O135  1  -0.00349938  0.74655919  0.27932159  1
  O2-  O136  1  0.00106812  0.75049062  0.60632584  1
  O2-  O137  1  0.00499028  0.75579003  0.93542163  1
  O2-  O138  1  0.50708800  0.24930374  0.27426836  1
  O2-  O139  1  0.49711817  0.25421476  0.60670459  1
  O2-  O140  1  0.48973319  0.24977404  0.93835465  1
  O2-  O141  1  0.50432959  0.74785205  0.27383506  1
  O2-  O142  1  0.49980673  0.74784834  0.60698929  1
  O2-  O143  1  0.49758757  0.75325505  0.93805722  1
  O2-  O144  1  0.06882919  0.18042150  0.08978705  1
  O2-  O145  1  0.07160948  0.17695148  0.42987639  1
  O2-  O146  1  0.07188243  0.18052094  0.76848939  1
  O2-  O147  1  0.06869073  0.67767782  0.09937964  1
  O2-  O148  1  0.07133743  0.68189857  0.42703474  1
  O2-  O149  1  0.07079443  0.67802877  0.75363452  1
  O2-  O150  1  0.57071738  0.18434216  0.10025140  1
  O2-  O151  1  0.57127326  0.17610504  0.42299663  1
  O2-  O152  1  0.57092736  0.17927152  0.76504901  1
  O2-  O153  1  0.57192696  0.67768687  0.09994410  1
  O2-  O154  1  0.57001336  0.68109535  0.42551585  1
  O2-  O155  1  0.57052241  0.67797127  0.75378209  1
  O2-  O156  1  0.17691205  0.43128726  0.24356662  1
  O2-  O157  1  0.18280614  0.43181134  0.56485229  1
  O2-  O158  1  0.17672442  0.43129431  0.90225733  1
  O2-  O159  1  0.18035558  0.92588653  0.23575864  1
  O2-  O160  1  0.17920268  0.92301333  0.57759460  1
  O2-  O161  1  0.18272137  0.93131316  0.90045934  1
  O2-  O162  1  0.67730880  0.43166304  0.23257635  1
  O2-  O163  1  0.67948839  0.43144348  0.57023519  1
  O2-  O164  1  0.67922784  0.43027210  0.90852031  1
  O2-  O165  1  0.68056570  0.92719244  0.23246809  1
  O2-  O166  1  0.67752457  0.92525872  0.57826974  1
  O2-  O167  1  0.68002077  0.92468609  0.90880036  1
  O2-  O168  1  0.43090430  0.32783206  0.08745955  1
  O2-  O169  1  0.42958723  0.32092208  0.43363013  1
  O2-  O170  1  0.42861363  0.32173722  0.75763933  1
  O2-  O171  1  0.42866086  0.82037737  0.08735758  1
  O2-  O172  1  0.42838354  0.81955234  0.43309511  1
  O2-  O173  1  0.43062061  0.81738140  0.75601006  1
  O2-  O174  1  0.92725701  0.32184647  0.09783929  1
  O2-  O175  1  0.93066043  0.31873309  0.43261257  1
  O2-  O176  1  0.92830906  0.32318471  0.75561134  1
  O2-  O177  1  0.92409831  0.81885833  0.09896430  1
  O2-  O178  1  0.92884655  0.81954180  0.42618055  1
  O2-  O179  1  0.92979871  0.82118988  0.75375106  1
  O2-  O180  1  0.32461257  0.06944830  0.24527276  1
  O2-  O181  1  0.32078007  0.06855368  0.56521825  1
  O2-  O182  1  0.32509768  0.06988595  0.90411976  1
  O2-  O183  1  0.31780074  0.57169944  0.23206997  1
  O2-  O184  1  0.32153456  0.57717675  0.57928317  1
  O2-  O185  1  0.32578637  0.56757525  0.90977066  1
  O2-  O186  1  0.82081130  0.07008792  0.24471479  1
  O2-  O187  1  0.81941487  0.06530122  0.56610753  1
  O2-  O188  1  0.81866753  0.07274737  0.90140238  1
  O2-  O189  1  0.82131914  0.57664643  0.23346820  1
  O2-  O190  1  0.82089863  0.57742621  0.58210302  1
  O2-  O191  1  0.81654330  0.57090427  0.90663033  1
  O2-  O192  1  0.04087024  0.07697608  0.26422960  1
  O2-  O193  1  0.04096362  0.08280787  0.60083394  1
  O2-  O194  1  0.04813120  0.08538748  0.93948873  1
  O2-  O195  1  0.04913784  0.58589871  0.27607765  1
  O2-  O196  1  0.04157247  0.58759436  0.59995601  1
  O2-  O197  1  0.03580211  0.58473081  0.92888273  1
  O2-  O198  1  0.54444225  0.08525248  0.26938466  1
  O2-  O199  1  0.54245391  0.08032683  0.59949742  1
  O2-  O200  1  0.54492933  0.08129040  0.93284557  1
  O2-  O201  1  0.54711739  0.58603879  0.27455672  1
  O2-  O202  1  0.54267119  0.58493020  0.60231359  1
  O2-  O203  1  0.53784512  0.58314783  0.92879798  1
  O2-  O204  1  0.17112631  0.19840488  0.26215120  1
  O2-  O205  1  0.16854557  0.21110691  0.60089034  1
  O2-  O206  1  0.16836402  0.20562597  0.94346769  1
  O2-  O207  1  0.16111611  0.71152641  0.27381493  1
  O2-  O208  1  0.16427487  0.70500955  0.60283723  1
  O2-  O209  1  0.17231758  0.70005796  0.93049658  1
  O2-  O210  1  0.66826098  0.19851084  0.27321929  1
  O2-  O211  1  0.66792941  0.21059571  0.59838135  1
  O2-  O212  1  0.66255563  0.21636562  0.93139200  1
  O2-  O213  1  0.66682856  0.70669077  0.27631115  1
  O2-  O214  1  0.66387177  0.70369419  0.60242046  1
  O2-  O215  1  0.66468377  0.70806064  0.92603441  1
  O2-  O216  1  0.07845390  0.46466693  0.06785511  1
  O2-  O217  1  0.08690579  0.45250989  0.39751355  1
  O2-  O218  1  0.08261741  0.46193655  0.73143415  1
  O2-  O219  1  0.08145885  0.95483123  0.06805319  1
  O2-  O220  1  0.08151794  0.95636839  0.40291699  1
  O2-  O221  1  0.08187294  0.94830769  0.72592250  1
  O2-  O222  1  0.58370979  0.45557704  0.05741044  1
  O2-  O223  1  0.58304574  0.45827825  0.40343944  1
  O2-  O224  1  0.58411092  0.46250328  0.73816106  1
  O2-  O225  1  0.58569493  0.94979564  0.05974949  1
  O2-  O226  1  0.58044156  0.95870429  0.40001861  1
  O2-  O227  1  0.58241063  0.94752308  0.72904787  1
  O2-  O228  1  0.20427172  0.33653396  0.07320693  1
  O2-  O229  1  0.20536319  0.33040976  0.38998466  1
  O2-  O230  1  0.21002294  0.33529611  0.73592397  1
  O2-  O231  1  0.20693601  0.82756169  0.06360875  1
  O2-  O232  1  0.21289845  0.83525949  0.40535685  1
  O2-  O233  1  0.20511122  0.83314291  0.72981638  1
  O2-  O234  1  0.70769668  0.33959247  0.06153036  1
  O2-  O235  1  0.70599475  0.32840260  0.40046389  1
  O2-  O236  1  0.70982248  0.33324540  0.73730362  1
  O2-  O237  1  0.70584830  0.83103159  0.05908428  1
  O2-  O238  1  0.70896752  0.83618202  0.40556367  1
  O2-  O239  1  0.70446780  0.83188627  0.72825432  1
  O2-  O240  1  0.46066734  0.42026360  0.26562255  1
  O2-  O241  1  0.45322895  0.41778502  0.60859392  1
  O2-  O242  1  0.45269843  0.41366508  0.93175116  1
  O2-  O243  1  0.45766252  0.91725713  0.26458163  1
  O2-  O244  1  0.45767165  0.90976125  0.60183859  1
  O2-  O245  1  0.45545753  0.91515700  0.93551656  1
  O2-  O246  1  0.95669747  0.42119926  0.26699458  1
  O2-  O247  1  0.94968920  0.41955862  0.60634233  1
  O2-  O248  1  0.95638491  0.41679720  0.92906402  1
  O2-  O249  1  0.95523038  0.91038385  0.27311055  1
  O2-  O250  1  0.95598647  0.91186436  0.59930932  1
  O2-  O251  1  0.95681057  0.92399090  0.93367202  1
  O2-  O252  1  0.33617734  0.29409172  0.26184941  1
  O2-  O253  1  0.33506002  0.29616740  0.60604304  1
  O2-  O254  1  0.32846746  0.30003675  0.94194669  1
  O2-  O255  1  0.33236016  0.78604816  0.26630464  1
  O2-  O256  1  0.33639851  0.79204224  0.60452548  1
  O2-  O257  1  0.33649314  0.79587917  0.93238746  1
  O2-  O258  1  0.83014033  0.29416306  0.26581432  1
  O2-  O259  1  0.83463314  0.29542227  0.60497211  1
  O2-  O260  1  0.83270775  0.28766431  0.93099966  1
  O2-  O261  1  0.83428613  0.79290338  0.27495091  1
  O2-  O262  1  0.83681872  0.79170040  0.60262567  1
  O2-  O263  1  0.83429704  0.79228168  0.92627013  1
  O2-  O264  1  0.42392446  0.04280065  0.07021534  1
  O2-  O265  1  0.41504782  0.04507066  0.39684257  1
  O2-  O266  1  0.41638431  0.03444755  0.73247248  1
  O2-  O267  1  0.41588659  0.54111328  0.06269354  1
  O2-  O268  1  0.41645635  0.54363995  0.40149609  1
  O2-  O269  1  0.41645499  0.55114530  0.73033613  1
  O2-  O270  1  0.91643397  0.04588853  0.07010093  1
  O2-  O271  1  0.91393423  0.04068645  0.39651485  1
  O2-  O272  1  0.91607918  0.03575612  0.73366357  1
  O2-  O273  1  0.90932098  0.54377170  0.05854335  1
  O2-  O274  1  0.92221310  0.54502211  0.40301961  1
  O2-  O275  1  0.91745551  0.55363090  0.73142006  1
  O2-  O276  1  0.30045255  0.17100331  0.07107629  1
  O2-  O277  1  0.29862348  0.16848309  0.39378428  1
  O2-  O278  1  0.29383514  0.16613925  0.73462804  1
  O2-  O279  1  0.30431019  0.66717085  0.05759956  1
  O2-  O280  1  0.28570842  0.66384382  0.40345252  1
  O2-  O281  1  0.29528911  0.66721843  0.73213510  1
  O2-  O282  1  0.78287720  0.16723187  0.06934844  1
  O2-  O283  1  0.79999250  0.16536989  0.39674834  1
  O2-  O284  1  0.79198995  0.16621488  0.73291321  1
  O2-  O285  1  0.79090411  0.66497178  0.05681977  1
  O2-  O286  1  0.79420166  0.66741669  0.40605072  1
  O2-  O287  1  0.79213026  0.66722904  0.73361631  1
