# generated using pymatgen
data_Ca2Al2SiO7
_symmetry_space_group_name_H-M   'P 1'
_cell_length_a   15.45232826
_cell_length_b   15.45246788
_cell_length_c   15.27937546
_cell_angle_alpha   90.00527030
_cell_angle_beta   90.00147020
_cell_angle_gamma   89.99574354
_symmetry_Int_Tables_number   1
_chemical_formula_structural   Ca2Al2SiO7
_chemical_formula_sum   'Ca48 Al48 Si24 O168'
_cell_volume   3648.35738728
_cell_formula_units_Z   24
loop_
 _symmetry_equiv_pos_site_id
 _symmetry_equiv_pos_as_xyz
  1  'x, y, z'
loop_
 _atom_type_symbol
 _atom_type_oxidation_number
  Ca2+  2.0
  Al0+  0.0
  Si0+  0.0
  O2-  -2.0
loop_
 _atom_site_type_symbol
 _atom_site_label
 _atom_site_symmetry_multiplicity
 _atom_site_fract_x
 _atom_site_fract_y
 _atom_site_fract_z
 _atom_site_occupancy
  Ca2+  Ca0  1  0.16181606  0.08307864  0.16809941  1
  Ca2+  Ca1  1  0.17377524  0.08006824  0.50840234  1
  Ca2+  Ca2  1  0.16780441  0.07505915  0.83690113  1
  Ca2+  Ca3  1  0.16203592  0.57915545  0.16405355  1
  Ca2+  Ca4  1  0.17521951  0.57587089  0.51168378  1
  Ca2+  Ca5  1  0.16893672  0.57505424  0.83812131  1
  Ca2+  Ca6  1  0.67283349  0.08220555  0.17402050  1
  Ca2+  Ca7  1  0.66729194  0.08185469  0.50457554  1
  Ca2+  Ca8  1  0.65950579  0.07357971  0.83454436  1
  Ca2+  Ca9  1  0.66251570  0.57571281  0.17418641  1
  Ca2+  Ca10  1  0.66548492  0.58089907  0.50302050  1
  Ca2+  Ca11  1  0.67643910  0.58649922  0.83468166  1
  Ca2+  Ca12  1  0.08005803  0.32217680  0.15421164  1
  Ca2+  Ca13  1  0.08610340  0.32846343  0.49697888  1
  Ca2+  Ca14  1  0.08709110  0.33405617  0.83350852  1
  Ca2+  Ca15  1  0.07823473  0.83052068  0.15893737  1
  Ca2+  Ca16  1  0.07118871  0.84249445  0.49802871  1
  Ca2+  Ca17  1  0.08519716  0.83159885  0.82824790  1
  Ca2+  Ca18  1  0.58326617  0.32946698  0.16291009  1
  Ca2+  Ca19  1  0.58060484  0.32638960  0.49575987  1
  Ca2+  Ca20  1  0.56977384  0.32616024  0.82340644  1
  Ca2+  Ca21  1  0.57332515  0.83597074  0.16278098  1
  Ca2+  Ca22  1  0.57877896  0.82858246  0.49268560  1
  Ca2+  Ca23  1  0.57983126  0.84155906  0.82981863  1
  Ca2+  Ca24  1  0.33028724  0.41116640  0.16559041  1
  Ca2+  Ca25  1  0.32999988  0.42116012  0.51212325  1
  Ca2+  Ca26  1  0.32823475  0.41378468  0.83642153  1
  Ca2+  Ca27  1  0.32959464  0.90871281  0.16637242  1
  Ca2+  Ca28  1  0.32955218  0.92075036  0.50935349  1
  Ca2+  Ca29  1  0.32724064  0.92203380  0.83986720  1
  Ca2+  Ca30  1  0.83017859  0.41477011  0.17280108  1
  Ca2+  Ca31  1  0.82471404  0.42290959  0.50475666  1
  Ca2+  Ca32  1  0.83938869  0.42168176  0.83791302  1
  Ca2+  Ca33  1  0.83080096  0.92116957  0.17259371  1
  Ca2+  Ca34  1  0.83190279  0.91866617  0.50643913  1
  Ca2+  Ca35  1  0.82124500  0.91081279  0.83557103  1
  Ca2+  Ca36  1  0.42502239  0.17064974  0.16163060  1
  Ca2+  Ca37  1  0.42605636  0.16403892  0.50169948  1
  Ca2+  Ca38  1  0.41402907  0.17447393  0.82480735  1
  Ca2+  Ca39  1  0.42095345  0.67630568  0.16513785  1
  Ca2+  Ca40  1  0.41852273  0.67108477  0.49258628  1
  Ca2+  Ca41  1  0.41340177  0.67105838  0.83124015  1
  Ca2+  Ca42  1  0.92476433  0.16692880  0.16272634  1
  Ca2+  Ca43  1  0.92499065  0.16131315  0.49045392  1
  Ca2+  Ca44  1  0.92224949  0.16960736  0.83470827  1
  Ca2+  Ca45  1  0.92085428  0.67255162  0.16258213  1
  Ca2+  Ca46  1  0.91006409  0.67829737  0.50051989  1
  Ca2+  Ca47  1  0.92348583  0.66890986  0.82653743  1
  Al0+  Al48  1  -0.00111955  0.00011287  -0.00096287  1
  Al0+  Al49  1  -0.00071188  -0.00014597  0.32805135  1
  Al0+  Al50  1  -0.00153114  0.00046825  0.66688686  1
  Al0+  Al51  1  0.00138036  0.50171895  -0.00054593  1
  Al0+  Al52  1  -0.00072612  0.50091935  0.33715143  1
  Al0+  Al53  1  -0.00025545  0.50053035  0.67048408  1
  Al0+  Al54  1  0.49978182  -0.00147320  0.00243568  1
  Al0+  Al55  1  0.49883975  0.00175256  0.32488526  1
  Al0+  Al56  1  0.50008466  0.00054513  0.66942103  1
  Al0+  Al57  1  0.50153258  0.50111400  -0.00382321  1
  Al0+  Al58  1  0.49857442  0.50009208  0.33434649  1
  Al0+  Al59  1  0.49993495  0.50006422  0.66747022  1
  Al0+  Al60  1  0.25095824  0.24945275  -0.00185797  1
  Al0+  Al61  1  0.24987097  0.24799157  0.33107942  1
  Al0+  Al62  1  0.24982996  0.25014842  0.66808045  1
  Al0+  Al63  1  0.25120229  0.75044830  -0.00315923  1
  Al0+  Al64  1  0.24837339  0.74896228  0.33192655  1
  Al0+  Al65  1  0.24927124  0.74731999  0.67134660  1
  Al0+  Al66  1  0.75138854  0.25010417  -0.00501052  1
  Al0+  Al67  1  0.75014277  0.25032220  0.34005567  1
  Al0+  Al68  1  0.75098684  0.24979096  0.66358843  1
  Al0+  Al69  1  0.74926724  0.74955608  0.00817903  1
  Al0+  Al70  1  0.74965043  0.74922198  0.32382503  1
  Al0+  Al71  1  0.75046349  0.75037991  0.67066910  1
  Al0+  Al72  1  0.17895906  0.42835178  0.68217312  1
  Al0+  Al73  1  0.57072322  0.67692526  0.31873388  1
  Al0+  Al74  1  0.43074909  0.32148741  0.98681823  1
  Al0+  Al75  1  0.67799181  0.92909649  0.01737537  1
  Al0+  Al76  1  0.82136559  0.06906109  0.34702031  1
  Al0+  Al77  1  0.43088401  0.82036485  0.98361578  1
  Al0+  Al78  1  0.92862153  0.32182091  0.98547534  1
  Al0+  Al79  1  0.67787346  0.42936044  0.34730837  1
  Al0+  Al80  1  0.42704717  0.82229029  0.31945577  1
  Al0+  Al81  1  0.57158805  0.17706065  0.65090968  1
  Al0+  Al82  1  0.07159756  0.18030713  0.32037899  1
  Al0+  Al83  1  0.68059384  0.93031777  0.67722571  1
  Al0+  Al84  1  0.57312211  0.18043089  0.31886166  1
  Al0+  Al85  1  0.07053304  0.68059227  0.98582486  1
  Al0+  Al86  1  0.92914266  0.82001621  0.65473982  1
  Al0+  Al87  1  0.92922898  0.82107364  0.31846355  1
  Al0+  Al88  1  0.32456640  0.57163334  0.68289477  1
  Al0+  Al89  1  0.42727257  0.32175027  0.64966062  1
  Al0+  Al90  1  0.18032332  0.42933844  0.01613975  1
  Al0+  Al91  1  0.07161539  0.17700498  0.98237602  1
  Al0+  Al92  1  0.17617362  0.92884793  0.68052015  1
  Al0+  Al93  1  0.32180110  0.06976025  0.68127186  1
  Al0+  Al94  1  0.17864778  0.92841525  0.01513523  1
  Al0+  Al95  1  0.81820384  0.57067964  0.67989516  1
  Si0+  Si96  1  0.42804413  0.32207951  0.31689448  1
  Si0+  Si97  1  0.32121253  0.07196149  0.01929261  1
  Si0+  Si98  1  0.17943630  0.92841412  0.34665998  1
  Si0+  Si99  1  0.92872321  0.32416354  0.64945332  1
  Si0+  Si100  1  0.07205993  0.67608756  0.31781232  1
  Si0+  Si101  1  0.32414300  0.57207004  0.01912542  1
  Si0+  Si102  1  0.57363100  0.67793429  0.98166981  1
  Si0+  Si103  1  0.82371124  0.07466792  0.68388871  1
  Si0+  Si104  1  0.82084694  0.07352232  0.01654447  1
  Si0+  Si105  1  0.92599007  0.82163200  0.98325863  1
  Si0+  Si106  1  0.57323101  0.17765168  0.98363746  1
  Si0+  Si107  1  0.17891647  0.42718838  0.34678165  1
  Si0+  Si108  1  0.67928784  0.42916991  0.01263702  1
  Si0+  Si109  1  0.67662307  0.92805491  0.34835470  1
  Si0+  Si110  1  0.92892042  0.32397836  0.32031925  1
  Si0+  Si111  1  0.57234347  0.68028334  0.65391247  1
  Si0+  Si112  1  0.67845134  0.42596889  0.68464809  1
  Si0+  Si113  1  0.82209790  0.57043673  0.01732161  1
  Si0+  Si114  1  0.06896574  0.17950197  0.65120183  1
  Si0+  Si115  1  0.07218441  0.67698698  0.64905143  1
  Si0+  Si116  1  0.32193557  0.07178127  0.34718587  1
  Si0+  Si117  1  0.42778072  0.82022365  0.65377485  1
  Si0+  Si118  1  0.31917488  0.57094593  0.34680941  1
  Si0+  Si119  1  0.82288093  0.57400672  0.35026943  1
  O2-  O120  1  0.25106927  0.00455037  0.06418266  1
  O2-  O121  1  0.25256830  -0.00218839  0.38793072  1
  O2-  O122  1  0.25028479  -0.00238894  0.73144898  1
  O2-  O123  1  0.25655683  0.50234571  0.06452180  1
  O2-  O124  1  0.24895236  0.49890351  0.38862724  1
  O2-  O125  1  0.25306727  0.49863810  0.73146456  1
  O2-  O126  1  0.75279295  0.00458584  0.06165634  1
  O2-  O127  1  0.74597971  -0.00509259  0.39424477  1
  O2-  O128  1  0.75248943  0.00752027  0.72574948  1
  O2-  O129  1  0.75144591  0.49791918  0.05742252  1
  O2-  O130  1  0.75188068  0.50640454  0.39253243  1
  O2-  O131  1  0.74759828  0.49360463  0.72980356  1
  O2-  O132  1  -0.00166842  0.25714309  0.27536757  1
  O2-  O133  1  -0.00183987  0.25106476  0.60801110  1
  O2-  O134  1  0.00163329  0.25197183  0.93358128  1
  O2-  O135  1  0.00273170  0.74412475  0.27408968  1
  O2-  O136  1  0.00681673  0.74916177  0.60511553  1
  O2-  O137  1  -0.00217394  0.75704143  0.93877985  1
  O2-  O138  1  0.49902324  0.25592006  0.27255276  1
  O2-  O139  1  0.50115340  0.25096600  0.60064472  1
  O2-  O140  1  0.50408780  0.24576271  0.94043049  1
  O2-  O141  1  0.50240252  0.75292080  0.26997790  1
  O2-  O142  1  0.49716927  0.74725020  0.61182334  1
  O2-  O143  1  0.50732089  0.74771333  0.93625306  1
  O2-  O144  1  0.06858902  0.17823722  0.09647631  1
  O2-  O145  1  0.07290436  0.18121126  0.43392336  1
  O2-  O146  1  0.06672675  0.17828583  0.75574568  1
  O2-  O147  1  0.06634452  0.68027183  0.09969193  1
  O2-  O148  1  0.07418787  0.67465704  0.42307441  1
  O2-  O149  1  0.06960538  0.67585734  0.75447095  1
  O2-  O150  1  0.57493805  0.18075274  0.08965435  1
  O2-  O151  1  0.57056601  0.17892496  0.43138690  1
  O2-  O152  1  0.57089009  0.17842739  0.76465735  1
  O2-  O153  1  0.57144250  0.67534804  0.08706688  1
  O2-  O154  1  0.56828984  0.67750698  0.43301478  1
  O2-  O155  1  0.57526033  0.68278701  0.75888440  1
  O2-  O156  1  0.17879964  0.42725552  0.24195213  1
  O2-  O157  1  0.17840554  0.43055503  0.56723629  1
  O2-  O158  1  0.18060630  0.43177292  0.90384270  1
  O2-  O159  1  0.17980066  0.92773312  0.24164087  1
  O2-  O160  1  0.17580973  0.93260608  0.56590035  1
  O2-  O161  1  0.18062974  0.92889407  0.90247975  1
  O2-  O162  1  0.68019085  0.42950229  0.23343508  1
  O2-  O163  1  0.67980111  0.42802289  0.57880499  1
  O2-  O164  1  0.67970911  0.43202555  0.90786854  1
  O2-  O165  1  0.67831518  0.93156559  0.24281179  1
  O2-  O166  1  0.68166720  0.92755336  0.56403177  1
  O2-  O167  1  0.67937875  0.92879433  0.90395648  1
  O2-  O168  1  0.43443054  0.32079492  0.10061119  1
  O2-  O169  1  0.42619900  0.32177654  0.42206063  1
  O2-  O170  1  0.42920501  0.32065574  0.76329880  1
  O2-  O171  1  0.43117798  0.81760405  0.09673550  1
  O2-  O172  1  0.42535661  0.82029852  0.43368113  1
  O2-  O173  1  0.43014176  0.82059820  0.75866414  1
  O2-  O174  1  0.92654828  0.32015323  0.09959754  1
  O2-  O175  1  0.93249168  0.32564084  0.42609742  1
  O2-  O176  1  0.92818510  0.32438231  0.75420873  1
  O2-  O177  1  0.92665190  0.81903790  0.08920903  1
  O2-  O178  1  0.92975153  0.82115552  0.43185918  1
  O2-  O179  1  0.92690008  0.81619555  0.76743864  1
  O2-  O180  1  0.32050631  0.07569366  0.24242129  1
  O2-  O181  1  0.32118011  0.06678013  0.56662344  1
  O2-  O182  1  0.32249662  0.07005483  0.91393138  1
  O2-  O183  1  0.31858955  0.57167106  0.24194926  1
  O2-  O184  1  0.32203248  0.57311452  0.56820788  1
  O2-  O185  1  0.32433893  0.57088393  0.91388434  1
  O2-  O186  1  0.82161891  0.06880801  0.23389114  1
  O2-  O187  1  0.82665425  0.07258446  0.57811040  1
  O2-  O188  1  0.81943593  0.07420623  0.91098601  1
  O2-  O189  1  0.82746785  0.57042727  0.24476046  1
  O2-  O190  1  0.81442345  0.57111923  0.56661950  1
  O2-  O191  1  0.82047696  0.57247085  0.91216486  1
  O2-  O192  1  0.03894226  0.08556424  0.26492683  1
  O2-  O193  1  0.04001745  0.08841419  0.60222505  1
  O2-  O194  1  0.03979007  0.07951654  0.92920523  1
  O2-  O195  1  0.04555611  0.58215335  0.27140458  1
  O2-  O196  1  0.04233425  0.58451704  0.60234120  1
  O2-  O197  1  0.03734385  0.58565497  0.93134290  1
  O2-  O198  1  0.54173250  0.08588400  0.26160160  1
  O2-  O199  1  0.54064143  0.07899087  0.59726904  1
  O2-  O200  1  0.54674500  0.08344227  0.94083391  1
  O2-  O201  1  0.53768734  0.58010470  0.26429985  1
  O2-  O202  1  0.54953229  0.58666419  0.60762101  1
  O2-  O203  1  0.54866724  0.58528917  0.93335821  1
  O2-  O204  1  0.16770269  0.20911795  0.26443504  1
  O2-  O205  1  0.16105852  0.20674492  0.60407379  1
  O2-  O206  1  0.17098859  0.20298920  0.93243993  1
  O2-  O207  1  0.16431611  0.70196762  0.26959663  1
  O2-  O208  1  0.16771911  0.69831349  0.60467056  1
  O2-  O209  1  0.16761144  0.70767093  0.93250781  1
  O2-  O210  1  0.67045764  0.21212257  0.26676336  1
  O2-  O211  1  0.67174776  0.20318959  0.59896552  1
  O2-  O212  1  0.66606576  0.20183515  0.93619976  1
  O2-  O213  1  0.66999259  0.69661920  0.26424542  1
  O2-  O214  1  0.66164083  0.71241944  0.60450501  1
  O2-  O215  1  0.66929292  0.70297637  0.93967742  1
  O2-  O216  1  0.08377242  0.46312502  0.06997870  1
  O2-  O217  1  0.08675782  0.45362838  0.39515074  1
  O2-  O218  1  0.08105415  0.45754931  0.73502986  1
  O2-  O219  1  0.07960088  0.95634118  0.06706198  1
  O2-  O220  1  0.08817732  0.95961870  0.39256871  1
  O2-  O221  1  0.07867861  0.95896417  0.73404154  1
  O2-  O222  1  0.58846797  0.45926525  0.06149890  1
  O2-  O223  1  0.58095718  0.45971265  0.40167983  1
  O2-  O224  1  0.58510459  0.45244270  0.72946404  1
  O2-  O225  1  0.58144948  0.95963791  0.07146849  1
  O2-  O226  1  0.58164821  0.95427326  0.39143036  1
  O2-  O227  1  0.58488307  0.95964786  0.73364431  1
  O2-  O228  1  0.21085725  0.33150254  0.06885788  1
  O2-  O229  1  0.20770332  0.33555047  0.39436256  1
  O2-  O230  1  0.20399116  0.32959810  0.73424055  1
  O2-  O231  1  0.21191883  0.83172198  0.06854468  1
  O2-  O232  1  0.20379875  0.83564638  0.39450410  1
  O2-  O233  1  0.19994588  0.82882529  0.73039233  1
  O2-  O234  1  0.70529715  0.33585847  0.05866539  1
  O2-  O235  1  0.71018204  0.33549360  0.40530904  1
  O2-  O236  1  0.70381664  0.33180819  0.72909672  1
  O2-  O237  1  0.70784390  0.83246296  0.07254823  1
  O2-  O238  1  0.70031423  0.83150157  0.38907098  1
  O2-  O239  1  0.71345587  0.83642108  0.73528303  1
  O2-  O240  1  0.45056385  0.41630060  0.27135162  1
  O2-  O241  1  0.45579719  0.42168937  0.59831210  1
  O2-  O242  1  0.46158051  0.41763743  0.93236714  1
  O2-  O243  1  0.45105320  0.92001503  0.26346077  1
  O2-  O244  1  0.45714847  0.91130676  0.60646084  1
  O2-  O245  1  0.46136885  0.91805265  0.93176406  1
  O2-  O246  1  0.95163985  0.41863926  0.27422836  1
  O2-  O247  1  0.95771568  0.41560639  0.60155141  1
  O2-  O248  1  0.95575684  0.42091175  0.93437731  1
  O2-  O249  1  0.96275011  0.91489654  0.26165109  1
  O2-  O250  1  0.95687268  0.91787317  0.60005374  1
  O2-  O251  1  0.94482929  0.91708555  0.93982091  1
  O2-  O252  1  0.33576841  0.29270178  0.26972106  1
  O2-  O253  1  0.32832557  0.29350090  0.59725834  1
  O2-  O254  1  0.33439933  0.29178124  0.93373713  1
  O2-  O255  1  0.32989586  0.78898985  0.26571302  1
  O2-  O256  1  0.33505077  0.79380240  0.60685475  1
  O2-  O257  1  0.33519328  0.78910837  0.92967318  1
  O2-  O258  1  0.83494801  0.29808151  0.27666459  1
  O2-  O259  1  0.83601319  0.29906175  0.60220219  1
  O2-  O260  1  0.83114161  0.29406936  0.92876292  1
  O2-  O261  1  0.83367438  0.79281674  0.26159031  1
  O2-  O262  1  0.83393156  0.78441408  0.59984620  1
  O2-  O263  1  0.83257924  0.79030570  0.94019091  1
  O2-  O264  1  0.41456457  0.04441293  0.06554201  1
  O2-  O265  1  0.41470857  0.04492801  0.39314440  1
  O2-  O266  1  0.41908767  0.04292276  0.73607708  1
  O2-  O267  1  0.41905320  0.54646329  0.06362735  1
  O2-  O268  1  0.41062208  0.54457492  0.39533741  1
  O2-  O269  1  0.42402326  0.54789384  0.73582421  1
  O2-  O270  1  0.91454376  0.04779681  0.06229867  1
  O2-  O271  1  0.91836911  0.03611025  0.40043580  1
  O2-  O272  1  0.91540053  0.04695376  0.73163749  1
  O2-  O273  1  0.91337431  0.54351329  0.06550223  1
  O2-  O274  1  0.91545795  0.54798563  0.39977564  1
  O2-  O275  1  0.91508233  0.54218384  0.73376688  1
  O2-  O276  1  0.29751133  0.16598461  0.06534854  1
  O2-  O277  1  0.29120912  0.16217631  0.39655056  1
  O2-  O278  1  0.29268849  0.16775711  0.73256301  1
  O2-  O279  1  0.29566852  0.66512987  0.06417990  1
  O2-  O280  1  0.29016139  0.66206754  0.39596627  1
  O2-  O281  1  0.29545347  0.66880399  0.73742846  1
  O2-  O282  1  0.79480773  0.16754378  0.06277497  1
  O2-  O283  1  0.79491915  0.16597392  0.40252276  1
  O2-  O284  1  0.80145807  0.16972824  0.72849078  1
  O2-  O285  1  0.79318132  0.66063878  0.06760313  1
  O2-  O286  1  0.79716576  0.66897021  0.39329087  1
  O2-  O287  1  0.78471526  0.66416952  0.73776317  1
