# generated using pymatgen
data_Ca2Al2SiO7
_symmetry_space_group_name_H-M   'P 1'
_cell_length_a   15.45855081
_cell_length_b   15.45895586
_cell_length_c   15.28485771
_cell_angle_alpha   89.99987037
_cell_angle_beta   89.99965543
_cell_angle_gamma   89.99881009
_symmetry_Int_Tables_number   1
_chemical_formula_structural   Ca2Al2SiO7
_chemical_formula_sum   'Ca48 Al48 Si24 O168'
_cell_volume   3652.66913569
_cell_formula_units_Z   24
loop_
 _symmetry_equiv_pos_site_id
 _symmetry_equiv_pos_as_xyz
  1  'x, y, z'
loop_
 _atom_type_symbol
 _atom_type_oxidation_number
  Ca2+  2.0
  Al0+  0.0
  Si0+  0.0
  O2-  -2.0
loop_
 _atom_site_type_symbol
 _atom_site_label
 _atom_site_symmetry_multiplicity
 _atom_site_fract_x
 _atom_site_fract_y
 _atom_site_fract_z
 _atom_site_occupancy
  Ca2+  Ca0  1  0.17038081  0.08466894  0.17098581  1
  Ca2+  Ca1  1  0.17033603  0.08057459  0.50550057  1
  Ca2+  Ca2  1  0.17980345  0.07959605  0.83599748  1
  Ca2+  Ca3  1  0.17257868  0.58081829  0.17244408  1
  Ca2+  Ca4  1  0.16687155  0.57648816  0.50787893  1
  Ca2+  Ca5  1  0.17702127  0.58631014  0.83200661  1
  Ca2+  Ca6  1  0.66449109  0.06971241  0.17211479  1
  Ca2+  Ca7  1  0.66393905  0.07506026  0.50004054  1
  Ca2+  Ca8  1  0.66336911  0.07462111  0.84000205  1
  Ca2+  Ca9  1  0.67268442  0.58429431  0.17474883  1
  Ca2+  Ca10  1  0.66389755  0.58050121  0.50642416  1
  Ca2+  Ca11  1  0.67158717  0.58504926  0.83235000  1
  Ca2+  Ca12  1  0.08336760  0.33255236  0.16583951  1
  Ca2+  Ca13  1  0.09110225  0.33084774  0.49193573  1
  Ca2+  Ca14  1  0.07968839  0.34140836  0.83017579  1
  Ca2+  Ca15  1  0.07822324  0.82802911  0.16846739  1
  Ca2+  Ca16  1  0.08056743  0.81617892  0.49245577  1
  Ca2+  Ca17  1  0.07981079  0.82417951  0.82557555  1
  Ca2+  Ca18  1  0.57864498  0.33893974  0.16832327  1
  Ca2+  Ca19  1  0.57153304  0.34579503  0.49688990  1
  Ca2+  Ca20  1  0.57743044  0.33308703  0.82289121  1
  Ca2+  Ca21  1  0.57979198  0.83418950  0.16554882  1
  Ca2+  Ca22  1  0.57598647  0.82142619  0.49420003  1
  Ca2+  Ca23  1  0.57587324  0.82818386  0.82810597  1
  Ca2+  Ca24  1  0.33257362  0.42397982  0.17537859  1
  Ca2+  Ca25  1  0.32672221  0.41916713  0.50856191  1
  Ca2+  Ca26  1  0.33552920  0.43005294  0.83039560  1
  Ca2+  Ca27  1  0.34433882  0.92141267  0.16862385  1
  Ca2+  Ca28  1  0.34357415  0.92099143  0.50513477  1
  Ca2+  Ca29  1  0.34513251  0.92376474  0.83795602  1
  Ca2+  Ca30  1  0.83007036  0.41871549  0.17047507  1
  Ca2+  Ca31  1  0.81923976  0.42306462  0.50814573  1
  Ca2+  Ca32  1  0.83141489  0.42734952  0.83674711  1
  Ca2+  Ca33  1  0.82281889  0.91014626  0.17527689  1
  Ca2+  Ca34  1  0.82916059  0.90606723  0.49755471  1
  Ca2+  Ca35  1  0.82387169  0.91584153  0.84044307  1
  Ca2+  Ca36  1  0.41389083  0.17284515  0.16492332  1
  Ca2+  Ca37  1  0.40924828  0.17995170  0.49907130  1
  Ca2+  Ca38  1  0.41164369  0.16959961  0.82676048  1
  Ca2+  Ca39  1  0.42188102  0.67471952  0.16136964  1
  Ca2+  Ca40  1  0.42414946  0.66759501  0.49459269  1
  Ca2+  Ca41  1  0.41543793  0.67425717  0.82247507  1
  Ca2+  Ca42  1  0.92343376  0.17274611  0.16200329  1
  Ca2+  Ca43  1  0.92622839  0.16978018  0.49087982  1
  Ca2+  Ca44  1  0.91508144  0.17707204  0.83046478  1
  Ca2+  Ca45  1  0.91995437  0.66275192  0.16686358  1
  Ca2+  Ca46  1  0.92599909  0.66117467  0.49709470  1
  Ca2+  Ca47  1  0.91990052  0.65723614  0.82703472  1
  Al0+  Al48  1  0.00126266  -0.00006013  -0.00279866  1
  Al0+  Al49  1  0.00229875  0.00103776  0.32524666  1
  Al0+  Al50  1  -0.00070189  0.00144585  0.66877309  1
  Al0+  Al51  1  -0.00093509  0.49885981  0.00031944  1
  Al0+  Al52  1  0.00115562  0.49805741  0.33286207  1
  Al0+  Al53  1  -0.00249425  0.49851130  0.66757455  1
  Al0+  Al54  1  0.49999505  0.00062980  0.00547847  1
  Al0+  Al55  1  0.50217177  0.00169171  0.33734820  1
  Al0+  Al56  1  0.50133750  0.00138540  0.66756834  1
  Al0+  Al57  1  0.50012008  0.50022828  0.00238751  1
  Al0+  Al58  1  0.50068616  0.50159572  0.32699376  1
  Al0+  Al59  1  0.49837289  0.49930866  0.66770356  1
  Al0+  Al60  1  0.25000991  0.24809324  0.00213492  1
  Al0+  Al61  1  0.25080965  0.25103372  0.32715608  1
  Al0+  Al62  1  0.24893916  0.24788436  0.67260421  1
  Al0+  Al63  1  0.24962355  0.75085296  0.00015147  1
  Al0+  Al64  1  0.25017246  0.75277883  0.32520405  1
  Al0+  Al65  1  0.24598344  0.75192127  0.66052590  1
  Al0+  Al66  1  0.75114419  0.24948621  -0.00495017  1
  Al0+  Al67  1  0.74932851  0.24924599  0.33828323  1
  Al0+  Al68  1  0.74967555  0.24866928  0.66836682  1
  Al0+  Al69  1  0.75008071  0.74826720  0.00804989  1
  Al0+  Al70  1  0.75052676  0.75011170  0.33373233  1
  Al0+  Al71  1  0.74870991  0.75065912  0.66835363  1
  Al0+  Al72  1  0.42773838  0.82357352  0.65232913  1
  Al0+  Al73  1  0.68075497  0.93019325  0.01438725  1
  Al0+  Al74  1  0.67964286  0.92819149  0.35053775  1
  Al0+  Al75  1  0.18094976  0.42952649  0.34540952  1
  Al0+  Al76  1  0.67784275  0.42854727  0.34689637  1
  Al0+  Al77  1  0.43037862  0.82084399  0.98535555  1
  Al0+  Al78  1  0.32223036  0.57302704  0.01440361  1
  Al0+  Al79  1  0.07186991  0.67470472  0.31622097  1
  Al0+  Al80  1  0.42826179  0.31929256  0.65537595  1
  Al0+  Al81  1  0.32037549  0.57428811  0.67802686  1
  Al0+  Al82  1  0.93004428  0.81993109  0.31861835  1
  Al0+  Al83  1  0.57141803  0.67837585  0.31661957  1
  Al0+  Al84  1  0.42984153  0.82422763  0.31712519  1
  Al0+  Al85  1  0.57089064  0.67860691  0.65302223  1
  Al0+  Al86  1  0.67604260  0.42767326  0.68260322  1
  Al0+  Al87  1  0.42987171  0.32083556  0.31944342  1
  Al0+  Al88  1  0.31991232  0.07000479  0.01626877  1
  Al0+  Al89  1  0.82128083  0.56880915  0.01624525  1
  Al0+  Al90  1  0.81930560  0.57140232  0.68083817  1
  Al0+  Al91  1  0.06917559  0.67750133  0.65394087  1
  Al0+  Al92  1  0.32055807  0.06808972  0.67910904  1
  Al0+  Al93  1  0.07218280  0.17980210  0.31938428  1
  Al0+  Al94  1  0.93002498  0.32041815  0.98510691  1
  Al0+  Al95  1  0.17817699  0.42710612  0.68188452  1
  Si0+  Si96  1  0.82370377  0.07327192  0.01603335  1
  Si0+  Si97  1  0.57440611  0.17757282  0.64952943  1
  Si0+  Si98  1  0.32048779  0.07083349  0.34873774  1
  Si0+  Si99  1  0.67805549  0.42505770  0.01650439  1
  Si0+  Si100  1  0.06971415  0.67918180  0.98412737  1
  Si0+  Si101  1  0.17531474  0.92737129  0.01797406  1
  Si0+  Si102  1  0.07375036  0.17687548  0.97955229  1
  Si0+  Si103  1  0.92709739  0.82077479  0.98535778  1
  Si0+  Si104  1  0.17917397  0.42957529  0.01648293  1
  Si0+  Si105  1  0.06938408  0.17932010  0.65283241  1
  Si0+  Si106  1  0.82260898  0.57104987  0.35071415  1
  Si0+  Si107  1  0.92748169  0.32040236  0.64993995  1
  Si0+  Si108  1  0.42806505  0.32197491  0.98440964  1
  Si0+  Si109  1  0.32145533  0.57482233  0.34792897  1
  Si0+  Si110  1  0.57355566  0.67706901  0.98301138  1
  Si0+  Si111  1  0.57317086  0.17804036  0.31737579  1
  Si0+  Si112  1  0.68060713  0.93081302  0.68228377  1
  Si0+  Si113  1  0.92736136  0.82467484  0.65254557  1
  Si0+  Si114  1  0.82378394  0.07194101  0.68263593  1
  Si0+  Si115  1  0.17452681  0.92823604  0.68224291  1
  Si0+  Si116  1  0.82423813  0.07128012  0.34941428  1
  Si0+  Si117  1  0.17739259  0.92949350  0.34746014  1
  Si0+  Si118  1  0.56964789  0.17959001  0.98659491  1
  Si0+  Si119  1  0.92575666  0.32042064  0.31833915  1
  O2-  O120  1  0.24473472  -0.00445516  0.06224172  1
  O2-  O121  1  0.25238180  -0.00345048  0.39013032  1
  O2-  O122  1  0.25025932  -0.01078138  0.72644236  1
  O2-  O123  1  0.25029827  0.49510141  0.06086798  1
  O2-  O124  1  0.25120091  0.50769402  0.39211186  1
  O2-  O125  1  0.24856313  0.50182064  0.72961664  1
  O2-  O126  1  0.75871178  0.00245020  0.06107939  1
  O2-  O127  1  0.75787274  0.00134748  0.39559142  1
  O2-  O128  1  0.75240718  0.00148910  0.72472405  1
  O2-  O129  1  0.74476820  0.49519578  0.06103186  1
  O2-  O130  1  0.75179444  0.50391746  0.39327600  1
  O2-  O131  1  0.74664606  0.50076291  0.73245094  1
  O2-  O132  1  -0.00404040  0.25336401  0.27376818  1
  O2-  O133  1  0.00056567  0.25113265  0.60846876  1
  O2-  O134  1  0.00482230  0.24578532  0.93633675  1
  O2-  O135  1  -0.00149283  0.74586630  0.26631616  1
  O2-  O136  1  -0.00561480  0.75408836  0.61006451  1
  O2-  O137  1  -0.00184181  0.75076387  0.94221408  1
  O2-  O138  1  0.50742598  0.24879931  0.27227123  1
  O2-  O139  1  0.50726802  0.24862267  0.60765746  1
  O2-  O140  1  0.50163441  0.25276592  0.94344678  1
  O2-  O141  1  0.50001515  0.75106573  0.26658872  1
  O2-  O142  1  0.49462413  0.74669020  0.60347966  1
  O2-  O143  1  0.50168794  0.74272292  0.93923830  1
  O2-  O144  1  0.07313593  0.17672976  0.08513139  1
  O2-  O145  1  0.07196524  0.17946417  0.43298497  1
  O2-  O146  1  0.06603047  0.17694273  0.75769495  1
  O2-  O147  1  0.06861264  0.67944445  0.08895434  1
  O2-  O148  1  0.07057820  0.67478447  0.42980443  1
  O2-  O149  1  0.06825512  0.68020058  0.76769960  1
  O2-  O150  1  0.56967640  0.18019549  0.09158574  1
  O2-  O151  1  0.57131844  0.17544544  0.42271191  1
  O2-  O152  1  0.57450511  0.17490184  0.75564801  1
  O2-  O153  1  0.57435188  0.67800575  0.08837028  1
  O2-  O154  1  0.56974349  0.67752967  0.43011789  1
  O2-  O155  1  0.57470193  0.68390347  0.76690131  1
  O2-  O156  1  0.18332317  0.42810145  0.23202620  1
  O2-  O157  1  0.17990987  0.42478815  0.56825486  1
  O2-  O158  1  0.17859310  0.43125814  0.91105503  1
  O2-  O159  1  0.17495524  0.93289642  0.24241515  1
  O2-  O160  1  0.16690638  0.93418478  0.57720198  1
  O2-  O161  1  0.17181469  0.92905131  0.91232124  1
  O2-  O162  1  0.68226960  0.42649799  0.23347000  1
  O2-  O163  1  0.67926952  0.42602724  0.56913281  1
  O2-  O164  1  0.67846831  0.42328578  0.91127508  1
  O2-  O165  1  0.67958569  0.93268461  0.23738719  1
  O2-  O166  1  0.68210400  0.93239342  0.57752289  1
  O2-  O167  1  0.68215389  0.93307123  0.90070795  1
  O2-  O168  1  0.42841021  0.32101069  0.08963213  1
  O2-  O169  1  0.42697561  0.31835101  0.43234301  1
  O2-  O170  1  0.42884236  0.31549775  0.76898790  1
  O2-  O171  1  0.43403824  0.82213685  0.09794276  1
  O2-  O172  1  0.43135822  0.82499985  0.43042096  1
  O2-  O173  1  0.43347069  0.82618892  0.76624854  1
  O2-  O174  1  0.93027331  0.31744943  0.09828715  1
  O2-  O175  1  0.92520006  0.31744006  0.42393503  1
  O2-  O176  1  0.92730564  0.31772476  0.75521949  1
  O2-  O177  1  0.92883437  0.82183098  0.08982741  1
  O2-  O178  1  0.93368753  0.82062939  0.43253542  1
  O2-  O179  1  0.92908608  0.82855572  0.75862634  1
  O2-  O180  1  0.31947377  0.07124064  0.24345414  1
  O2-  O181  1  0.31648677  0.07093427  0.56593691  1
  O2-  O182  1  0.31968140  0.07007043  0.90313214  1
  O2-  O183  1  0.32011950  0.57154578  0.24179150  1
  O2-  O184  1  0.31933503  0.57225529  0.56462182  1
  O2-  O185  1  0.32068197  0.57371261  0.90146223  1
  O2-  O186  1  0.82210701  0.07309486  0.24386674  1
  O2-  O187  1  0.82718753  0.07282554  0.57797059  1
  O2-  O188  1  0.82170733  0.07266335  0.90996624  1
  O2-  O189  1  0.82331249  0.56822191  0.24472533  1
  O2-  O190  1  0.82118135  0.56880324  0.56756159  1
  O2-  O191  1  0.82206566  0.56894288  0.90349448  1
  O2-  O192  1  0.04270101  0.08553617  0.26065543  1
  O2-  O193  1  0.03929135  0.08810053  0.60440642  1
  O2-  O194  1  0.04860842  0.08293860  0.93322449  1
  O2-  O195  1  0.04376321  0.57625604  0.26243661  1
  O2-  O196  1  0.03654726  0.58141147  0.59994244  1
  O2-  O197  1  0.04044255  0.58765714  0.93787403  1
  O2-  O198  1  0.54329336  0.08650116  0.26972390  1
  O2-  O199  1  0.54633605  0.08532846  0.60275156  1
  O2-  O200  1  0.53859969  0.08908596  0.93853089  1
  O2-  O201  1  0.54495593  0.58135077  0.25987557  1
  O2-  O202  1  0.54734366  0.57848984  0.60250111  1
  O2-  O203  1  0.55200908  0.58120497  0.93962750  1
  O2-  O204  1  0.16588810  0.21231956  0.26148462  1
  O2-  O205  1  0.16189994  0.20488566  0.60678322  1
  O2-  O206  1  0.16788435  0.20286523  0.93470234  1
  O2-  O207  1  0.16826346  0.70666249  0.26167720  1
  O2-  O208  1  0.16312396  0.70819141  0.59543093  1
  O2-  O209  1  0.16093179  0.70853322  0.93665404  1
  O2-  O210  1  0.66845450  0.19961180  0.27264963  1
  O2-  O211  1  0.66944364  0.19794066  0.60387110  1
  O2-  O212  1  0.66265582  0.20169248  0.93781871  1
  O2-  O213  1  0.67078907  0.70625203  0.26640317  1
  O2-  O214  1  0.66844458  0.71145236  0.59971074  1
  O2-  O215  1  0.66719253  0.70683000  0.93891080  1
  O2-  O216  1  0.08641011  0.45692967  0.06289526  1
  O2-  O217  1  0.08175679  0.45260047  0.39833078  1
  O2-  O218  1  0.07872805  0.45387632  0.73279431  1
  O2-  O219  1  0.08184411  0.95509591  0.06463236  1
  O2-  O220  1  0.08751255  0.96258039  0.39540914  1
  O2-  O221  1  0.08458253  0.96120845  0.73369643  1
  O2-  O222  1  0.58344605  0.44799974  0.06151810  1
  O2-  O223  1  0.57992537  0.45966758  0.39768343  1
  O2-  O224  1  0.57741588  0.45211722  0.73589193  1
  O2-  O225  1  0.58740483  0.96669947  0.06983830  1
  O2-  O226  1  0.58561318  0.96514753  0.40596775  1
  O2-  O227  1  0.59046890  0.96191624  0.73099678  1
  O2-  O228  1  0.20110087  0.33370794  0.05969238  1
  O2-  O229  1  0.21426383  0.33245962  0.39774143  1
  O2-  O230  1  0.20564876  0.32988107  0.73768035  1
  O2-  O231  1  0.19881104  0.83352185  0.06303977  1
  O2-  O232  1  0.20078526  0.83538817  0.39218853  1
  O2-  O233  1  0.19143380  0.83220238  0.72522952  1
  O2-  O234  1  0.70604508  0.33135053  0.06172255  1
  O2-  O235  1  0.70599293  0.33139826  0.40208426  1
  O2-  O236  1  0.70569955  0.32804280  0.73440898  1
  O2-  O237  1  0.70961616  0.83435252  0.06945657  1
  O2-  O238  1  0.71074685  0.83186939  0.40460378  1
  O2-  O239  1  0.70808994  0.84022737  0.73167428  1
  O2-  O240  1  0.45931945  0.41612636  0.26274326  1
  O2-  O241  1  0.45398883  0.41646138  0.60120133  1
  O2-  O242  1  0.45426960  0.41470804  0.93810898  1
  O2-  O243  1  0.46181751  0.92346748  0.26681327  1
  O2-  O244  1  0.46244900  0.92076829  0.59987881  1
  O2-  O245  1  0.46510835  0.91845728  0.93446582  1
  O2-  O246  1  0.95094083  0.41351991  0.27212524  1
  O2-  O247  1  0.95194774  0.41224242  0.60296134  1
  O2-  O248  1  0.96232357  0.41634215  0.93044940  1
  O2-  O249  1  0.95946125  0.91718557  0.26316273  1
  O2-  O250  1  0.95323794  0.91823173  0.60609826  1
  O2-  O251  1  0.95295948  0.91369445  0.93727406  1
  O2-  O252  1  0.33700730  0.28571511  0.26115723  1
  O2-  O253  1  0.33247513  0.28240970  0.60267471  1
  O2-  O254  1  0.33664308  0.29058544  0.93898117  1
  O2-  O255  1  0.33015835  0.80313348  0.26377600  1
  O2-  O256  1  0.32542912  0.80802964  0.60319141  1
  O2-  O257  1  0.33045019  0.79638253  0.93429105  1
  O2-  O258  1  0.83308912  0.29218446  0.27136033  1
  O2-  O259  1  0.83645258  0.28874322  0.60311214  1
  O2-  O260  1  0.83433740  0.28852351  0.92835365  1
  O2-  O261  1  0.83085043  0.79493856  0.26710143  1
  O2-  O262  1  0.83323076  0.80094634  0.60812735  1
  O2-  O263  1  0.83459971  0.79285722  0.93958620  1
  O2-  O264  1  0.41585860  0.04073336  0.07157344  1
  O2-  O265  1  0.41296162  0.04744377  0.39650781  1
  O2-  O266  1  0.41900949  0.04326066  0.73385410  1
  O2-  O267  1  0.41928643  0.54328123  0.06843411  1
  O2-  O268  1  0.41528431  0.54676343  0.39046175  1
  O2-  O269  1  0.41726453  0.54529856  0.73364339  1
  O2-  O270  1  0.91967062  0.05146068  0.05862432  1
  O2-  O271  1  0.91967221  0.04734283  0.39284611  1
  O2-  O272  1  0.91418276  0.04451241  0.73380030  1
  O2-  O273  1  0.91710505  0.53516044  0.07030843  1
  O2-  O274  1  0.91574629  0.54259232  0.39601070  1
  O2-  O275  1  0.91571391  0.53834713  0.73547122  1
  O2-  O276  1  0.28883026  0.16675125  0.07095463  1
  O2-  O277  1  0.28775125  0.16190781  0.39391530  1
  O2-  O278  1  0.28481541  0.16080801  0.73731292  1
  O2-  O279  1  0.28870427  0.66869128  0.06823717  1
  O2-  O280  1  0.29896260  0.67065651  0.38985696  1
  O2-  O281  1  0.28964251  0.67326772  0.73036795  1
  O2-  O282  1  0.79613794  0.16639871  0.06150897  1
  O2-  O283  1  0.79757647  0.16337250  0.39866475  1
  O2-  O284  1  0.79555663  0.16293798  0.73152242  1
  O2-  O285  1  0.79350699  0.66515258  0.07178219  1
  O2-  O286  1  0.80108221  0.66574102  0.39487410  1
  O2-  O287  1  0.79512310  0.67134567  0.73448836  1
