# generated using pymatgen
data_Ca2Al2SiO7
_symmetry_space_group_name_H-M   'P 1'
_cell_length_a   15.46173736
_cell_length_b   15.46334435
_cell_length_c   15.28754845
_cell_angle_alpha   90.00086522
_cell_angle_beta   90.00972968
_cell_angle_gamma   90.00313828
_symmetry_Int_Tables_number   1
_chemical_formula_structural   Ca2Al2SiO7
_chemical_formula_sum   'Ca48 Al48 Si24 O168'
_cell_volume   3655.10248473
_cell_formula_units_Z   24
loop_
 _symmetry_equiv_pos_site_id
 _symmetry_equiv_pos_as_xyz
  1  'x, y, z'
loop_
 _atom_type_symbol
 _atom_type_oxidation_number
  Ca2+  2.0
  Al0+  0.0
  Si0+  0.0
  O2-  -2.0
loop_
 _atom_site_type_symbol
 _atom_site_label
 _atom_site_symmetry_multiplicity
 _atom_site_fract_x
 _atom_site_fract_y
 _atom_site_fract_z
 _atom_site_occupancy
  Ca2+  Ca0  1  0.15483367  0.07695868  0.17243342  1
  Ca2+  Ca1  1  0.16831383  0.08246690  0.50110698  1
  Ca2+  Ca2  1  0.16900360  0.08074850  0.83912335  1
  Ca2+  Ca3  1  0.16520652  0.57721709  0.16148779  1
  Ca2+  Ca4  1  0.17492977  0.57472365  0.51058877  1
  Ca2+  Ca5  1  0.17361605  0.57506265  0.84168231  1
  Ca2+  Ca6  1  0.67068808  0.08563650  0.17615996  1
  Ca2+  Ca7  1  0.66646467  0.08778423  0.50208674  1
  Ca2+  Ca8  1  0.66407013  0.08978681  0.83835399  1
  Ca2+  Ca9  1  0.66978227  0.57415591  0.16412023  1
  Ca2+  Ca10  1  0.66713205  0.57496527  0.50981400  1
  Ca2+  Ca11  1  0.66871953  0.56970854  0.84012178  1
  Ca2+  Ca12  1  0.08087146  0.32045814  0.15455742  1
  Ca2+  Ca13  1  0.08004021  0.33212971  0.49615157  1
  Ca2+  Ca14  1  0.07390117  0.34971076  0.83263667  1
  Ca2+  Ca15  1  0.08104576  0.83479977  0.15898811  1
  Ca2+  Ca16  1  0.07894793  0.83468487  0.49032127  1
  Ca2+  Ca17  1  0.08955587  0.82799547  0.83683401  1
  Ca2+  Ca18  1  0.57761241  0.32649599  0.15946506  1
  Ca2+  Ca19  1  0.57781435  0.32519059  0.49531069  1
  Ca2+  Ca20  1  0.58407455  0.33023878  0.83062441  1
  Ca2+  Ca21  1  0.58454444  0.83491814  0.16390627  1
  Ca2+  Ca22  1  0.58562930  0.82739869  0.49628386  1
  Ca2+  Ca23  1  0.58136137  0.82161946  0.82566070  1
  Ca2+  Ca24  1  0.33721040  0.41320331  0.16444153  1
  Ca2+  Ca25  1  0.32870084  0.41574273  0.50815036  1
  Ca2+  Ca26  1  0.32921958  0.42520354  0.84291183  1
  Ca2+  Ca27  1  0.31936999  0.91973091  0.16951086  1
  Ca2+  Ca28  1  0.32889286  0.92574625  0.50473553  1
  Ca2+  Ca29  1  0.33265460  0.92677908  0.83820150  1
  Ca2+  Ca30  1  0.83467622  0.41487423  0.16189232  1
  Ca2+  Ca31  1  0.82654282  0.41108708  0.50934095  1
  Ca2+  Ca32  1  0.82553441  0.41008146  0.84121561  1
  Ca2+  Ca33  1  0.82893746  0.92416674  0.17977534  1
  Ca2+  Ca34  1  0.83318759  0.92331784  0.49424319  1
  Ca2+  Ca35  1  0.83099220  0.92097320  0.83752080  1
  Ca2+  Ca36  1  0.42672680  0.17589350  0.16074328  1
  Ca2+  Ca37  1  0.42349930  0.16819029  0.49331128  1
  Ca2+  Ca38  1  0.42409184  0.17075251  0.82962895  1
  Ca2+  Ca39  1  0.41300534  0.66860641  0.16018831  1
  Ca2+  Ca40  1  0.42260537  0.65799304  0.50134840  1
  Ca2+  Ca41  1  0.41567318  0.66169949  0.82858195  1
  Ca2+  Ca42  1  0.92380971  0.16504570  0.16169576  1
  Ca2+  Ca43  1  0.92105738  0.17050433  0.49457810  1
  Ca2+  Ca44  1  0.92422624  0.18024166  0.83440185  1
  Ca2+  Ca45  1  0.91964041  0.67335187  0.15794180  1
  Ca2+  Ca46  1  0.91847628  0.67480801  0.49292052  1
  Ca2+  Ca47  1  0.92434228  0.65463752  0.83585623  1
  Al0+  Al48  1  -0.00196816  0.00005633  -0.00282048  1
  Al0+  Al49  1  -0.00301283  -0.00105229  0.33603166  1
  Al0+  Al50  1  -0.00197909  0.00054895  0.66769096  1
  Al0+  Al51  1  0.00114263  0.50273420  0.00154966  1
  Al0+  Al52  1  0.00128754  0.50165212  0.33508078  1
  Al0+  Al53  1  -0.00101142  0.50226264  0.66025980  1
  Al0+  Al54  1  0.49862744  -0.00141034  -0.00254103  1
  Al0+  Al55  1  0.49929488  -0.00307931  0.33299917  1
  Al0+  Al56  1  0.49972838  -0.00166288  0.66683874  1
  Al0+  Al57  1  0.50157740  0.50069216  0.00583900  1
  Al0+  Al58  1  0.50088531  0.50116187  0.33022027  1
  Al0+  Al59  1  0.50123982  0.49918036  0.66876920  1
  Al0+  Al60  1  0.25388859  0.24886490  -0.00387019  1
  Al0+  Al61  1  0.24884581  0.25070848  0.32611584  1
  Al0+  Al62  1  0.24795695  0.24745343  0.67629532  1
  Al0+  Al63  1  0.24863312  0.75250298  0.00268477  1
  Al0+  Al64  1  0.25159630  0.74823802  0.33941801  1
  Al0+  Al65  1  0.24892373  0.75101130  0.66676327  1
  Al0+  Al66  1  0.75169840  0.24828430  -0.00059996  1
  Al0+  Al67  1  0.75031642  0.25177502  0.33520046  1
  Al0+  Al68  1  0.75183755  0.24897236  0.66287367  1
  Al0+  Al69  1  0.74941781  0.75093364  0.00202822  1
  Al0+  Al70  1  0.75077117  0.75007034  0.33240240  1
  Al0+  Al71  1  0.74977089  0.75128573  0.66182972  1
  Al0+  Al72  1  0.07332215  0.17580039  0.98421147  1
  Al0+  Al73  1  0.07099326  0.68137544  0.98661048  1
  Al0+  Al74  1  0.17607515  0.42825727  0.68089815  1
  Al0+  Al75  1  0.57199545  0.17740835  0.31918137  1
  Al0+  Al76  1  0.93034444  0.81896791  0.31912867  1
  Al0+  Al77  1  0.81958338  0.07335567  0.35001495  1
  Al0+  Al78  1  0.68031270  0.42606811  0.01695690  1
  Al0+  Al79  1  0.57110491  0.17806659  0.98490180  1
  Al0+  Al80  1  0.17832839  0.92857169  0.34737746  1
  Al0+  Al81  1  0.32252124  0.07000812  0.68030059  1
  Al0+  Al82  1  0.17937524  0.42651256  0.01674852  1
  Al0+  Al83  1  0.43033166  0.32420227  0.98199657  1
  Al0+  Al84  1  0.57011321  0.17817315  0.65165250  1
  Al0+  Al85  1  0.42857822  0.32289503  0.31870965  1
  Al0+  Al86  1  0.17938815  0.93335122  0.01279632  1
  Al0+  Al87  1  0.32122012  0.57170080  0.01685962  1
  Al0+  Al88  1  0.68144256  0.42726553  0.67901420  1
  Al0+  Al89  1  0.93217517  0.32163501  0.98646382  1
  Al0+  Al90  1  0.67651745  0.92751800  0.34968664  1
  Al0+  Al91  1  0.06849484  0.18012702  0.32192630  1
  Al0+  Al92  1  0.56989011  0.67757074  0.65355665  1
  Al0+  Al93  1  0.82203853  0.57271437  0.01501869  1
  Al0+  Al94  1  0.93138090  0.32136980  0.65203559  1
  Al0+  Al95  1  0.32158712  0.57066971  0.68106100  1
  Si0+  Si96  1  0.82093943  0.57537416  0.68065128  1
  Si0+  Si97  1  0.42701366  0.81981331  0.31854444  1
  Si0+  Si98  1  0.67892912  0.43136298  0.34947152  1
  Si0+  Si99  1  0.42710856  0.82161907  0.64906162  1
  Si0+  Si100  1  0.32080945  0.07276902  0.34752736  1
  Si0+  Si101  1  0.92575762  0.82195846  0.98162784  1
  Si0+  Si102  1  0.32532128  0.07187109  0.01821611  1
  Si0+  Si103  1  0.42616395  0.32098690  0.65246976  1
  Si0+  Si104  1  0.32272628  0.57038060  0.34977139  1
  Si0+  Si105  1  0.57117853  0.67954748  0.31661725  1
  Si0+  Si106  1  0.17528706  0.92878310  0.68336223  1
  Si0+  Si107  1  0.07095193  0.68112272  0.65001778  1
  Si0+  Si108  1  0.57232344  0.68052839  0.98619687  1
  Si0+  Si109  1  0.82080576  0.07043204  0.68386826  1
  Si0+  Si110  1  0.42806139  0.81971862  0.98515346  1
  Si0+  Si111  1  0.92816029  0.82369235  0.65008501  1
  Si0+  Si112  1  0.82207630  0.57111251  0.34894753  1
  Si0+  Si113  1  0.17892902  0.42815143  0.34754985  1
  Si0+  Si114  1  0.07461207  0.67762929  0.31674275  1
  Si0+  Si115  1  0.81945775  0.06901333  0.01360222  1
  Si0+  Si116  1  0.67954358  0.92781261  0.68209855  1
  Si0+  Si117  1  0.92748812  0.32580641  0.31719515  1
  Si0+  Si118  1  0.07237361  0.17526871  0.65004920  1
  Si0+  Si119  1  0.67716291  0.92826309  0.01289255  1
  O2-  O120  1  0.24818825  0.01215687  0.06192676  1
  O2-  O121  1  0.25159192  0.00480619  0.39340643  1
  O2-  O122  1  0.24535628  -0.00365449  0.72571085  1
  O2-  O123  1  0.25354844  0.49642960  0.06825210  1
  O2-  O124  1  0.25186308  0.49808047  0.38959644  1
  O2-  O125  1  0.25107173  0.49756249  0.73009108  1
  O2-  O126  1  0.74537787  0.00082408  0.05479749  1
  O2-  O127  1  0.74313372  0.00464191  0.40009375  1
  O2-  O128  1  0.74701589  0.00127803  0.72557451  1
  O2-  O129  1  0.75400254  0.49778365  0.06629712  1
  O2-  O130  1  0.75413205  0.49811028  0.39234108  1
  O2-  O131  1  0.75505692  0.50431650  0.72386088  1
  O2-  O132  1  -0.00581798  0.25494472  0.27516853  1
  O2-  O133  1  0.00924922  0.24931857  0.60637369  1
  O2-  O134  1  0.01030867  0.25640807  0.93494182  1
  O2-  O135  1  0.00743955  0.74738619  0.27248495  1
  O2-  O136  1  0.00055150  0.75338095  0.60883743  1
  O2-  O137  1  -0.00715836  0.75212821  0.93722234  1
  O2-  O138  1  0.50041435  0.24976430  0.27054217  1
  O2-  O139  1  0.49304919  0.25123541  0.60633987  1
  O2-  O140  1  0.50211258  0.25135657  0.93288925  1
  O2-  O141  1  0.50082269  0.75181177  0.27545362  1
  O2-  O142  1  0.49263475  0.74945510  0.60507154  1
  O2-  O143  1  0.49788869  0.74751621  0.94336417  1
  O2-  O144  1  0.06420521  0.17108081  0.09770644  1
  O2-  O145  1  0.07057665  0.18390823  0.43544967  1
  O2-  O146  1  0.06678501  0.16680070  0.75447862  1
  O2-  O147  1  0.07118871  0.68593911  0.09971389  1
  O2-  O148  1  0.07211014  0.67710615  0.42289897  1
  O2-  O149  1  0.07098940  0.68144690  0.75477302  1
  O2-  O150  1  0.57011310  0.17418724  0.09822884  1
  O2-  O151  1  0.56926095  0.18011196  0.43313002  1
  O2-  O152  1  0.57047295  0.17789427  0.76412761  1
  O2-  O153  1  0.57420436  0.68531795  0.09154594  1
  O2-  O154  1  0.56975614  0.67719368  0.42188808  1
  O2-  O155  1  0.57298541  0.68177612  0.76640829  1
  O2-  O156  1  0.17544997  0.42988886  0.24342741  1
  O2-  O157  1  0.17711262  0.43077167  0.56608497  1
  O2-  O158  1  0.17782270  0.43413531  0.90353451  1
  O2-  O159  1  0.17981250  0.92725190  0.23458348  1
  O2-  O160  1  0.17408712  0.92898380  0.57754785  1
  O2-  O161  1  0.18357283  0.93125236  0.89947793  1
  O2-  O162  1  0.67796818  0.43387119  0.24493231  1
  O2-  O163  1  0.68214564  0.42927867  0.56512726  1
  O2-  O164  1  0.68083435  0.42772800  0.90317283  1
  O2-  O165  1  0.67982369  0.92467464  0.23586122  1
  O2-  O166  1  0.68141079  0.92551675  0.57752370  1
  O2-  O167  1  0.67892192  0.92531115  0.90747519  1
  O2-  O168  1  0.43403278  0.32171110  0.09574983  1
  O2-  O169  1  0.42871175  0.32442906  0.43301119  1
  O2-  O170  1  0.42953496  0.32140319  0.75727929  1
  O2-  O171  1  0.43023241  0.82086855  0.09051229  1
  O2-  O172  1  0.42515070  0.81701466  0.42352165  1
  O2-  O173  1  0.42957602  0.82277195  0.75475537  1
  O2-  O174  1  0.93031582  0.31645124  0.10021650  1
  O2-  O175  1  0.92984554  0.32797450  0.42312202  1
  O2-  O176  1  0.92966808  0.32091022  0.76444184  1
  O2-  O177  1  0.92557435  0.82269072  0.08705858  1
  O2-  O178  1  0.93115789  0.81621329  0.43291669  1
  O2-  O179  1  0.92636576  0.82576272  0.75485707  1
  O2-  O180  1  0.32095212  0.06966747  0.24239456  1
  O2-  O181  1  0.32213010  0.06781882  0.56666492  1
  O2-  O182  1  0.33069894  0.06356885  0.91284470  1
  O2-  O183  1  0.32321419  0.57455556  0.24551332  1
  O2-  O184  1  0.31967186  0.56986056  0.56663562  1
  O2-  O185  1  0.31962613  0.57454759  0.90352971  1
  O2-  O186  1  0.82061582  0.06986480  0.23619157  1
  O2-  O187  1  0.82339263  0.06809364  0.57912774  1
  O2-  O188  1  0.81993658  0.06610369  0.90808054  1
  O2-  O189  1  0.82174740  0.57151539  0.24450622  1
  O2-  O190  1  0.81890642  0.57709434  0.57441890  1
  O2-  O191  1  0.81624754  0.57659919  0.90139327  1
  O2-  O192  1  0.03628686  0.08326310  0.27032678  1
  O2-  O193  1  0.03995424  0.08384617  0.60130432  1
  O2-  O194  1  0.03511405  0.08131018  0.92811646  1
  O2-  O195  1  0.04678334  0.58445895  0.27134751  1
  O2-  O196  1  0.04215736  0.59159879  0.59844797  1
  O2-  O197  1  0.04197137  0.58534792  0.93127189  1
  O2-  O198  1  0.54686141  0.07668233  0.26925337  1
  O2-  O199  1  0.54183858  0.07939229  0.59990640  1
  O2-  O200  1  0.54168639  0.07871226  0.93180024  1
  O2-  O201  1  0.54166488  0.58943665  0.26775482  1
  O2-  O202  1  0.54102537  0.58105328  0.59714894  1
  O2-  O203  1  0.54851410  0.58731280  0.94175729  1
  O2-  O204  1  0.16413197  0.20714262  0.26523713  1
  O2-  O205  1  0.16908935  0.19451942  0.60820757  1
  O2-  O206  1  0.17682448  0.18876546  0.93870759  1
  O2-  O207  1  0.16981628  0.70100032  0.27456112  1
  O2-  O208  1  0.16287564  0.70831759  0.60145281  1
  O2-  O209  1  0.16542856  0.71830840  0.93166382  1
  O2-  O210  1  0.67145730  0.20625554  0.26899913  1
  O2-  O211  1  0.66693649  0.20890904  0.59827688  1
  O2-  O212  1  0.67104258  0.20267551  0.93383006  1
  O2-  O213  1  0.66289540  0.70679873  0.26979620  1
  O2-  O214  1  0.66512561  0.71211579  0.59723606  1
  O2-  O215  1  0.66162746  0.71348800  0.93686304  1
  O2-  O216  1  0.08205047  0.45906409  0.06991180  1
  O2-  O217  1  0.08801867  0.45830378  0.39735270  1
  O2-  O218  1  0.07841339  0.46473828  0.73011297  1
  O2-  O219  1  0.07960067  0.95795838  0.06402167  1
  O2-  O220  1  0.08205389  0.95771088  0.40193659  1
  O2-  O221  1  0.08190325  0.95424311  0.72998919  1
  O2-  O222  1  0.58508226  0.46045027  0.07219404  1
  O2-  O223  1  0.58862209  0.46510609  0.39675530  1
  O2-  O224  1  0.58550415  0.45794416  0.73257914  1
  O2-  O225  1  0.58396422  0.95183576  0.05939506  1
  O2-  O226  1  0.57469829  0.94549594  0.40057254  1
  O2-  O227  1  0.58629826  0.95001184  0.72848941  1
  O2-  O228  1  0.20432570  0.32506758  0.06546576  1
  O2-  O229  1  0.20556882  0.33578427  0.39450529  1
  O2-  O230  1  0.19225625  0.32756199  0.73195396  1
  O2-  O231  1  0.21429931  0.83930065  0.06866165  1
  O2-  O232  1  0.21079467  0.83253993  0.40318226  1
  O2-  O233  1  0.19981655  0.83445240  0.72792133  1
  O2-  O234  1  0.70981045  0.32779335  0.06955383  1
  O2-  O235  1  0.70287391  0.33866672  0.39657502  1
  O2-  O236  1  0.71480880  0.33145233  0.73199219  1
  O2-  O237  1  0.70573540  0.83829529  0.06303760  1
  O2-  O238  1  0.71093983  0.82981468  0.40256720  1
  O2-  O239  1  0.71190314  0.83724449  0.73029503  1
  O2-  O240  1  0.45886549  0.42081460  0.26561547  1
  O2-  O241  1  0.45298241  0.41424470  0.60584380  1
  O2-  O242  1  0.45920704  0.42454936  0.93322242  1
  O2-  O243  1  0.45042389  0.91169271  0.26966288  1
  O2-  O244  1  0.45757905  0.91256576  0.60085500  1
  O2-  O245  1  0.45823767  0.90954804  0.93522638  1
  O2-  O246  1  0.95444819  0.41949549  0.27212102  1
  O2-  O247  1  0.95622178  0.41918138  0.59544170  1
  O2-  O248  1  0.95218092  0.42296336  0.93576133  1
  O2-  O249  1  0.95753988  0.91638032  0.26672623  1
  O2-  O250  1  0.95660320  0.91518752  0.60203436  1
  O2-  O251  1  0.95342314  0.91384348  0.93347014  1
  O2-  O252  1  0.33064859  0.29698495  0.26459217  1
  O2-  O253  1  0.33024273  0.29652956  0.60985435  1
  O2-  O254  1  0.33131732  0.29875972  0.92979534  1
  O2-  O255  1  0.33652855  0.78728199  0.27062913  1
  O2-  O256  1  0.33146477  0.80132724  0.60412285  1
  O2-  O257  1  0.33685966  0.79354976  0.93708384  1
  O2-  O258  1  0.83236692  0.30414808  0.27406043  1
  O2-  O259  1  0.83729130  0.28544675  0.59601046  1
  O2-  O260  1  0.83608052  0.28604546  0.93293497  1
  O2-  O261  1  0.83427462  0.78680205  0.26496623  1
  O2-  O262  1  0.83766460  0.79478282  0.60063429  1
  O2-  O263  1  0.83108682  0.79839311  0.93600955  1
  O2-  O264  1  0.41447330  0.03455473  0.06701182  1
  O2-  O265  1  0.41334474  0.04393905  0.39444839  1
  O2-  O266  1  0.41703213  0.03387111  0.73592990  1
  O2-  O267  1  0.42136802  0.55027811  0.06969482  1
  O2-  O268  1  0.41552387  0.54306202  0.39643879  1
  O2-  O269  1  0.42100162  0.54696641  0.73257976  1
  O2-  O270  1  0.90925263  0.03667872  0.06169291  1
  O2-  O271  1  0.91480327  0.03784786  0.40586198  1
  O2-  O272  1  0.91059080  0.03788730  0.73271127  1
  O2-  O273  1  0.92146059  0.55140076  0.06799894  1
  O2-  O274  1  0.91554283  0.54822037  0.39702802  1
  O2-  O275  1  0.91629998  0.55211196  0.72233424  1
  O2-  O276  1  0.31187356  0.16899102  0.05849704  1
  O2-  O277  1  0.29497007  0.16692042  0.39254900  1
  O2-  O278  1  0.29554624  0.16494811  0.73803562  1
  O2-  O279  1  0.28914444  0.66982488  0.06959688  1
  O2-  O280  1  0.29542527  0.66076044  0.40077898  1
  O2-  O281  1  0.29409724  0.67112852  0.73076341  1
  O2-  O282  1  0.79558908  0.16034773  0.06210759  1
  O2-  O283  1  0.79720434  0.17374684  0.40313159  1
  O2-  O284  1  0.79379884  0.16224616  0.72987599  1
  O2-  O285  1  0.78921652  0.67037200  0.06936969  1
  O2-  O286  1  0.79119931  0.66173908  0.39685101  1
  O2-  O287  1  0.79550493  0.66885807  0.72642702  1
