# generated using pymatgen
data_Ca2Al2SiO7
_symmetry_space_group_name_H-M   'P 1'
_cell_length_a   15.45540141
_cell_length_b   15.45555613
_cell_length_c   15.28147315
_cell_angle_alpha   89.99044630
_cell_angle_beta   90.01222001
_cell_angle_gamma   90.00014218
_symmetry_Int_Tables_number   1
_chemical_formula_structural   Ca2Al2SiO7
_chemical_formula_sum   'Ca48 Al48 Si24 O168'
_cell_volume   3650.31323066
_cell_formula_units_Z   24
loop_
 _symmetry_equiv_pos_site_id
 _symmetry_equiv_pos_as_xyz
  1  'x, y, z'
loop_
 _atom_type_symbol
 _atom_type_oxidation_number
  Ca2+  2.0
  Al0+  0.0
  Si0+  0.0
  O2-  -2.0
loop_
 _atom_site_type_symbol
 _atom_site_label
 _atom_site_symmetry_multiplicity
 _atom_site_fract_x
 _atom_site_fract_y
 _atom_site_fract_z
 _atom_site_occupancy
  Ca2+  Ca0  1  0.17345020  0.08377107  0.17618615  1
  Ca2+  Ca1  1  0.16307242  0.08210734  0.49816842  1
  Ca2+  Ca2  1  0.16862009  0.08820318  0.84052862  1
  Ca2+  Ca3  1  0.15668197  0.57561678  0.17245171  1
  Ca2+  Ca4  1  0.15936937  0.57801893  0.49943149  1
  Ca2+  Ca5  1  0.17223936  0.57657579  0.84827986  1
  Ca2+  Ca6  1  0.66628666  0.06697920  0.17351969  1
  Ca2+  Ca7  1  0.67118368  0.07725818  0.50749615  1
  Ca2+  Ca8  1  0.67277533  0.08362604  0.83754327  1
  Ca2+  Ca9  1  0.67620450  0.59643011  0.17035345  1
  Ca2+  Ca10  1  0.66982802  0.58597432  0.50348218  1
  Ca2+  Ca11  1  0.66830467  0.58245494  0.83912826  1
  Ca2+  Ca12  1  0.09532482  0.32656776  0.16348725  1
  Ca2+  Ca13  1  0.08072303  0.32483057  0.49456219  1
  Ca2+  Ca14  1  0.08022388  0.32637836  0.82999972  1
  Ca2+  Ca15  1  0.08267459  0.82707715  0.16638783  1
  Ca2+  Ca16  1  0.07659879  0.82912207  0.48526670  1
  Ca2+  Ca17  1  0.08512873  0.82579957  0.83244284  1
  Ca2+  Ca18  1  0.57888367  0.33092823  0.16369396  1
  Ca2+  Ca19  1  0.58925998  0.32854326  0.50172008  1
  Ca2+  Ca20  1  0.58232298  0.33127671  0.82200887  1
  Ca2+  Ca21  1  0.58431674  0.82887716  0.16551530  1
  Ca2+  Ca22  1  0.58270514  0.82516491  0.48846207  1
  Ca2+  Ca23  1  0.58790329  0.82462380  0.83401362  1
  Ca2+  Ca24  1  0.32253944  0.42476459  0.16727518  1
  Ca2+  Ca25  1  0.32704456  0.41644150  0.49837842  1
  Ca2+  Ca26  1  0.32686917  0.42226373  0.84358977  1
  Ca2+  Ca27  1  0.33127891  0.92614962  0.17741378  1
  Ca2+  Ca28  1  0.33010937  0.91370003  0.49384274  1
  Ca2+  Ca29  1  0.33262589  0.92574994  0.83972046  1
  Ca2+  Ca30  1  0.83730822  0.43138926  0.17046033  1
  Ca2+  Ca31  1  0.83141812  0.42173310  0.50543077  1
  Ca2+  Ca32  1  0.82944165  0.41669850  0.83448333  1
  Ca2+  Ca33  1  0.82315088  0.90530822  0.17157146  1
  Ca2+  Ca34  1  0.83203145  0.91809976  0.50008159  1
  Ca2+  Ca35  1  0.82788928  0.92366473  0.83668288  1
  Ca2+  Ca36  1  0.40922650  0.16319475  0.16371020  1
  Ca2+  Ca37  1  0.42098842  0.16299243  0.49574675  1
  Ca2+  Ca38  1  0.42175876  0.16627112  0.83082076  1
  Ca2+  Ca39  1  0.42453668  0.66973561  0.16067515  1
  Ca2+  Ca40  1  0.42924302  0.67215271  0.49077483  1
  Ca2+  Ca41  1  0.42725181  0.66013401  0.83025032  1
  Ca2+  Ca42  1  0.93259731  0.16586590  0.16202945  1
  Ca2+  Ca43  1  0.92131960  0.16875873  0.49770230  1
  Ca2+  Ca44  1  0.92591486  0.17074651  0.82082713  1
  Ca2+  Ca45  1  0.92097837  0.66570594  0.16689146  1
  Ca2+  Ca46  1  0.91754213  0.67287511  0.48691103  1
  Ca2+  Ca47  1  0.91902178  0.66177575  0.83786322  1
  Al0+  Al48  1  -0.00019299  0.00020893  -0.00639311  1
  Al0+  Al49  1  -0.00029125  0.00122824  0.32651228  1
  Al0+  Al50  1  0.00040193  -0.00194201  0.66929825  1
  Al0+  Al51  1  -0.00218360  0.49887834  0.00213200  1
  Al0+  Al52  1  -0.00223785  0.49947896  0.34198222  1
  Al0+  Al53  1  0.00005877  0.49886525  0.66620925  1
  Al0+  Al54  1  0.50026910  -0.00051723  0.00625309  1
  Al0+  Al55  1  0.50133514  -0.00083237  0.33944995  1
  Al0+  Al56  1  0.49752849  -0.00136257  0.66426290  1
  Al0+  Al57  1  0.49897162  0.49897741  -0.00044554  1
  Al0+  Al58  1  0.50042364  0.49693918  0.32897787  1
  Al0+  Al59  1  0.50046468  0.50048247  0.66438554  1
  Al0+  Al60  1  0.25110494  0.25064214  0.00084240  1
  Al0+  Al61  1  0.25136467  0.25179507  0.33957794  1
  Al0+  Al62  1  0.25014574  0.24953269  0.66444121  1
  Al0+  Al63  1  0.25149308  0.75207354  -0.00295915  1
  Al0+  Al64  1  0.25210677  0.75031528  0.32990782  1
  Al0+  Al65  1  0.25064042  0.75041159  0.66830259  1
  Al0+  Al66  1  0.75089507  0.24951675  0.00244032  1
  Al0+  Al67  1  0.74986528  0.25100069  0.32948770  1
  Al0+  Al68  1  0.75023596  0.25099734  0.66703095  1
  Al0+  Al69  1  0.74884394  0.75020562  -0.00005028  1
  Al0+  Al70  1  0.75085024  0.74994185  0.33699910  1
  Al0+  Al71  1  0.75080604  0.74987803  0.66515383  1
  Al0+  Al72  1  0.07108675  0.67828664  0.98677980  1
  Al0+  Al73  1  0.32059462  0.07172369  0.35210692  1
  Al0+  Al74  1  0.57110103  0.67956564  0.65262208  1
  Al0+  Al75  1  0.92876991  0.82261234  0.31795809  1
  Al0+  Al76  1  0.07096418  0.18165125  0.31900689  1
  Al0+  Al77  1  0.57119930  0.67745744  0.31726543  1
  Al0+  Al78  1  0.17885576  0.43104003  0.01413456  1
  Al0+  Al79  1  0.57073343  0.17817100  0.65464948  1
  Al0+  Al80  1  0.68115608  0.92931702  0.34933895  1
  Al0+  Al81  1  0.57018205  0.67978082  0.98470657  1
  Al0+  Al82  1  0.81836863  0.56921840  0.01299709  1
  Al0+  Al83  1  0.92843144  0.32209909  0.65057754  1
  Al0+  Al84  1  0.31895722  0.06968378  0.01223538  1
  Al0+  Al85  1  0.82080966  0.07021043  0.67944382  1
  Al0+  Al86  1  0.17724895  0.92776853  0.34671450  1
  Al0+  Al87  1  0.67938908  0.43099174  0.67942012  1
  Al0+  Al88  1  0.42959630  0.82269076  0.31693640  1
  Al0+  Al89  1  0.32330779  0.57416229  0.01464699  1
  Al0+  Al90  1  0.17934728  0.43103363  0.34981786  1
  Al0+  Al91  1  0.07142150  0.67671902  0.32027569  1
  Al0+  Al92  1  0.81817257  0.56972239  0.34855221  1
  Al0+  Al93  1  0.68148204  0.93126926  0.01293981  1
  Al0+  Al94  1  0.07226896  0.17731979  0.64989034  1
  Al0+  Al95  1  0.07191822  0.18021798  0.98562105  1
  Si0+  Si96  1  0.42581561  0.82189970  0.64951588  1
  Si0+  Si97  1  0.57156037  0.17744405  0.98731416  1
  Si0+  Si98  1  0.42886704  0.82522979  0.98219055  1
  Si0+  Si99  1  0.42827499  0.31975297  0.31703812  1
  Si0+  Si100  1  0.42803741  0.32243499  0.64943543  1
  Si0+  Si101  1  0.93025485  0.81987690  0.65327659  1
  Si0+  Si102  1  0.82446035  0.07380636  0.01716972  1
  Si0+  Si103  1  0.17875363  0.42853312  0.68267095  1
  Si0+  Si104  1  0.07258028  0.67917689  0.65368274  1
  Si0+  Si105  1  0.57159897  0.17853312  0.31835687  1
  Si0+  Si106  1  0.32120747  0.07141812  0.68269499  1
  Si0+  Si107  1  0.67621139  0.92721571  0.68356540  1
  Si0+  Si108  1  0.17882035  0.92797405  0.68304786  1
  Si0+  Si109  1  0.82208307  0.07509902  0.34805967  1
  Si0+  Si110  1  0.32516293  0.57213839  0.34968441  1
  Si0+  Si111  1  0.92663944  0.82113356  0.98042475  1
  Si0+  Si112  1  0.43051894  0.31960986  0.98486252  1
  Si0+  Si113  1  0.17514870  0.92708307  0.01525391  1
  Si0+  Si114  1  0.92583352  0.32184676  0.98314998  1
  Si0+  Si115  1  0.31987454  0.57107485  0.68030777  1
  Si0+  Si116  1  0.82309900  0.57404311  0.68489220  1
  Si0+  Si117  1  0.92649941  0.32269905  0.31545865  1
  Si0+  Si118  1  0.67602344  0.42500242  0.01707470  1
  Si0+  Si119  1  0.67565331  0.42487539  0.34973348  1
  O2-  O120  1  0.24281458  -0.00303441  0.05795669  1
  O2-  O121  1  0.24780858  -0.00046335  0.40083280  1
  O2-  O122  1  0.24790893  0.00212052  0.72410188  1
  O2-  O123  1  0.24389104  0.51003163  0.06388201  1
  O2-  O124  1  0.25141204  0.50943513  0.39606926  1
  O2-  O125  1  0.24876995  0.50079912  0.72409508  1
  O2-  O126  1  0.75691845  0.00465317  0.06126589  1
  O2-  O127  1  0.75530141  0.00554781  0.39393835  1
  O2-  O128  1  0.74258281  -0.00135604  0.72717482  1
  O2-  O129  1  0.74305991  0.49494018  0.06038924  1
  O2-  O130  1  0.74165130  0.49580349  0.39329127  1
  O2-  O131  1  0.75317838  0.50575989  0.72768091  1
  O2-  O132  1  -0.00365326  0.25584107  0.27067504  1
  O2-  O133  1  0.00001674  0.24947542  0.60092368  1
  O2-  O134  1  -0.00682088  0.25118101  0.93970809  1
  O2-  O135  1  0.00343228  0.75219259  0.26991538  1
  O2-  O136  1  -0.00118111  0.74651080  0.61181910  1
  O2-  O137  1  -0.00148075  0.75446608  0.93706058  1
  O2-  O138  1  0.49930574  0.24793839  0.27553318  1
  O2-  O139  1  0.49614116  0.25253341  0.60625213  1
  O2-  O140  1  0.50482543  0.25148632  0.94323114  1
  O2-  O141  1  0.49835985  0.74807298  0.26661190  1
  O2-  O142  1  0.49860730  0.75673166  0.60761882  1
  O2-  O143  1  0.49215053  0.75145180  0.93716665  1
  O2-  O144  1  0.07350881  0.18178365  0.09847745  1
  O2-  O145  1  0.06860293  0.18228744  0.43197893  1
  O2-  O146  1  0.07362896  0.18030579  0.76387361  1
  O2-  O147  1  0.06809008  0.67781254  0.09888378  1
  O2-  O148  1  0.06696764  0.67707349  0.43497360  1
  O2-  O149  1  0.07442160  0.68082956  0.75892997  1
  O2-  O150  1  0.57005028  0.17856832  0.09242939  1
  O2-  O151  1  0.57318376  0.18113294  0.42352634  1
  O2-  O152  1  0.56744814  0.17895516  0.76841544  1
  O2-  O153  1  0.57175957  0.68229346  0.09686802  1
  O2-  O154  1  0.56980248  0.67771933  0.43139454  1
  O2-  O155  1  0.56989013  0.67954054  0.76605715  1
  O2-  O156  1  0.18205028  0.42909589  0.23710213  1
  O2-  O157  1  0.17965582  0.42961978  0.57769626  1
  O2-  O158  1  0.18238223  0.42944318  0.89972835  1
  O2-  O159  1  0.17785043  0.93117099  0.23324524  1
  O2-  O160  1  0.17889770  0.92375306  0.57872627  1
  O2-  O161  1  0.17700257  0.92773137  0.90867954  1
  O2-  O162  1  0.67662246  0.42006412  0.24426626  1
  O2-  O163  1  0.67893522  0.43312664  0.56657953  1
  O2-  O164  1  0.67631690  0.42246571  0.91134004  1
  O2-  O165  1  0.68124026  0.93060717  0.23606806  1
  O2-  O166  1  0.67801831  0.92683171  0.57833070  1
  O2-  O167  1  0.68209315  0.93401914  0.89920902  1
  O2-  O168  1  0.43038279  0.31846775  0.08992136  1
  O2-  O169  1  0.42939760  0.32121677  0.42231663  1
  O2-  O170  1  0.42744993  0.32229794  0.75534777  1
  O2-  O171  1  0.43233202  0.82917118  0.08688105  1
  O2-  O172  1  0.43278982  0.82066001  0.43132910  1
  O2-  O173  1  0.42236193  0.82184473  0.75518717  1
  O2-  O174  1  0.92321657  0.32048787  0.08848272  1
  O2-  O175  1  0.92440324  0.31984848  0.42096063  1
  O2-  O176  1  0.93158033  0.32291645  0.76460160  1
  O2-  O177  1  0.92512182  0.82123088  0.08535444  1
  O2-  O178  1  0.92877673  0.82088305  0.43254306  1
  O2-  O179  1  0.93084865  0.81998936  0.75854443  1
  O2-  O180  1  0.31922939  0.07305760  0.23831456  1
  O2-  O181  1  0.32353242  0.07112631  0.57844524  1
  O2-  O182  1  0.32064371  0.06960457  0.89832653  1
  O2-  O183  1  0.32868559  0.56653615  0.24470671  1
  O2-  O184  1  0.31778677  0.57156685  0.57541755  1
  O2-  O185  1  0.32461422  0.56728554  0.89999888  1
  O2-  O186  1  0.81743054  0.07856088  0.24254532  1
  O2-  O187  1  0.82088551  0.06605722  0.56647135  1
  O2-  O188  1  0.82199215  0.07463743  0.91123949  1
  O2-  O189  1  0.81872954  0.56870161  0.23534821  1
  O2-  O190  1  0.82338797  0.57557783  0.57971217  1
  O2-  O191  1  0.81714623  0.56749161  0.89943140  1
  O2-  O192  1  0.04197321  0.08619923  0.26261298  1
  O2-  O193  1  0.04421745  0.07700514  0.60160202  1
  O2-  O194  1  0.04510703  0.08243054  0.93046919  1
  O2-  O195  1  0.03712952  0.57856630  0.27059428  1
  O2-  O196  1  0.04881096  0.58567967  0.60871378  1
  O2-  O197  1  0.03779190  0.58174759  0.93217075  1
  O2-  O198  1  0.54429148  0.08635416  0.27292114  1
  O2-  O199  1  0.53988580  0.08165658  0.60028802  1
  O2-  O200  1  0.54003872  0.08725983  0.93934213  1
  O2-  O201  1  0.54764578  0.57694328  0.26585471  1
  O2-  O202  1  0.53805719  0.58414334  0.59812576  1
  O2-  O203  1  0.54172082  0.58065137  0.93252302  1
  O2-  O204  1  0.16899336  0.21528946  0.26952509  1
  O2-  O205  1  0.17121238  0.20561900  0.59827121  1
  O2-  O206  1  0.16797622  0.21418527  0.93139955  1
  O2-  O207  1  0.17210593  0.69682552  0.26985328  1
  O2-  O208  1  0.16367068  0.70894922  0.60637322  1
  O2-  O209  1  0.16871962  0.70721895  0.93108139  1
  O2-  O210  1  0.66187683  0.20757245  0.26808975  1
  O2-  O211  1  0.66613349  0.20924015  0.60004434  1
  O2-  O212  1  0.66560982  0.20128739  0.94160744  1
  O2-  O213  1  0.66899380  0.71068439  0.26802750  1
  O2-  O214  1  0.66908485  0.70779440  0.60028478  1
  O2-  O215  1  0.66553694  0.71430296  0.92942259  1
  O2-  O216  1  0.07861640  0.45087767  0.06560331  1
  O2-  O217  1  0.08311753  0.45834371  0.40649214  1
  O2-  O218  1  0.08664052  0.45529219  0.72984230  1
  O2-  O219  1  0.07980031  0.95011974  0.05772865  1
  O2-  O220  1  0.07740778  0.95680130  0.39796347  1
  O2-  O221  1  0.08729555  0.95226692  0.73263517  1
  O2-  O222  1  0.58148093  0.44766173  0.06137395  1
  O2-  O223  1  0.58038289  0.44566776  0.39437843  1
  O2-  O224  1  0.58116965  0.45952384  0.73348645  1
  O2-  O225  1  0.58699163  0.96365685  0.06920950  1
  O2-  O226  1  0.58634436  0.96113695  0.40537267  1
  O2-  O227  1  0.58052454  0.94911968  0.72728556  1
  O2-  O228  1  0.21721141  0.33606079  0.06702441  1
  O2-  O229  1  0.21638750  0.33796768  0.40655359  1
  O2-  O230  1  0.20852303  0.33651263  0.72877788  1
  O2-  O231  1  0.19985068  0.83328834  0.05964564  1
  O2-  O232  1  0.20565149  0.82844527  0.40029591  1
  O2-  O233  1  0.21047248  0.83745388  0.73294730  1
  O2-  O234  1  0.70117664  0.33139483  0.06464116  1
  O2-  O235  1  0.70469807  0.33205327  0.39681865  1
  O2-  O236  1  0.70798533  0.33428849  0.73486715  1
  O2-  O237  1  0.71211543  0.83500597  0.06615786  1
  O2-  O238  1  0.71322855  0.83454609  0.40516219  1
  O2-  O239  1  0.70711747  0.83481835  0.73010983  1
  O2-  O240  1  0.45689336  0.40955029  0.26613670  1
  O2-  O241  1  0.45424435  0.41487907  0.60182382  1
  O2-  O242  1  0.45578121  0.41118551  0.93536426  1
  O2-  O243  1  0.46105731  0.92177507  0.26703368  1
  O2-  O244  1  0.44631559  0.91650595  0.60406395  1
  O2-  O245  1  0.46179561  0.91683726  0.93398516  1
  O2-  O246  1  0.95266147  0.41721611  0.27349700  1
  O2-  O247  1  0.95751277  0.42090811  0.59774434  1
  O2-  O248  1  0.95204933  0.41456298  0.93620939  1
  O2-  O249  1  0.95031312  0.92116788  0.26273553  1
  O2-  O250  1  0.96012633  0.91030509  0.60566846  1
  O2-  O251  1  0.95019195  0.91536450  0.93315255  1
  O2-  O252  1  0.33728915  0.29101217  0.26975969  1
  O2-  O253  1  0.33496028  0.29647412  0.60287814  1
  O2-  O254  1  0.34102468  0.28837564  0.93488628  1
  O2-  O255  1  0.33009363  0.80046602  0.26437828  1
  O2-  O256  1  0.33378851  0.79137867  0.60222536  1
  O2-  O257  1  0.33325316  0.80789166  0.93618372  1
  O2-  O258  1  0.83320897  0.29838930  0.26716775  1
  O2-  O259  1  0.82970939  0.29568311  0.59869296  1
  O2-  O260  1  0.83102184  0.29735267  0.93680439  1
  O2-  O261  1  0.83210658  0.78814079  0.26650657  1
  O2-  O262  1  0.83786314  0.79518529  0.60553923  1
  O2-  O263  1  0.83510140  0.79158862  0.93216868  1
  O2-  O264  1  0.41480189  0.04037692  0.06792612  1
  O2-  O265  1  0.41923564  0.04315304  0.40463953  1
  O2-  O266  1  0.41233784  0.04117823  0.73174380  1
  O2-  O267  1  0.41846000  0.53739662  0.06849994  1
  O2-  O268  1  0.41620905  0.53752210  0.39751687  1
  O2-  O269  1  0.41155771  0.54163260  0.72691760  1
  O2-  O270  1  0.91932664  0.04837239  0.05981137  1
  O2-  O271  1  0.91646533  0.05079333  0.39160519  1
  O2-  O272  1  0.91596103  0.03596110  0.73603983  1
  O2-  O273  1  0.91369380  0.53796089  0.06834169  1
  O2-  O274  1  0.91228967  0.53811242  0.40701621  1
  O2-  O275  1  0.91712375  0.54684130  0.73046736  1
  O2-  O276  1  0.29110166  0.16661809  0.06586384  1
  O2-  O277  1  0.29474857  0.17022358  0.40570982  1
  O2-  O278  1  0.29628295  0.16485237  0.72932891  1
  O2-  O279  1  0.30671867  0.67718407  0.06017626  1
  O2-  O280  1  0.30731919  0.66812093  0.39292669  1
  O2-  O281  1  0.29349344  0.66286037  0.72921257  1
  O2-  O282  1  0.79975474  0.16709375  0.06404701  1
  O2-  O283  1  0.79390602  0.16818651  0.39474334  1
  O2-  O284  1  0.79197811  0.16699177  0.73391659  1
  O2-  O285  1  0.78812654  0.66605197  0.06536229  1
  O2-  O286  1  0.78846848  0.66522164  0.40479483  1
  O2-  O287  1  0.79794680  0.66791396  0.73125350  1
