# generated using pymatgen
data_Ca2Al2SiO7
_symmetry_space_group_name_H-M   'P 1'
_cell_length_a   15.45102461
_cell_length_b   15.45109090
_cell_length_c   15.27844425
_cell_angle_alpha   89.99939641
_cell_angle_beta   89.99249164
_cell_angle_gamma   89.99422632
_symmetry_Int_Tables_number   1
_chemical_formula_structural   Ca2Al2SiO7
_chemical_formula_sum   'Ca48 Al48 Si24 O168'
_cell_volume   3647.50217805
_cell_formula_units_Z   24
loop_
 _symmetry_equiv_pos_site_id
 _symmetry_equiv_pos_as_xyz
  1  'x, y, z'
loop_
 _atom_type_symbol
 _atom_type_oxidation_number
  Ca2+  2.0
  Al0+  0.0
  Si0+  0.0
  O2-  -2.0
loop_
 _atom_site_type_symbol
 _atom_site_label
 _atom_site_symmetry_multiplicity
 _atom_site_fract_x
 _atom_site_fract_y
 _atom_site_fract_z
 _atom_site_occupancy
  Ca2+  Ca0  1  0.16958620  0.08637693  0.17049347  1
  Ca2+  Ca1  1  0.18264879  0.08684918  0.50405833  1
  Ca2+  Ca2  1  0.17182268  0.08769742  0.83680533  1
  Ca2+  Ca3  1  0.17667396  0.57707594  0.17178501  1
  Ca2+  Ca4  1  0.16418185  0.57023521  0.50692090  1
  Ca2+  Ca5  1  0.17040081  0.58104502  0.83639889  1
  Ca2+  Ca6  1  0.67562459  0.08782748  0.17232085  1
  Ca2+  Ca7  1  0.66656982  0.08451197  0.50328810  1
  Ca2+  Ca8  1  0.66999372  0.07458401  0.83787026  1
  Ca2+  Ca9  1  0.67392753  0.58993508  0.16995868  1
  Ca2+  Ca10  1  0.66939010  0.58088022  0.50123577  1
  Ca2+  Ca11  1  0.66472093  0.57764332  0.84061673  1
  Ca2+  Ca12  1  0.07500265  0.33127014  0.16419114  1
  Ca2+  Ca13  1  0.08075895  0.33835253  0.49312204  1
  Ca2+  Ca14  1  0.07911350  0.33412194  0.83358614  1
  Ca2+  Ca15  1  0.07597955  0.83218326  0.15799969  1
  Ca2+  Ca16  1  0.08531631  0.82356879  0.50010133  1
  Ca2+  Ca17  1  0.07601388  0.82642200  0.82920295  1
  Ca2+  Ca18  1  0.57440272  0.32914197  0.16429658  1
  Ca2+  Ca19  1  0.57155642  0.33295627  0.49296454  1
  Ca2+  Ca20  1  0.57162816  0.33930576  0.82824974  1
  Ca2+  Ca21  1  0.58000747  0.82152668  0.15991453  1
  Ca2+  Ca22  1  0.58353119  0.83341259  0.49845514  1
  Ca2+  Ca23  1  0.57876590  0.82885987  0.83035341  1
  Ca2+  Ca24  1  0.33174848  0.41288494  0.16951903  1
  Ca2+  Ca25  1  0.32435611  0.40703629  0.50579918  1
  Ca2+  Ca26  1  0.33070078  0.41701466  0.83965212  1
  Ca2+  Ca27  1  0.33491271  0.92080361  0.17031922  1
  Ca2+  Ca28  1  0.34478041  0.93004678  0.50577499  1
  Ca2+  Ca29  1  0.34041957  0.91924786  0.83636229  1
  Ca2+  Ca30  1  0.84111451  0.42516397  0.17281072  1
  Ca2+  Ca31  1  0.82707015  0.41818540  0.50244405  1
  Ca2+  Ca32  1  0.82586573  0.42018056  0.84110728  1
  Ca2+  Ca33  1  0.83966587  0.92960261  0.16947668  1
  Ca2+  Ca34  1  0.82473030  0.92513802  0.50387437  1
  Ca2+  Ca35  1  0.82897974  0.91643704  0.84187558  1
  Ca2+  Ca36  1  0.41579692  0.17445730  0.16728910  1
  Ca2+  Ca37  1  0.41772705  0.17241913  0.49256952  1
  Ca2+  Ca38  1  0.41211576  0.17832471  0.82633535  1
  Ca2+  Ca39  1  0.42911846  0.66440689  0.15546814  1
  Ca2+  Ca40  1  0.42423296  0.67381589  0.49461376  1
  Ca2+  Ca41  1  0.41510386  0.67481079  0.83219272  1
  Ca2+  Ca42  1  0.91584048  0.17607729  0.15682033  1
  Ca2+  Ca43  1  0.91525138  0.17550520  0.48953020  1
  Ca2+  Ca44  1  0.92057379  0.16512668  0.83729362  1
  Ca2+  Ca45  1  0.91232146  0.66946779  0.15885839  1
  Ca2+  Ca46  1  0.92048704  0.66059092  0.49684483  1
  Ca2+  Ca47  1  0.91711988  0.66615513  0.83318526  1
  Al0+  Al48  1  0.00062180  -0.00112835  -0.00515775  1
  Al0+  Al49  1  -0.00015865  -0.00118200  0.34194670  1
  Al0+  Al50  1  0.00178656  0.00034329  0.66261711  1
  Al0+  Al51  1  -0.00092838  0.49792995  0.00032403  1
  Al0+  Al52  1  0.00156883  0.50117103  0.33689338  1
  Al0+  Al53  1  0.00096733  0.49956523  0.66803337  1
  Al0+  Al54  1  0.50006686  -0.00055905  0.00082141  1
  Al0+  Al55  1  0.50080369  -0.00000867  0.33191234  1
  Al0+  Al56  1  0.50226124  0.00074991  0.67392613  1
  Al0+  Al57  1  0.49923824  0.49859980  -0.00316177  1
  Al0+  Al58  1  0.49985311  0.50214421  0.32510483  1
  Al0+  Al59  1  0.49948285  0.50103969  0.66435849  1
  Al0+  Al60  1  0.24938356  0.24901821  -0.00614022  1
  Al0+  Al61  1  0.24823846  0.24863250  0.33782913  1
  Al0+  Al62  1  0.24813530  0.25025703  0.67270326  1
  Al0+  Al63  1  0.25078653  0.74962734  0.00320326  1
  Al0+  Al64  1  0.24932955  0.74896614  0.33312384  1
  Al0+  Al65  1  0.24932182  0.75107130  0.65461811  1
  Al0+  Al66  1  0.74909486  0.24913423  -0.00084326  1
  Al0+  Al67  1  0.74966856  0.25223977  0.33021408  1
  Al0+  Al68  1  0.75059881  0.25151623  0.67290575  1
  Al0+  Al69  1  0.74889534  0.74814221  -0.00508253  1
  Al0+  Al70  1  0.75122553  0.75057775  0.33569308  1
  Al0+  Al71  1  0.75102083  0.75227213  0.66965111  1
  Al0+  Al72  1  0.42533477  0.32026138  0.31866054  1
  Al0+  Al73  1  0.32025309  0.06810605  0.34542094  1
  Al0+  Al74  1  0.07027789  0.17872718  0.98508807  1
  Al0+  Al75  1  0.68050721  0.92971150  0.68176938  1
  Al0+  Al76  1  0.43004481  0.31864766  0.98498930  1
  Al0+  Al77  1  0.92988968  0.32219940  0.32174868  1
  Al0+  Al78  1  0.57228230  0.68048195  0.32006166  1
  Al0+  Al79  1  0.92943648  0.82044470  0.98788204  1
  Al0+  Al80  1  0.92700888  0.32318479  0.98335583  1
  Al0+  Al81  1  0.67708131  0.42961259  0.67934816  1
  Al0+  Al82  1  0.81992985  0.56945159  0.01314673  1
  Al0+  Al83  1  0.82051243  0.57199336  0.34766694  1
  Al0+  Al84  1  0.82115216  0.07433643  0.34704690  1
  Al0+  Al85  1  0.57177758  0.17731450  0.31880585  1
  Al0+  Al86  1  0.57129507  0.67817805  0.98260662  1
  Al0+  Al87  1  0.42825315  0.32134134  0.65285408  1
  Al0+  Al88  1  0.31993125  0.06934617  0.68239299  1
  Al0+  Al89  1  0.17873740  0.42972113  0.68318040  1
  Al0+  Al90  1  0.43076003  0.82277260  0.65184760  1
  Al0+  Al91  1  0.32083708  0.57137035  0.01285933  1
  Al0+  Al92  1  0.18201815  0.43104495  0.34592286  1
  Al0+  Al93  1  0.06934031  0.67853886  0.65267284  1
  Al0+  Al94  1  0.42732170  0.82191208  0.98576884  1
  Al0+  Al95  1  0.82156834  0.06893215  0.01324531  1
  Si0+  Si96  1  0.07079731  0.17861744  0.64956497  1
  Si0+  Si97  1  0.67727072  0.92719875  0.01850158  1
  Si0+  Si98  1  0.92644990  0.82319436  0.64723183  1
  Si0+  Si99  1  0.92861796  0.31996731  0.65167467  1
  Si0+  Si100  1  0.82503696  0.07313857  0.68419889  1
  Si0+  Si101  1  0.07281353  0.67712573  0.98625282  1
  Si0+  Si102  1  0.57326108  0.17648603  0.98201140  1
  Si0+  Si103  1  0.32143610  0.57465664  0.68029823  1
  Si0+  Si104  1  0.07044880  0.17595356  0.31991049  1
  Si0+  Si105  1  0.67577998  0.42885223  0.34813207  1
  Si0+  Si106  1  0.17740472  0.92599895  0.68278136  1
  Si0+  Si107  1  0.42732018  0.82227254  0.31641437  1
  Si0+  Si108  1  0.07077172  0.67843843  0.31686342  1
  Si0+  Si109  1  0.17882817  0.42646415  0.01726963  1
  Si0+  Si110  1  0.32095456  0.07227184  0.01521243  1
  Si0+  Si111  1  0.67990377  0.92880895  0.34858344  1
  Si0+  Si112  1  0.67643994  0.42678534  0.01845838  1
  Si0+  Si113  1  0.17627989  0.92439672  0.35216241  1
  Si0+  Si114  1  0.57308436  0.17928263  0.65306705  1
  Si0+  Si115  1  0.17928225  0.92867540  0.01324732  1
  Si0+  Si116  1  0.82194429  0.57100519  0.68316592  1
  Si0+  Si117  1  0.32509540  0.57356046  0.35084220  1
  Si0+  Si118  1  0.57397927  0.67840982  0.64902546  1
  Si0+  Si119  1  0.93054875  0.82118494  0.32027124  1
  O2-  O120  1  0.25114390  -0.00102655  0.05586560  1
  O2-  O121  1  0.24778377  -0.00853831  0.39398952  1
  O2-  O122  1  0.24645585  -0.00726432  0.72907723  1
  O2-  O123  1  0.24699697  0.49595139  0.06063366  1
  O2-  O124  1  0.25997421  0.50164048  0.39498249  1
  O2-  O125  1  0.25553085  0.50387113  0.72621744  1
  O2-  O126  1  0.74620984  -0.00417285  0.06244760  1
  O2-  O127  1  0.74342223  0.00257796  0.39319992  1
  O2-  O128  1  0.75813393  0.00226861  0.72720628  1
  O2-  O129  1  0.74780832  0.49334560  0.06209607  1
  O2-  O130  1  0.74517936  0.49733126  0.39281428  1
  O2-  O131  1  0.74944680  0.50652873  0.72664341  1
  O2-  O132  1  -0.00086816  0.24169810  0.27604201  1
  O2-  O133  1  -0.00226876  0.24762182  0.60805893  1
  O2-  O134  1  -0.00120327  0.25068821  0.93363906  1
  O2-  O135  1  0.00226949  0.75198657  0.27580210  1
  O2-  O136  1  -0.00618757  0.75253595  0.60407390  1
  O2-  O137  1  0.00090411  0.74229762  0.94187850  1
  O2-  O138  1  0.49912840  0.24936054  0.26950100  1
  O2-  O139  1  0.50527089  0.24816477  0.60776823  1
  O2-  O140  1  0.50459919  0.24454273  0.93718152  1
  O2-  O141  1  0.49333224  0.75097640  0.27341872  1
  O2-  O142  1  0.50530911  0.74762074  0.60514191  1
  O2-  O143  1  0.49846761  0.75026411  0.93451191  1
  O2-  O144  1  0.07147843  0.17868546  0.09901414  1
  O2-  O145  1  0.07054146  0.17741408  0.42580997  1
  O2-  O146  1  0.06960875  0.17676814  0.75435217  1
  O2-  O147  1  0.07364701  0.68046254  0.09218687  1
  O2-  O148  1  0.06963412  0.67831369  0.42205934  1
  O2-  O149  1  0.06801280  0.68031044  0.76594934  1
  O2-  O150  1  0.57223880  0.17686970  0.08762972  1
  O2-  O151  1  0.57028311  0.17714168  0.43286853  1
  O2-  O152  1  0.57258680  0.18041188  0.75864593  1
  O2-  O153  1  0.57212970  0.68118586  0.09654610  1
  O2-  O154  1  0.57246599  0.68330835  0.43352365  1
  O2-  O155  1  0.57377423  0.67830880  0.75416048  1
  O2-  O156  1  0.18047339  0.43342281  0.23290707  1
  O2-  O157  1  0.17688379  0.42981489  0.56980779  1
  O2-  O158  1  0.17931692  0.42788377  0.91150805  1
  O2-  O159  1  0.17324445  0.92329429  0.24634970  1
  O2-  O160  1  0.17634275  0.92910397  0.57710867  1
  O2-  O161  1  0.17874831  0.92734909  0.90835597  1
  O2-  O162  1  0.67621807  0.42954948  0.24283389  1
  O2-  O163  1  0.67942507  0.42895863  0.56602413  1
  O2-  O164  1  0.67683365  0.42929847  0.91231187  1
  O2-  O165  1  0.68350483  0.92589361  0.24338980  1
  O2-  O166  1  0.68202488  0.93095829  0.56815341  1
  O2-  O167  1  0.67771313  0.92945502  0.91267469  1
  O2-  O168  1  0.42816343  0.31591142  0.09796629  1
  O2-  O169  1  0.42542377  0.31792714  0.43253534  1
  O2-  O170  1  0.42860439  0.32040616  0.76597847  1
  O2-  O171  1  0.42863022  0.82236223  0.09959389  1
  O2-  O172  1  0.42910044  0.82312460  0.42225911  1
  O2-  O173  1  0.43009912  0.82075999  0.76447371  1
  O2-  O174  1  0.93082912  0.32404201  0.09718347  1
  O2-  O175  1  0.93144537  0.32174816  0.43555931  1
  O2-  O176  1  0.92946090  0.31940663  0.75640797  1
  O2-  O177  1  0.93338467  0.82240826  0.10151466  1
  O2-  O178  1  0.93194658  0.82015308  0.42541087  1
  O2-  O179  1  0.92734719  0.82425259  0.75277968  1
  O2-  O180  1  0.31623220  0.06709198  0.23192617  1
  O2-  O181  1  0.31929347  0.06955447  0.56901268  1
  O2-  O182  1  0.31974789  0.07226188  0.91017316  1
  O2-  O183  1  0.32112697  0.57659798  0.24528229  1
  O2-  O184  1  0.31966665  0.57387120  0.57448651  1
  O2-  O185  1  0.31659383  0.57277881  0.89957975  1
  O2-  O186  1  0.82500518  0.07063411  0.23423345  1
  O2-  O187  1  0.82422828  0.07413351  0.57828005  1
  O2-  O188  1  0.82094523  0.06494656  0.89996601  1
  O2-  O189  1  0.82150241  0.57387944  0.23481166  1
  O2-  O190  1  0.82262118  0.56889266  0.57716600  1
  O2-  O191  1  0.81978520  0.56874988  0.89991903  1
  O2-  O192  1  0.04931392  0.07972569  0.27713554  1
  O2-  O193  1  0.04807676  0.08585058  0.60076115  1
  O2-  O194  1  0.04235519  0.08145481  0.92912019  1
  O2-  O195  1  0.04079145  0.58827541  0.26906898  1
  O2-  O196  1  0.03686353  0.58210953  0.59782319  1
  O2-  O197  1  0.05025091  0.58282329  0.94123642  1
  O2-  O198  1  0.54532134  0.07873585  0.26447527  1
  O2-  O199  1  0.54737902  0.08539371  0.60851282  1
  O2-  O200  1  0.54790548  0.08214311  0.93778605  1
  O2-  O201  1  0.54638973  0.58458590  0.26285551  1
  O2-  O202  1  0.54804274  0.58558785  0.60146097  1
  O2-  O203  1  0.54284318  0.57990932  0.93096990  1
  O2-  O204  1  0.16255016  0.20435697  0.27321434  1
  O2-  O205  1  0.16199831  0.21024606  0.60379325  1
  O2-  O206  1  0.16718521  0.20720496  0.92904135  1
  O2-  O207  1  0.16376753  0.70420123  0.27000247  1
  O2-  O208  1  0.16310933  0.70921300  0.59243904  1
  O2-  O209  1  0.16418241  0.70726173  0.93923906  1
  O2-  O210  1  0.66931974  0.20645931  0.26461864  1
  O2-  O211  1  0.66835502  0.20326483  0.60864123  1
  O2-  O212  1  0.66674644  0.19961567  0.93533030  1
  O2-  O213  1  0.66837191  0.71514043  0.26673794  1
  O2-  O214  1  0.66852046  0.70514323  0.60458619  1
  O2-  O215  1  0.66829375  0.70609905  0.92728501  1
  O2-  O216  1  0.08472302  0.45099557  0.06236570  1
  O2-  O217  1  0.08793591  0.46676595  0.40277399  1
  O2-  O218  1  0.08300791  0.46311906  0.73754022  1
  O2-  O219  1  0.08843264  0.95833253  0.06180179  1
  O2-  O220  1  0.08451153  0.94993700  0.40208982  1
  O2-  O221  1  0.08295002  0.95223828  0.72772385  1
  O2-  O222  1  0.58313427  0.45372542  0.06361899  1
  O2-  O223  1  0.58186699  0.45650921  0.39331689  1
  O2-  O224  1  0.58015143  0.45996714  0.73360074  1
  O2-  O225  1  0.58364219  0.95263002  0.06522709  1
  O2-  O226  1  0.58461497  0.94959435  0.39346756  1
  O2-  O227  1  0.58695752  0.96192020  0.73988005  1
  O2-  O228  1  0.20704121  0.33272603  0.06149129  1
  O2-  O229  1  0.20619323  0.33323665  0.40150878  1
  O2-  O230  1  0.20661195  0.33350616  0.73827238  1
  O2-  O231  1  0.20499204  0.83792311  0.06454741  1
  O2-  O232  1  0.20029781  0.82967194  0.39744380  1
  O2-  O233  1  0.20084249  0.83047529  0.72482465  1
  O2-  O234  1  0.69806414  0.33134213  0.06189113  1
  O2-  O235  1  0.70136039  0.33577209  0.39503294  1
  O2-  O236  1  0.70916790  0.33493926  0.73687870  1
  O2-  O237  1  0.70309785  0.83261286  0.06089275  1
  O2-  O238  1  0.71211902  0.83898655  0.39904555  1
  O2-  O239  1  0.70972841  0.83291965  0.73695529  1
  O2-  O240  1  0.45022084  0.41964243  0.26626319  1
  O2-  O241  1  0.45581874  0.41890222  0.59873890  1
  O2-  O242  1  0.45946869  0.41486226  0.93029997  1
  O2-  O243  1  0.45426598  0.91463784  0.26953400  1
  O2-  O244  1  0.46599968  0.91975452  0.60068108  1
  O2-  O245  1  0.45526752  0.92110501  0.93402510  1
  O2-  O246  1  0.96695846  0.41715454  0.26839961  1
  O2-  O247  1  0.95795790  0.41167777  0.60519926  1
  O2-  O248  1  0.95678570  0.42083300  0.92879948  1
  O2-  O249  1  0.95868014  0.91400939  0.27442629  1
  O2-  O250  1  0.95397456  0.91636370  0.60016279  1
  O2-  O251  1  0.96397522  0.91281024  0.92922254  1
  O2-  O252  1  0.32756991  0.28759642  0.26637474  1
  O2-  O253  1  0.33062113  0.28691791  0.60301250  1
  O2-  O254  1  0.33420603  0.28766925  0.92982566  1
  O2-  O255  1  0.33127955  0.80066611  0.27303536  1
  O2-  O256  1  0.33464760  0.79624804  0.59431614  1
  O2-  O257  1  0.32815630  0.79405654  0.93378149  1
  O2-  O258  1  0.83245883  0.29874614  0.26759672  1
  O2-  O259  1  0.83575081  0.29311694  0.60522408  1
  O2-  O260  1  0.82788745  0.29519852  0.93209950  1
  O2-  O261  1  0.83946841  0.79296137  0.27305530  1
  O2-  O262  1  0.83241348  0.79872790  0.60152263  1
  O2-  O263  1  0.83365149  0.79190639  0.93239010  1
  O2-  O264  1  0.41334295  0.04639692  0.06252095  1
  O2-  O265  1  0.41780567  0.03914419  0.39970011  1
  O2-  O266  1  0.41650795  0.04190013  0.73712113  1
  O2-  O267  1  0.41757409  0.53946432  0.06562464  1
  O2-  O268  1  0.42104802  0.55338860  0.39357858  1
  O2-  O269  1  0.41637561  0.55337973  0.72460689  1
  O2-  O270  1  0.91859473  0.03575280  0.06563677  1
  O2-  O271  1  0.91556594  0.04053170  0.40502823  1
  O2-  O272  1  0.92032085  0.04801125  0.72687037  1
  O2-  O273  1  0.91849586  0.54247376  0.06711893  1
  O2-  O274  1  0.91638500  0.53991673  0.40245117  1
  O2-  O275  1  0.91371694  0.54170122  0.72992254  1
  O2-  O276  1  0.28906008  0.16295019  0.06230769  1
  O2-  O277  1  0.28687751  0.16254275  0.40248076  1
  O2-  O278  1  0.28422352  0.16363125  0.73761332  1
  O2-  O279  1  0.28997447  0.66677702  0.07070526  1
  O2-  O280  1  0.29626777  0.66683237  0.39711783  1
  O2-  O281  1  0.29121312  0.66827140  0.72377654  1
  O2-  O282  1  0.79225320  0.16706748  0.06543689  1
  O2-  O283  1  0.79245041  0.17181320  0.40056037  1
  O2-  O284  1  0.79907463  0.16557426  0.73186443  1
  O2-  O285  1  0.78923284  0.66746904  0.06551461  1
  O2-  O286  1  0.79053927  0.66803197  0.40409275  1
  O2-  O287  1  0.80286915  0.66725721  0.72599101  1
