# generated using pymatgen
data_Ca2Al2SiO7
_symmetry_space_group_name_H-M   'P 1'
_cell_length_a   15.45439171
_cell_length_b   15.45440630
_cell_length_c   15.28039966
_cell_angle_alpha   90.00058567
_cell_angle_beta   90.01116686
_cell_angle_gamma   89.99305232
_symmetry_Int_Tables_number   1
_chemical_formula_structural   Ca2Al2SiO7
_chemical_formula_sum   'Ca48 Al48 Si24 O168'
_cell_volume   3649.54685230
_cell_formula_units_Z   24
loop_
 _symmetry_equiv_pos_site_id
 _symmetry_equiv_pos_as_xyz
  1  'x, y, z'
loop_
 _atom_type_symbol
 _atom_type_oxidation_number
  Ca2+  2.0
  Al0+  0.0
  Si0+  0.0
  O2-  -2.0
loop_
 _atom_site_type_symbol
 _atom_site_label
 _atom_site_symmetry_multiplicity
 _atom_site_fract_x
 _atom_site_fract_y
 _atom_site_fract_z
 _atom_site_occupancy
  Ca2+  Ca0  1  0.16361645  0.07733891  0.16555909  1
  Ca2+  Ca1  1  0.17563646  0.08500157  0.51035805  1
  Ca2+  Ca2  1  0.16963629  0.08108111  0.83775561  1
  Ca2+  Ca3  1  0.17180103  0.59169448  0.17523138  1
  Ca2+  Ca4  1  0.17040424  0.58404983  0.50191969  1
  Ca2+  Ca5  1  0.16501281  0.58052277  0.83772671  1
  Ca2+  Ca6  1  0.66721750  0.07222298  0.17621365  1
  Ca2+  Ca7  1  0.66404208  0.07306535  0.50487187  1
  Ca2+  Ca8  1  0.66011020  0.07163819  0.83510199  1
  Ca2+  Ca9  1  0.66798492  0.57908969  0.17513980  1
  Ca2+  Ca10  1  0.66786533  0.58792125  0.50552737  1
  Ca2+  Ca11  1  0.65846737  0.57505922  0.83438719  1
  Ca2+  Ca12  1  0.07935297  0.32564258  0.15878957  1
  Ca2+  Ca13  1  0.08968332  0.33017259  0.50250164  1
  Ca2+  Ca14  1  0.08776242  0.32238049  0.82594144  1
  Ca2+  Ca15  1  0.07892509  0.82545561  0.16093961  1
  Ca2+  Ca16  1  0.06746056  0.83228242  0.49250478  1
  Ca2+  Ca17  1  0.07953563  0.83241622  0.82975751  1
  Ca2+  Ca18  1  0.58151572  0.32992058  0.16069812  1
  Ca2+  Ca19  1  0.59597366  0.31942677  0.49858624  1
  Ca2+  Ca20  1  0.58122953  0.33263610  0.82708618  1
  Ca2+  Ca21  1  0.58470051  0.83122643  0.16470788  1
  Ca2+  Ca22  1  0.58311538  0.82970195  0.49748579  1
  Ca2+  Ca23  1  0.57794110  0.83579326  0.82386304  1
  Ca2+  Ca24  1  0.33365699  0.42257349  0.17168047  1
  Ca2+  Ca25  1  0.32987968  0.42458296  0.50465939  1
  Ca2+  Ca26  1  0.33100704  0.41521546  0.83617155  1
  Ca2+  Ca27  1  0.32554226  0.90448939  0.16443655  1
  Ca2+  Ca28  1  0.33435864  0.92150953  0.50839205  1
  Ca2+  Ca29  1  0.33794203  0.92214714  0.83848853  1
  Ca2+  Ca30  1  0.82831501  0.42238163  0.17137192  1
  Ca2+  Ca31  1  0.82909371  0.42690799  0.50504391  1
  Ca2+  Ca32  1  0.81921921  0.41502841  0.83648365  1
  Ca2+  Ca33  1  0.82314087  0.91863035  0.17702655  1
  Ca2+  Ca34  1  0.82442945  0.91026615  0.50162288  1
  Ca2+  Ca35  1  0.82151083  0.90957989  0.83458759  1
  Ca2+  Ca36  1  0.42382339  0.17358529  0.16285970  1
  Ca2+  Ca37  1  0.42987320  0.16081704  0.50022163  1
  Ca2+  Ca38  1  0.41944549  0.17066321  0.82595738  1
  Ca2+  Ca39  1  0.42142148  0.66822544  0.16364384  1
  Ca2+  Ca40  1  0.42695076  0.66621323  0.49701189  1
  Ca2+  Ca41  1  0.42263122  0.68264485  0.82716762  1
  Ca2+  Ca42  1  0.91766315  0.16251417  0.16389268  1
  Ca2+  Ca43  1  0.91835521  0.16517539  0.49605926  1
  Ca2+  Ca44  1  0.93048447  0.15997353  0.82899365  1
  Ca2+  Ca45  1  0.92272632  0.66603815  0.16807534  1
  Ca2+  Ca46  1  0.91487514  0.67739909  0.49071667  1
  Ca2+  Ca47  1  0.92155618  0.67187111  0.82897810  1
  Al0+  Al48  1  0.00104209  -0.00100890  -0.00030859  1
  Al0+  Al49  1  -0.00067938  0.00020546  0.33190620  1
  Al0+  Al50  1  0.00144348  0.00021736  0.65619225  1
  Al0+  Al51  1  -0.00043981  0.49903408  -0.00474450  1
  Al0+  Al52  1  -0.00114434  0.49754196  0.33430881  1
  Al0+  Al53  1  0.00068745  0.49863190  0.67266437  1
  Al0+  Al54  1  0.50008852  0.00157892  0.00425779  1
  Al0+  Al55  1  0.49801332  0.00081646  0.32985539  1
  Al0+  Al56  1  0.49913564  0.00223575  0.66859693  1
  Al0+  Al57  1  0.49902938  0.49912750  0.00052381  1
  Al0+  Al58  1  0.49704339  0.49963343  0.33533287  1
  Al0+  Al59  1  0.49886094  0.50165135  0.66821909  1
  Al0+  Al60  1  0.25091053  0.25065397  -0.00528430  1
  Al0+  Al61  1  0.24972244  0.24969271  0.33199614  1
  Al0+  Al62  1  0.25090963  0.25077036  0.66995850  1
  Al0+  Al63  1  0.25106138  0.75046625  -0.00605513  1
  Al0+  Al64  1  0.24991579  0.74950085  0.33928543  1
  Al0+  Al65  1  0.24960250  0.75066334  0.66347343  1
  Al0+  Al66  1  0.74995110  0.25067583  0.00457768  1
  Al0+  Al67  1  0.75153370  0.24774331  0.32957513  1
  Al0+  Al68  1  0.75269230  0.25100585  0.66794116  1
  Al0+  Al69  1  0.75130610  0.74810362  0.00510565  1
  Al0+  Al70  1  0.74815166  0.74913523  0.33111887  1
  Al0+  Al71  1  0.75165038  0.75046008  0.66638060  1
  Al0+  Al72  1  0.93011131  0.81989708  0.65323128  1
  Al0+  Al73  1  0.18024178  0.92877745  0.01236444  1
  Al0+  Al74  1  0.43039885  0.32204695  0.98600944  1
  Al0+  Al75  1  0.92746647  0.82215724  0.31511148  1
  Al0+  Al76  1  0.57210373  0.18121302  0.65540706  1
  Al0+  Al77  1  0.07225747  0.18062789  0.65130540  1
  Al0+  Al78  1  0.57180438  0.17863597  0.31851137  1
  Al0+  Al79  1  0.68099144  0.92996728  0.68058044  1
  Al0+  Al80  1  0.06913995  0.17872380  0.98655845  1
  Al0+  Al81  1  0.32095589  0.06945067  0.68061443  1
  Al0+  Al82  1  0.43134426  0.82104415  0.98758427  1
  Al0+  Al83  1  0.42804324  0.82394194  0.65099126  1
  Al0+  Al84  1  0.67679945  0.92929024  0.35001283  1
  Al0+  Al85  1  0.32085978  0.57179919  0.34773026  1
  Al0+  Al86  1  0.57027362  0.67877936  0.65289158  1
  Al0+  Al87  1  0.18038539  0.43094679  0.68186925  1
  Al0+  Al88  1  0.82245432  0.07199092  0.34932206  1
  Al0+  Al89  1  0.07110237  0.67841992  0.32031993  1
  Al0+  Al90  1  0.82065261  0.56962975  0.34656514  1
  Al0+  Al91  1  0.67734138  0.92827043  0.01448258  1
  Al0+  Al92  1  0.56978040  0.67770190  0.31923490  1
  Al0+  Al93  1  0.67739407  0.42968846  0.01537425  1
  Al0+  Al94  1  0.67931957  0.42854565  0.67913132  1
  Al0+  Al95  1  0.07195070  0.67869216  0.98527762  1
  Si0+  Si96  1  0.82288308  0.07069708  0.01472818  1
  Si0+  Si97  1  0.57398489  0.67785858  0.98494768  1
  Si0+  Si98  1  0.42718931  0.82269135  0.31659461  1
  Si0+  Si99  1  0.82422457  0.57082397  0.01769798  1
  Si0+  Si100  1  0.17894501  0.92878023  0.34856374  1
  Si0+  Si101  1  0.57300899  0.17916323  0.98368400  1
  Si0+  Si102  1  0.17825039  0.42742850  0.01486676  1
  Si0+  Si103  1  0.92752265  0.82135965  0.98347271  1
  Si0+  Si104  1  0.92860678  0.32273187  0.64957057  1
  Si0+  Si105  1  0.31839218  0.07305924  0.34681104  1
  Si0+  Si106  1  0.31796931  0.57053243  0.01361549  1
  Si0+  Si107  1  0.17613182  0.92806987  0.68125004  1
  Si0+  Si108  1  0.17760377  0.42571348  0.34853970  1
  Si0+  Si109  1  0.92909152  0.32067529  0.31803979  1
  Si0+  Si110  1  0.42775875  0.32312744  0.64935309  1
  Si0+  Si111  1  0.82481200  0.07262757  0.68301195  1
  Si0+  Si112  1  0.32224718  0.57476223  0.68659189  1
  Si0+  Si113  1  0.32147972  0.07460893  0.01884201  1
  Si0+  Si114  1  0.82223981  0.57300343  0.68496463  1
  Si0+  Si115  1  0.92628505  0.32254529  0.98189965  1
  Si0+  Si116  1  0.42667802  0.32097754  0.31797343  1
  Si0+  Si117  1  0.07339231  0.17948650  0.31780172  1
  Si0+  Si118  1  0.07184430  0.67448254  0.65014371  1
  Si0+  Si119  1  0.67684859  0.42758566  0.34925394  1
  O2-  O120  1  0.25470913  0.00311509  0.06231560  1
  O2-  O121  1  0.24923886  0.00087953  0.38967467  1
  O2-  O122  1  0.24815177  -0.00758722  0.72653742  1
  O2-  O123  1  0.24571972  0.50084773  0.05801574  1
  O2-  O124  1  0.24359541  0.49757926  0.39127246  1
  O2-  O125  1  0.25188075  0.50744625  0.73088829  1
  O2-  O126  1  0.75269577  0.00372109  0.05862538  1
  O2-  O127  1  0.75041064  0.00055364  0.39956575  1
  O2-  O128  1  0.75553962  0.00529176  0.72831714  1
  O2-  O129  1  0.75242810  0.50437681  0.06091665  1
  O2-  O130  1  0.74195973  0.49921415  0.39381845  1
  O2-  O131  1  0.75126772  0.50548209  0.72763768  1
  O2-  O132  1  -0.00062878  0.24786381  0.27665900  1
  O2-  O133  1  -0.00280126  0.25456178  0.60393816  1
  O2-  O134  1  -0.00576801  0.25275585  0.93870136  1
  O2-  O135  1  0.00043438  0.74957685  0.26702374  1
  O2-  O136  1  0.00490107  0.74451423  0.60711708  1
  O2-  O137  1  -0.00381153  0.75240622  0.93929322  1
  O2-  O138  1  0.49881569  0.25616383  0.27349465  1
  O2-  O139  1  0.50065368  0.25863947  0.60598665  1
  O2-  O140  1  0.50539812  0.24835012  0.93895886  1
  O2-  O141  1  0.49663158  0.75433052  0.27292756  1
  O2-  O142  1  0.49913860  0.75104920  0.60172686  1
  O2-  O143  1  0.51230885  0.75292585  0.94146107  1
  O2-  O144  1  0.06839616  0.18102086  0.10029157  1
  O2-  O145  1  0.07813803  0.18261047  0.42239581  1
  O2-  O146  1  0.07103082  0.18028327  0.76450132  1
  O2-  O147  1  0.07281149  0.67842949  0.09813902  1
  O2-  O148  1  0.07056882  0.68021893  0.43379112  1
  O2-  O149  1  0.07034176  0.67464783  0.75614192  1
  O2-  O150  1  0.57086666  0.18090047  0.08952402  1
  O2-  O151  1  0.57024877  0.17896778  0.43172354  1
  O2-  O152  1  0.56928010  0.18180689  0.76857331  1
  O2-  O153  1  0.57068042  0.67524354  0.09059925  1
  O2-  O154  1  0.56774653  0.67598915  0.43179582  1
  O2-  O155  1  0.56820463  0.67848615  0.76701153  1
  O2-  O156  1  0.17974797  0.42092565  0.24278043  1
  O2-  O157  1  0.18232155  0.43151390  0.56838906  1
  O2-  O158  1  0.18024404  0.42716472  0.91007239  1
  O2-  O159  1  0.18005012  0.92842594  0.24307178  1
  O2-  O160  1  0.17600161  0.93185022  0.57536359  1
  O2-  O161  1  0.18001365  0.93079060  0.89957661  1
  O2-  O162  1  0.67889999  0.42846430  0.24317473  1
  O2-  O163  1  0.68430369  0.42622400  0.56624668  1
  O2-  O164  1  0.67820740  0.43042106  0.90217532  1
  O2-  O165  1  0.67673383  0.93166080  0.23591722  1
  O2-  O166  1  0.68031491  0.92945219  0.56815700  1
  O2-  O167  1  0.67771885  0.92887792  0.90108245  1
  O2-  O168  1  0.42952095  0.32151225  0.09949922  1
  O2-  O169  1  0.42163108  0.31844078  0.42297159  1
  O2-  O170  1  0.42774166  0.32117106  0.75527047  1
  O2-  O171  1  0.42749354  0.81450972  0.10059923  1
  O2-  O172  1  0.42637763  0.82409585  0.42180008  1
  O2-  O173  1  0.42994746  0.82362064  0.76502803  1
  O2-  O174  1  0.92868244  0.32385261  0.08792570  1
  O2-  O175  1  0.92990097  0.32249974  0.42275773  1
  O2-  O176  1  0.92884230  0.32152623  0.75518105  1
  O2-  O177  1  0.92880005  0.82125039  0.08871314  1
  O2-  O178  1  0.92986249  0.82124222  0.42877233  1
  O2-  O179  1  0.93090984  0.81848262  0.76696664  1
  O2-  O180  1  0.31495057  0.07740199  0.24186533  1
  O2-  O181  1  0.31940598  0.07026272  0.56677354  1
  O2-  O182  1  0.32073763  0.07517681  0.91341769  1
  O2-  O183  1  0.32051891  0.57013938  0.23392749  1
  O2-  O184  1  0.32187713  0.57271288  0.58096515  1
  O2-  O185  1  0.31678153  0.56847980  0.90877895  1
  O2-  O186  1  0.82123963  0.07179017  0.23516696  1
  O2-  O187  1  0.82346923  0.07300431  0.57778981  1
  O2-  O188  1  0.82432756  0.07046254  0.90923898  1
  O2-  O189  1  0.82260013  0.56391648  0.23338712  1
  O2-  O190  1  0.82422223  0.57122779  0.57934803  1
  O2-  O191  1  0.82568693  0.57066462  0.91220453  1
  O2-  O192  1  0.04807383  0.08702320  0.27088116  1
  O2-  O193  1  0.04473220  0.08529290  0.59417404  1
  O2-  O194  1  0.03939474  0.08217333  0.93169031  1
  O2-  O195  1  0.04539975  0.57782182  0.26918425  1
  O2-  O196  1  0.04605072  0.58026659  0.60589717  1
  O2-  O197  1  0.04216520  0.58143907  0.93092429  1
  O2-  O198  1  0.53565793  0.08473264  0.26226572  1
  O2-  O199  1  0.53646912  0.08709533  0.60069140  1
  O2-  O200  1  0.54573706  0.08551656  0.93949305  1
  O2-  O201  1  0.53648510  0.58070650  0.26552527  1
  O2-  O202  1  0.54137613  0.58028028  0.59938897  1
  O2-  O203  1  0.54098747  0.58667149  0.93847958  1
  O2-  O204  1  0.16298977  0.21045789  0.26697199  1
  O2-  O205  1  0.16829391  0.21556105  0.59838494  1
  O2-  O206  1  0.16521460  0.21020102  0.93277775  1
  O2-  O207  1  0.17042561  0.70883622  0.26949804  1
  O2-  O208  1  0.16688177  0.69634682  0.60605262  1
  O2-  O209  1  0.16657400  0.71005558  0.92861941  1
  O2-  O210  1  0.66835130  0.20740640  0.26328290  1
  O2-  O211  1  0.66978887  0.20988968  0.60192645  1
  O2-  O212  1  0.66798631  0.20287992  0.94022286  1
  O2-  O213  1  0.66610697  0.70462244  0.26355640  1
  O2-  O214  1  0.67005271  0.70450659  0.60303986  1
  O2-  O215  1  0.67076697  0.69505171  0.94240218  1
  O2-  O216  1  0.08375593  0.45057907  0.05927640  1
  O2-  O217  1  0.08346069  0.44668075  0.39460574  1
  O2-  O218  1  0.08291368  0.45628241  0.73810863  1
  O2-  O219  1  0.08412552  0.96030635  0.06787983  1
  O2-  O220  1  0.08698290  0.95709377  0.39432602  1
  O2-  O221  1  0.08357631  0.95837781  0.72675132  1
  O2-  O222  1  0.58064348  0.45979605  0.06981741  1
  O2-  O223  1  0.58145145  0.44647951  0.39308210  1
  O2-  O224  1  0.58133740  0.45688625  0.73269773  1
  O2-  O225  1  0.58175662  0.95957361  0.07071099  1
  O2-  O226  1  0.57705970  0.95998980  0.39959451  1
  O2-  O227  1  0.58503572  0.96348732  0.73427167  1
  O2-  O228  1  0.20888110  0.33645551  0.06269877  1
  O2-  O229  1  0.20790337  0.33386481  0.39690552  1
  O2-  O230  1  0.21345744  0.33554332  0.73695320  1
  O2-  O231  1  0.21373078  0.83222429  0.06599849  1
  O2-  O232  1  0.20670716  0.83891686  0.39888994  1
  O2-  O233  1  0.19518549  0.83160084  0.72428225  1
  O2-  O234  1  0.70818740  0.33307831  0.07049824  1
  O2-  O235  1  0.70852225  0.33472799  0.39234251  1
  O2-  O236  1  0.71328026  0.33371508  0.73614574  1
  O2-  O237  1  0.70662176  0.83063567  0.06777262  1
  O2-  O238  1  0.70356711  0.82931709  0.39919847  1
  O2-  O239  1  0.71323413  0.83366678  0.73530153  1
  O2-  O240  1  0.44890373  0.41538443  0.27232262  1
  O2-  O241  1  0.44771399  0.41881290  0.60632843  1
  O2-  O242  1  0.45949280  0.41852483  0.93084582  1
  O2-  O243  1  0.44892630  0.91620659  0.26839145  1
  O2-  O244  1  0.45586560  0.92246579  0.59951290  1
  O2-  O245  1  0.45575394  0.92133509  0.93795245  1
  O2-  O246  1  0.95898453  0.41030724  0.26717448  1
  O2-  O247  1  0.95585955  0.41680078  0.60493088  1
  O2-  O248  1  0.95144576  0.41490896  0.93391366  1
  O2-  O249  1  0.95729306  0.92102008  0.26305588  1
  O2-  O250  1  0.96054712  0.91437472  0.59527519  1
  O2-  O251  1  0.95350709  0.91440618  0.93728751  1
  O2-  O252  1  0.33488299  0.29130303  0.26837096  1
  O2-  O253  1  0.33574447  0.29358127  0.60328126  1
  O2-  O254  1  0.33450088  0.29174479  0.93048428  1
  O2-  O255  1  0.33339299  0.79348676  0.27253907  1
  O2-  O256  1  0.32800246  0.79850855  0.59890468  1
  O2-  O257  1  0.33796187  0.78660305  0.93004191  1
  O2-  O258  1  0.83853906  0.29393529  0.26712172  1
  O2-  O259  1  0.83607402  0.29751538  0.60188383  1
  O2-  O260  1  0.83152256  0.29747422  0.93805800  1
  O2-  O261  1  0.82943987  0.79299292  0.26345476  1
  O2-  O262  1  0.83480650  0.78824518  0.59849452  1
  O2-  O263  1  0.83374306  0.79328905  0.93814193  1
  O2-  O264  1  0.41563792  0.05232612  0.06489331  1
  O2-  O265  1  0.41076607  0.04593703  0.39238404  1
  O2-  O266  1  0.41627466  0.04155864  0.73815763  1
  O2-  O267  1  0.40924105  0.54106145  0.06151036  1
  O2-  O268  1  0.41487775  0.53725399  0.40470351  1
  O2-  O269  1  0.41460996  0.54744309  0.73379402  1
  O2-  O270  1  0.91589236  0.04469066  0.06223869  1
  O2-  O271  1  0.92341728  0.04811307  0.39997725  1
  O2-  O272  1  0.91958044  0.04430834  0.72572215  1
  O2-  O273  1  0.91707680  0.54052932  0.06378542  1
  O2-  O274  1  0.91564013  0.53501676  0.40236560  1
  O2-  O275  1  0.91461125  0.54493481  0.73291810  1
  O2-  O276  1  0.29165175  0.16757990  0.06465089  1
  O2-  O277  1  0.28853222  0.16342780  0.39648995  1
  O2-  O278  1  0.28866578  0.16528242  0.73500309  1
  O2-  O279  1  0.29021987  0.66216277  0.06055846  1
  O2-  O280  1  0.29125338  0.66686971  0.40532771  1
  O2-  O281  1  0.29704991  0.66955913  0.73099844  1
  O2-  O282  1  0.80113715  0.16558864  0.06109318  1
  O2-  O283  1  0.79752840  0.17253311  0.39996350  1
  O2-  O284  1  0.80342158  0.16706434  0.72939206  1
  O2-  O285  1  0.80247307  0.66460595  0.06482791  1
  O2-  O286  1  0.79241645  0.66699373  0.39861805  1
  O2-  O287  1  0.79856873  0.66620011  0.73192653  1
