# generated using pymatgen
data_Ca2Al2SiO7
_symmetry_space_group_name_H-M   'P 1'
_cell_length_a   15.46031829
_cell_length_b   15.45939210
_cell_length_c   15.28502276
_cell_angle_alpha   89.99149727
_cell_angle_beta   90.01165722
_cell_angle_gamma   89.98601464
_symmetry_Int_Tables_number   1
_chemical_formula_structural   Ca2Al2SiO7
_chemical_formula_sum   'Ca48 Al48 Si24 O168'
_cell_volume   3653.22908094
_cell_formula_units_Z   24
loop_
 _symmetry_equiv_pos_site_id
 _symmetry_equiv_pos_as_xyz
  1  'x, y, z'
loop_
 _atom_type_symbol
 _atom_type_oxidation_number
  Ca2+  2.0
  Al0+  0.0
  Si0+  0.0
  O2-  -2.0
loop_
 _atom_site_type_symbol
 _atom_site_label
 _atom_site_symmetry_multiplicity
 _atom_site_fract_x
 _atom_site_fract_y
 _atom_site_fract_z
 _atom_site_occupancy
  Ca2+  Ca0  1  0.16064998  0.07770503  0.17264675  1
  Ca2+  Ca1  1  0.16028638  0.07532791  0.50197530  1
  Ca2+  Ca2  1  0.15528490  0.07465934  0.83691944  1
  Ca2+  Ca3  1  0.17349230  0.58208911  0.16818541  1
  Ca2+  Ca4  1  0.18027720  0.58710363  0.50848915  1
  Ca2+  Ca5  1  0.17501421  0.58426273  0.84532217  1
  Ca2+  Ca6  1  0.66722366  0.08483013  0.16952052  1
  Ca2+  Ca7  1  0.67757743  0.08199924  0.50884837  1
  Ca2+  Ca8  1  0.67346523  0.08828177  0.83985977  1
  Ca2+  Ca9  1  0.66470711  0.58113024  0.17444505  1
  Ca2+  Ca10  1  0.66067884  0.58143235  0.50022872  1
  Ca2+  Ca11  1  0.66541114  0.58701468  0.83760589  1
  Ca2+  Ca12  1  0.08581606  0.32416270  0.15704423  1
  Ca2+  Ca13  1  0.08908767  0.31769546  0.49531837  1
  Ca2+  Ca14  1  0.08956956  0.32525539  0.83152308  1
  Ca2+  Ca15  1  0.07829324  0.83679573  0.16060434  1
  Ca2+  Ca16  1  0.08502517  0.83536638  0.49767527  1
  Ca2+  Ca17  1  0.09133667  0.82697879  0.83222175  1
  Ca2+  Ca18  1  0.57768118  0.33273282  0.16587750  1
  Ca2+  Ca19  1  0.57131052  0.33813325  0.49372167  1
  Ca2+  Ca20  1  0.57539700  0.32930546  0.83051192  1
  Ca2+  Ca21  1  0.57986965  0.82021096  0.15944280  1
  Ca2+  Ca22  1  0.58264150  0.82046268  0.49388875  1
  Ca2+  Ca23  1  0.57804549  0.82123668  0.82942386  1
  Ca2+  Ca24  1  0.33207906  0.42380554  0.16864438  1
  Ca2+  Ca25  1  0.34086810  0.42307725  0.50249533  1
  Ca2+  Ca26  1  0.32879936  0.42428590  0.83742938  1
  Ca2+  Ca27  1  0.31966335  0.92453232  0.17465430  1
  Ca2+  Ca28  1  0.32185770  0.92235678  0.50310353  1
  Ca2+  Ca29  1  0.31948229  0.91566553  0.83922018  1
  Ca2+  Ca30  1  0.82772385  0.41405371  0.17020498  1
  Ca2+  Ca31  1  0.82221482  0.41322596  0.50240827  1
  Ca2+  Ca32  1  0.83376273  0.41591675  0.84116355  1
  Ca2+  Ca33  1  0.83739269  0.91198648  0.17081608  1
  Ca2+  Ca34  1  0.83692036  0.91941756  0.50410074  1
  Ca2+  Ca35  1  0.83754841  0.92067009  0.83618355  1
  Ca2+  Ca36  1  0.41533207  0.17102556  0.16394999  1
  Ca2+  Ca37  1  0.40692824  0.17962635  0.49290304  1
  Ca2+  Ca38  1  0.41923468  0.17245245  0.82815873  1
  Ca2+  Ca39  1  0.42302576  0.65492134  0.16514821  1
  Ca2+  Ca40  1  0.42297193  0.65749271  0.49586536  1
  Ca2+  Ca41  1  0.42210973  0.65517142  0.82898264  1
  Ca2+  Ca42  1  0.92926552  0.17260127  0.16039012  1
  Ca2+  Ca43  1  0.92694366  0.15785955  0.49878011  1
  Ca2+  Ca44  1  0.92603926  0.16943136  0.83288918  1
  Ca2+  Ca45  1  0.92382946  0.67937917  0.15785062  1
  Ca2+  Ca46  1  0.92713637  0.67345140  0.49434313  1
  Ca2+  Ca47  1  0.93476811  0.66875280  0.83353768  1
  Al0+  Al48  1  -0.00310003  0.00335350  -0.00112576  1
  Al0+  Al49  1  -0.00121418  -0.00018385  0.32913363  1
  Al0+  Al50  1  -0.00185725  0.00072107  0.67290682  1
  Al0+  Al51  1  -0.00159854  0.50188278  0.00006939  1
  Al0+  Al52  1  -0.00064357  0.50008358  0.33521765  1
  Al0+  Al53  1  -0.00148715  0.49944918  0.66026590  1
  Al0+  Al54  1  0.50219677  -0.00129760  -0.00425162  1
  Al0+  Al55  1  0.50001810  -0.00076702  0.33955904  1
  Al0+  Al56  1  0.50036765  -0.00121964  0.66687528  1
  Al0+  Al57  1  0.50141725  0.49819938  -0.00099548  1
  Al0+  Al58  1  0.50090901  0.49714912  0.33196386  1
  Al0+  Al59  1  0.50067775  0.49836847  0.66436039  1
  Al0+  Al60  1  0.25111794  0.25074390  -0.00249352  1
  Al0+  Al61  1  0.25065611  0.25089287  0.32461679  1
  Al0+  Al62  1  0.24963588  0.25034907  0.65795591  1
  Al0+  Al63  1  0.25197615  0.75281834  0.00939821  1
  Al0+  Al64  1  0.25163040  0.75013071  0.34194538  1
  Al0+  Al65  1  0.25210275  0.75056477  0.67101783  1
  Al0+  Al66  1  0.74966740  0.24980030  -0.00490966  1
  Al0+  Al67  1  0.74926494  0.25016020  0.34029948  1
  Al0+  Al68  1  0.74958408  0.24964866  0.67266153  1
  Al0+  Al69  1  0.74874946  0.75082939  -0.00790981  1
  Al0+  Al70  1  0.75117791  0.74900168  0.32728213  1
  Al0+  Al71  1  0.74944878  0.74873526  0.66349756  1
  Al0+  Al72  1  0.07305599  0.18065941  0.98399519  1
  Al0+  Al73  1  0.17654658  0.93105793  0.34952510  1
  Al0+  Al74  1  0.07449959  0.68124841  0.98839247  1
  Al0+  Al75  1  0.57049802  0.17764790  0.98763974  1
  Al0+  Al76  1  0.17658522  0.42801706  0.01418188  1
  Al0+  Al77  1  0.56994355  0.68006717  0.65093321  1
  Al0+  Al78  1  0.93166045  0.81918550  0.32107031  1
  Al0+  Al79  1  0.92818000  0.82284615  0.98281531  1
  Al0+  Al80  1  0.07419569  0.67791674  0.65306064  1
  Al0+  Al81  1  0.17746050  0.93231212  0.01515476  1
  Al0+  Al82  1  0.43008941  0.31984172  0.31678388  1
  Al0+  Al83  1  0.06920022  0.18090122  0.31886065  1
  Al0+  Al84  1  0.81932085  0.07015207  0.68347581  1
  Al0+  Al85  1  0.06785782  0.17901790  0.65163559  1
  Al0+  Al86  1  0.56821202  0.67755180  0.98592876  1
  Al0+  Al87  1  0.68096141  0.42983577  0.34715609  1
  Al0+  Al88  1  0.92826197  0.32299742  0.98668712  1
  Al0+  Al89  1  0.31989739  0.56784024  0.34846948  1
  Al0+  Al90  1  0.43093624  0.31826068  0.65248743  1
  Al0+  Al91  1  0.32239168  0.07395790  0.34783862  1
  Al0+  Al92  1  0.18034501  0.93105800  0.68247746  1
  Al0+  Al93  1  0.32101464  0.56847006  0.68059743  1
  Al0+  Al94  1  0.56801549  0.68000238  0.31863833  1
  Al0+  Al95  1  0.32308322  0.57081787  0.01628480  1
  Si0+  Si96  1  0.92471517  0.32311415  0.31937736  1
  Si0+  Si97  1  0.67900715  0.92775119  0.01528402  1
  Si0+  Si98  1  0.42688915  0.82451162  0.31728139  1
  Si0+  Si99  1  0.92438049  0.32279906  0.64796358  1
  Si0+  Si100  1  0.81791943  0.07185704  0.01768732  1
  Si0+  Si101  1  0.32597077  0.07211943  0.01380762  1
  Si0+  Si102  1  0.42689305  0.82421582  0.64877415  1
  Si0+  Si103  1  0.81974238  0.57381125  0.01421139  1
  Si0+  Si104  1  0.67691063  0.92541557  0.68432730  1
  Si0+  Si105  1  0.82252020  0.57460455  0.35025160  1
  Si0+  Si106  1  0.42847885  0.82326786  0.98426282  1
  Si0+  Si107  1  0.07611403  0.67630197  0.31820864  1
  Si0+  Si108  1  0.42899037  0.32169859  0.98213294  1
  Si0+  Si109  1  0.57467160  0.17580590  0.32038543  1
  Si0+  Si110  1  0.92986612  0.82044612  0.65098896  1
  Si0+  Si111  1  0.17596968  0.42675759  0.68005810  1
  Si0+  Si112  1  0.57377254  0.17629968  0.64980368  1
  Si0+  Si113  1  0.32250558  0.07507688  0.68282857  1
  Si0+  Si114  1  0.17508125  0.42691164  0.35006415  1
  Si0+  Si115  1  0.67972935  0.43075672  0.68386916  1
  Si0+  Si116  1  0.82253746  0.57176201  0.68187945  1
  Si0+  Si117  1  0.67862164  0.92530017  0.34714511  1
  Si0+  Si118  1  0.81865912  0.06954535  0.34699643  1
  Si0+  Si119  1  0.68076715  0.42823949  0.01431906  1
  O2-  O120  1  0.25236927  0.00924476  0.05827563  1
  O2-  O121  1  0.24920415  0.00343276  0.39849132  1
  O2-  O122  1  0.25568075  0.00626562  0.72867125  1
  O2-  O123  1  0.24755056  0.50123174  0.06459057  1
  O2-  O124  1  0.24060758  0.49772095  0.39553267  1
  O2-  O125  1  0.23985762  0.49941432  0.72477219  1
  O2-  O126  1  0.74982227  -0.00223553  0.06000211  1
  O2-  O127  1  0.74632034  -0.00034080  0.38934672  1
  O2-  O128  1  0.74155297  -0.00260545  0.72936575  1
  O2-  O129  1  0.75031582  0.50067317  0.05643799  1
  O2-  O130  1  0.75675909  0.50326203  0.39508408  1
  O2-  O131  1  0.75301492  0.49946990  0.72561317  1
  O2-  O132  1  -0.00176051  0.26079261  0.27504128  1
  O2-  O133  1  -0.00582143  0.25547007  0.60435986  1
  O2-  O134  1  0.00532848  0.25783269  0.93531465  1
  O2-  O135  1  0.00704509  0.74506173  0.27539269  1
  O2-  O136  1  -0.00082613  0.75314385  0.60645454  1
  O2-  O137  1  0.00531646  0.75520006  0.93543540  1
  O2-  O138  1  0.50216941  0.23933111  0.27524476  1
  O2-  O139  1  0.50217035  0.23995632  0.60437023  1
  O2-  O140  1  0.49350679  0.24833776  0.93949345  1
  O2-  O141  1  0.49343557  0.75440921  0.27147377  1
  O2-  O142  1  0.49620321  0.75568737  0.60478557  1
  O2-  O143  1  0.49006310  0.74817421  0.93928986  1
  O2-  O144  1  0.06894323  0.17886502  0.09761353  1
  O2-  O145  1  0.06508316  0.17807922  0.43220848  1
  O2-  O146  1  0.06736028  0.18010881  0.76411795  1
  O2-  O147  1  0.07059355  0.68120744  0.10207306  1
  O2-  O148  1  0.07370141  0.67616106  0.42419964  1
  O2-  O149  1  0.07340649  0.67713073  0.76577220  1
  O2-  O150  1  0.57145823  0.17946456  0.10090605  1
  O2-  O151  1  0.57965647  0.17827020  0.42569127  1
  O2-  O152  1  0.57418044  0.17929593  0.75557411  1
  O2-  O153  1  0.57085579  0.67831582  0.09890916  1
  O2-  O154  1  0.56882627  0.68112192  0.43179061  1
  O2-  O155  1  0.57020262  0.67987290  0.76402692  1
  O2-  O156  1  0.17401859  0.42829863  0.24472187  1
  O2-  O157  1  0.17809862  0.42548763  0.57438315  1
  O2-  O158  1  0.18028339  0.42728162  0.90013120  1
  O2-  O159  1  0.17508811  0.93350532  0.23605988  1
  O2-  O160  1  0.17894674  0.93273620  0.56957077  1
  O2-  O161  1  0.17931818  0.93177160  0.90182464  1
  O2-  O162  1  0.68287119  0.42858721  0.23382638  1
  O2-  O163  1  0.68011658  0.43087523  0.57867209  1
  O2-  O164  1  0.68058376  0.42880936  0.90895247  1
  O2-  O165  1  0.67944863  0.92512356  0.24202694  1
  O2-  O166  1  0.67936310  0.92533013  0.57831197  1
  O2-  O167  1  0.67900708  0.92876672  0.91030971  1
  O2-  O168  1  0.43204239  0.32359454  0.08758456  1
  O2-  O169  1  0.43358548  0.32194405  0.42995088  1
  O2-  O170  1  0.43411041  0.31768757  0.76564752  1
  O2-  O171  1  0.43495250  0.82866979  0.08937350  1
  O2-  O172  1  0.43086238  0.82495738  0.42286649  1
  O2-  O173  1  0.42913083  0.82584395  0.75439516  1
  O2-  O174  1  0.92217286  0.31682682  0.10026356  1
  O2-  O175  1  0.92165533  0.31972805  0.42491483  1
  O2-  O176  1  0.92258635  0.32379001  0.75313892  1
  O2-  O177  1  0.92588932  0.81944384  0.09654222  1
  O2-  O178  1  0.92972706  0.81902871  0.43444553  1
  O2-  O179  1  0.92839372  0.81830632  0.75607774  1
  O2-  O180  1  0.32455486  0.07061922  0.23407785  1
  O2-  O181  1  0.32158856  0.07410894  0.57748130  1
  O2-  O182  1  0.32992767  0.06838171  0.90817213  1
  O2-  O183  1  0.32098539  0.56573452  0.23579376  1
  O2-  O184  1  0.32351147  0.56534201  0.56743915  1
  O2-  O185  1  0.32545822  0.56659887  0.90247285  1
  O2-  O186  1  0.81653065  0.07139031  0.24202322  1
  O2-  O187  1  0.81913843  0.06735811  0.56944737  1
  O2-  O188  1  0.81512983  0.07245339  0.91270080  1
  O2-  O189  1  0.82057756  0.57528979  0.24467336  1
  O2-  O190  1  0.82120656  0.57168261  0.57672983  1
  O2-  O191  1  0.81725633  0.57380793  0.90881025  1
  O2-  O192  1  0.03173678  0.08722079  0.26430857  1
  O2-  O193  1  0.03159196  0.08271492  0.59994132  1
  O2-  O194  1  0.03509780  0.08583001  0.93096933  1
  O2-  O195  1  0.05049441  0.58174971  0.27375933  1
  O2-  O196  1  0.04247127  0.58228253  0.59673972  1
  O2-  O197  1  0.04250395  0.58411046  0.93492896  1
  O2-  O198  1  0.55557408  0.07931049  0.27728077  1
  O2-  O199  1  0.55661517  0.07935326  0.60753364  1
  O2-  O200  1  0.54645900  0.08050016  0.93106003  1
  O2-  O201  1  0.53860577  0.58300898  0.26595660  1
  O2-  O202  1  0.53932042  0.58308995  0.59840184  1
  O2-  O203  1  0.54283707  0.57964574  0.93154150  1
  O2-  O204  1  0.16549887  0.20694582  0.26346947  1
  O2-  O205  1  0.16414069  0.20791519  0.59591403  1
  O2-  O206  1  0.17336448  0.20182933  0.93121426  1
  O2-  O207  1  0.17072474  0.70122517  0.27536813  1
  O2-  O208  1  0.17105495  0.71002070  0.60095884  1
  O2-  O209  1  0.17486158  0.70774469  0.93854491  1
  O2-  O210  1  0.66668463  0.20660263  0.27285421  1
  O2-  O211  1  0.66713885  0.20576702  0.60519424  1
  O2-  O212  1  0.66383612  0.21295130  0.93051835  1
  O2-  O213  1  0.66494423  0.71013508  0.26492386  1
  O2-  O214  1  0.66710959  0.70969917  0.59616575  1
  O2-  O215  1  0.66216830  0.71230046  0.92957929  1
  O2-  O216  1  0.07653860  0.45260665  0.06653865  1
  O2-  O217  1  0.07937715  0.44565836  0.39648213  1
  O2-  O218  1  0.07898226  0.44551070  0.72194467  1
  O2-  O219  1  0.07935620  0.96327033  0.06653800  1
  O2-  O220  1  0.07772412  0.96176579  0.40172944  1
  O2-  O221  1  0.08383248  0.96135273  0.73620580  1
  O2-  O222  1  0.58895091  0.45485974  0.06169015  1
  O2-  O223  1  0.58628628  0.46365484  0.40202593  1
  O2-  O224  1  0.58947863  0.46141904  0.73168079  1
  O2-  O225  1  0.58749373  0.95619405  0.06315019  1
  O2-  O226  1  0.58692095  0.94752615  0.39701040  1
  O2-  O227  1  0.58152793  0.94614864  0.72907550  1
  O2-  O228  1  0.20728467  0.32911078  0.06651920  1
  O2-  O229  1  0.20468405  0.33326834  0.39303477  1
  O2-  O230  1  0.20727407  0.33415664  0.72548747  1
  O2-  O231  1  0.20815867  0.83746024  0.07235228  1
  O2-  O232  1  0.20427441  0.83274093  0.40324442  1
  O2-  O233  1  0.21306853  0.83523416  0.73698138  1
  O2-  O234  1  0.71006348  0.33690270  0.06174982  1
  O2-  O235  1  0.71005123  0.33413384  0.40576353  1
  O2-  O236  1  0.70430242  0.33809809  0.73157487  1
  O2-  O237  1  0.70711633  0.83529295  0.06170444  1
  O2-  O238  1  0.71159575  0.83525150  0.39531708  1
  O2-  O239  1  0.70618926  0.83241518  0.73015226  1
  O2-  O240  1  0.46940224  0.41228416  0.26139212  1
  O2-  O241  1  0.46847879  0.41203274  0.59766864  1
  O2-  O242  1  0.46246056  0.41166663  0.93377199  1
  O2-  O243  1  0.45435391  0.91797021  0.27160118  1
  O2-  O244  1  0.45151645  0.91839618  0.60203899  1
  O2-  O245  1  0.46082890  0.91235853  0.93253267  1
  O2-  O246  1  0.94202964  0.42001762  0.27658023  1
  O2-  O247  1  0.94472628  0.41686817  0.60034484  1
  O2-  O248  1  0.94509962  0.42452080  0.93633543  1
  O2-  O249  1  0.95839947  0.91541416  0.26475067  1
  O2-  O250  1  0.95445408  0.91506123  0.60707385  1
  O2-  O251  1  0.94902249  0.92387666  0.93421978  1
  O2-  O252  1  0.33416406  0.29430412  0.25976054  1
  O2-  O253  1  0.33459768  0.29257588  0.59551986  1
  O2-  O254  1  0.33511693  0.30085945  0.93564098  1
  O2-  O255  1  0.33162353  0.80030113  0.27474769  1
  O2-  O256  1  0.33379086  0.79814027  0.60350831  1
  O2-  O257  1  0.33236028  0.80382096  0.94271907  1
  O2-  O258  1  0.83260289  0.29182018  0.27306860  1
  O2-  O259  1  0.83016258  0.29402409  0.60379556  1
  O2-  O260  1  0.83296091  0.28860299  0.92991716  1
  O2-  O261  1  0.83602747  0.78882083  0.26427117  1
  O2-  O262  1  0.83618015  0.79467997  0.60399744  1
  O2-  O263  1  0.83156529  0.79191141  0.92788859  1
  O2-  O264  1  0.41847367  0.04251067  0.06111481  1
  O2-  O265  1  0.42133090  0.04824651  0.40341228  1
  O2-  O266  1  0.41863599  0.05241561  0.72662699  1
  O2-  O267  1  0.42100219  0.53594027  0.06825698  1
  O2-  O268  1  0.41585269  0.53161469  0.40059109  1
  O2-  O269  1  0.41672413  0.53184275  0.73348791  1
  O2-  O270  1  0.90998786  0.04713855  0.06520053  1
  O2-  O271  1  0.90881507  0.03762269  0.39450319  1
  O2-  O272  1  0.91313057  0.03748818  0.73998071  1
  O2-  O273  1  0.91115526  0.55004314  0.06350157  1
  O2-  O274  1  0.91741172  0.55300808  0.39634920  1
  O2-  O275  1  0.91497860  0.54438304  0.72846962  1
  O2-  O276  1  0.30715790  0.16868824  0.05574281  1
  O2-  O277  1  0.29467568  0.17445139  0.39620618  1
  O2-  O278  1  0.29664899  0.16949841  0.72681429  1
  O2-  O279  1  0.30276319  0.67077148  0.06929898  1
  O2-  O280  1  0.29682441  0.66609487  0.40377466  1
  O2-  O281  1  0.29852411  0.66725345  0.73322103  1
  O2-  O282  1  0.78463162  0.16233508  0.06443950  1
  O2-  O283  1  0.79269051  0.16002150  0.39829230  1
  O2-  O284  1  0.78963416  0.16701856  0.73836502  1
  O2-  O285  1  0.78729000  0.66489864  0.06063402  1
  O2-  O286  1  0.79259175  0.66662179  0.39746755  1
  O2-  O287  1  0.79184208  0.66301345  0.72862460  1
