# generated using pymatgen
data_Ca2Al2SiO7
_symmetry_space_group_name_H-M   'P 1'
_cell_length_a   15.47458485
_cell_length_b   15.46858569
_cell_length_c   15.29289313
_cell_angle_alpha   90.00185446
_cell_angle_beta   90.01756834
_cell_angle_gamma   90.03517876
_symmetry_Int_Tables_number   1
_chemical_formula_structural   Ca2Al2SiO7
_chemical_formula_sum   'Ca48 Al48 Si24 O168'
_cell_volume   3660.65807566
_cell_formula_units_Z   24
loop_
 _symmetry_equiv_pos_site_id
 _symmetry_equiv_pos_as_xyz
  1  'x, y, z'
loop_
 _atom_type_symbol
 _atom_type_oxidation_number
  Ca2+  2.0
  Al0+  0.0
  Si0+  0.0
  O2-  -2.0
loop_
 _atom_site_type_symbol
 _atom_site_label
 _atom_site_symmetry_multiplicity
 _atom_site_fract_x
 _atom_site_fract_y
 _atom_site_fract_z
 _atom_site_occupancy
  Ca2+  Ca0  1  0.17214778  0.08707495  0.16944029  1
  Ca2+  Ca1  1  0.17149302  0.08111797  0.50179079  1
  Ca2+  Ca2  1  0.17912797  0.08655922  0.84073957  1
  Ca2+  Ca3  1  0.17792915  0.57124999  0.17289405  1
  Ca2+  Ca4  1  0.18013662  0.58234529  0.50040681  1
  Ca2+  Ca5  1  0.18194343  0.57937510  0.84238511  1
  Ca2+  Ca6  1  0.65829825  0.07771422  0.17041343  1
  Ca2+  Ca7  1  0.65284275  0.07098832  0.50097399  1
  Ca2+  Ca8  1  0.66596327  0.07017700  0.84506859  1
  Ca2+  Ca9  1  0.65490449  0.57055540  0.16546409  1
  Ca2+  Ca10  1  0.65647152  0.57154202  0.50453851  1
  Ca2+  Ca11  1  0.65275366  0.57511214  0.83810859  1
  Ca2+  Ca12  1  0.08999912  0.32823050  0.15938234  1
  Ca2+  Ca13  1  0.08282278  0.32938456  0.48942003  1
  Ca2+  Ca14  1  0.09022348  0.32984547  0.83611586  1
  Ca2+  Ca15  1  0.08372592  0.83749269  0.16467985  1
  Ca2+  Ca16  1  0.08393553  0.83521789  0.49096683  1
  Ca2+  Ca17  1  0.07950150  0.83464174  0.83045681  1
  Ca2+  Ca18  1  0.58300794  0.32599226  0.15666690  1
  Ca2+  Ca19  1  0.58548923  0.32935849  0.49216919  1
  Ca2+  Ca20  1  0.58323651  0.33229169  0.83403826  1
  Ca2+  Ca21  1  0.58200696  0.82964693  0.16194593  1
  Ca2+  Ca22  1  0.57237445  0.83565898  0.49542014  1
  Ca2+  Ca23  1  0.58386104  0.82385707  0.82582275  1
  Ca2+  Ca24  1  0.33558259  0.42423062  0.16734504  1
  Ca2+  Ca25  1  0.33698646  0.43102786  0.50210194  1
  Ca2+  Ca26  1  0.33607691  0.42674927  0.84448356  1
  Ca2+  Ca27  1  0.33423078  0.92304061  0.17271245  1
  Ca2+  Ca28  1  0.33625546  0.91881720  0.50400294  1
  Ca2+  Ca29  1  0.34448747  0.92822557  0.83361070  1
  Ca2+  Ca30  1  0.82036510  0.41099207  0.16699135  1
  Ca2+  Ca31  1  0.82040787  0.41337287  0.50169716  1
  Ca2+  Ca32  1  0.82042460  0.41704466  0.83666726  1
  Ca2+  Ca33  1  0.81950102  0.92235658  0.16566001  1
  Ca2+  Ca34  1  0.81762603  0.91743173  0.50306192  1
  Ca2+  Ca35  1  0.82060153  0.91889751  0.84094515  1
  Ca2+  Ca36  1  0.42567919  0.17167791  0.15662208  1
  Ca2+  Ca37  1  0.42007999  0.16776824  0.49488794  1
  Ca2+  Ca38  1  0.41409572  0.17061632  0.83596392  1
  Ca2+  Ca39  1  0.41299287  0.67112195  0.16194717  1
  Ca2+  Ca40  1  0.41408149  0.67402084  0.49905061  1
  Ca2+  Ca41  1  0.42390646  0.66676011  0.82735795  1
  Ca2+  Ca42  1  0.92929735  0.15792342  0.16035544  1
  Ca2+  Ca43  1  0.92467246  0.16675850  0.49097578  1
  Ca2+  Ca44  1  0.92017017  0.16079252  0.83645046  1
  Ca2+  Ca45  1  0.91853667  0.66760047  0.16115004  1
  Ca2+  Ca46  1  0.91891078  0.66786046  0.49558814  1
  Ca2+  Ca47  1  0.92088276  0.66397074  0.83055200  1
  Al0+  Al48  1  -0.00196962  -0.00043675  -0.00381594  1
  Al0+  Al49  1  -0.00012995  0.00029412  0.33260563  1
  Al0+  Al50  1  0.00037665  -0.00041841  0.66379898  1
  Al0+  Al51  1  0.00014023  0.49948057  0.00024181  1
  Al0+  Al52  1  -0.00032214  0.50053981  0.33525704  1
  Al0+  Al53  1  -0.00180803  0.49728314  0.66357703  1
  Al0+  Al54  1  0.49869007  -0.00049949  0.00551468  1
  Al0+  Al55  1  0.49885961  -0.00053716  0.32935445  1
  Al0+  Al56  1  0.49972706  -0.00029458  0.67273346  1
  Al0+  Al57  1  0.49955595  0.50112486  0.00221139  1
  Al0+  Al58  1  0.50086606  0.50179929  0.34254095  1
  Al0+  Al59  1  0.49849955  0.49875619  0.67030260  1
  Al0+  Al60  1  0.25015327  0.24872649  -0.00193690  1
  Al0+  Al61  1  0.25043156  0.25140158  0.33278408  1
  Al0+  Al62  1  0.25013885  0.24877831  0.66666573  1
  Al0+  Al63  1  0.24878570  0.75057715  0.00020268  1
  Al0+  Al64  1  0.24892464  0.75200094  0.33541740  1
  Al0+  Al65  1  0.24900270  0.74962545  0.66807499  1
  Al0+  Al66  1  0.75456267  0.24885773  0.00175143  1
  Al0+  Al67  1  0.75230212  0.24964865  0.33340254  1
  Al0+  Al68  1  0.75191486  0.24971550  0.66912745  1
  Al0+  Al69  1  0.74995426  0.75042376  -0.00113882  1
  Al0+  Al70  1  0.74990621  0.75198445  0.33663318  1
  Al0+  Al71  1  0.75215582  0.74690730  0.66452179  1
  Al0+  Al72  1  0.68063615  0.42829960  0.34663092  1
  Al0+  Al73  1  0.17826804  0.93156673  0.34552886  1
  Al0+  Al74  1  0.07153836  0.17974420  0.31901701  1
  Al0+  Al75  1  0.17876398  0.42873308  0.01365453  1
  Al0+  Al76  1  0.31916802  0.57152413  0.68285856  1
  Al0+  Al77  1  0.67910392  0.42872322  0.68132018  1
  Al0+  Al78  1  0.42756361  0.81969929  0.31863784  1
  Al0+  Al79  1  0.42996902  0.82238057  0.65212560  1
  Al0+  Al80  1  0.56992430  0.68081283  0.98816150  1
  Al0+  Al81  1  0.32281084  0.57309091  0.01608073  1
  Al0+  Al82  1  0.67749926  0.92782071  0.01603396  1
  Al0+  Al83  1  0.57188945  0.67609042  0.64989807  1
  Al0+  Al84  1  0.82215445  0.07057741  0.01477006  1
  Al0+  Al85  1  0.32148042  0.57283931  0.35028163  1
  Al0+  Al86  1  0.07041661  0.17893558  0.98434008  1
  Al0+  Al87  1  0.32055937  0.07039124  0.01499226  1
  Al0+  Al88  1  0.17814305  0.42737615  0.34940117  1
  Al0+  Al89  1  0.67953193  0.92786375  0.68020122  1
  Al0+  Al90  1  0.67978322  0.42923346  0.01257460  1
  Al0+  Al91  1  0.57061869  0.18022732  0.32124010  1
  Al0+  Al92  1  0.32029607  0.07131732  0.68036060  1
  Al0+  Al93  1  0.43048640  0.32035741  0.98549631  1
  Al0+  Al94  1  0.67718642  0.93000007  0.34843705  1
  Al0+  Al95  1  0.57414472  0.17711250  0.98430482  1
  Si0+  Si96  1  0.42935522  0.32550008  0.31888494  1
  Si0+  Si97  1  0.07003582  0.67802091  0.65120523  1
  Si0+  Si98  1  0.32228657  0.07231604  0.34934026  1
  Si0+  Si99  1  0.92975667  0.82148961  0.64945456  1
  Si0+  Si100  1  0.92951332  0.81958993  0.98375103  1
  Si0+  Si101  1  0.92855832  0.32508806  0.98043950  1
  Si0+  Si102  1  0.42818424  0.32006782  0.65158902  1
  Si0+  Si103  1  0.57248534  0.18000727  0.65398237  1
  Si0+  Si104  1  0.17602805  0.92841338  0.01445998  1
  Si0+  Si105  1  0.82224987  0.07062626  0.35019845  1
  Si0+  Si106  1  0.82476998  0.57048367  0.68259045  1
  Si0+  Si107  1  0.92782956  0.31976947  0.64952530  1
  Si0+  Si108  1  0.82327653  0.57259800  0.01517905  1
  Si0+  Si109  1  0.17580368  0.92816596  0.68310624  1
  Si0+  Si110  1  0.57316474  0.67833944  0.31770255  1
  Si0+  Si111  1  0.92862008  0.32344513  0.31531082  1
  Si0+  Si112  1  0.07105714  0.67763419  0.98490983  1
  Si0+  Si113  1  0.42456324  0.82261094  0.98373042  1
  Si0+  Si114  1  0.07146573  0.17929918  0.65033624  1
  Si0+  Si115  1  0.82248044  0.57397389  0.34959015  1
  Si0+  Si116  1  0.17643876  0.42764997  0.68233935  1
  Si0+  Si117  1  0.82456650  0.07070152  0.68219135  1
  Si0+  Si118  1  0.92761384  0.82105139  0.31709042  1
  Si0+  Si119  1  0.06997459  0.67941080  0.31781418  1
  O2-  O120  1  0.24621424  -0.00586572  0.05921948  1
  O2-  O121  1  0.25192133  0.00548178  0.39409463  1
  O2-  O122  1  0.24644853  -0.00556370  0.72617949  1
  O2-  O123  1  0.25143767  0.49927840  0.06360236  1
  O2-  O124  1  0.25145118  0.49753959  0.39953093  1
  O2-  O125  1  0.24397988  0.49609778  0.72704366  1
  O2-  O126  1  0.74271828  0.00730197  0.06500154  1
  O2-  O127  1  0.74895246  0.00791256  0.39561355  1
  O2-  O128  1  0.75512244  0.00279390  0.72495491  1
  O2-  O129  1  0.75432940  0.50490052  0.05912303  1
  O2-  O130  1  0.75377725  0.50528182  0.39318722  1
  O2-  O131  1  0.75020875  0.50852200  0.72578155  1
  O2-  O132  1  0.00004788  0.25756180  0.27205986  1
  O2-  O133  1  0.00006904  0.24965552  0.60787981  1
  O2-  O134  1  -0.00285018  0.25530263  0.93705779  1
  O2-  O135  1  -0.00240652  0.74895186  0.27457001  1
  O2-  O136  1  0.00111089  0.75063916  0.60725727  1
  O2-  O137  1  0.00054870  0.74855627  0.94106928  1
  O2-  O138  1  0.49916389  0.25790491  0.27563594  1
  O2-  O139  1  0.50160372  0.25076737  0.61023491  1
  O2-  O140  1  0.50353706  0.24988526  0.93302737  1
  O2-  O141  1  0.50234139  0.74440833  0.27358391  1
  O2-  O142  1  0.50244778  0.75114827  0.60062143  1
  O2-  O143  1  0.49476109  0.75489114  0.94121599  1
  O2-  O144  1  0.06843458  0.17721802  0.09715494  1
  O2-  O145  1  0.06743765  0.17847380  0.43295614  1
  O2-  O146  1  0.07077666  0.17894375  0.75497192  1
  O2-  O147  1  0.06861847  0.67854975  0.08983071  1
  O2-  O148  1  0.06728294  0.68118581  0.42337565  1
  O2-  O149  1  0.06666014  0.67842519  0.75640285  1
  O2-  O150  1  0.57133350  0.17952286  0.09807515  1
  O2-  O151  1  0.56738078  0.17989709  0.43546953  1
  O2-  O152  1  0.57398579  0.18156031  0.75839052  1
  O2-  O153  1  0.57130793  0.68166256  0.10135402  1
  O2-  O154  1  0.57448997  0.67946594  0.42317908  1
  O2-  O155  1  0.57001514  0.67692038  0.76348371  1
  O2-  O156  1  0.17648190  0.42961997  0.23654101  1
  O2-  O157  1  0.17615251  0.42827244  0.57687660  1
  O2-  O158  1  0.17759012  0.43354487  0.89952134  1
  O2-  O159  1  0.17720637  0.93220595  0.23275595  1
  O2-  O160  1  0.17108864  0.93084538  0.57767804  1
  O2-  O161  1  0.17374636  0.92857206  0.90865356  1
  O2-  O162  1  0.68112028  0.42862266  0.23392212  1
  O2-  O163  1  0.68287993  0.42591531  0.56805194  1
  O2-  O164  1  0.68163261  0.43149013  0.89948063  1
  O2-  O165  1  0.68030790  0.92755447  0.23620395  1
  O2-  O166  1  0.67951865  0.93126457  0.56679758  1
  O2-  O167  1  0.68247137  0.92422635  0.90227207  1
  O2-  O168  1  0.43202818  0.32027541  0.09933729  1
  O2-  O169  1  0.43034799  0.32406333  0.42527703  1
  O2-  O170  1  0.42586587  0.31939170  0.75605042  1
  O2-  O171  1  0.42140458  0.82045063  0.08936152  1
  O2-  O172  1  0.42832522  0.82172386  0.43169905  1
  O2-  O173  1  0.43163846  0.82326276  0.76541691  1
  O2-  O174  1  0.92938162  0.32972192  0.08556878  1
  O2-  O175  1  0.92789252  0.32095683  0.42159932  1
  O2-  O176  1  0.92678098  0.32114337  0.75391238  1
  O2-  O177  1  0.93060613  0.81843118  0.08887570  1
  O2-  O178  1  0.92871496  0.81958918  0.42252896  1
  O2-  O179  1  0.93182163  0.82247611  0.75455952  1
  O2-  O180  1  0.32154952  0.07121330  0.24414527  1
  O2-  O181  1  0.31717227  0.07413937  0.56718755  1
  O2-  O182  1  0.31884331  0.06925746  0.90151419  1
  O2-  O183  1  0.31967491  0.57304766  0.23727228  1
  O2-  O184  1  0.31681849  0.57176893  0.56993405  1
  O2-  O185  1  0.32003339  0.57423452  0.90227810  1
  O2-  O186  1  0.82531865  0.06678864  0.24534702  1
  O2-  O187  1  0.82839182  0.06944047  0.57655678  1
  O2-  O188  1  0.82521830  0.06310708  0.90089645  1
  O2-  O189  1  0.82484768  0.57562051  0.24426518  1
  O2-  O190  1  0.83189069  0.56668260  0.57736506  1
  O2-  O191  1  0.82673409  0.57171260  0.90961234  1
  O2-  O192  1  0.03700037  0.08377136  0.26571854  1
  O2-  O193  1  0.04367263  0.08699233  0.60278160  1
  O2-  O194  1  0.03663760  0.08307128  0.92879254  1
  O2-  O195  1  0.04202228  0.58750128  0.27080478  1
  O2-  O196  1  0.03950099  0.58695038  0.60325923  1
  O2-  O197  1  0.04149001  0.58736463  0.93529170  1
  O2-  O198  1  0.53812665  0.08521692  0.26651243  1
  O2-  O199  1  0.54194286  0.08826134  0.60824904  1
  O2-  O200  1  0.54354774  0.07728769  0.93525066  1
  O2-  O201  1  0.54918273  0.58252909  0.27566339  1
  O2-  O202  1  0.53935696  0.57745274  0.59905502  1
  O2-  O203  1  0.53912626  0.58450724  0.93433032  1
  O2-  O204  1  0.16998262  0.20574458  0.26679928  1
  O2-  O205  1  0.16273805  0.20723874  0.60214513  1
  O2-  O206  1  0.16594913  0.20926160  0.92840719  1
  O2-  O207  1  0.16009545  0.71000420  0.27074794  1
  O2-  O208  1  0.16151004  0.70502869  0.60385144  1
  O2-  O209  1  0.16175591  0.70667906  0.93590026  1
  O2-  O210  1  0.66987316  0.20575587  0.27043996  1
  O2-  O211  1  0.66503875  0.20628530  0.60633050  1
  O2-  O212  1  0.67531348  0.20148948  0.93485976  1
  O2-  O213  1  0.66686112  0.70579686  0.27270997  1
  O2-  O214  1  0.67468004  0.69539787  0.60088377  1
  O2-  O215  1  0.66778099  0.70862855  0.93340200  1
  O2-  O216  1  0.08041497  0.45826937  0.06615955  1
  O2-  O217  1  0.07923771  0.45742655  0.40223780  1
  O2-  O218  1  0.08145284  0.45152244  0.72621617  1
  O2-  O219  1  0.08263471  0.95440935  0.05968819  1
  O2-  O220  1  0.08138822  0.96075343  0.40136462  1
  O2-  O221  1  0.08260104  0.95594031  0.72992871  1
  O2-  O222  1  0.58493463  0.46094687  0.06776277  1
  O2-  O223  1  0.58525448  0.45662253  0.40408564  1
  O2-  O224  1  0.58179572  0.45486711  0.73440913  1
  O2-  O225  1  0.57810974  0.94874189  0.06827832  1
  O2-  O226  1  0.58032172  0.96221088  0.40111866  1
  O2-  O227  1  0.58495525  0.95880048  0.73569065  1
  O2-  O228  1  0.20366319  0.32918402  0.06298749  1
  O2-  O229  1  0.20306763  0.32765864  0.40179624  1
  O2-  O230  1  0.20196785  0.33350227  0.72637581  1
  O2-  O231  1  0.19696472  0.83354797  0.05963488  1
  O2-  O232  1  0.20539347  0.83498780  0.40090839  1
  O2-  O233  1  0.19537164  0.83304009  0.72762280  1
  O2-  O234  1  0.71265901  0.33352094  0.06626410  1
  O2-  O235  1  0.71463759  0.33266768  0.40218994  1
  O2-  O236  1  0.71563727  0.33381711  0.73508392  1
  O2-  O237  1  0.71599802  0.83236423  0.06908665  1
  O2-  O238  1  0.71282483  0.83536365  0.40362637  1
  O2-  O239  1  0.71312919  0.83030247  0.73057528  1
  O2-  O240  1  0.45435406  0.42033112  0.27593225  1
  O2-  O241  1  0.45556002  0.41178774  0.60449494  1
  O2-  O242  1  0.45811250  0.41957202  0.93378980  1
  O2-  O243  1  0.45856621  0.91564778  0.26417345  1
  O2-  O244  1  0.45813762  0.92225359  0.60004489  1
  O2-  O245  1  0.44985245  0.91707966  0.94080971  1
  O2-  O246  1  0.94914268  0.41923162  0.27193788  1
  O2-  O247  1  0.95440216  0.41136780  0.60004662  1
  O2-  O248  1  0.95495042  0.41813085  0.93185265  1
  O2-  O249  1  0.95837327  0.91136505  0.26971205  1
  O2-  O250  1  0.95773979  0.91294112  0.60070961  1
  O2-  O251  1  0.95910322  0.90902653  0.93311561  1
  O2-  O252  1  0.33566111  0.30060311  0.27385607  1
  O2-  O253  1  0.33727117  0.29017288  0.60261941  1
  O2-  O254  1  0.33291508  0.29054174  0.93115085  1
  O2-  O255  1  0.32982252  0.79125071  0.26549190  1
  O2-  O256  1  0.32861952  0.79559475  0.60237788  1
  O2-  O257  1  0.33062647  0.79891943  0.93631354  1
  O2-  O258  1  0.83624682  0.29535665  0.26876002  1
  O2-  O259  1  0.83716472  0.28967609  0.60011906  1
  O2-  O260  1  0.83596680  0.29808385  0.93318926  1
  O2-  O261  1  0.83607529  0.79302842  0.26957280  1
  O2-  O262  1  0.83929847  0.79267184  0.60027433  1
  O2-  O263  1  0.83935646  0.79041678  0.93430609  1
  O2-  O264  1  0.41573774  0.04167584  0.07140681  1
  O2-  O265  1  0.41420924  0.04312865  0.39617303  1
  O2-  O266  1  0.41578379  0.04258230  0.73649966  1
  O2-  O267  1  0.41972792  0.54538890  0.07039840  1
  O2-  O268  1  0.41921934  0.54698393  0.40603938  1
  O2-  O269  1  0.41480498  0.53887881  0.73562694  1
  O2-  O270  1  0.91724099  0.03151312  0.06850479  1
  O2-  O271  1  0.91306562  0.03869835  0.39882008  1
  O2-  O272  1  0.91802599  0.04364480  0.72842630  1
  O2-  O273  1  0.91636444  0.54748950  0.06263044  1
  O2-  O274  1  0.91571796  0.54901901  0.39726753  1
  O2-  O275  1  0.91570769  0.53836563  0.73191013  1
  O2-  O276  1  0.28772009  0.16580861  0.06801495  1
  O2-  O277  1  0.29913248  0.16665902  0.39479875  1
  O2-  O278  1  0.28606854  0.16665601  0.73501566  1
  O2-  O279  1  0.29012991  0.67106503  0.06736805  1
  O2-  O280  1  0.28585174  0.66887011  0.40339162  1
  O2-  O281  1  0.28660806  0.66765896  0.73660157  1
  O2-  O282  1  0.81063713  0.17274525  0.06420614  1
  O2-  O283  1  0.80426409  0.16648494  0.39440217  1
  O2-  O284  1  0.80172071  0.16482752  0.72721321  1
  O2-  O285  1  0.80021130  0.66664242  0.06049167  1
  O2-  O286  1  0.79888449  0.66741819  0.39726239  1
  O2-  O287  1  0.80930726  0.66704927  0.72570844  1
