# generated using pymatgen
data_Ca2Al2SiO7
_symmetry_space_group_name_H-M   'P 1'
_cell_length_a   15.46213241
_cell_length_b   15.46173256
_cell_length_c   15.28634938
_cell_angle_alpha   89.99359038
_cell_angle_beta   90.01115698
_cell_angle_gamma   89.99935266
_symmetry_Int_Tables_number   1
_chemical_formula_structural   Ca2Al2SiO7
_chemical_formula_sum   'Ca48 Al48 Si24 O168'
_cell_volume   3654.52818345
_cell_formula_units_Z   24
loop_
 _symmetry_equiv_pos_site_id
 _symmetry_equiv_pos_as_xyz
  1  'x, y, z'
loop_
 _atom_type_symbol
 _atom_type_oxidation_number
  Ca2+  2.0
  Al0+  0.0
  Si0+  0.0
  O2-  -2.0
loop_
 _atom_site_type_symbol
 _atom_site_label
 _atom_site_symmetry_multiplicity
 _atom_site_fract_x
 _atom_site_fract_y
 _atom_site_fract_z
 _atom_site_occupancy
  Ca2+  Ca0  1  0.17129892  0.08516989  0.16884008  1
  Ca2+  Ca1  1  0.16208778  0.07391943  0.50739063  1
  Ca2+  Ca2  1  0.16771271  0.08670190  0.83585414  1
  Ca2+  Ca3  1  0.17431115  0.58035620  0.17604724  1
  Ca2+  Ca4  1  0.18097867  0.58346827  0.50493853  1
  Ca2+  Ca5  1  0.17459252  0.58317984  0.83403082  1
  Ca2+  Ca6  1  0.67021828  0.08380721  0.17752647  1
  Ca2+  Ca7  1  0.67519719  0.09001724  0.50328054  1
  Ca2+  Ca8  1  0.67022129  0.09269688  0.83577781  1
  Ca2+  Ca9  1  0.66669613  0.57100982  0.17318912  1
  Ca2+  Ca10  1  0.66363252  0.57186745  0.50435722  1
  Ca2+  Ca11  1  0.65729732  0.57228391  0.83648820  1
  Ca2+  Ca12  1  0.07231541  0.32836415  0.15562624  1
  Ca2+  Ca13  1  0.08468014  0.32408015  0.49710065  1
  Ca2+  Ca14  1  0.07803828  0.32259727  0.82971942  1
  Ca2+  Ca15  1  0.07968120  0.83708364  0.17096758  1
  Ca2+  Ca16  1  0.07401582  0.84225582  0.49542685  1
  Ca2+  Ca17  1  0.07796834  0.83738590  0.82366257  1
  Ca2+  Ca18  1  0.58764547  0.32740017  0.16666949  1
  Ca2+  Ca19  1  0.58219270  0.33010140  0.49796370  1
  Ca2+  Ca20  1  0.58436278  0.32639141  0.82615758  1
  Ca2+  Ca21  1  0.59018593  0.82631142  0.16176363  1
  Ca2+  Ca22  1  0.59126308  0.82553826  0.49526069  1
  Ca2+  Ca23  1  0.58479360  0.81830019  0.82748241  1
  Ca2+  Ca24  1  0.33736719  0.42165717  0.17469503  1
  Ca2+  Ca25  1  0.34765963  0.42316320  0.50338604  1
  Ca2+  Ca26  1  0.34071128  0.41698070  0.83005082  1
  Ca2+  Ca27  1  0.32878408  0.92603106  0.17188711  1
  Ca2+  Ca28  1  0.31905437  0.91409966  0.50546713  1
  Ca2+  Ca29  1  0.32722178  0.92487736  0.83820989  1
  Ca2+  Ca30  1  0.82315083  0.41637514  0.17346986  1
  Ca2+  Ca31  1  0.81886415  0.41602059  0.50368920  1
  Ca2+  Ca32  1  0.82049869  0.41024755  0.83912176  1
  Ca2+  Ca33  1  0.82691167  0.92385341  0.17938722  1
  Ca2+  Ca34  1  0.83308239  0.92276036  0.50064978  1
  Ca2+  Ca35  1  0.83614242  0.92149621  0.82937148  1
  Ca2+  Ca36  1  0.42770730  0.16794907  0.16130865  1
  Ca2+  Ca37  1  0.42699070  0.17937965  0.49095379  1
  Ca2+  Ca38  1  0.42695229  0.16908431  0.82514300  1
  Ca2+  Ca39  1  0.42158490  0.66783120  0.16402906  1
  Ca2+  Ca40  1  0.41857886  0.66068459  0.49934677  1
  Ca2+  Ca41  1  0.42641989  0.66122847  0.82681150  1
  Ca2+  Ca42  1  0.91855281  0.17014937  0.16098685  1
  Ca2+  Ca43  1  0.91872048  0.15451326  0.49949907  1
  Ca2+  Ca44  1  0.92281606  0.16766067  0.82861250  1
  Ca2+  Ca45  1  0.90523795  0.67314435  0.16838684  1
  Ca2+  Ca46  1  0.91081629  0.67876922  0.49241494  1
  Ca2+  Ca47  1  0.91819623  0.67540735  0.82461008  1
  Al0+  Al48  1  -0.00029606  -0.00092548  -0.00166323  1
  Al0+  Al49  1  -0.00018680  -0.00174683  0.33203627  1
  Al0+  Al50  1  -0.00139757  -0.00016652  0.66875991  1
  Al0+  Al51  1  -0.00068391  0.50334754  -0.00449130  1
  Al0+  Al52  1  0.00260877  0.50039324  0.33677309  1
  Al0+  Al53  1  0.00095038  0.50058133  0.66648893  1
  Al0+  Al54  1  0.49831032  -0.00061016  0.00006602  1
  Al0+  Al55  1  0.49925205  -0.00154025  0.33432720  1
  Al0+  Al56  1  0.50012908  -0.00278356  0.66316705  1
  Al0+  Al57  1  0.50090046  0.50008694  0.00262919  1
  Al0+  Al58  1  0.49975289  0.50035937  0.33537940  1
  Al0+  Al59  1  0.50089101  0.50057472  0.66875914  1
  Al0+  Al60  1  0.24951804  0.25061121  0.00203203  1
  Al0+  Al61  1  0.25134388  0.25094221  0.32793468  1
  Al0+  Al62  1  0.24890126  0.25078443  0.65802252  1
  Al0+  Al63  1  0.24827950  0.75125780  0.00144194  1
  Al0+  Al64  1  0.24980922  0.74962205  0.33926830  1
  Al0+  Al65  1  0.24981393  0.74880910  0.67805628  1
  Al0+  Al66  1  0.74914883  0.25082243  -0.00098247  1
  Al0+  Al67  1  0.75211701  0.25017523  0.33806762  1
  Al0+  Al68  1  0.75129182  0.25008681  0.67311287  1
  Al0+  Al69  1  0.74976235  0.74951031  -0.00703774  1
  Al0+  Al70  1  0.75088697  0.75130570  0.33208159  1
  Al0+  Al71  1  0.75042788  0.75026186  0.65866144  1
  Al0+  Al72  1  0.57445612  0.17623825  0.65130568  1
  Al0+  Al73  1  0.56895612  0.67929177  0.98706069  1
  Al0+  Al74  1  0.82348596  0.57214287  0.34751232  1
  Al0+  Al75  1  0.32016979  0.56828289  0.68315378  1
  Al0+  Al76  1  0.57002750  0.17747901  0.98672393  1
  Al0+  Al77  1  0.18120986  0.93184538  0.34623796  1
  Al0+  Al78  1  0.32002515  0.56957700  0.34639091  1
  Al0+  Al79  1  0.68084936  0.43106790  0.68302443  1
  Al0+  Al80  1  0.81857833  0.06886077  0.68305024  1
  Al0+  Al81  1  0.67972411  0.42891196  0.01530714  1
  Al0+  Al82  1  0.67970244  0.42940354  0.34998379  1
  Al0+  Al83  1  0.67555075  0.92794957  0.34698116  1
  Al0+  Al84  1  0.82063150  0.07120654  0.34697447  1
  Al0+  Al85  1  0.93129201  0.81991738  0.65133681  1
  Al0+  Al86  1  0.57314638  0.17812402  0.31808413  1
  Al0+  Al87  1  0.06896504  0.18004894  0.65173688  1
  Al0+  Al88  1  0.43004460  0.32013337  0.65241450  1
  Al0+  Al89  1  0.17888701  0.93104554  0.68206147  1
  Al0+  Al90  1  0.07155730  0.17844310  0.98534009  1
  Al0+  Al91  1  0.32148247  0.07232469  0.01329554  1
  Al0+  Al92  1  0.92743218  0.32302084  0.98520651  1
  Al0+  Al93  1  0.43035767  0.32270107  0.31501491  1
  Al0+  Al94  1  0.92948533  0.81987965  0.31718465  1
  Al0+  Al95  1  0.56904936  0.67991539  0.65108780  1
  Si0+  Si96  1  0.57017886  0.68087621  0.31788648  1
  Si0+  Si97  1  0.07047092  0.17774884  0.31779705  1
  Si0+  Si98  1  0.93081756  0.32349095  0.32024456  1
  Si0+  Si99  1  0.32019542  0.57099561  0.01579642  1
  Si0+  Si100  1  0.92952121  0.81998488  0.98420330  1
  Si0+  Si101  1  0.17664450  0.43069998  0.01407514  1
  Si0+  Si102  1  0.32284561  0.07462626  0.35070888  1
  Si0+  Si103  1  0.07452371  0.67677783  0.65011876  1
  Si0+  Si104  1  0.07402766  0.67945793  0.98439142  1
  Si0+  Si105  1  0.42493470  0.82100340  0.65081519  1
  Si0+  Si106  1  0.32243143  0.07355777  0.68040926  1
  Si0+  Si107  1  0.17528340  0.42528141  0.68442675  1
  Si0+  Si108  1  0.82312158  0.57440856  0.68316314  1
  Si0+  Si109  1  0.42463144  0.82047401  0.31942109  1
  Si0+  Si110  1  0.67643599  0.92451507  0.68416984  1
  Si0+  Si111  1  0.82322739  0.57468261  0.01450193  1
  Si0+  Si112  1  0.17635154  0.92782530  0.01870658  1
  Si0+  Si113  1  0.67984134  0.92656856  0.01153420  1
  Si0+  Si114  1  0.17758887  0.42531241  0.34943580  1
  Si0+  Si115  1  0.42751510  0.32273026  0.98457332  1
  Si0+  Si116  1  0.07387544  0.67816201  0.31755208  1
  Si0+  Si117  1  0.92749487  0.32363638  0.64941061  1
  Si0+  Si118  1  0.42514080  0.82187952  0.98380900  1
  Si0+  Si119  1  0.82045068  0.06951537  0.01421367  1
  O2-  O120  1  0.24474530  -0.00192996  0.05988162  1
  O2-  O121  1  0.25384089  0.00679588  0.39530891  1
  O2-  O122  1  0.25491484  0.00478172  0.72739411  1
  O2-  O123  1  0.24903524  0.50009816  0.05770328  1
  O2-  O124  1  0.24832152  0.49191913  0.39276555  1
  O2-  O125  1  0.24481992  0.49336221  0.72901459  1
  O2-  O126  1  0.74680312  0.00058293  0.05506170  1
  O2-  O127  1  0.74360047  0.00386583  0.39587599  1
  O2-  O128  1  0.73934391  -0.00211652  0.72992980  1
  O2-  O129  1  0.75781349  0.50303861  0.05798764  1
  O2-  O130  1  0.75230571  0.50154019  0.39945490  1
  O2-  O131  1  0.75762606  0.50478015  0.72985979  1
  O2-  O132  1  0.00152665  0.25172012  0.27755496  1
  O2-  O133  1  -0.00365013  0.25604222  0.60364899  1
  O2-  O134  1  -0.00100905  0.24998015  0.93588914  1
  O2-  O135  1  0.00138028  0.74147361  0.27052747  1
  O2-  O136  1  0.00461894  0.74300117  0.60548317  1
  O2-  O137  1  0.00238634  0.75014849  0.94315996  1
  O2-  O138  1  0.50076127  0.24899651  0.26581369  1
  O2-  O139  1  0.49942487  0.24570364  0.60305984  1
  O2-  O140  1  0.49410866  0.25194489  0.94156880  1
  O2-  O141  1  0.50101738  0.75493385  0.27644372  1
  O2-  O142  1  0.49622346  0.75661314  0.60453576  1
  O2-  O143  1  0.49343019  0.75311808  0.93980228  1
  O2-  O144  1  0.06929771  0.17913526  0.09947984  1
  O2-  O145  1  0.07026416  0.17702472  0.42294540  1
  O2-  O146  1  0.06890319  0.18114816  0.76473555  1
  O2-  O147  1  0.07844254  0.67890890  0.08907694  1
  O2-  O148  1  0.07673641  0.68108803  0.42255838  1
  O2-  O149  1  0.07295531  0.67759803  0.75646180  1
  O2-  O150  1  0.57136842  0.17598482  0.09937850  1
  O2-  O151  1  0.57195171  0.17965319  0.43112728  1
  O2-  O152  1  0.57205580  0.17886445  0.76551986  1
  O2-  O153  1  0.56857528  0.68132861  0.10037752  1
  O2-  O154  1  0.56855822  0.68031268  0.42278069  1
  O2-  O155  1  0.56729008  0.68016300  0.76468506  1
  O2-  O156  1  0.17517451  0.42815501  0.24342029  1
  O2-  O157  1  0.17165625  0.42725369  0.57914466  1
  O2-  O158  1  0.17665164  0.43290628  0.90926212  1
  O2-  O159  1  0.18284911  0.93253721  0.23273215  1
  O2-  O160  1  0.17937279  0.93111200  0.56900389  1
  O2-  O161  1  0.17636443  0.92451415  0.91341412  1
  O2-  O162  1  0.68057244  0.43035688  0.23597726  1
  O2-  O163  1  0.68085933  0.43231104  0.57036661  1
  O2-  O164  1  0.67764468  0.43115893  0.90239897  1
  O2-  O165  1  0.67984130  0.92557693  0.23225273  1
  O2-  O166  1  0.67994744  0.92102651  0.57926565  1
  O2-  O167  1  0.68355394  0.92305848  0.90675989  1
  O2-  O168  1  0.42805046  0.32431881  0.08988513  1
  O2-  O169  1  0.42999592  0.32261663  0.42800719  1
  O2-  O170  1  0.43024728  0.31854311  0.76669948  1
  O2-  O171  1  0.42337007  0.81973404  0.08961278  1
  O2-  O172  1  0.42010156  0.81616075  0.42405119  1
  O2-  O173  1  0.42547918  0.81975087  0.75670576  1
  O2-  O174  1  0.92968328  0.32187503  0.09954920  1
  O2-  O175  1  0.93382343  0.32533528  0.42506941  1
  O2-  O176  1  0.92996039  0.32280339  0.75507434  1
  O2-  O177  1  0.92832502  0.81997809  0.08893735  1
  O2-  O178  1  0.93293581  0.82187891  0.42955804  1
  O2-  O179  1  0.93306042  0.81838352  0.76554352  1
  O2-  O180  1  0.32054413  0.07284902  0.24465927  1
  O2-  O181  1  0.31979255  0.07105808  0.57504010  1
  O2-  O182  1  0.32145708  0.06932977  0.90020249  1
  O2-  O183  1  0.31768788  0.57132465  0.23246151  1
  O2-  O184  1  0.31872397  0.56918526  0.57026134  1
  O2-  O185  1  0.31923720  0.57126749  0.91100510  1
  O2-  O186  1  0.82321233  0.06977342  0.23244842  1
  O2-  O187  1  0.82109804  0.06610224  0.57054323  1
  O2-  O188  1  0.82247431  0.06680054  0.90930689  1
  O2-  O189  1  0.82015402  0.56990784  0.23307483  1
  O2-  O190  1  0.82207691  0.57361183  0.57797599  1
  O2-  O191  1  0.82308441  0.57850105  0.90915024  1
  O2-  O192  1  0.04051249  0.08785660  0.26877975  1
  O2-  O193  1  0.03491250  0.08407390  0.59942670  1
  O2-  O194  1  0.04423070  0.07902747  0.93370192  1
  O2-  O195  1  0.05486488  0.58197502  0.27294164  1
  O2-  O196  1  0.05423453  0.58155824  0.60518437  1
  O2-  O197  1  0.04781441  0.58886362  0.93410990  1
  O2-  O198  1  0.54587202  0.07717168  0.26733400  1
  O2-  O199  1  0.55373022  0.07444089  0.60216667  1
  O2-  O200  1  0.54166045  0.07968457  0.93303961  1
  O2-  O201  1  0.53842028  0.59052169  0.27040804  1
  O2-  O202  1  0.53431590  0.58505884  0.59820333  1
  O2-  O203  1  0.53550400  0.58349061  0.93347475  1
  O2-  O204  1  0.16298351  0.20332845  0.27037585  1
  O2-  O205  1  0.16458940  0.20787036  0.59439682  1
  O2-  O206  1  0.17001863  0.20813622  0.93335138  1
  O2-  O207  1  0.16534382  0.71006084  0.26909236  1
  O2-  O208  1  0.16896475  0.70441725  0.60806440  1
  O2-  O209  1  0.16502650  0.70828568  0.93497943  1
  O2-  O210  1  0.67331173  0.20734528  0.26758928  1
  O2-  O211  1  0.67298462  0.20891548  0.60253266  1
  O2-  O212  1  0.66623340  0.20910344  0.93357712  1
  O2-  O213  1  0.66179304  0.70733510  0.26949325  1
  O2-  O214  1  0.66550879  0.70810944  0.59638945  1
  O2-  O215  1  0.66429094  0.71052230  0.93043056  1
  O2-  O216  1  0.08542246  0.46153202  0.06193281  1
  O2-  O217  1  0.08586390  0.45103613  0.39855563  1
  O2-  O218  1  0.08242185  0.45253383  0.73262265  1
  O2-  O219  1  0.08213443  0.95273437  0.06425453  1
  O2-  O220  1  0.08478048  0.96261228  0.39883044  1
  O2-  O221  1  0.08389746  0.96360915  0.73706108  1
  O2-  O222  1  0.58423834  0.46330974  0.07002709  1
  O2-  O223  1  0.58230190  0.46091963  0.40149404  1
  O2-  O224  1  0.58562571  0.46511222  0.73716609  1
  O2-  O225  1  0.58543567  0.94699109  0.05645255  1
  O2-  O226  1  0.57410675  0.94391952  0.39841774  1
  O2-  O227  1  0.57926872  0.94104005  0.72739905  1
  O2-  O228  1  0.20070834  0.33842427  0.06194291  1
  O2-  O229  1  0.20084432  0.33040397  0.39346916  1
  O2-  O230  1  0.20182468  0.33119760  0.72881617  1
  O2-  O231  1  0.20298386  0.83438976  0.06586137  1
  O2-  O232  1  0.21164689  0.83610512  0.40124427  1
  O2-  O233  1  0.20720180  0.83480707  0.73875465  1
  O2-  O234  1  0.71090658  0.33226450  0.06932682  1
  O2-  O235  1  0.71008420  0.33261486  0.40339239  1
  O2-  O236  1  0.71171034  0.33512688  0.73834443  1
  O2-  O237  1  0.71206058  0.83594102  0.05978025  1
  O2-  O238  1  0.70924203  0.83152246  0.39964922  1
  O2-  O239  1  0.70950559  0.83242817  0.73088533  1
  O2-  O240  1  0.45881472  0.42222889  0.26345299  1
  O2-  O241  1  0.46225976  0.41791588  0.60172738  1
  O2-  O242  1  0.45448295  0.41631594  0.93924167  1
  O2-  O243  1  0.44546080  0.91432701  0.27290286  1
  O2-  O244  1  0.44327623  0.91579895  0.60472979  1
  O2-  O245  1  0.45010032  0.91488381  0.93744459  1
  O2-  O246  1  0.95928260  0.41482224  0.27108150  1
  O2-  O247  1  0.95101866  0.41851235  0.60459140  1
  O2-  O248  1  0.95441757  0.42211793  0.93244258  1
  O2-  O249  1  0.96525990  0.91451771  0.26103795  1
  O2-  O250  1  0.96534043  0.91532993  0.59918504  1
  O2-  O251  1  0.95724889  0.91147990  0.93632620  1
  O2-  O252  1  0.32974134  0.29790261  0.26232772  1
  O2-  O253  1  0.33036977  0.29989888  0.59813040  1
  O2-  O254  1  0.33226170  0.30136376  0.94029275  1
  O2-  O255  1  0.33598466  0.78615734  0.26884863  1
  O2-  O256  1  0.33167447  0.78956504  0.60730305  1
  O2-  O257  1  0.33101987  0.79668707  0.93784130  1
  O2-  O258  1  0.83922765  0.29540593  0.27347982  1
  O2-  O259  1  0.83413837  0.29632181  0.60610192  1
  O2-  O260  1  0.83056566  0.29262045  0.93218975  1
  O2-  O261  1  0.83281513  0.79052198  0.26087637  1
  O2-  O262  1  0.83521884  0.79169811  0.59631156  1
  O2-  O263  1  0.83969921  0.79111045  0.93361426  1
  O2-  O264  1  0.41637276  0.03767895  0.06985667  1
  O2-  O265  1  0.41593397  0.04901377  0.39579548  1
  O2-  O266  1  0.41678948  0.04771015  0.72602462  1
  O2-  O267  1  0.41139043  0.54367635  0.06401737  1
  O2-  O268  1  0.41639251  0.54211019  0.40085417  1
  O2-  O269  1  0.41547519  0.53620194  0.73838784  1
  O2-  O270  1  0.91198277  0.03926422  0.06155709  1
  O2-  O271  1  0.91724744  0.03623633  0.39911948  1
  O2-  O272  1  0.91311943  0.03279954  0.73842758  1
  O2-  O273  1  0.91920887  0.55572018  0.05927489  1
  O2-  O274  1  0.92391675  0.54982926  0.39901577  1
  O2-  O275  1  0.91941041  0.55350338  0.72743315  1
  O2-  O276  1  0.29152800  0.16858483  0.06915789  1
  O2-  O277  1  0.29710801  0.16918980  0.39381544  1
  O2-  O278  1  0.29476664  0.16737188  0.72458055  1
  O2-  O279  1  0.29175529  0.66358611  0.06224133  1
  O2-  O280  1  0.28645956  0.66349535  0.40302142  1
  O2-  O281  1  0.28921867  0.66291421  0.74180105  1
  O2-  O282  1  0.79519761  0.16213959  0.06010758  1
  O2-  O283  1  0.80091278  0.17009014  0.40163427  1
  O2-  O284  1  0.79363563  0.16623066  0.73871297  1
  O2-  O285  1  0.79287536  0.66753887  0.06073152  1
  O2-  O286  1  0.79585882  0.67122878  0.39710446  1
  O2-  O287  1  0.79601702  0.66855825  0.72771349  1
