# generated using pymatgen
data_Ca2Al2SiO7
_symmetry_space_group_name_H-M   'P 1'
_cell_length_a   15.45739016
_cell_length_b   15.45687544
_cell_length_c   15.28219649
_cell_angle_alpha   90.00545810
_cell_angle_beta   89.99167191
_cell_angle_gamma   90.00956603
_symmetry_Int_Tables_number   1
_chemical_formula_structural   Ca2Al2SiO7
_chemical_formula_sum   'Ca48 Al48 Si24 O168'
_cell_volume   3651.26742807
_cell_formula_units_Z   24
loop_
 _symmetry_equiv_pos_site_id
 _symmetry_equiv_pos_as_xyz
  1  'x, y, z'
loop_
 _atom_type_symbol
 _atom_type_oxidation_number
  Ca2+  2.0
  Al0+  0.0
  Si0+  0.0
  O2-  -2.0
loop_
 _atom_site_type_symbol
 _atom_site_label
 _atom_site_symmetry_multiplicity
 _atom_site_fract_x
 _atom_site_fract_y
 _atom_site_fract_z
 _atom_site_occupancy
  Ca2+  Ca0  1  0.16453775  0.07478264  0.17624615  1
  Ca2+  Ca1  1  0.17260766  0.08468247  0.49855568  1
  Ca2+  Ca2  1  0.17502923  0.07898198  0.83785301  1
  Ca2+  Ca3  1  0.17298015  0.58283745  0.17732075  1
  Ca2+  Ca4  1  0.16835265  0.58793603  0.49959437  1
  Ca2+  Ca5  1  0.16700273  0.58671707  0.83342589  1
  Ca2+  Ca6  1  0.67011491  0.07008694  0.17441545  1
  Ca2+  Ca7  1  0.67729714  0.08615456  0.50087431  1
  Ca2+  Ca8  1  0.67134437  0.07728225  0.83641457  1
  Ca2+  Ca9  1  0.67904356  0.58097784  0.17202850  1
  Ca2+  Ca10  1  0.66892359  0.58012739  0.49832087  1
  Ca2+  Ca11  1  0.66922128  0.57260808  0.84110293  1
  Ca2+  Ca12  1  0.07116182  0.32751902  0.16879510  1
  Ca2+  Ca13  1  0.07472090  0.32388170  0.48681337  1
  Ca2+  Ca14  1  0.07355438  0.33465590  0.83218916  1
  Ca2+  Ca15  1  0.08150449  0.83427181  0.16309730  1
  Ca2+  Ca16  1  0.08689559  0.82433504  0.49297840  1
  Ca2+  Ca17  1  0.08047278  0.83081818  0.83134965  1
  Ca2+  Ca18  1  0.57316210  0.33747972  0.16192577  1
  Ca2+  Ca19  1  0.57606416  0.33562802  0.49632196  1
  Ca2+  Ca20  1  0.57698384  0.34112464  0.82882027  1
  Ca2+  Ca21  1  0.59533462  0.82827194  0.16487647  1
  Ca2+  Ca22  1  0.57929616  0.83300012  0.49210216  1
  Ca2+  Ca23  1  0.58037112  0.83493556  0.82877183  1
  Ca2+  Ca24  1  0.33614218  0.41763614  0.17436525  1
  Ca2+  Ca25  1  0.34102206  0.42070160  0.50086955  1
  Ca2+  Ca26  1  0.33503137  0.41376364  0.83691591  1
  Ca2+  Ca27  1  0.31942748  0.92213674  0.17773384  1
  Ca2+  Ca28  1  0.33130114  0.92574678  0.50317820  1
  Ca2+  Ca29  1  0.33153990  0.91991815  0.83760646  1
  Ca2+  Ca30  1  0.83901206  0.42252698  0.17112999  1
  Ca2+  Ca31  1  0.83165461  0.41957547  0.50409902  1
  Ca2+  Ca32  1  0.82116598  0.41972741  0.84397966  1
  Ca2+  Ca33  1  0.82682330  0.91504573  0.17415307  1
  Ca2+  Ca34  1  0.83185801  0.92778393  0.49888774  1
  Ca2+  Ca35  1  0.83328047  0.92024354  0.84168219  1
  Ca2+  Ca36  1  0.41045369  0.17533866  0.16473146  1
  Ca2+  Ca37  1  0.40711076  0.17507526  0.49351436  1
  Ca2+  Ca38  1  0.41864504  0.17484216  0.82584734  1
  Ca2+  Ca39  1  0.42384286  0.66266040  0.16911316  1
  Ca2+  Ca40  1  0.42220457  0.67227722  0.49084705  1
  Ca2+  Ca41  1  0.41926709  0.67673087  0.82512321  1
  Ca2+  Ca42  1  0.91428911  0.17047728  0.16643955  1
  Ca2+  Ca43  1  0.91544470  0.16884518  0.48856815  1
  Ca2+  Ca44  1  0.91220627  0.16940298  0.83081066  1
  Ca2+  Ca45  1  0.91721839  0.66753568  0.16225363  1
  Ca2+  Ca46  1  0.92754775  0.66272090  0.49067721  1
  Ca2+  Ca47  1  0.91659667  0.67093500  0.83345343  1
  Al0+  Al48  1  0.00245566  -0.00107535  -0.00250469  1
  Al0+  Al49  1  -0.00090834  -0.00216080  0.33844941  1
  Al0+  Al50  1  0.00038929  0.00002610  0.67195094  1
  Al0+  Al51  1  0.00292720  0.49817994  -0.00224960  1
  Al0+  Al52  1  0.00108020  0.50053110  0.32961287  1
  Al0+  Al53  1  0.00082339  0.50048735  0.66393585  1
  Al0+  Al54  1  0.50097296  0.00138078  0.00430965  1
  Al0+  Al55  1  0.49731491  0.00095247  0.33957685  1
  Al0+  Al56  1  0.50046293  0.00217493  0.66612666  1
  Al0+  Al57  1  0.50058916  0.50057245  -0.00240239  1
  Al0+  Al58  1  0.49995455  0.50209317  0.32909910  1
  Al0+  Al59  1  0.49933873  0.50145959  0.66764606  1
  Al0+  Al60  1  0.25063042  0.25168197  -0.00540961  1
  Al0+  Al61  1  0.24605575  0.25005688  0.32658410  1
  Al0+  Al62  1  0.24901006  0.25065690  0.66878858  1
  Al0+  Al63  1  0.25143200  0.75046603  0.00334029  1
  Al0+  Al64  1  0.25153434  0.74860947  0.33636435  1
  Al0+  Al65  1  0.25033153  0.75014297  0.65962786  1
  Al0+  Al66  1  0.74742095  0.24931159  -0.00069144  1
  Al0+  Al67  1  0.74561879  0.25052547  0.33073915  1
  Al0+  Al68  1  0.74801573  0.25077416  0.67598674  1
  Al0+  Al69  1  0.75244665  0.74846041  -0.00098343  1
  Al0+  Al70  1  0.74958835  0.74660824  0.34044125  1
  Al0+  Al71  1  0.75161614  0.75020334  0.66510260  1
  Al0+  Al72  1  0.31867810  0.07415008  0.34748862  1
  Al0+  Al73  1  0.82272795  0.56872928  0.01453027  1
  Al0+  Al74  1  0.57163891  0.68110894  0.31894707  1
  Al0+  Al75  1  0.06880891  0.17545582  0.31874351  1
  Al0+  Al76  1  0.92794563  0.32086534  0.98461655  1
  Al0+  Al77  1  0.67642677  0.42739321  0.01747427  1
  Al0+  Al78  1  0.92464281  0.32120125  0.31990424  1
  Al0+  Al79  1  0.67867927  0.43230365  0.68028709  1
  Al0+  Al80  1  0.06892763  0.67973084  0.65212249  1
  Al0+  Al81  1  0.67953341  0.92872608  0.01213283  1
  Al0+  Al82  1  0.17722823  0.92706164  0.35066419  1
  Al0+  Al83  1  0.67784541  0.92625767  0.35002571  1
  Al0+  Al84  1  0.18018304  0.92887864  0.01307297  1
  Al0+  Al85  1  0.32108533  0.07278662  0.68197410  1
  Al0+  Al86  1  0.81950728  0.07267241  0.34598630  1
  Al0+  Al87  1  0.07326470  0.67982209  0.31773159  1
  Al0+  Al88  1  0.42963200  0.31981448  0.31986956  1
  Al0+  Al89  1  0.43050076  0.82347088  0.65272765  1
  Al0+  Al90  1  0.43051434  0.32105040  0.98363555  1
  Al0+  Al91  1  0.42865837  0.32080914  0.65195427  1
  Al0+  Al92  1  0.92958396  0.82027832  0.98724595  1
  Al0+  Al93  1  0.32261879  0.56856662  0.34726352  1
  Al0+  Al94  1  0.82172726  0.07036391  0.68263199  1
  Al0+  Al95  1  0.82320431  0.56846871  0.34826388  1
  Si0+  Si96  1  0.18003631  0.42775925  0.01459181  1
  Si0+  Si97  1  0.57111202  0.17476714  0.98201064  1
  Si0+  Si98  1  0.31970466  0.57143221  0.68143536  1
  Si0+  Si99  1  0.07555428  0.67792856  0.98374002  1
  Si0+  Si100  1  0.92802171  0.81960150  0.31909231  1
  Si0+  Si101  1  0.57233470  0.67826178  0.65077771  1
  Si0+  Si102  1  0.42834485  0.82138373  0.98779439  1
  Si0+  Si103  1  0.32153435  0.07354242  0.01603220  1
  Si0+  Si104  1  0.32079003  0.57145205  0.01320355  1
  Si0+  Si105  1  0.18049622  0.92607555  0.68469703  1
  Si0+  Si106  1  0.67625430  0.42888937  0.34875913  1
  Si0+  Si107  1  0.82341178  0.07181157  0.01599316  1
  Si0+  Si108  1  0.42870336  0.82384382  0.31572502  1
  Si0+  Si109  1  0.92705946  0.82473119  0.64874173  1
  Si0+  Si110  1  0.92742286  0.31916501  0.65386817  1
  Si0+  Si111  1  0.17782257  0.42898395  0.68140837  1
  Si0+  Si112  1  0.57308032  0.17926274  0.64992073  1
  Si0+  Si113  1  0.07151679  0.17775192  0.98052704  1
  Si0+  Si114  1  0.82581853  0.57219315  0.68354800  1
  Si0+  Si115  1  0.57174388  0.17537990  0.31602299  1
  Si0+  Si116  1  0.67844275  0.92679646  0.68302336  1
  Si0+  Si117  1  0.57162114  0.68060009  0.98416772  1
  Si0+  Si118  1  0.17805921  0.42879171  0.34929483  1
  Si0+  Si119  1  0.07040286  0.17900929  0.65387743  1
  O2-  O120  1  0.25308333  0.00488702  0.05929774  1
  O2-  O121  1  0.24887940  0.00056454  0.39878706  1
  O2-  O122  1  0.24923263  -0.00494595  0.72907130  1
  O2-  O123  1  0.25088101  0.49951987  0.05500162  1
  O2-  O124  1  0.24833866  0.49453646  0.39578948  1
  O2-  O125  1  0.24951662  0.49985766  0.72436235  1
  O2-  O126  1  0.75547452  0.00189907  0.05862392  1
  O2-  O127  1  0.74710081  0.00187698  0.39810237  1
  O2-  O128  1  0.74995588  -0.00802795  0.72817465  1
  O2-  O129  1  0.75410748  0.49396160  0.06566977  1
  O2-  O130  1  0.75102242  0.49057409  0.39375984  1
  O2-  O131  1  0.75351966  0.50729820  0.72687172  1
  O2-  O132  1  -0.00745867  0.24438658  0.27081014  1
  O2-  O133  1  -0.00407380  0.24629794  0.61155333  1
  O2-  O134  1  0.00006675  0.24387987  0.93586177  1
  O2-  O135  1  -0.00096170  0.75469982  0.27226050  1
  O2-  O136  1  -0.00652693  0.75352828  0.60555544  1
  O2-  O137  1  0.00491001  0.74517728  0.94058374  1
  O2-  O138  1  0.50105957  0.24261542  0.27228618  1
  O2-  O139  1  0.50153873  0.24486132  0.60534082  1
  O2-  O140  1  0.50575830  0.24693615  0.93713718  1
  O2-  O141  1  0.50160498  0.75998370  0.27037397  1
  O2-  O142  1  0.50901230  0.75202937  0.60746639  1
  O2-  O143  1  0.50155823  0.75360494  0.94301019  1
  O2-  O144  1  0.07264838  0.17819890  0.08546749  1
  O2-  O145  1  0.06981427  0.18024475  0.43312322  1
  O2-  O146  1  0.07075895  0.18224099  0.75923234  1
  O2-  O147  1  0.07934021  0.67858766  0.08865714  1
  O2-  O148  1  0.07112615  0.67950315  0.43112086  1
  O2-  O149  1  0.06990281  0.68055107  0.76571454  1
  O2-  O150  1  0.56703674  0.17061471  0.08701533  1
  O2-  O151  1  0.57477491  0.17853255  0.42166378  1
  O2-  O152  1  0.57249549  0.17965479  0.75575489  1
  O2-  O153  1  0.57081438  0.68002974  0.08891960  1
  O2-  O154  1  0.56830409  0.67977838  0.43234762  1
  O2-  O155  1  0.56911148  0.67786355  0.75699158  1
  O2-  O156  1  0.17935245  0.43121150  0.24330132  1
  O2-  O157  1  0.17598692  0.42847425  0.57698059  1
  O2-  O158  1  0.17994062  0.42822957  0.90878808  1
  O2-  O159  1  0.17888725  0.92722445  0.23659098  1
  O2-  O160  1  0.18053085  0.92597122  0.57979658  1
  O2-  O161  1  0.18412877  0.92772509  0.89956252  1
  O2-  O162  1  0.67388839  0.43268030  0.24356118  1
  O2-  O163  1  0.67972870  0.43229965  0.56721753  1
  O2-  O164  1  0.67467490  0.43330724  0.90337961  1
  O2-  O165  1  0.68212504  0.92570236  0.23601748  1
  O2-  O166  1  0.67882520  0.92739904  0.57812294  1
  O2-  O167  1  0.67803939  0.93054458  0.89866031  1
  O2-  O168  1  0.42832419  0.32083124  0.09639870  1
  O2-  O169  1  0.43205464  0.32137858  0.43317825  1
  O2-  O170  1  0.42989984  0.32112456  0.76517942  1
  O2-  O171  1  0.42571883  0.81807636  0.09205711  1
  O2-  O172  1  0.42918056  0.82052068  0.42156456  1
  O2-  O173  1  0.43012484  0.82007663  0.76710977  1
  O2-  O174  1  0.93192669  0.32112909  0.09691750  1
  O2-  O175  1  0.92729310  0.32159183  0.43448202  1
  O2-  O176  1  0.93010956  0.31983363  0.75913947  1
  O2-  O177  1  0.92949920  0.82009520  0.09988413  1
  O2-  O178  1  0.92900438  0.81732147  0.42492351  1
  O2-  O179  1  0.92744427  0.82432201  0.75473281  1
  O2-  O180  1  0.31703872  0.07292642  0.23347664  1
  O2-  O181  1  0.31604274  0.07530657  0.56980006  1
  O2-  O182  1  0.32135052  0.07211942  0.90990597  1
  O2-  O183  1  0.32257798  0.56641515  0.23351809  1
  O2-  O184  1  0.32064073  0.57020863  0.57688010  1
  O2-  O185  1  0.31901594  0.57400376  0.90751494  1
  O2-  O186  1  0.81811442  0.07085323  0.23235857  1
  O2-  O187  1  0.82100404  0.07279442  0.57011414  1
  O2-  O188  1  0.82183184  0.06976524  0.90979546  1
  O2-  O189  1  0.82296839  0.57001404  0.23542556  1
  O2-  O190  1  0.82856549  0.56866740  0.57824807  1
  O2-  O191  1  0.81923488  0.56992325  0.90023272  1
  O2-  O192  1  0.04373252  0.07543316  0.26787113  1
  O2-  O193  1  0.04752879  0.08475345  0.60996937  1
  O2-  O194  1  0.04955793  0.08364621  0.93325251  1
  O2-  O195  1  0.04387877  0.58331354  0.26373536  1
  O2-  O196  1  0.04074937  0.58219780  0.59740424  1
  O2-  O197  1  0.05322492  0.58359615  0.93725222  1
  O2-  O198  1  0.54713862  0.08044301  0.27194730  1
  O2-  O199  1  0.55309666  0.08445633  0.60507956  1
  O2-  O200  1  0.54187674  0.08251708  0.93278076  1
  O2-  O201  1  0.53529258  0.58784320  0.26216593  1
  O2-  O202  1  0.54015856  0.58765073  0.60354314  1
  O2-  O203  1  0.53951814  0.59081566  0.93494912  1
  O2-  O204  1  0.16328248  0.20866864  0.26068099  1
  O2-  O205  1  0.16019496  0.21130167  0.60619038  1
  O2-  O206  1  0.16377269  0.20801851  0.93296086  1
  O2-  O207  1  0.17147676  0.70778407  0.26546476  1
  O2-  O208  1  0.16545197  0.70887626  0.59755428  1
  O2-  O209  1  0.16839837  0.70706742  0.93579582  1
  O2-  O210  1  0.66340840  0.20111707  0.26636775  1
  O2-  O211  1  0.66586766  0.21052469  0.60506334  1
  O2-  O212  1  0.66622186  0.19543957  0.93674476  1
  O2-  O213  1  0.67000379  0.70829371  0.26650262  1
  O2-  O214  1  0.66900255  0.69607149  0.60760798  1
  O2-  O215  1  0.66269475  0.70692664  0.93497870  1
  O2-  O216  1  0.08884262  0.45437131  0.06238506  1
  O2-  O217  1  0.08589248  0.45681115  0.39639036  1
  O2-  O218  1  0.08674856  0.45931229  0.73052562  1
  O2-  O219  1  0.08295861  0.95794955  0.06578368  1
  O2-  O220  1  0.07888253  0.95113047  0.40475429  1
  O2-  O221  1  0.08673658  0.95184775  0.73108662  1
  O2-  O222  1  0.57905095  0.46204430  0.06853531  1
  O2-  O223  1  0.58626007  0.46353164  0.39660492  1
  O2-  O224  1  0.58253934  0.46534138  0.73553968  1
  O2-  O225  1  0.58329770  0.95790036  0.06816966  1
  O2-  O226  1  0.57793798  0.95118270  0.40069758  1
  O2-  O227  1  0.58555776  0.95493225  0.72974973  1
  O2-  O228  1  0.20942022  0.33629886  0.06097054  1
  O2-  O229  1  0.20023779  0.33392707  0.39289853  1
  O2-  O230  1  0.20505291  0.33866847  0.73202227  1
  O2-  O231  1  0.21198001  0.83321954  0.06808682  1
  O2-  O232  1  0.20954784  0.82980005  0.40319320  1
  O2-  O233  1  0.20790175  0.83221412  0.72989626  1
  O2-  O234  1  0.69480747  0.32492117  0.06452363  1
  O2-  O235  1  0.69269525  0.33274002  0.39248148  1
  O2-  O236  1  0.70772658  0.33696512  0.73754391  1
  O2-  O237  1  0.71004020  0.83170496  0.06387409  1
  O2-  O238  1  0.70738047  0.82976570  0.40538998  1
  O2-  O239  1  0.69975463  0.83090333  0.72801560  1
  O2-  O240  1  0.46301079  0.41514698  0.26491939  1
  O2-  O241  1  0.45989152  0.41877572  0.60083941  1
  O2-  O242  1  0.45953776  0.41900910  0.92953985  1
  O2-  O243  1  0.44664434  0.92024313  0.27288501  1
  O2-  O244  1  0.45744395  0.92106657  0.59936124  1
  O2-  O245  1  0.45388465  0.91482988  0.94190814  1
  O2-  O246  1  0.96181519  0.41589547  0.26524611  1
  O2-  O247  1  0.95711648  0.41052424  0.60701738  1
  O2-  O248  1  0.96411984  0.41570386  0.92846012  1
  O2-  O249  1  0.94940253  0.91445156  0.27458243  1
  O2-  O250  1  0.95526053  0.91846639  0.60461968  1
  O2-  O251  1  0.96108706  0.91615895  0.93059609  1
  O2-  O252  1  0.33204645  0.29354027  0.26525374  1
  O2-  O253  1  0.32992540  0.29274488  0.60109521  1
  O2-  O254  1  0.33338127  0.29158033  0.92832146  1
  O2-  O255  1  0.33717674  0.79132628  0.26999453  1
  O2-  O256  1  0.33632949  0.78910086  0.59771817  1
  O2-  O257  1  0.33858560  0.78960874  0.93725498  1
  O2-  O258  1  0.82482628  0.29979666  0.26703188  1
  O2-  O259  1  0.83408423  0.29324531  0.60993528  1
  O2-  O260  1  0.82929971  0.29314982  0.93199928  1
  O2-  O261  1  0.83508829  0.78981438  0.27484214  1
  O2-  O262  1  0.83214013  0.80300160  0.60364185  1
  O2-  O263  1  0.83443439  0.78830771  0.92927250  1
  O2-  O264  1  0.41490760  0.04978707  0.06196926  1
  O2-  O265  1  0.41750645  0.05095477  0.40177347  1
  O2-  O266  1  0.41968477  0.04545906  0.73443769  1
  O2-  O267  1  0.41285987  0.54405108  0.05894389  1
  O2-  O268  1  0.41849809  0.53691245  0.40203307  1
  O2-  O269  1  0.41116839  0.54542888  0.73068348  1
  O2-  O270  1  0.91849400  0.04838600  0.05821292  1
  O2-  O271  1  0.91648374  0.04416495  0.40153080  1
  O2-  O272  1  0.91894684  0.04265290  0.73849521  1
  O2-  O273  1  0.92406188  0.54454926  0.06329855  1
  O2-  O274  1  0.92060310  0.53879393  0.40148970  1
  O2-  O275  1  0.91817197  0.54395894  0.73099493  1
  O2-  O276  1  0.29463820  0.16808087  0.05877158  1
  O2-  O277  1  0.28634386  0.17238533  0.39928191  1
  O2-  O278  1  0.28636108  0.16791726  0.73802765  1
  O2-  O279  1  0.29362652  0.66184984  0.06300572  1
  O2-  O280  1  0.29333483  0.66467601  0.40188760  1
  O2-  O281  1  0.28962261  0.66312377  0.72873125  1
  O2-  O282  1  0.79784941  0.16552382  0.06009842  1
  O2-  O283  1  0.79032349  0.17171966  0.39926756  1
  O2-  O284  1  0.78788507  0.16493531  0.73936017  1
  O2-  O285  1  0.79177107  0.66639577  0.06639635  1
  O2-  O286  1  0.78955377  0.66178950  0.40617635  1
  O2-  O287  1  0.80417233  0.66866107  0.72607632  1
