# generated using pymatgen
data_Ca2Al2SiO7
_symmetry_space_group_name_H-M   'P 1'
_cell_length_a   15.46599424
_cell_length_b   15.46313318
_cell_length_c   15.28867279
_cell_angle_alpha   90.00940889
_cell_angle_beta   90.01810569
_cell_angle_gamma   90.00364506
_symmetry_Int_Tables_number   1
_chemical_formula_structural   Ca2Al2SiO7
_chemical_formula_sum   'Ca48 Al48 Si24 O168'
_cell_volume   3656.32757926
_cell_formula_units_Z   24
loop_
 _symmetry_equiv_pos_site_id
 _symmetry_equiv_pos_as_xyz
  1  'x, y, z'
loop_
 _atom_type_symbol
 _atom_type_oxidation_number
  Ca2+  2.0
  Al0+  0.0
  Si0+  0.0
  O2-  -2.0
loop_
 _atom_site_type_symbol
 _atom_site_label
 _atom_site_symmetry_multiplicity
 _atom_site_fract_x
 _atom_site_fract_y
 _atom_site_fract_z
 _atom_site_occupancy
  Ca2+  Ca0  1  0.15067019  0.07417437  0.16942641  1
  Ca2+  Ca1  1  0.15657040  0.07768665  0.50436588  1
  Ca2+  Ca2  1  0.14788657  0.07588901  0.83546727  1
  Ca2+  Ca3  1  0.16943672  0.57188411  0.17694484  1
  Ca2+  Ca4  1  0.16476678  0.57370088  0.49922924  1
  Ca2+  Ca5  1  0.16890231  0.57000968  0.84179897  1
  Ca2+  Ca6  1  0.66878956  0.08339602  0.17385593  1
  Ca2+  Ca7  1  0.66421096  0.08294025  0.50844211  1
  Ca2+  Ca8  1  0.66504262  0.07843949  0.83343892  1
  Ca2+  Ca9  1  0.67921676  0.58367669  0.17168316  1
  Ca2+  Ca10  1  0.67221261  0.57640392  0.49716244  1
  Ca2+  Ca11  1  0.67373152  0.58335731  0.84265829  1
  Ca2+  Ca12  1  0.09035280  0.32582565  0.15950540  1
  Ca2+  Ca13  1  0.08968578  0.32715635  0.49474700  1
  Ca2+  Ca14  1  0.07929674  0.33337094  0.82563071  1
  Ca2+  Ca15  1  0.08505077  0.82711054  0.16228720  1
  Ca2+  Ca16  1  0.08234351  0.83291679  0.49320979  1
  Ca2+  Ca17  1  0.07438309  0.83827370  0.82901015  1
  Ca2+  Ca18  1  0.57803790  0.34431855  0.16960135  1
  Ca2+  Ca19  1  0.57996527  0.32583084  0.48788093  1
  Ca2+  Ca20  1  0.57971504  0.32710048  0.82528134  1
  Ca2+  Ca21  1  0.57634301  0.82387868  0.15807329  1
  Ca2+  Ca22  1  0.58151817  0.83530103  0.49744473  1
  Ca2+  Ca23  1  0.58389697  0.82706886  0.82900328  1
  Ca2+  Ca24  1  0.32641440  0.42282423  0.17190420  1
  Ca2+  Ca25  1  0.32546494  0.41324200  0.49732941  1
  Ca2+  Ca26  1  0.31973845  0.41594218  0.83934441  1
  Ca2+  Ca27  1  0.31978827  0.91863263  0.17092659  1
  Ca2+  Ca28  1  0.31775738  0.91784989  0.50360372  1
  Ca2+  Ca29  1  0.31847286  0.92165666  0.83787026  1
  Ca2+  Ca30  1  0.83403570  0.42534883  0.17254519  1
  Ca2+  Ca31  1  0.83703652  0.41920733  0.50113342  1
  Ca2+  Ca32  1  0.83782231  0.41874181  0.84096510  1
  Ca2+  Ca33  1  0.83701138  0.91691722  0.16814050  1
  Ca2+  Ca34  1  0.82919293  0.91944073  0.50962842  1
  Ca2+  Ca35  1  0.83426840  0.91314170  0.83680998  1
  Ca2+  Ca36  1  0.42064108  0.17293633  0.17025273  1
  Ca2+  Ca37  1  0.42732867  0.17023598  0.49111946  1
  Ca2+  Ca38  1  0.42209136  0.16500271  0.82756671  1
  Ca2+  Ca39  1  0.42049213  0.65316598  0.16087882  1
  Ca2+  Ca40  1  0.41295492  0.66674316  0.49171745  1
  Ca2+  Ca41  1  0.42140000  0.65771388  0.83528823  1
  Ca2+  Ca42  1  0.92578017  0.17734612  0.16110726  1
  Ca2+  Ca43  1  0.92686671  0.17336375  0.49952517  1
  Ca2+  Ca44  1  0.92651250  0.18103749  0.83035831  1
  Ca2+  Ca45  1  0.91901320  0.66653048  0.16256796  1
  Ca2+  Ca46  1  0.92285441  0.67212774  0.49503764  1
  Ca2+  Ca47  1  0.91226489  0.67620120  0.83207445  1
  Al0+  Al48  1  -0.00370465  0.00003088  -0.00180370  1
  Al0+  Al49  1  -0.00402935  0.00136921  0.33504167  1
  Al0+  Al50  1  -0.00397515  0.00201808  0.66406853  1
  Al0+  Al51  1  -0.00067406  0.50049047  0.00587157  1
  Al0+  Al52  1  0.00075175  0.50273202  0.33846942  1
  Al0+  Al53  1  -0.00006909  0.50360313  0.66881611  1
  Al0+  Al54  1  0.49833322  -0.00259519  0.00037469  1
  Al0+  Al55  1  0.49869653  -0.00080938  0.32818703  1
  Al0+  Al56  1  0.49956998  -0.00278220  0.66817621  1
  Al0+  Al57  1  0.50033629  0.49732232  -0.00556436  1
  Al0+  Al58  1  0.50195276  0.50065429  0.33686231  1
  Al0+  Al59  1  0.50302237  0.50024128  0.66530925  1
  Al0+  Al60  1  0.25392798  0.24511888  -0.00188164  1
  Al0+  Al61  1  0.25385869  0.24775131  0.32651970  1
  Al0+  Al62  1  0.25159702  0.25081658  0.66754207  1
  Al0+  Al63  1  0.25198468  0.75202838  0.00506909  1
  Al0+  Al64  1  0.24756183  0.75175199  0.33618773  1
  Al0+  Al65  1  0.25211490  0.75120259  0.67317990  1
  Al0+  Al66  1  0.75044594  0.24747031  -0.00301624  1
  Al0+  Al67  1  0.75196112  0.24797078  0.33349193  1
  Al0+  Al68  1  0.75046154  0.25026269  0.66070228  1
  Al0+  Al69  1  0.74759370  0.74811790  -0.00302103  1
  Al0+  Al70  1  0.74831237  0.75153213  0.33763004  1
  Al0+  Al71  1  0.74915905  0.75031424  0.66491737  1
  Al0+  Al72  1  0.92964258  0.81844262  0.98768688  1
  Al0+  Al73  1  0.92935036  0.32621074  0.65023015  1
  Al0+  Al74  1  0.56820105  0.67836031  0.98622725  1
  Al0+  Al75  1  0.17706360  0.93193462  0.34705328  1
  Al0+  Al76  1  0.32229106  0.56950812  0.01327115  1
  Al0+  Al77  1  0.07200725  0.18151840  0.65082980  1
  Al0+  Al78  1  0.92899239  0.32393190  0.98732367  1
  Al0+  Al79  1  0.07109015  0.17897714  0.31917014  1
  Al0+  Al80  1  0.67846142  0.92879496  0.68150102  1
  Al0+  Al81  1  0.07080827  0.68002339  0.32050916  1
  Al0+  Al82  1  0.82012832  0.57175051  0.01263753  1
  Al0+  Al83  1  0.68127991  0.42829112  0.34802668  1
  Al0+  Al84  1  0.17811580  0.42633140  0.01482907  1
  Al0+  Al85  1  0.56913661  0.17773778  0.65409928  1
  Al0+  Al86  1  0.57406098  0.17752921  0.31664704  1
  Al0+  Al87  1  0.92868874  0.82062133  0.65255599  1
  Al0+  Al88  1  0.17623608  0.93231814  0.01407489  1
  Al0+  Al89  1  0.17982159  0.42962417  0.68041511  1
  Al0+  Al90  1  0.82284214  0.57419046  0.35113709  1
  Al0+  Al91  1  0.32133562  0.57193785  0.34811022  1
  Al0+  Al92  1  0.43099558  0.32296934  0.31642852  1
  Al0+  Al93  1  0.07222997  0.17936376  0.98518344  1
  Al0+  Al94  1  0.17986928  0.42512686  0.34795325  1
  Al0+  Al95  1  0.17612388  0.93074166  0.68112738  1
  Si0+  Si96  1  0.42727090  0.82063620  0.31802187  1
  Si0+  Si97  1  0.82005223  0.07368035  0.68572389  1
  Si0+  Si98  1  0.32439867  0.06994082  0.34962061  1
  Si0+  Si99  1  0.43118022  0.31926343  0.98227307  1
  Si0+  Si100  1  0.81787755  0.06996353  0.01555196  1
  Si0+  Si101  1  0.92576355  0.82176675  0.31768647  1
  Si0+  Si102  1  0.57130744  0.67831107  0.64877613  1
  Si0+  Si103  1  0.57176845  0.17510997  0.98422984  1
  Si0+  Si104  1  0.82005796  0.07041596  0.34990095  1
  Si0+  Si105  1  0.81941724  0.57167662  0.68272770  1
  Si0+  Si106  1  0.32524239  0.57270088  0.68387540  1
  Si0+  Si107  1  0.67766858  0.92775676  0.01548454  1
  Si0+  Si108  1  0.92939606  0.32358351  0.31782589  1
  Si0+  Si109  1  0.42938574  0.32365409  0.64943911  1
  Si0+  Si110  1  0.42906335  0.81932934  0.65151484  1
  Si0+  Si111  1  0.57088392  0.68062249  0.31906317  1
  Si0+  Si112  1  0.32208614  0.07107203  0.68181113  1
  Si0+  Si113  1  0.07530832  0.67792922  0.98499069  1
  Si0+  Si114  1  0.67895576  0.42465007  0.01341034  1
  Si0+  Si115  1  0.32702605  0.07039796  0.01912122  1
  Si0+  Si116  1  0.07483030  0.68055015  0.65237209  1
  Si0+  Si117  1  0.67672167  0.93030069  0.34721461  1
  Si0+  Si118  1  0.42692538  0.82377277  0.98089554  1
  Si0+  Si119  1  0.67954565  0.42832425  0.68173233  1
  O2-  O120  1  0.25083535  0.00819041  0.06013174  1
  O2-  O121  1  0.24983574  0.00830751  0.39441062  1
  O2-  O122  1  0.24678882  0.01018945  0.72705537  1
  O2-  O123  1  0.24622023  0.50306833  0.06365723  1
  O2-  O124  1  0.25086229  0.49894048  0.39805925  1
  O2-  O125  1  0.25588215  0.50425498  0.72603378  1
  O2-  O126  1  0.74678500  -0.00096586  0.05925306  1
  O2-  O127  1  0.74505241  0.00243376  0.39037682  1
  O2-  O128  1  0.75193387  0.00347591  0.72996201  1
  O2-  O129  1  0.74961845  0.49148536  0.05656665  1
  O2-  O130  1  0.75508985  0.49729676  0.40030871  1
  O2-  O131  1  0.75243696  0.49644595  0.72491703  1
  O2-  O132  1  0.00343518  0.26074805  0.27357698  1
  O2-  O133  1  0.00480584  0.25782711  0.60045086  1
  O2-  O134  1  0.00833020  0.25980933  0.93728393  1
  O2-  O135  1  -0.00653151  0.75269274  0.27402084  1
  O2-  O136  1  0.00893672  0.75201626  0.60734717  1
  O2-  O137  1  0.00599706  0.74590933  0.93967012  1
  O2-  O138  1  0.50654695  0.25319211  0.26634775  1
  O2-  O139  1  0.49651536  0.25295988  0.60651367  1
  O2-  O140  1  0.50189152  0.24651737  0.94165207  1
  O2-  O141  1  0.49536290  0.74646897  0.27626686  1
  O2-  O142  1  0.49725147  0.74634447  0.60718862  1
  O2-  O143  1  0.49162766  0.75054801  0.93769367  1
  O2-  O144  1  0.06583957  0.17748619  0.09881210  1
  O2-  O145  1  0.06706360  0.17585879  0.43191676  1
  O2-  O146  1  0.06812250  0.18143685  0.76412353  1
  O2-  O147  1  0.07411139  0.68061124  0.09051928  1
  O2-  O148  1  0.07129166  0.68415497  0.43393044  1
  O2-  O149  1  0.07277713  0.68025971  0.75809279  1
  O2-  O150  1  0.57165129  0.17265089  0.08865777  1
  O2-  O151  1  0.56955300  0.17365220  0.43016845  1
  O2-  O152  1  0.56694805  0.17902766  0.76793787  1
  O2-  O153  1  0.56916573  0.68162520  0.09939338  1
  O2-  O154  1  0.57241778  0.68499755  0.42442010  1
  O2-  O155  1  0.57154046  0.67790558  0.75388515  1
  O2-  O156  1  0.18101863  0.42571808  0.23466329  1
  O2-  O157  1  0.18179946  0.42934661  0.56779631  1
  O2-  O158  1  0.18046130  0.42752897  0.90066039  1
  O2-  O159  1  0.17792318  0.93199886  0.23397392  1
  O2-  O160  1  0.17954137  0.92857068  0.56814848  1
  O2-  O161  1  0.17639637  0.93401702  0.90075486  1
  O2-  O162  1  0.68185935  0.43297303  0.23399049  1
  O2-  O163  1  0.67643474  0.43135641  0.57730580  1
  O2-  O164  1  0.67814758  0.42503285  0.90720028  1
  O2-  O165  1  0.67770310  0.92848318  0.24189687  1
  O2-  O166  1  0.67855625  0.92938340  0.56807505  1
  O2-  O167  1  0.67704886  0.92904029  0.91050258  1
  O2-  O168  1  0.43342725  0.32195394  0.08670852  1
  O2-  O169  1  0.43227009  0.31955103  0.43034098  1
  O2-  O170  1  0.43271843  0.32420326  0.75548795  1
  O2-  O171  1  0.43154819  0.82942104  0.08629281  1
  O2-  O172  1  0.43065226  0.82247966  0.42350892  1
  O2-  O173  1  0.43063099  0.81920161  0.75631755  1
  O2-  O174  1  0.92094283  0.31888004  0.10033841  1
  O2-  O175  1  0.92741754  0.31907901  0.42327198  1
  O2-  O176  1  0.92812071  0.32533951  0.76379736  1
  O2-  O177  1  0.92815726  0.81880037  0.10068197  1
  O2-  O178  1  0.92480511  0.82223248  0.42334409  1
  O2-  O179  1  0.92648829  0.81727116  0.76573111  1
  O2-  O180  1  0.33022987  0.06384373  0.24445809  1
  O2-  O181  1  0.32663313  0.06581781  0.57663820  1
  O2-  O182  1  0.33746290  0.06588302  0.91396918  1
  O2-  O183  1  0.32066684  0.57092550  0.23486266  1
  O2-  O184  1  0.32683968  0.57438789  0.57871381  1
  O2-  O185  1  0.32343376  0.56429370  0.89931505  1
  O2-  O186  1  0.82112015  0.06745059  0.24447454  1
  O2-  O187  1  0.81813406  0.07201101  0.57987358  1
  O2-  O188  1  0.81451261  0.06970247  0.91081992  1
  O2-  O189  1  0.81825770  0.57857165  0.23768137  1
  O2-  O190  1  0.81617981  0.57376010  0.57807662  1
  O2-  O191  1  0.81496142  0.57508100  0.89923359  1
  O2-  O192  1  0.02989609  0.08473326  0.26601599  1
  O2-  O193  1  0.03740696  0.08443976  0.59834153  1
  O2-  O194  1  0.03073582  0.08524718  0.93206052  1
  O2-  O195  1  0.04249622  0.58232718  0.26747666  1
  O2-  O196  1  0.04467008  0.58904054  0.60546510  1
  O2-  O197  1  0.04974942  0.58353404  0.94132027  1
  O2-  O198  1  0.54124063  0.08009937  0.26230232  1
  O2-  O199  1  0.53859668  0.08026391  0.60175542  1
  O2-  O200  1  0.54223072  0.08316048  0.93708450  1
  O2-  O201  1  0.54870611  0.58763454  0.27306056  1
  O2-  O202  1  0.54671278  0.58556076  0.60152183  1
  O2-  O203  1  0.54058141  0.58184483  0.92874421  1
  O2-  O204  1  0.17065666  0.19760206  0.26643541  1
  O2-  O205  1  0.17386598  0.20229460  0.60125768  1
  O2-  O206  1  0.17609108  0.19038418  0.93721658  1
  O2-  O207  1  0.16599124  0.71439717  0.26584440  1
  O2-  O208  1  0.17035766  0.70295255  0.60919555  1
  O2-  O209  1  0.16958025  0.70314228  0.94002051  1
  O2-  O210  1  0.67493313  0.19906809  0.26611055  1
  O2-  O211  1  0.66576611  0.20553116  0.60030766  1
  O2-  O212  1  0.66318581  0.20113667  0.93556990  1
  O2-  O213  1  0.66077958  0.71468943  0.27125844  1
  O2-  O214  1  0.66072923  0.71060327  0.60044911  1
  O2-  O215  1  0.66183278  0.71368624  0.92927222  1
  O2-  O216  1  0.07879889  0.44889150  0.06749394  1
  O2-  O217  1  0.08171074  0.45351465  0.40090554  1
  O2-  O218  1  0.08365546  0.46314969  0.73435214  1
  O2-  O219  1  0.07904330  0.96239221  0.06755652  1
  O2-  O220  1  0.07941409  0.96055138  0.40005332  1
  O2-  O221  1  0.07744628  0.95910136  0.73232586  1
  O2-  O222  1  0.58603112  0.45388007  0.05757316  1
  O2-  O223  1  0.58499714  0.45999478  0.40323588  1
  O2-  O224  1  0.58851049  0.45867197  0.73082707  1
  O2-  O225  1  0.58551999  0.95464646  0.06280887  1
  O2-  O226  1  0.58384652  0.95593991  0.39374104  1
  O2-  O227  1  0.58193248  0.95811227  0.73697662  1
  O2-  O228  1  0.21163325  0.32712486  0.06295238  1
  O2-  O229  1  0.21207926  0.32607750  0.39827766  1
  O2-  O230  1  0.21109107  0.33299356  0.73522950  1
  O2-  O231  1  0.20834351  0.83604052  0.06822372  1
  O2-  O232  1  0.21122384  0.83758382  0.40264777  1
  O2-  O233  1  0.21144323  0.83590120  0.73653499  1
  O2-  O234  1  0.69956555  0.32973859  0.05859359  1
  O2-  O235  1  0.70484887  0.32745621  0.39846415  1
  O2-  O236  1  0.70320506  0.33455451  0.72711593  1
  O2-  O237  1  0.70613037  0.83640458  0.06242223  1
  O2-  O238  1  0.70439399  0.83996898  0.39735896  1
  O2-  O239  1  0.70931907  0.83148008  0.73438357  1
  O2-  O240  1  0.46140757  0.42201549  0.26462359  1
  O2-  O241  1  0.45796733  0.41637440  0.60347080  1
  O2-  O242  1  0.46103319  0.40830527  0.93054723  1
  O2-  O243  1  0.45946867  0.90926897  0.26737011  1
  O2-  O244  1  0.46046138  0.90919256  0.60290429  1
  O2-  O245  1  0.45937195  0.91427256  0.93178837  1
  O2-  O246  1  0.94635077  0.42075303  0.27722573  1
  O2-  O247  1  0.95180510  0.42741920  0.60090013  1
  O2-  O248  1  0.94802349  0.42583391  0.93733847  1
  O2-  O249  1  0.95090533  0.91553890  0.27240261  1
  O2-  O250  1  0.95164838  0.91908581  0.59966130  1
  O2-  O251  1  0.95675680  0.91543823  0.93276666  1
  O2-  O252  1  0.33597516  0.29050702  0.25952200  1
  O2-  O253  1  0.33546619  0.29992069  0.60504504  1
  O2-  O254  1  0.34069473  0.28990616  0.93307462  1
  O2-  O255  1  0.33448081  0.79728723  0.27197488  1
  O2-  O256  1  0.33630246  0.79368987  0.60445487  1
  O2-  O257  1  0.33146982  0.80340570  0.93688235  1
  O2-  O258  1  0.83815789  0.29132445  0.27095258  1
  O2-  O259  1  0.83193593  0.29445861  0.59681843  1
  O2-  O260  1  0.83255184  0.28780961  0.93155755  1
  O2-  O261  1  0.83076132  0.79795895  0.27266978  1
  O2-  O262  1  0.83303392  0.78665895  0.59800032  1
  O2-  O263  1  0.83307214  0.78733764  0.93292325  1
  O2-  O264  1  0.41685790  0.03717405  0.06952102  1
  O2-  O265  1  0.41545277  0.03685767  0.39798402  1
  O2-  O266  1  0.41182664  0.03680665  0.73182544  1
  O2-  O267  1  0.42055824  0.53555544  0.06409818  1
  O2-  O268  1  0.42116667  0.54845133  0.40056233  1
  O2-  O269  1  0.41995222  0.54597249  0.72854978  1
  O2-  O270  1  0.90779829  0.03950260  0.06415328  1
  O2-  O271  1  0.90804665  0.03778661  0.40120865  1
  O2-  O272  1  0.91274521  0.04697921  0.73179446  1
  O2-  O273  1  0.91715490  0.54876483  0.06839980  1
  O2-  O274  1  0.92145086  0.55111057  0.40492683  1
  O2-  O275  1  0.91260312  0.55110530  0.73013549  1
  O2-  O276  1  0.31022959  0.16660705  0.06158344  1
  O2-  O277  1  0.30710302  0.16624644  0.39106161  1
  O2-  O278  1  0.30732487  0.16756156  0.72577938  1
  O2-  O279  1  0.30803732  0.67255124  0.06151230  1
  O2-  O280  1  0.29282851  0.67054596  0.40129726  1
  O2-  O281  1  0.30309393  0.66646854  0.73152540  1
  O2-  O282  1  0.78861518  0.16085476  0.06428682  1
  O2-  O283  1  0.79636467  0.16225622  0.39819644  1
  O2-  O284  1  0.79195472  0.16717522  0.73080163  1
  O2-  O285  1  0.78152727  0.66570859  0.06746961  1
  O2-  O286  1  0.78697264  0.67058227  0.40540216  1
  O2-  O287  1  0.78443773  0.66133529  0.73013412  1
