# generated using pymatgen
data_Ca2Al2SiO7
_symmetry_space_group_name_H-M   'P 1'
_cell_length_a   15.45657548
_cell_length_b   15.45692435
_cell_length_c   15.28251727
_cell_angle_alpha   89.99596870
_cell_angle_beta   90.01203622
_cell_angle_gamma   90.00813354
_symmetry_Int_Tables_number   1
_chemical_formula_structural   Ca2Al2SiO7
_chemical_formula_sum   'Ca48 Al48 Si24 O168'
_cell_volume   3651.16316035
_cell_formula_units_Z   24
loop_
 _symmetry_equiv_pos_site_id
 _symmetry_equiv_pos_as_xyz
  1  'x, y, z'
loop_
 _atom_type_symbol
 _atom_type_oxidation_number
  Ca2+  2.0
  Al0+  0.0
  Si0+  0.0
  O2-  -2.0
loop_
 _atom_site_type_symbol
 _atom_site_label
 _atom_site_symmetry_multiplicity
 _atom_site_fract_x
 _atom_site_fract_y
 _atom_site_fract_z
 _atom_site_occupancy
  Ca2+  Ca0  1  0.16905676  0.07455831  0.17901587  1
  Ca2+  Ca1  1  0.16922243  0.08095957  0.50491925  1
  Ca2+  Ca2  1  0.16284457  0.07571888  0.83341725  1
  Ca2+  Ca3  1  0.16843062  0.57840839  0.16837401  1
  Ca2+  Ca4  1  0.18037962  0.58894560  0.50547934  1
  Ca2+  Ca5  1  0.16954225  0.58111850  0.84072356  1
  Ca2+  Ca6  1  0.67252609  0.08679462  0.17259533  1
  Ca2+  Ca7  1  0.67338300  0.08603699  0.50575327  1
  Ca2+  Ca8  1  0.66454001  0.09044529  0.83606921  1
  Ca2+  Ca9  1  0.65961444  0.57102276  0.17306183  1
  Ca2+  Ca10  1  0.66487294  0.57505971  0.50935990  1
  Ca2+  Ca11  1  0.66983997  0.57471345  0.83093894  1
  Ca2+  Ca12  1  0.08855991  0.32630821  0.16107820  1
  Ca2+  Ca13  1  0.08095643  0.32373318  0.49765515  1
  Ca2+  Ca14  1  0.07905426  0.33223840  0.82258733  1
  Ca2+  Ca15  1  0.08569851  0.83337935  0.16452414  1
  Ca2+  Ca16  1  0.07652279  0.84341000  0.49706359  1
  Ca2+  Ca17  1  0.08344391  0.83288680  0.82906184  1
  Ca2+  Ca18  1  0.57855562  0.33207225  0.15803767  1
  Ca2+  Ca19  1  0.58770499  0.33342408  0.49967112  1
  Ca2+  Ca20  1  0.58413735  0.32949291  0.83091846  1
  Ca2+  Ca21  1  0.58188224  0.82523286  0.16504510  1
  Ca2+  Ca22  1  0.58361900  0.81646900  0.49466273  1
  Ca2+  Ca23  1  0.57921835  0.82603348  0.82224516  1
  Ca2+  Ca24  1  0.33138363  0.41710539  0.16857906  1
  Ca2+  Ca25  1  0.33473697  0.42663765  0.50320781  1
  Ca2+  Ca26  1  0.33172568  0.41965201  0.83612303  1
  Ca2+  Ca27  1  0.32275360  0.92251279  0.17485097  1
  Ca2+  Ca28  1  0.32120256  0.92621302  0.50797572  1
  Ca2+  Ca29  1  0.32303258  0.92212285  0.83512797  1
  Ca2+  Ca30  1  0.81912737  0.41504896  0.17214225  1
  Ca2+  Ca31  1  0.82310627  0.41953493  0.51019231  1
  Ca2+  Ca32  1  0.82482363  0.41242312  0.83396310  1
  Ca2+  Ca33  1  0.83493840  0.92213185  0.17486837  1
  Ca2+  Ca34  1  0.84186658  0.91928368  0.50185750  1
  Ca2+  Ca35  1  0.83474222  0.91575361  0.83138067  1
  Ca2+  Ca36  1  0.42003515  0.17175349  0.15792957  1
  Ca2+  Ca37  1  0.41770466  0.16114423  0.49771382  1
  Ca2+  Ca38  1  0.42310581  0.17162171  0.82649803  1
  Ca2+  Ca39  1  0.41705343  0.66155967  0.16928484  1
  Ca2+  Ca40  1  0.42390891  0.65601214  0.49568953  1
  Ca2+  Ca41  1  0.42065552  0.66488202  0.82503104  1
  Ca2+  Ca42  1  0.92103698  0.16236205  0.16975409  1
  Ca2+  Ca43  1  0.92707333  0.16615924  0.49705694  1
  Ca2+  Ca44  1  0.92416345  0.17642768  0.82112704  1
  Ca2+  Ca45  1  0.92382191  0.67407848  0.16207531  1
  Ca2+  Ca46  1  0.90908445  0.67823481  0.49727716  1
  Ca2+  Ca47  1  0.92235939  0.66862793  0.82371719  1
  Al0+  Al48  1  -0.00075308  -0.00027587  0.00337978  1
  Al0+  Al49  1  -0.00196404  0.00093031  0.33107226  1
  Al0+  Al50  1  -0.00036899  -0.00013056  0.66559062  1
  Al0+  Al51  1  0.00158253  0.50167792  0.00150499  1
  Al0+  Al52  1  -0.00299212  0.50006863  0.33235939  1
  Al0+  Al53  1  -0.00015796  0.50233767  0.66172822  1
  Al0+  Al54  1  0.50158527  -0.00182463  -0.00230285  1
  Al0+  Al55  1  0.50051035  -0.00250860  0.33453039  1
  Al0+  Al56  1  0.49933203  0.00057702  0.66562468  1
  Al0+  Al57  1  0.50105699  0.49990570  -0.00076353  1
  Al0+  Al58  1  0.49952095  0.49731004  0.33522049  1
  Al0+  Al59  1  0.50008602  0.49844368  0.67261556  1
  Al0+  Al60  1  0.25184907  0.25087105  -0.00239094  1
  Al0+  Al61  1  0.25004712  0.24960301  0.33170395  1
  Al0+  Al62  1  0.25234096  0.25051149  0.66566521  1
  Al0+  Al63  1  0.24977475  0.75117139  0.00078002  1
  Al0+  Al64  1  0.24990433  0.74943496  0.34071167  1
  Al0+  Al65  1  0.25019095  0.75215771  0.67553763  1
  Al0+  Al66  1  0.75134426  0.25058145  0.00239745  1
  Al0+  Al67  1  0.75010064  0.24922051  0.34119226  1
  Al0+  Al68  1  0.74900500  0.25027467  0.66369964  1
  Al0+  Al69  1  0.75096659  0.75201750  0.00064044  1
  Al0+  Al70  1  0.74949026  0.74845036  0.31954397  1
  Al0+  Al71  1  0.74972983  0.74910604  0.66290701  1
  Al0+  Al72  1  0.31859711  0.56805686  0.34571988  1
  Al0+  Al73  1  0.67940276  0.42993063  0.34793046  1
  Al0+  Al74  1  0.57003068  0.17825463  0.65083711  1
  Al0+  Al75  1  0.17910300  0.93029469  0.01629179  1
  Al0+  Al76  1  0.42796375  0.32249634  0.98337552  1
  Al0+  Al77  1  0.07218269  0.17971698  0.65234607  1
  Al0+  Al78  1  0.07035088  0.18161252  0.31782414  1
  Al0+  Al79  1  0.17817449  0.92928200  0.34944043  1
  Al0+  Al80  1  0.81860233  0.06863471  0.34853658  1
  Al0+  Al81  1  0.93056659  0.82062033  0.31717046  1
  Al0+  Al82  1  0.17652621  0.93176797  0.68454579  1
  Al0+  Al83  1  0.32095922  0.57082669  0.68199151  1
  Al0+  Al84  1  0.92786273  0.32450594  0.65077007  1
  Al0+  Al85  1  0.57260579  0.17882173  0.98653147  1
  Al0+  Al86  1  0.07091460  0.67977618  0.98664506  1
  Al0+  Al87  1  0.92983431  0.81892102  0.65344520  1
  Al0+  Al88  1  0.68021514  0.42720959  0.68471439  1
  Al0+  Al89  1  0.32350920  0.07363547  0.68432832  1
  Al0+  Al90  1  0.82198091  0.57404713  0.68030901  1
  Al0+  Al91  1  0.56802852  0.67868508  0.65422283  1
  Al0+  Al92  1  0.56866345  0.67655882  0.31771014  1
  Al0+  Al93  1  0.17820964  0.42796199  0.01232369  1
  Al0+  Al94  1  0.68091396  0.43052532  0.01518373  1
  Al0+  Al95  1  0.32334941  0.07322659  0.34727613  1
  Si0+  Si96  1  0.57207180  0.67919434  0.98425935  1
  Si0+  Si97  1  0.07095540  0.17772101  0.98635060  1
  Si0+  Si98  1  0.57260458  0.17733235  0.32013808  1
  Si0+  Si99  1  0.43022247  0.31974748  0.31894347  1
  Si0+  Si100  1  0.92570951  0.32226688  0.31548677  1
  Si0+  Si101  1  0.42924905  0.82051579  0.98504867  1
  Si0+  Si102  1  0.67902798  0.92841904  0.67946074  1
  Si0+  Si103  1  0.07525443  0.67820463  0.64994533  1
  Si0+  Si104  1  0.93011751  0.32097724  0.98770603  1
  Si0+  Si105  1  0.82304669  0.57469158  0.01795667  1
  Si0+  Si106  1  0.32379606  0.07114799  0.01585408  1
  Si0+  Si107  1  0.92821816  0.82347943  0.98208904  1
  Si0+  Si108  1  0.42694572  0.82152984  0.31724746  1
  Si0+  Si109  1  0.67749203  0.92679853  0.01507361  1
  Si0+  Si110  1  0.81955418  0.07048768  0.01405715  1
  Si0+  Si111  1  0.42866206  0.32237290  0.64806139  1
  Si0+  Si112  1  0.82190236  0.57391677  0.34743360  1
  Si0+  Si113  1  0.81996195  0.07024590  0.68189044  1
  Si0+  Si114  1  0.67753124  0.92404458  0.34886064  1
  Si0+  Si115  1  0.07504979  0.67622921  0.31745324  1
  Si0+  Si116  1  0.32228901  0.57223407  0.01674473  1
  Si0+  Si117  1  0.42620585  0.82227238  0.65004334  1
  Si0+  Si118  1  0.17776099  0.42880580  0.68023650  1
  Si0+  Si119  1  0.17471332  0.42647536  0.34917325  1
  O2-  O120  1  0.25212544  0.00695766  0.06194844  1
  O2-  O121  1  0.25097980  0.00173219  0.39669548  1
  O2-  O122  1  0.24887875  0.00420256  0.73404789  1
  O2-  O123  1  0.25436380  0.50164135  0.05917667  1
  O2-  O124  1  0.23927269  0.49871810  0.39322435  1
  O2-  O125  1  0.24269145  0.49958373  0.72715391  1
  O2-  O126  1  0.74694701  0.00005255  0.05543302  1
  O2-  O127  1  0.74433978  -0.00693442  0.39479815  1
  O2-  O128  1  0.74710389  0.00123239  0.72451946  1
  O2-  O129  1  0.75319554  0.50742530  0.06286559  1
  O2-  O130  1  0.75508329  0.50445490  0.39195813  1
  O2-  O131  1  0.75563470  0.49774864  0.73220430  1
  O2-  O132  1  -0.00162568  0.25892645  0.26907072  1
  O2-  O133  1  0.00147790  0.25333422  0.60244479  1
  O2-  O134  1  0.00452900  0.25345617  0.94518757  1
  O2-  O135  1  0.00644862  0.74550106  0.27324594  1
  O2-  O136  1  0.00467502  0.74486016  0.60588625  1
  O2-  O137  1  -0.00470864  0.75339083  0.93924826  1
  O2-  O138  1  0.49752079  0.24383242  0.27819208  1
  O2-  O139  1  0.49481018  0.25147712  0.60309973  1
  O2-  O140  1  0.49977749  0.24894543  0.93560296  1
  O2-  O141  1  0.49494925  0.75274099  0.27064919  1
  O2-  O142  1  0.49143634  0.75050793  0.60544246  1
  O2-  O143  1  0.50051001  0.74960377  0.94248258  1
  O2-  O144  1  0.06803945  0.17682523  0.09148644  1
  O2-  O145  1  0.06960636  0.18270284  0.43024990  1
  O2-  O146  1  0.06799739  0.18047633  0.76703441  1
  O2-  O147  1  0.06998906  0.68063273  0.10001334  1
  O2-  O148  1  0.07528699  0.67405855  0.42253033  1
  O2-  O149  1  0.07467981  0.67870024  0.75583631  1
  O2-  O150  1  0.57276280  0.17911048  0.10082517  1
  O2-  O151  1  0.57345031  0.17888315  0.42487252  1
  O2-  O152  1  0.57081729  0.17905345  0.76388142  1
  O2-  O153  1  0.57088202  0.68000481  0.08952646  1
  O2-  O154  1  0.56815192  0.67644766  0.43051396  1
  O2-  O155  1  0.56818811  0.68246160  0.76800087  1
  O2-  O156  1  0.17731748  0.42620383  0.24324134  1
  O2-  O157  1  0.18092463  0.42944463  0.57452008  1
  O2-  O158  1  0.17557501  0.43046896  0.89953139  1
  O2-  O159  1  0.18098089  0.92979001  0.23514827  1
  O2-  O160  1  0.17611919  0.93239242  0.57138010  1
  O2-  O161  1  0.17807644  0.93168755  0.90380316  1
  O2-  O162  1  0.67866545  0.42931874  0.23418857  1
  O2-  O163  1  0.67874276  0.42969730  0.57110219  1
  O2-  O164  1  0.68327522  0.42907375  0.90298020  1
  O2-  O165  1  0.67759564  0.92684342  0.24257650  1
  O2-  O166  1  0.68076371  0.92807292  0.57459279  1
  O2-  O167  1  0.67794549  0.92242416  0.91011857  1
  O2-  O168  1  0.42921654  0.32196283  0.09785438  1
  O2-  O169  1  0.43141938  0.32289329  0.42368645  1
  O2-  O170  1  0.42931897  0.32305492  0.75350623  1
  O2-  O171  1  0.43108087  0.82099012  0.09023149  1
  O2-  O172  1  0.42980857  0.82160090  0.42228076  1
  O2-  O173  1  0.43035047  0.82163070  0.75642964  1
  O2-  O174  1  0.92800998  0.31779461  0.09280629  1
  O2-  O175  1  0.92597738  0.32068206  0.42040757  1
  O2-  O176  1  0.92871048  0.32063533  0.76563114  1
  O2-  O177  1  0.92740967  0.82433848  0.08751061  1
  O2-  O178  1  0.92883850  0.81933108  0.43003045  1
  O2-  O179  1  0.92936992  0.81906623  0.76685767  1
  O2-  O180  1  0.32357868  0.07257525  0.23298138  1
  O2-  O181  1  0.32426555  0.06971897  0.57094504  1
  O2-  O182  1  0.32469618  0.06769004  0.91077537  1
  O2-  O183  1  0.31923338  0.56505561  0.23236908  1
  O2-  O184  1  0.32183121  0.56856243  0.56871594  1
  O2-  O185  1  0.32164311  0.57336022  0.91130755  1
  O2-  O186  1  0.81624140  0.06939434  0.23447489  1
  O2-  O187  1  0.82024531  0.06814177  0.57702502  1
  O2-  O188  1  0.82107737  0.06989295  0.90901576  1
  O2-  O189  1  0.82203405  0.57170981  0.24144939  1
  O2-  O190  1  0.81575693  0.57693517  0.56676394  1
  O2-  O191  1  0.82193653  0.57578455  0.91275673  1
  O2-  O192  1  0.03438609  0.08689296  0.26295600  1
  O2-  O193  1  0.03834878  0.08334791  0.59980279  1
  O2-  O194  1  0.03667560  0.08782521  0.93906897  1
  O2-  O195  1  0.04829514  0.58232524  0.27021780  1
  O2-  O196  1  0.05577056  0.58418764  0.60262998  1
  O2-  O197  1  0.04166341  0.58268275  0.93234220  1
  O2-  O198  1  0.55176726  0.08269609  0.27395327  1
  O2-  O199  1  0.54344868  0.08006450  0.59711966  1
  O2-  O200  1  0.54971567  0.07790507  0.93523380  1
  O2-  O201  1  0.53289450  0.58104134  0.26365223  1
  O2-  O202  1  0.53771498  0.58104960  0.60290281  1
  O2-  O203  1  0.54551140  0.58757790  0.93740390  1
  O2-  O204  1  0.16775441  0.21026717  0.26251739  1
  O2-  O205  1  0.17139967  0.20579620  0.60045219  1
  O2-  O206  1  0.16462959  0.19931527  0.94125659  1
  O2-  O207  1  0.16898948  0.70176154  0.27156157  1
  O2-  O208  1  0.16935147  0.70678600  0.60649855  1
  O2-  O209  1  0.16791019  0.71053276  0.93341235  1
  O2-  O210  1  0.66357999  0.20922706  0.27313901  1
  O2-  O211  1  0.66651591  0.20859311  0.59690808  1
  O2-  O212  1  0.67164753  0.20822870  0.93474265  1
  O2-  O213  1  0.66310409  0.70611348  0.25836194  1
  O2-  O214  1  0.66236398  0.71300413  0.59889619  1
  O2-  O215  1  0.66431436  0.70921592  0.93902255  1
  O2-  O216  1  0.08280137  0.45908642  0.06965228  1
  O2-  O217  1  0.07853157  0.44638820  0.39205501  1
  O2-  O218  1  0.08227994  0.45043780  0.72387480  1
  O2-  O219  1  0.08122029  0.95939962  0.06925283  1
  O2-  O220  1  0.07950849  0.95979477  0.39814244  1
  O2-  O221  1  0.07817599  0.96133798  0.73839936  1
  O2-  O222  1  0.58331236  0.46127656  0.06811439  1
  O2-  O223  1  0.58386063  0.46127248  0.40190212  1
  O2-  O224  1  0.58358325  0.45882666  0.73847084  1
  O2-  O225  1  0.58519974  0.95125429  0.06355948  1
  O2-  O226  1  0.58333268  0.94533196  0.39458771  1
  O2-  O227  1  0.58675402  0.95321847  0.72742937  1
  O2-  O228  1  0.20848686  0.33069578  0.06682440  1
  O2-  O229  1  0.20498901  0.33496069  0.39533671  1
  O2-  O230  1  0.20493354  0.33624202  0.72724543  1
  O2-  O231  1  0.21243945  0.83391067  0.06929304  1
  O2-  O232  1  0.20339913  0.83082579  0.40285856  1
  O2-  O233  1  0.20598658  0.83419221  0.73926975  1
  O2-  O234  1  0.71413928  0.33432297  0.06994498  1
  O2-  O235  1  0.70945579  0.33435256  0.40285158  1
  O2-  O236  1  0.70882329  0.32792098  0.73656956  1
  O2-  O237  1  0.70737729  0.83659820  0.06580916  1
  O2-  O238  1  0.70480295  0.82900000  0.38987816  1
  O2-  O239  1  0.70985039  0.83848536  0.72888368  1
  O2-  O240  1  0.46308310  0.40848788  0.26873382  1
  O2-  O241  1  0.45841211  0.41516000  0.60275836  1
  O2-  O242  1  0.45705021  0.42125911  0.93168132  1
  O2-  O243  1  0.45378423  0.91442260  0.26846045  1
  O2-  O244  1  0.45469219  0.91423214  0.60370617  1
  O2-  O245  1  0.45811840  0.91110320  0.93585802  1
  O2-  O246  1  0.94387682  0.41847393  0.27049508  1
  O2-  O247  1  0.95216197  0.42334444  0.59636926  1
  O2-  O248  1  0.95379049  0.41422792  0.94211785  1
  O2-  O249  1  0.95927947  0.91721012  0.26205740  1
  O2-  O250  1  0.95938505  0.91592551  0.60004823  1
  O2-  O251  1  0.95480427  0.91724696  0.93647873  1
  O2-  O252  1  0.33734633  0.29675367  0.27073726  1
  O2-  O253  1  0.33438748  0.30129865  0.60147097  1
  O2-  O254  1  0.32925399  0.29659065  0.92919780  1
  O2-  O255  1  0.33315170  0.79410824  0.27208708  1
  O2-  O256  1  0.33078279  0.79965806  0.60797345  1
  O2-  O257  1  0.33803847  0.79256100  0.93736697  1
  O2-  O258  1  0.83340027  0.28899594  0.26999604  1
  O2-  O259  1  0.83072558  0.29317126  0.59856609  1
  O2-  O260  1  0.84054648  0.28834825  0.93903107  1
  O2-  O261  1  0.83525044  0.79097907  0.25812073  1
  O2-  O262  1  0.83363667  0.79006454  0.59737039  1
  O2-  O263  1  0.83276166  0.80079215  0.93747607  1
  O2-  O264  1  0.41705178  0.04185590  0.06195384  1
  O2-  O265  1  0.42267237  0.04531487  0.39890300  1
  O2-  O266  1  0.42167955  0.04162657  0.73706920  1
  O2-  O267  1  0.41643558  0.54755881  0.06216342  1
  O2-  O268  1  0.41257902  0.53128404  0.40029404  1
  O2-  O269  1  0.41501252  0.53735866  0.73850238  1
  O2-  O270  1  0.90970873  0.04039382  0.06404052  1
  O2-  O271  1  0.91466477  0.03735735  0.40114600  1
  O2-  O272  1  0.91002885  0.04020982  0.73099525  1
  O2-  O273  1  0.91622706  0.54859766  0.06420832  1
  O2-  O274  1  0.91669638  0.55317010  0.39356510  1
  O2-  O275  1  0.92410475  0.55271081  0.72914953  1
  O2-  O276  1  0.30272092  0.16710460  0.05827024  1
  O2-  O277  1  0.29652380  0.17229268  0.39897712  1
  O2-  O278  1  0.29972680  0.17424605  0.73456633  1
  O2-  O279  1  0.29554966  0.66512425  0.06354054  1
  O2-  O280  1  0.29522222  0.66515807  0.40169254  1
  O2-  O281  1  0.29537508  0.66806770  0.73715098  1
  O2-  O282  1  0.79322490  0.16125864  0.06419466  1
  O2-  O283  1  0.78804746  0.16347867  0.40467782  1
  O2-  O284  1  0.79267392  0.16224184  0.72864569  1
  O2-  O285  1  0.79856149  0.66961068  0.06328088  1
  O2-  O286  1  0.79395541  0.66843609  0.38899023  1
  O2-  O287  1  0.78842015  0.67045196  0.73564667  1
