# generated using pymatgen
data_Ca2Al2SiO7
_symmetry_space_group_name_H-M   'P 1'
_cell_length_a   15.45668591
_cell_length_b   15.45583638
_cell_length_c   15.28251532
_cell_angle_alpha   90.00365929
_cell_angle_beta   90.00854201
_cell_angle_gamma   90.01775730
_symmetry_Int_Tables_number   1
_chemical_formula_structural   Ca2Al2SiO7
_chemical_formula_sum   'Ca48 Al48 Si24 O168'
_cell_volume   3650.93168280
_cell_formula_units_Z   24
loop_
 _symmetry_equiv_pos_site_id
 _symmetry_equiv_pos_as_xyz
  1  'x, y, z'
loop_
 _atom_type_symbol
 _atom_type_oxidation_number
  Ca2+  2.0
  Al0+  0.0
  Si0+  0.0
  O2-  -2.0
loop_
 _atom_site_type_symbol
 _atom_site_label
 _atom_site_symmetry_multiplicity
 _atom_site_fract_x
 _atom_site_fract_y
 _atom_site_fract_z
 _atom_site_occupancy
  Ca2+  Ca0  1  0.16616127  0.07718024  0.16831779  1
  Ca2+  Ca1  1  0.17051355  0.06932959  0.50862596  1
  Ca2+  Ca2  1  0.17349146  0.08247052  0.84194610  1
  Ca2+  Ca3  1  0.16728968  0.57420497  0.17768838  1
  Ca2+  Ca4  1  0.17413524  0.58707576  0.50092019  1
  Ca2+  Ca5  1  0.16873877  0.57917064  0.83335149  1
  Ca2+  Ca6  1  0.66216155  0.07987540  0.17123723  1
  Ca2+  Ca7  1  0.66856495  0.08158011  0.50762525  1
  Ca2+  Ca8  1  0.67159795  0.07424600  0.83236974  1
  Ca2+  Ca9  1  0.67269006  0.58016413  0.17430569  1
  Ca2+  Ca10  1  0.65816204  0.57144461  0.50204035  1
  Ca2+  Ca11  1  0.67384751  0.57544364  0.83731592  1
  Ca2+  Ca12  1  0.08379411  0.33588400  0.16038549  1
  Ca2+  Ca13  1  0.06962604  0.33770531  0.49334167  1
  Ca2+  Ca14  1  0.08207035  0.32927864  0.82895743  1
  Ca2+  Ca15  1  0.09220051  0.82960784  0.16576585  1
  Ca2+  Ca16  1  0.09645700  0.82505185  0.49627746  1
  Ca2+  Ca17  1  0.09158946  0.82916891  0.82610597  1
  Ca2+  Ca18  1  0.58474399  0.32976172  0.16927213  1
  Ca2+  Ca19  1  0.58156977  0.33196147  0.49377719  1
  Ca2+  Ca20  1  0.57619071  0.33369489  0.82172480  1
  Ca2+  Ca21  1  0.57737834  0.83134327  0.16362723  1
  Ca2+  Ca22  1  0.57576430  0.82891266  0.48882169  1
  Ca2+  Ca23  1  0.58632657  0.83603336  0.82894788  1
  Ca2+  Ca24  1  0.31887560  0.41969430  0.17484061  1
  Ca2+  Ca25  1  0.33605820  0.42887882  0.50483129  1
  Ca2+  Ca26  1  0.33250429  0.42134524  0.83635430  1
  Ca2+  Ca27  1  0.32567744  0.91855655  0.17106010  1
  Ca2+  Ca28  1  0.32908903  0.91734713  0.50407794  1
  Ca2+  Ca29  1  0.32259873  0.92830805  0.83580954  1
  Ca2+  Ca30  1  0.83339877  0.42088719  0.17371451  1
  Ca2+  Ca31  1  0.82419161  0.40756267  0.50328766  1
  Ca2+  Ca32  1  0.83412344  0.41833060  0.83164822  1
  Ca2+  Ca33  1  0.82797237  0.91739717  0.16788604  1
  Ca2+  Ca34  1  0.82480422  0.92437111  0.50981584  1
  Ca2+  Ca35  1  0.82523782  0.91749507  0.83419673  1
  Ca2+  Ca36  1  0.41982717  0.16221919  0.16277072  1
  Ca2+  Ca37  1  0.41984468  0.16917852  0.49853697  1
  Ca2+  Ca38  1  0.41011654  0.17038265  0.82656206  1
  Ca2+  Ca39  1  0.41488305  0.66810238  0.17266033  1
  Ca2+  Ca40  1  0.41585462  0.66947378  0.48933281  1
  Ca2+  Ca41  1  0.41633329  0.66783420  0.82511174  1
  Ca2+  Ca42  1  0.92501632  0.17522088  0.16304828  1
  Ca2+  Ca43  1  0.90962538  0.17507253  0.49676587  1
  Ca2+  Ca44  1  0.92289935  0.16753011  0.82573819  1
  Ca2+  Ca45  1  0.92223674  0.66269103  0.16370798  1
  Ca2+  Ca46  1  0.93137010  0.66721177  0.49542440  1
  Ca2+  Ca47  1  0.92281230  0.66585591  0.82729316  1
  Al0+  Al48  1  -0.00111638  0.00001595  -0.00142519  1
  Al0+  Al49  1  -0.00075124  0.00098042  0.33845792  1
  Al0+  Al50  1  -0.00150281  -0.00241897  0.67257411  1
  Al0+  Al51  1  -0.00066081  0.50143186  0.00440645  1
  Al0+  Al52  1  -0.00140415  0.50131954  0.32869991  1
  Al0+  Al53  1  0.00055677  0.49994090  0.65662271  1
  Al0+  Al54  1  0.50046372  -0.00070190  0.00421116  1
  Al0+  Al55  1  0.49934965  0.00005327  0.32583527  1
  Al0+  Al56  1  0.49848728  -0.00017508  0.67312939  1
  Al0+  Al57  1  0.50192986  0.50068576  -0.00045713  1
  Al0+  Al58  1  0.50065214  0.49938783  0.33347622  1
  Al0+  Al59  1  0.49943690  0.49952208  0.67215625  1
  Al0+  Al60  1  0.25036269  0.25108080  0.00359997  1
  Al0+  Al61  1  0.24846140  0.24883400  0.33895295  1
  Al0+  Al62  1  0.24913657  0.25147098  0.66069006  1
  Al0+  Al63  1  0.25241227  0.75106179  -0.00041543  1
  Al0+  Al64  1  0.24988986  0.75023642  0.32956677  1
  Al0+  Al65  1  0.25289708  0.74865484  0.67112782  1
  Al0+  Al66  1  0.74885771  0.25001746  -0.00312353  1
  Al0+  Al67  1  0.75055887  0.25127495  0.32523212  1
  Al0+  Al68  1  0.74959581  0.24898227  0.67361329  1
  Al0+  Al69  1  0.75082491  0.74881582  0.00702637  1
  Al0+  Al70  1  0.75082701  0.75045941  0.33151418  1
  Al0+  Al71  1  0.75154309  0.74754409  0.66716073  1
  Al0+  Al72  1  0.92897933  0.31840879  0.65322223  1
  Al0+  Al73  1  0.82011345  0.56888565  0.01331074  1
  Al0+  Al74  1  0.32077470  0.56954943  0.68114850  1
  Al0+  Al75  1  0.06978781  0.68196803  0.31782851  1
  Al0+  Al76  1  0.31941836  0.56913756  0.34741468  1
  Al0+  Al77  1  0.42851769  0.82096175  0.31662275  1
  Al0+  Al78  1  0.07081584  0.18005059  0.98683900  1
  Al0+  Al79  1  0.17992691  0.92721163  0.68175598  1
  Al0+  Al80  1  0.56988166  0.18071343  0.32031095  1
  Al0+  Al81  1  0.42748352  0.32293986  0.65263266  1
  Al0+  Al82  1  0.17695119  0.92800104  0.01603026  1
  Al0+  Al83  1  0.17481602  0.42648116  0.35107031  1
  Al0+  Al84  1  0.07235240  0.68126154  0.65318439  1
  Al0+  Al85  1  0.67909649  0.42901343  0.68031909  1
  Al0+  Al86  1  0.31954044  0.07428912  0.68038731  1
  Al0+  Al87  1  0.67780664  0.92584758  0.67888666  1
  Al0+  Al88  1  0.17932368  0.93066102  0.34746045  1
  Al0+  Al89  1  0.68175331  0.42926397  0.34565256  1
  Al0+  Al90  1  0.18078580  0.43146088  0.01096977  1
  Al0+  Al91  1  0.93028892  0.32011291  0.31770660  1
  Al0+  Al92  1  0.68065634  0.93006726  0.01621179  1
  Al0+  Al93  1  0.57278721  0.67634935  0.31775285  1
  Al0+  Al94  1  0.32019703  0.07248094  0.01697144  1
  Al0+  Al95  1  0.82118667  0.07211654  0.68203604  1
  Si0+  Si96  1  0.92702356  0.81989303  0.98529474  1
  Si0+  Si97  1  0.43209539  0.82041879  0.65421276  1
  Si0+  Si98  1  0.81903162  0.07123484  0.34587797  1
  Si0+  Si99  1  0.43019953  0.82119216  0.98154455  1
  Si0+  Si100  1  0.32527779  0.57325763  0.01688752  1
  Si0+  Si101  1  0.57264398  0.67970512  0.98345576  1
  Si0+  Si102  1  0.92586343  0.82250264  0.65012358  1
  Si0+  Si103  1  0.82236661  0.57465663  0.35208652  1
  Si0+  Si104  1  0.07145563  0.67931805  0.98479933  1
  Si0+  Si105  1  0.57303506  0.67777106  0.65409366  1
  Si0+  Si106  1  0.07232966  0.17474785  0.64938920  1
  Si0+  Si107  1  0.92784403  0.32415863  0.98203753  1
  Si0+  Si108  1  0.82205860  0.07415473  0.01820552  1
  Si0+  Si109  1  0.82467178  0.57042057  0.68031483  1
  Si0+  Si110  1  0.67776720  0.92900116  0.34676306  1
  Si0+  Si111  1  0.56999322  0.17793112  0.65293778  1
  Si0+  Si112  1  0.57153265  0.17692739  0.98223553  1
  Si0+  Si113  1  0.07240637  0.17573334  0.31887411  1
  Si0+  Si114  1  0.17493052  0.42915332  0.68077824  1
  Si0+  Si115  1  0.42582115  0.32247674  0.31681400  1
  Si0+  Si116  1  0.32531223  0.07188856  0.35091880  1
  Si0+  Si117  1  0.43066023  0.32100035  0.98615042  1
  Si0+  Si118  1  0.67623762  0.42662826  0.01723654  1
  Si0+  Si119  1  0.92693500  0.82552727  0.31679682  1
  O2-  O120  1  0.24737328  0.00116743  0.06626135  1
  O2-  O121  1  0.25374616  0.00577596  0.39370762  1
  O2-  O122  1  0.24316855  0.00723101  0.73088895  1
  O2-  O123  1  0.25431686  0.50656013  0.05878143  1
  O2-  O124  1  0.24945897  0.49642361  0.39982415  1
  O2-  O125  1  0.24689628  0.49358998  0.72675074  1
  O2-  O126  1  0.75221408  0.00743211  0.06396216  1
  O2-  O127  1  0.74895342  -0.00066055  0.38857451  1
  O2-  O128  1  0.75155521  -0.00403727  0.72932792  1
  O2-  O129  1  0.74808044  0.49196993  0.06005582  1
  O2-  O130  1  0.75198549  0.50709649  0.39510294  1
  O2-  O131  1  0.75523162  0.50299660  0.72557373  1
  O2-  O132  1  0.01124379  0.25090720  0.27335430  1
  O2-  O133  1  0.00177841  0.24200183  0.60547220  1
  O2-  O134  1  -0.00543073  0.25335145  0.93889882  1
  O2-  O135  1  -0.00517740  0.75695884  0.27108627  1
  O2-  O136  1  -0.00070355  0.75859293  0.60692178  1
  O2-  O137  1  0.00342417  0.75392704  0.94321853  1
  O2-  O138  1  0.49209423  0.25159231  0.27164859  1
  O2-  O139  1  0.50139201  0.24612008  0.60796729  1
  O2-  O140  1  0.50154945  0.24999524  0.94219009  1
  O2-  O141  1  0.50214053  0.74934591  0.26693964  1
  O2-  O142  1  0.50700850  0.75327344  0.61258787  1
  O2-  O143  1  0.50056902  0.74865956  0.93922319  1
  O2-  O144  1  0.06857335  0.18187485  0.10006094  1
  O2-  O145  1  0.06647881  0.17153944  0.42406979  1
  O2-  O146  1  0.07268601  0.17825652  0.75529257  1
  O2-  O147  1  0.06980513  0.67847269  0.08959751  1
  O2-  O148  1  0.07039005  0.68378549  0.43101258  1
  O2-  O149  1  0.06939085  0.67951007  0.76710022  1
  O2-  O150  1  0.57270684  0.17812606  0.08746569  1
  O2-  O151  1  0.57131836  0.18017093  0.43344945  1
  O2-  O152  1  0.56914399  0.17904835  0.75882249  1
  O2-  O153  1  0.57197790  0.67943374  0.08801873  1
  O2-  O154  1  0.57287229  0.67923218  0.43194192  1
  O2-  O155  1  0.57222869  0.67757882  0.75975260  1
  O2-  O156  1  0.17673577  0.42851492  0.23680008  1
  O2-  O157  1  0.17356917  0.43289526  0.57585166  1
  O2-  O158  1  0.18123431  0.43297629  0.89753274  1
  O2-  O159  1  0.17819868  0.93336244  0.23453943  1
  O2-  O160  1  0.18554616  0.92549929  0.56820932  1
  O2-  O161  1  0.18025274  0.92618330  0.90279632  1
  O2-  O162  1  0.68534383  0.42844875  0.23228337  1
  O2-  O163  1  0.67838904  0.42879488  0.56738035  1
  O2-  O164  1  0.67309058  0.42884560  0.91163441  1
  O2-  O165  1  0.67938336  0.93017222  0.24158437  1
  O2-  O166  1  0.67716275  0.92692516  0.56494875  1
  O2-  O167  1  0.68268410  0.92929043  0.90323303  1
  O2-  O168  1  0.43330509  0.32212804  0.09104189  1
  O2-  O169  1  0.42951964  0.32270501  0.42230408  1
  O2-  O170  1  0.42999193  0.32397900  0.76652378  1
  O2-  O171  1  0.43045145  0.82002992  0.08624667  1
  O2-  O172  1  0.43151379  0.82281004  0.43093103  1
  O2-  O173  1  0.43275900  0.81824558  0.75963300  1
  O2-  O174  1  0.92784851  0.32381096  0.08757305  1
  O2-  O175  1  0.92499157  0.31517414  0.43066751  1
  O2-  O176  1  0.93224568  0.32038663  0.76659748  1
  O2-  O177  1  0.92423822  0.81737887  0.09029584  1
  O2-  O178  1  0.92450247  0.82549399  0.42218796  1
  O2-  O179  1  0.92125959  0.81798422  0.75585115  1
  O2-  O180  1  0.32607084  0.07114603  0.24539556  1
  O2-  O181  1  0.32313863  0.07010029  0.56690927  1
  O2-  O182  1  0.31954248  0.07296711  0.90347666  1
  O2-  O183  1  0.31730068  0.56721148  0.23332689  1
  O2-  O184  1  0.32262117  0.57238601  0.56887973  1
  O2-  O185  1  0.32669303  0.57189530  0.91096772  1
  O2-  O186  1  0.81903937  0.06920819  0.24068163  1
  O2-  O187  1  0.81618470  0.07309632  0.56776117  1
  O2-  O188  1  0.82038235  0.07320301  0.91292042  1
  O2-  O189  1  0.82155611  0.57322686  0.24601468  1
  O2-  O190  1  0.82391062  0.57158989  0.57528652  1
  O2-  O191  1  0.81958993  0.56849451  0.89978283  1
  O2-  O192  1  0.03853123  0.08533102  0.27018715  1
  O2-  O193  1  0.04779861  0.07900484  0.60694222  1
  O2-  O194  1  0.04089950  0.08285803  0.93243506  1
  O2-  O195  1  0.03710069  0.58634892  0.26247340  1
  O2-  O196  1  0.04015124  0.58710792  0.59586416  1
  O2-  O197  1  0.03879813  0.58876134  0.93724282  1
  O2-  O198  1  0.54193814  0.08469265  0.26314743  1
  O2-  O199  1  0.54488787  0.08352614  0.60744211  1
  O2-  O200  1  0.54356188  0.08448259  0.93668049  1
  O2-  O201  1  0.54511171  0.57804992  0.26367796  1
  O2-  O202  1  0.53983153  0.58766802  0.60769827  1
  O2-  O203  1  0.54671354  0.58653956  0.93604022  1
  O2-  O204  1  0.16946534  0.19265984  0.27654076  1
  O2-  O205  1  0.16493716  0.19925358  0.60138570  1
  O2-  O206  1  0.16746852  0.21335726  0.93371243  1
  O2-  O207  1  0.16501921  0.71195103  0.26174877  1
  O2-  O208  1  0.17008969  0.71237718  0.60137808  1
  O2-  O209  1  0.16541385  0.70315952  0.93870342  1
  O2-  O210  1  0.66352383  0.21366321  0.26110893  1
  O2-  O211  1  0.66401048  0.20397424  0.60881368  1
  O2-  O212  1  0.66412559  0.20290351  0.93457375  1
  O2-  O213  1  0.67197476  0.70492395  0.26534917  1
  O2-  O214  1  0.66664395  0.69814356  0.60699160  1
  O2-  O215  1  0.66481614  0.70933307  0.93753100  1
  O2-  O216  1  0.08464834  0.46102447  0.06574372  1
  O2-  O217  1  0.07574429  0.45813102  0.39962732  1
  O2-  O218  1  0.08287565  0.45935075  0.72787764  1
  O2-  O219  1  0.07619455  0.95211983  0.06594238  1
  O2-  O220  1  0.08233021  0.95922337  0.40292793  1
  O2-  O221  1  0.07731741  0.94212876  0.73012066  1
  O2-  O222  1  0.58435618  0.45590864  0.06466812  1
  O2-  O223  1  0.58369828  0.45538065  0.39862528  1
  O2-  O224  1  0.58551212  0.46310022  0.73791637  1
  O2-  O225  1  0.58413536  0.95937104  0.06999449  1
  O2-  O226  1  0.58565846  0.95783307  0.39201158  1
  O2-  O227  1  0.58185945  0.95556023  0.73563040  1
  O2-  O228  1  0.21194581  0.33697955  0.06761997  1
  O2-  O229  1  0.19582936  0.32559916  0.40196014  1
  O2-  O230  1  0.19640347  0.33334055  0.72310959  1
  O2-  O231  1  0.20904861  0.82934152  0.06723688  1
  O2-  O232  1  0.21224507  0.83399020  0.39832643  1
  O2-  O233  1  0.21670081  0.83304051  0.73757338  1
  O2-  O234  1  0.69799952  0.33071160  0.05995561  1
  O2-  O235  1  0.71579838  0.33260020  0.39775419  1
  O2-  O236  1  0.70792159  0.33398363  0.73746353  1
  O2-  O237  1  0.71339775  0.83488054  0.07102168  1
  O2-  O238  1  0.70448019  0.83676474  0.39350805  1
  O2-  O239  1  0.70580112  0.82698466  0.73281078  1
  O2-  O240  1  0.45405728  0.41416948  0.26885993  1
  O2-  O241  1  0.46311512  0.41888286  0.60021827  1
  O2-  O242  1  0.45890364  0.41337261  0.93802739  1
  O2-  O243  1  0.45806682  0.91769525  0.26080618  1
  O2-  O244  1  0.45611801  0.91351923  0.60745327  1
  O2-  O245  1  0.46092028  0.91307922  0.93598986  1
  O2-  O246  1  0.95477168  0.41817442  0.26403186  1
  O2-  O247  1  0.95803758  0.41387633  0.59614394  1
  O2-  O248  1  0.95585720  0.41770766  0.93684339  1
  O2-  O249  1  0.95206380  0.91966025  0.27120039  1
  O2-  O250  1  0.94418139  0.91887102  0.60699814  1
  O2-  O251  1  0.94718164  0.91384870  0.93899811  1
  O2-  O252  1  0.33012913  0.29877664  0.27359126  1
  O2-  O253  1  0.33084374  0.29760073  0.59629042  1
  O2-  O254  1  0.33865933  0.29442460  0.93909239  1
  O2-  O255  1  0.33239707  0.79026574  0.26113806  1
  O2-  O256  1  0.34216028  0.78781664  0.60697821  1
  O2-  O257  1  0.33835089  0.79345166  0.93336486  1
  O2-  O258  1  0.83773778  0.28406998  0.25893806  1
  O2-  O259  1  0.83050929  0.28708893  0.60223384  1
  O2-  O260  1  0.83221627  0.30152370  0.93759574  1
  O2-  O261  1  0.83339817  0.80078012  0.26938751  1
  O2-  O262  1  0.83415009  0.79270334  0.60090349  1
  O2-  O263  1  0.83722737  0.78537421  0.93718818  1
  O2-  O264  1  0.41869898  0.04242464  0.06835814  1
  O2-  O265  1  0.41845337  0.04270144  0.39620356  1
  O2-  O266  1  0.41597175  0.04352381  0.73614950  1
  O2-  O267  1  0.41883982  0.54654634  0.06211783  1
  O2-  O268  1  0.41931697  0.54369209  0.39905535  1
  O2-  O269  1  0.41584354  0.53922078  0.73894469  1
  O2-  O270  1  0.91475133  0.04669638  0.06423891  1
  O2-  O271  1  0.90965269  0.04585090  0.39630480  1
  O2-  O272  1  0.91927589  0.04623632  0.73660189  1
  O2-  O273  1  0.91582026  0.54068522  0.07007204  1
  O2-  O274  1  0.91571068  0.54738473  0.39588160  1
  O2-  O275  1  0.91757095  0.54204292  0.72667446  1
  O2-  O276  1  0.29495864  0.17097408  0.07056718  1
  O2-  O277  1  0.30470575  0.16673497  0.39599036  1
  O2-  O278  1  0.29519924  0.17525700  0.73071434  1
  O2-  O279  1  0.30204407  0.66782307  0.06021620  1
  O2-  O280  1  0.29057585  0.66830170  0.39790630  1
  O2-  O281  1  0.28963592  0.66403945  0.73879712  1
  O2-  O282  1  0.79737475  0.16934386  0.06208158  1
  O2-  O283  1  0.78765776  0.16235567  0.39123627  1
  O2-  O284  1  0.79036215  0.16680597  0.74044569  1
  O2-  O285  1  0.78833286  0.66302901  0.07060012  1
  O2-  O286  1  0.80050227  0.66984018  0.39661853  1
  O2-  O287  1  0.80032918  0.66353251  0.72849058  1
