# generated using pymatgen
data_Ca2Al2SiO7
_symmetry_space_group_name_H-M   'P 1'
_cell_length_a   15.46293295
_cell_length_b   15.46408487
_cell_length_c   15.28765800
_cell_angle_alpha   89.99895726
_cell_angle_beta   89.99677063
_cell_angle_gamma   89.99035451
_symmetry_Int_Tables_number   1
_chemical_formula_structural   Ca2Al2SiO7
_chemical_formula_sum   'Ca48 Al48 Si24 O168'
_cell_volume   3655.58636660
_cell_formula_units_Z   24
loop_
 _symmetry_equiv_pos_site_id
 _symmetry_equiv_pos_as_xyz
  1  'x, y, z'
loop_
 _atom_type_symbol
 _atom_type_oxidation_number
  Ca2+  2.0
  Al0+  0.0
  Si0+  0.0
  O2-  -2.0
loop_
 _atom_site_type_symbol
 _atom_site_label
 _atom_site_symmetry_multiplicity
 _atom_site_fract_x
 _atom_site_fract_y
 _atom_site_fract_z
 _atom_site_occupancy
  Ca2+  Ca0  1  0.16935644  0.09048302  0.16627804  1
  Ca2+  Ca1  1  0.16088530  0.08630746  0.50450594  1
  Ca2+  Ca2  1  0.16547829  0.08766938  0.83978214  1
  Ca2+  Ca3  1  0.16859120  0.57228167  0.17521257  1
  Ca2+  Ca4  1  0.17121037  0.57325005  0.51182360  1
  Ca2+  Ca5  1  0.16551636  0.57957128  0.83101594  1
  Ca2+  Ca6  1  0.67240491  0.08022786  0.17038493  1
  Ca2+  Ca7  1  0.66220252  0.07219129  0.50288041  1
  Ca2+  Ca8  1  0.67475831  0.08109047  0.84015000  1
  Ca2+  Ca9  1  0.67445881  0.58182312  0.16970871  1
  Ca2+  Ca10  1  0.67304234  0.57648285  0.50734476  1
  Ca2+  Ca11  1  0.67234009  0.58406717  0.83320556  1
  Ca2+  Ca12  1  0.07968206  0.32717909  0.16083525  1
  Ca2+  Ca13  1  0.08604531  0.33194438  0.49817908  1
  Ca2+  Ca14  1  0.07361581  0.32620427  0.82668557  1
  Ca2+  Ca15  1  0.08069341  0.82823087  0.16386227  1
  Ca2+  Ca16  1  0.07810137  0.82432847  0.50386269  1
  Ca2+  Ca17  1  0.07617140  0.82559578  0.82342586  1
  Ca2+  Ca18  1  0.57773970  0.33936693  0.16101441  1
  Ca2+  Ca19  1  0.57954320  0.34743080  0.50121030  1
  Ca2+  Ca20  1  0.57274109  0.34236461  0.82675557  1
  Ca2+  Ca21  1  0.57887728  0.83160318  0.16090728  1
  Ca2+  Ca22  1  0.58165354  0.82484982  0.49380381  1
  Ca2+  Ca23  1  0.58218309  0.81960547  0.83116292  1
  Ca2+  Ca24  1  0.32849251  0.41332604  0.17011632  1
  Ca2+  Ca25  1  0.32371147  0.41757570  0.51146004  1
  Ca2+  Ca26  1  0.33159386  0.41446642  0.83078699  1
  Ca2+  Ca27  1  0.34223041  0.92095492  0.16875560  1
  Ca2+  Ca28  1  0.33566945  0.91760821  0.50324339  1
  Ca2+  Ca29  1  0.33228861  0.92327853  0.84239064  1
  Ca2+  Ca30  1  0.83285441  0.42602128  0.17252050  1
  Ca2+  Ca31  1  0.82698932  0.42484742  0.51009776  1
  Ca2+  Ca32  1  0.83915865  0.42346192  0.83716696  1
  Ca2+  Ca33  1  0.82766259  0.92446698  0.17054460  1
  Ca2+  Ca34  1  0.83187530  0.91467699  0.50412720  1
  Ca2+  Ca35  1  0.83917784  0.92296644  0.83906325  1
  Ca2+  Ca36  1  0.41864741  0.17188255  0.15704629  1
  Ca2+  Ca37  1  0.41650157  0.17502677  0.50063411  1
  Ca2+  Ca38  1  0.41148698  0.17715792  0.83225819  1
  Ca2+  Ca39  1  0.42594294  0.67823609  0.15589360  1
  Ca2+  Ca40  1  0.42210318  0.66226807  0.49880470  1
  Ca2+  Ca41  1  0.42832878  0.66109848  0.82670180  1
  Ca2+  Ca42  1  0.92553685  0.17244661  0.15541772  1
  Ca2+  Ca43  1  0.92746244  0.17566777  0.49796882  1
  Ca2+  Ca44  1  0.91965152  0.17580431  0.82649465  1
  Ca2+  Ca45  1  0.91114931  0.66173664  0.16350471  1
  Ca2+  Ca46  1  0.91352664  0.66026400  0.50363546  1
  Ca2+  Ca47  1  0.91488848  0.66931485  0.82278420  1
  Al0+  Al48  1  0.00129992  -0.00193082  0.00452309  1
  Al0+  Al49  1  0.00272039  -0.00062609  0.32843322  1
  Al0+  Al50  1  -0.00045833  -0.00076255  0.65968256  1
  Al0+  Al51  1  0.00042364  0.49875580  0.00310766  1
  Al0+  Al52  1  0.00189922  0.49947963  0.34045861  1
  Al0+  Al53  1  0.00038436  0.49931474  0.66765750  1
  Al0+  Al54  1  0.49857294  0.00034264  0.00030487  1
  Al0+  Al55  1  0.50012053  0.00197457  0.33444488  1
  Al0+  Al56  1  0.49975212  -0.00003921  0.67017686  1
  Al0+  Al57  1  0.49937855  0.50122341  -0.00592623  1
  Al0+  Al58  1  0.50086998  0.50262927  0.33119432  1
  Al0+  Al59  1  0.49921737  0.50063788  0.66321899  1
  Al0+  Al60  1  0.25021589  0.24825152  -0.00160393  1
  Al0+  Al61  1  0.25118525  0.24869698  0.33290841  1
  Al0+  Al62  1  0.25208612  0.24958898  0.66341046  1
  Al0+  Al63  1  0.24957556  0.75045591  -0.00143137  1
  Al0+  Al64  1  0.24929771  0.75295497  0.32835249  1
  Al0+  Al65  1  0.24902636  0.75234867  0.66814569  1
  Al0+  Al66  1  0.74970470  0.25110040  0.00261953  1
  Al0+  Al67  1  0.75032565  0.25041620  0.33673961  1
  Al0+  Al68  1  0.74856721  0.24663536  0.66488468  1
  Al0+  Al69  1  0.74976644  0.74884941  0.00110395  1
  Al0+  Al70  1  0.75046306  0.75198045  0.33857598  1
  Al0+  Al71  1  0.74606987  0.74982684  0.66166782  1
  Al0+  Al72  1  0.67895538  0.93248902  0.34674465  1
  Al0+  Al73  1  0.42905247  0.82226493  0.31964474  1
  Al0+  Al74  1  0.18290562  0.42748827  0.34638240  1
  Al0+  Al75  1  0.07124329  0.17945871  0.31631472  1
  Al0+  Al76  1  0.92710851  0.32260825  0.98668038  1
  Al0+  Al77  1  0.42944690  0.32041186  0.98675655  1
  Al0+  Al78  1  0.92596928  0.32248814  0.65044256  1
  Al0+  Al79  1  0.57196192  0.67996975  0.98392264  1
  Al0+  Al80  1  0.67850523  0.42618990  0.68347896  1
  Al0+  Al81  1  0.92710590  0.82043247  0.65187815  1
  Al0+  Al82  1  0.43177963  0.31972776  0.65171604  1
  Al0+  Al83  1  0.82278648  0.07297250  0.01314454  1
  Al0+  Al84  1  0.81977814  0.57073384  0.68326090  1
  Al0+  Al85  1  0.06982085  0.17794583  0.98539570  1
  Al0+  Al86  1  0.82160362  0.57113126  0.35004315  1
  Al0+  Al87  1  0.07236279  0.67774483  0.65249357  1
  Al0+  Al88  1  0.56879687  0.67903518  0.64994559  1
  Al0+  Al89  1  0.17850534  0.42615620  0.68449480  1
  Al0+  Al90  1  0.82170293  0.57033433  0.01377575  1
  Al0+  Al91  1  0.42766013  0.82335334  0.98310300  1
  Al0+  Al92  1  0.07120668  0.18030703  0.65150240  1
  Al0+  Al93  1  0.31936519  0.07029413  0.01420088  1
  Al0+  Al94  1  0.32044138  0.57291996  0.68179898  1
  Al0+  Al95  1  0.67642494  0.42760871  0.34757733  1
  Si0+  Si96  1  0.42800791  0.82467784  0.65100435  1
  Si0+  Si97  1  0.82549412  0.07147336  0.35052033  1
  Si0+  Si98  1  0.17786954  0.92747386  0.34965234  1
  Si0+  Si99  1  0.18105434  0.42995654  0.01526926  1
  Si0+  Si100  1  0.82160668  0.06773966  0.67981117  1
  Si0+  Si101  1  0.32260593  0.57250401  0.01539974  1
  Si0+  Si102  1  0.32158796  0.06996920  0.68181335  1
  Si0+  Si103  1  0.32075857  0.57505980  0.34603518  1
  Si0+  Si104  1  0.67686932  0.92850121  0.68306259  1
  Si0+  Si105  1  0.17760024  0.92506265  0.01913610  1
  Si0+  Si106  1  0.67505829  0.42890156  0.01542097  1
  Si0+  Si107  1  0.57298628  0.67936718  0.31480666  1
  Si0+  Si108  1  0.92973222  0.81918970  0.98880814  1
  Si0+  Si109  1  0.32033728  0.06977309  0.34949787  1
  Si0+  Si110  1  0.67939517  0.92895773  0.01554305  1
  Si0+  Si111  1  0.92779997  0.32340540  0.31710605  1
  Si0+  Si112  1  0.07173939  0.67696834  0.98781057  1
  Si0+  Si113  1  0.43095280  0.32095096  0.31884651  1
  Si0+  Si114  1  0.57193797  0.17389640  0.65002257  1
  Si0+  Si115  1  0.07041508  0.67838739  0.31826095  1
  Si0+  Si116  1  0.17735629  0.93065781  0.68113939  1
  Si0+  Si117  1  0.57352001  0.17736190  0.98494672  1
  Si0+  Si118  1  0.92838036  0.82083034  0.31629156  1
  Si0+  Si119  1  0.57167269  0.17775056  0.31923260  1
  O2-  O120  1  0.24770575  -0.00687057  0.06276608  1
  O2-  O121  1  0.24876238  -0.00089721  0.39126774  1
  O2-  O122  1  0.24836379  0.00124603  0.72328149  1
  O2-  O123  1  0.25204300  0.50140528  0.05839296  1
  O2-  O124  1  0.25652238  0.50362886  0.39129686  1
  O2-  O125  1  0.24802723  0.50184112  0.73345193  1
  O2-  O126  1  0.74581812  0.00007079  0.05988730  1
  O2-  O127  1  0.75438846  0.00564136  0.39570446  1
  O2-  O128  1  0.75070625  -0.00300719  0.72383487  1
  O2-  O129  1  0.74747875  0.49417744  0.05889651  1
  O2-  O130  1  0.75018637  0.49737842  0.39706748  1
  O2-  O131  1  0.75312360  0.49446749  0.73489490  1
  O2-  O132  1  -0.00567845  0.25268515  0.27186601  1
  O2-  O133  1  0.00335839  0.25537880  0.60053789  1
  O2-  O134  1  -0.00620375  0.24549862  0.93711830  1
  O2-  O135  1  -0.00394525  0.74590321  0.27481207  1
  O2-  O136  1  -0.00468467  0.74460276  0.60177782  1
  O2-  O137  1  0.00025715  0.74809997  0.94725581  1
  O2-  O138  1  0.50754263  0.25540574  0.27745323  1
  O2-  O139  1  0.50918770  0.24751769  0.60494389  1
  O2-  O140  1  0.50686353  0.24773250  0.94110007  1
  O2-  O141  1  0.50287759  0.74760699  0.27191468  1
  O2-  O142  1  0.49141319  0.75272101  0.60529550  1
  O2-  O143  1  0.49679747  0.74927540  0.93390343  1
  O2-  O144  1  0.07106409  0.18223086  0.09935685  1
  O2-  O145  1  0.07119854  0.17896029  0.42887894  1
  O2-  O146  1  0.06783147  0.17603433  0.76465797  1
  O2-  O147  1  0.07233170  0.67781451  0.09357419  1
  O2-  O148  1  0.07411132  0.68171813  0.42245481  1
  O2-  O149  1  0.07378127  0.68422801  0.76657161  1
  O2-  O150  1  0.57164745  0.17684975  0.09114211  1
  O2-  O151  1  0.56604399  0.17085865  0.42365265  1
  O2-  O152  1  0.56801897  0.16685457  0.75514042  1
  O2-  O153  1  0.57206195  0.68206467  0.09806570  1
  O2-  O154  1  0.57070530  0.67911864  0.42012065  1
  O2-  O155  1  0.57073218  0.68230931  0.76276344  1
  O2-  O156  1  0.18439898  0.42839722  0.23236060  1
  O2-  O157  1  0.18391849  0.42506841  0.57052990  1
  O2-  O158  1  0.18026623  0.43156242  0.91099219  1
  O2-  O159  1  0.17704957  0.92520760  0.24479951  1
  O2-  O160  1  0.17861143  0.93078794  0.57566035  1
  O2-  O161  1  0.17523441  0.92387916  0.91378603  1
  O2-  O162  1  0.67416052  0.42957292  0.23361934  1
  O2-  O163  1  0.67914935  0.43037184  0.56985312  1
  O2-  O164  1  0.67235528  0.42996853  0.91060272  1
  O2-  O165  1  0.68036582  0.93498915  0.23346197  1
  O2-  O166  1  0.67311036  0.93237220  0.57787756  1
  O2-  O167  1  0.68212869  0.92887880  0.90989397  1
  O2-  O168  1  0.42977859  0.31943192  0.10088048  1
  O2-  O169  1  0.42888720  0.31837579  0.42348233  1
  O2-  O170  1  0.43039129  0.31565933  0.76468448  1
  O2-  O171  1  0.43104620  0.82246601  0.09716474  1
  O2-  O172  1  0.42946160  0.82205356  0.43263354  1
  O2-  O173  1  0.43196569  0.82930985  0.75602435  1
  O2-  O174  1  0.93114741  0.32456017  0.10079676  1
  O2-  O175  1  0.92894050  0.32186519  0.42218447  1
  O2-  O176  1  0.92468959  0.31716537  0.76400299  1
  O2-  O177  1  0.93024365  0.81902661  0.09433381  1
  O2-  O178  1  0.93081862  0.82475658  0.42069038  1
  O2-  O179  1  0.93117220  0.82520040  0.76603198  1
  O2-  O180  1  0.32131677  0.07030910  0.24448136  1
  O2-  O181  1  0.32498510  0.06714325  0.57634364  1
  O2-  O182  1  0.31699864  0.07025173  0.90120280  1
  O2-  O183  1  0.31805614  0.57421909  0.23987769  1
  O2-  O184  1  0.31965908  0.57153336  0.56741186  1
  O2-  O185  1  0.32150007  0.57316233  0.91102973  1
  O2-  O186  1  0.82404558  0.06879963  0.24467482  1
  O2-  O187  1  0.82069803  0.06496652  0.57465047  1
  O2-  O188  1  0.82228199  0.06843820  0.89991026  1
  O2-  O189  1  0.82040773  0.57084263  0.23569809  1
  O2-  O190  1  0.81515220  0.57218042  0.56999947  1
  O2-  O191  1  0.82368296  0.57396041  0.90188878  1
  O2-  O192  1  0.04442966  0.08105490  0.26280347  1
  O2-  O193  1  0.03955735  0.08339158  0.59625375  1
  O2-  O194  1  0.04809001  0.07561605  0.93815469  1
  O2-  O195  1  0.04577722  0.58500386  0.27188990  1
  O2-  O196  1  0.05158593  0.57775411  0.60151137  1
  O2-  O197  1  0.04523589  0.58546855  0.94152461  1
  O2-  O198  1  0.53672496  0.09023321  0.26766773  1
  O2-  O199  1  0.53767286  0.08319279  0.60101637  1
  O2-  O200  1  0.54732694  0.08432898  0.93873977  1
  O2-  O201  1  0.54770586  0.58619012  0.26698332  1
  O2-  O202  1  0.53752372  0.58417828  0.59400111  1
  O2-  O203  1  0.54385823  0.58249354  0.93064210  1
  O2-  O204  1  0.16919829  0.21087888  0.26428777  1
  O2-  O205  1  0.17143238  0.20238762  0.59940437  1
  O2-  O206  1  0.16706899  0.20858173  0.93332478  1
  O2-  O207  1  0.15981944  0.71043366  0.26738791  1
  O2-  O208  1  0.16829624  0.71433710  0.59778034  1
  O2-  O209  1  0.16267838  0.70454359  0.93958246  1
  O2-  O210  1  0.66698718  0.19688490  0.27456555  1
  O2-  O211  1  0.66700782  0.18988357  0.60429676  1
  O2-  O212  1  0.66812934  0.19845787  0.93995104  1
  O2-  O213  1  0.66666783  0.70860795  0.27115286  1
  O2-  O214  1  0.66194642  0.71435271  0.59318867  1
  O2-  O215  1  0.66922664  0.71258615  0.93103687  1
  O2-  O216  1  0.09078378  0.45899323  0.06566329  1
  O2-  O217  1  0.08707730  0.45661415  0.40053689  1
  O2-  O218  1  0.07914413  0.45105990  0.73585714  1
  O2-  O219  1  0.08526334  0.95070351  0.06862693  1
  O2-  O220  1  0.08610780  0.95596734  0.39647110  1
  O2-  O221  1  0.08532554  0.95898476  0.72779674  1
  O2-  O222  1  0.58235426  0.45876690  0.06282179  1
  O2-  O223  1  0.57763279  0.45868001  0.39946419  1
  O2-  O224  1  0.57993979  0.45908229  0.73245833  1
  O2-  O225  1  0.58517763  0.95338723  0.06081931  1
  O2-  O226  1  0.58373875  0.96601421  0.40237818  1
  O2-  O227  1  0.58735578  0.96017131  0.73304272  1
  O2-  O228  1  0.21154489  0.33865668  0.06216050  1
  O2-  O229  1  0.21616886  0.33194034  0.40021119  1
  O2-  O230  1  0.21330174  0.32839504  0.73560665  1
  O2-  O231  1  0.20162113  0.83083182  0.06638445  1
  O2-  O232  1  0.20689527  0.83613776  0.39742276  1
  O2-  O233  1  0.20370231  0.83994409  0.73089159  1
  O2-  O234  1  0.69416755  0.33353702  0.06113796  1
  O2-  O235  1  0.69574939  0.32613619  0.39882011  1
  O2-  O236  1  0.69605888  0.32239970  0.73061952  1
  O2-  O237  1  0.70840814  0.83738137  0.06355884  1
  O2-  O238  1  0.70803105  0.83651222  0.40155945  1
  O2-  O239  1  0.70195549  0.83610586  0.72836448  1
  O2-  O240  1  0.45253547  0.41487051  0.27149699  1
  O2-  O241  1  0.45854457  0.41596680  0.59610982  1
  O2-  O242  1  0.45556090  0.41713942  0.93229951  1
  O2-  O243  1  0.46167038  0.91947002  0.26706290  1
  O2-  O244  1  0.45847291  0.91678204  0.60326763  1
  O2-  O245  1  0.45566270  0.92214281  0.93144082  1
  O2-  O246  1  0.95729103  0.41688063  0.27244887  1
  O2-  O247  1  0.94945272  0.42252874  0.60059928  1
  O2-  O248  1  0.96208706  0.41895844  0.93407958  1
  O2-  O249  1  0.96104405  0.91025516  0.26631863  1
  O2-  O250  1  0.96100522  0.91516668  0.59438619  1
  O2-  O251  1  0.95848674  0.91063076  0.94170921  1
  O2-  O252  1  0.34193665  0.28645378  0.26998289  1
  O2-  O253  1  0.33793011  0.28382769  0.59552230  1
  O2-  O254  1  0.33516602  0.28542358  0.93263590  1
  O2-  O255  1  0.33156463  0.79595288  0.26403501  1
  O2-  O256  1  0.33188879  0.80616959  0.60804491  1
  O2-  O257  1  0.32662868  0.79987450  0.93416660  1
  O2-  O258  1  0.83217756  0.30083892  0.27289541  1
  O2-  O259  1  0.82928975  0.28741319  0.59671530  1
  O2-  O260  1  0.82627093  0.30055099  0.93696477  1
  O2-  O261  1  0.83506632  0.79657145  0.27000538  1
  O2-  O262  1  0.82763647  0.79848597  0.59927288  1
  O2-  O263  1  0.83812699  0.79407006  0.94108579  1
  O2-  O264  1  0.41758285  0.04280353  0.06896637  1
  O2-  O265  1  0.41106876  0.04142101  0.39842790  1
  O2-  O266  1  0.41166475  0.04008309  0.73167062  1
  O2-  O267  1  0.41440600  0.54414660  0.06280454  1
  O2-  O268  1  0.41635356  0.55356154  0.38839108  1
  O2-  O269  1  0.41818860  0.54132824  0.73290000  1
  O2-  O270  1  0.91702906  0.03790437  0.06990663  1
  O2-  O271  1  0.91826597  0.04052903  0.39469904  1
  O2-  O272  1  0.91285670  0.03752990  0.72692054  1
  O2-  O273  1  0.91847010  0.54073858  0.07027833  1
  O2-  O274  1  0.92080202  0.54617357  0.40203881  1
  O2-  O275  1  0.92153617  0.55101980  0.73232137  1
  O2-  O276  1  0.28757943  0.16631602  0.07044924  1
  O2-  O277  1  0.29261438  0.16115852  0.39723425  1
  O2-  O278  1  0.29583450  0.16217153  0.72760966  1
  O2-  O279  1  0.29425948  0.66465537  0.06288306  1
  O2-  O280  1  0.29282489  0.66806355  0.39128926  1
  O2-  O281  1  0.29537192  0.67309340  0.73393041  1
  O2-  O282  1  0.79358899  0.16912564  0.06959726  1
  O2-  O283  1  0.80397041  0.16634450  0.39440277  1
  O2-  O284  1  0.79358577  0.15873030  0.72770336  1
  O2-  O285  1  0.78989100  0.66694070  0.06910994  1
  O2-  O286  1  0.79569123  0.67070360  0.40092516  1
  O2-  O287  1  0.78718283  0.67081125  0.73235389  1
