# generated using pymatgen
data_Ca2Al2SiO7
_symmetry_space_group_name_H-M   'P 1'
_cell_length_a   15.45813947
_cell_length_b   15.45824358
_cell_length_c   15.28399286
_cell_angle_alpha   90.00199218
_cell_angle_beta   90.00998566
_cell_angle_gamma   89.98922663
_symmetry_Int_Tables_number   1
_chemical_formula_structural   Ca2Al2SiO7
_chemical_formula_sum   'Ca48 Al48 Si24 O168'
_cell_volume   3652.19686504
_cell_formula_units_Z   24
loop_
 _symmetry_equiv_pos_site_id
 _symmetry_equiv_pos_as_xyz
  1  'x, y, z'
loop_
 _atom_type_symbol
 _atom_type_oxidation_number
  Ca2+  2.0
  Al0+  0.0
  Si0+  0.0
  O2-  -2.0
loop_
 _atom_site_type_symbol
 _atom_site_label
 _atom_site_symmetry_multiplicity
 _atom_site_fract_x
 _atom_site_fract_y
 _atom_site_fract_z
 _atom_site_occupancy
  Ca2+  Ca0  1  0.17090078  0.07780034  0.17872710  1
  Ca2+  Ca1  1  0.17131293  0.08283278  0.50332099  1
  Ca2+  Ca2  1  0.17271390  0.08745072  0.83087013  1
  Ca2+  Ca3  1  0.17149273  0.58244575  0.17566363  1
  Ca2+  Ca4  1  0.16665409  0.57434557  0.50822044  1
  Ca2+  Ca5  1  0.16038277  0.58299159  0.83603993  1
  Ca2+  Ca6  1  0.67530906  0.06702810  0.16831761  1
  Ca2+  Ca7  1  0.66361870  0.07681412  0.50415564  1
  Ca2+  Ca8  1  0.66985236  0.07987677  0.84416738  1
  Ca2+  Ca9  1  0.65893676  0.58257814  0.16963054  1
  Ca2+  Ca10  1  0.66538925  0.59052250  0.50299816  1
  Ca2+  Ca11  1  0.65949160  0.58019768  0.83902023  1
  Ca2+  Ca12  1  0.08208161  0.32959504  0.16512704  1
  Ca2+  Ca13  1  0.09952132  0.32403929  0.49841996  1
  Ca2+  Ca14  1  0.07722575  0.33061676  0.82621812  1
  Ca2+  Ca15  1  0.07572174  0.83629598  0.16040802  1
  Ca2+  Ca16  1  0.07818920  0.83520692  0.49292503  1
  Ca2+  Ca17  1  0.08013647  0.82254946  0.83141482  1
  Ca2+  Ca18  1  0.58284601  0.33287173  0.15997387  1
  Ca2+  Ca19  1  0.57516929  0.32674677  0.50011841  1
  Ca2+  Ca20  1  0.57893816  0.32892864  0.82527553  1
  Ca2+  Ca21  1  0.58280197  0.82617517  0.15976214  1
  Ca2+  Ca22  1  0.57818775  0.82733574  0.49473628  1
  Ca2+  Ca23  1  0.57743655  0.83292143  0.82935309  1
  Ca2+  Ca24  1  0.32622400  0.42759237  0.17825050  1
  Ca2+  Ca25  1  0.32619815  0.42015446  0.50313570  1
  Ca2+  Ca26  1  0.32853645  0.41352705  0.83231075  1
  Ca2+  Ca27  1  0.32754684  0.91894339  0.17508218  1
  Ca2+  Ca28  1  0.33354750  0.92556166  0.50490999  1
  Ca2+  Ca29  1  0.34265289  0.91839852  0.83491203  1
  Ca2+  Ca30  1  0.82981159  0.41530330  0.16381015  1
  Ca2+  Ca31  1  0.83146899  0.42016955  0.50456721  1
  Ca2+  Ca32  1  0.82663470  0.41642734  0.84443445  1
  Ca2+  Ca33  1  0.82697186  0.90461047  0.16965425  1
  Ca2+  Ca34  1  0.82746056  0.90817741  0.49921267  1
  Ca2+  Ca35  1  0.82752922  0.92352570  0.84553403  1
  Ca2+  Ca36  1  0.41405934  0.16505572  0.16682807  1
  Ca2+  Ca37  1  0.40769399  0.16761807  0.50183960  1
  Ca2+  Ca38  1  0.42391835  0.17027482  0.81966009  1
  Ca2+  Ca39  1  0.42142962  0.67097867  0.15976733  1
  Ca2+  Ca40  1  0.42600275  0.66404907  0.49612231  1
  Ca2+  Ca41  1  0.42713090  0.67948263  0.82817018  1
  Ca2+  Ca42  1  0.92064253  0.16804972  0.16155079  1
  Ca2+  Ca43  1  0.93274407  0.16565859  0.49439394  1
  Ca2+  Ca44  1  0.91589058  0.17049768  0.83056444  1
  Ca2+  Ca45  1  0.92505618  0.67829772  0.16103399  1
  Ca2+  Ca46  1  0.92426488  0.67051319  0.49626785  1
  Ca2+  Ca47  1  0.92387921  0.66922549  0.83350323  1
  Al0+  Al48  1  0.00361973  0.00188026  -0.00255017  1
  Al0+  Al49  1  -0.00091571  0.00192134  0.32715458  1
  Al0+  Al50  1  -0.00074338  0.00092341  0.66526036  1
  Al0+  Al51  1  -0.00155860  0.49595660  -0.00487646  1
  Al0+  Al52  1  -0.00273357  0.49880887  0.33676989  1
  Al0+  Al53  1  -0.00177155  0.50142514  0.66840218  1
  Al0+  Al54  1  0.50191515  0.00160988  0.00346665  1
  Al0+  Al55  1  0.50208671  -0.00001723  0.34007711  1
  Al0+  Al56  1  0.50012270  -0.00051209  0.66450825  1
  Al0+  Al57  1  0.49742747  0.49963647  0.00094759  1
  Al0+  Al58  1  0.50021538  0.49796432  0.33377954  1
  Al0+  Al59  1  0.49886687  0.49995080  0.66019281  1
  Al0+  Al60  1  0.24977646  0.25069445  0.00205700  1
  Al0+  Al61  1  0.25086238  0.25122606  0.33223521  1
  Al0+  Al62  1  0.24890209  0.25044221  0.67072165  1
  Al0+  Al63  1  0.25187163  0.75058399  -0.00738224  1
  Al0+  Al64  1  0.25200535  0.75021036  0.34292790  1
  Al0+  Al65  1  0.24885118  0.74953443  0.65965379  1
  Al0+  Al66  1  0.75075913  0.25038104  0.00637661  1
  Al0+  Al67  1  0.74956048  0.24920398  0.33387431  1
  Al0+  Al68  1  0.74944559  0.25053878  0.66200655  1
  Al0+  Al69  1  0.75205303  0.74751078  -0.00392888  1
  Al0+  Al70  1  0.75000651  0.74800675  0.33006559  1
  Al0+  Al71  1  0.75010613  0.75018706  0.66809264  1
  Al0+  Al72  1  0.93098918  0.81967932  0.32027280  1
  Al0+  Al73  1  0.42728877  0.32042790  0.65117952  1
  Al0+  Al74  1  0.07209132  0.67805918  0.98722591  1
  Al0+  Al75  1  0.92842233  0.82399595  0.98356971  1
  Al0+  Al76  1  0.68220517  0.92682391  0.34846051  1
  Al0+  Al77  1  0.57298793  0.17809828  0.65194901  1
  Al0+  Al78  1  0.17516392  0.92874572  0.34759108  1
  Al0+  Al79  1  0.06913613  0.18030914  0.65408879  1
  Al0+  Al80  1  0.56891462  0.67912494  0.31754129  1
  Al0+  Al81  1  0.32136614  0.07084888  0.34884040  1
  Al0+  Al82  1  0.92878261  0.31757200  0.98689732  1
  Al0+  Al83  1  0.17710443  0.43137382  0.34786136  1
  Al0+  Al84  1  0.57184673  0.67996051  0.65085335  1
  Al0+  Al85  1  0.43030235  0.82399090  0.98659916  1
  Al0+  Al86  1  0.32358509  0.57252725  0.34923711  1
  Al0+  Al87  1  0.17959130  0.43059061  0.68386320  1
  Al0+  Al88  1  0.31953563  0.06841565  0.68244348  1
  Al0+  Al89  1  0.67724594  0.43117030  0.01293836  1
  Al0+  Al90  1  0.42804177  0.82289809  0.64860904  1
  Al0+  Al91  1  0.68009529  0.92656005  0.01475358  1
  Al0+  Al92  1  0.07203651  0.18180521  0.31844365  1
  Al0+  Al93  1  0.82435921  0.07173583  0.01522572  1
  Al0+  Al94  1  0.57132584  0.67639210  0.98573824  1
  Al0+  Al95  1  0.06946080  0.67776410  0.65135245  1
  Si0+  Si96  1  0.32167754  0.07265770  0.01444971  1
  Si0+  Si97  1  0.42710795  0.32110910  0.98676620  1
  Si0+  Si98  1  0.31867835  0.57091105  0.01261248  1
  Si0+  Si99  1  0.82453610  0.57057593  0.01700468  1
  Si0+  Si100  1  0.67822646  0.42641348  0.34994095  1
  Si0+  Si101  1  0.42788435  0.82435285  0.31787256  1
  Si0+  Si102  1  0.82130704  0.07379958  0.35152672  1
  Si0+  Si103  1  0.07357557  0.67602850  0.32043532  1
  Si0+  Si104  1  0.18159964  0.92785665  0.01185296  1
  Si0+  Si105  1  0.92438925  0.32343510  0.31594292  1
  Si0+  Si106  1  0.32339336  0.57336951  0.68558404  1
  Si0+  Si107  1  0.57361880  0.17713884  0.31573825  1
  Si0+  Si108  1  0.92668374  0.32311905  0.64954054  1
  Si0+  Si109  1  0.67844470  0.42870449  0.67983988  1
  Si0+  Si110  1  0.07570573  0.17866029  0.98178366  1
  Si0+  Si111  1  0.17730663  0.42803544  0.01524792  1
  Si0+  Si112  1  0.81866867  0.56986480  0.34791741  1
  Si0+  Si113  1  0.82200418  0.07205813  0.67992226  1
  Si0+  Si114  1  0.17488186  0.92630633  0.68489850  1
  Si0+  Si115  1  0.43118073  0.31891240  0.31624804  1
  Si0+  Si116  1  0.68034497  0.92945726  0.68185177  1
  Si0+  Si117  1  0.81973494  0.57146681  0.68330495  1
  Si0+  Si118  1  0.56963784  0.18135040  0.98901095  1
  Si0+  Si119  1  0.92886574  0.82237955  0.65054048  1
  O2-  O120  1  0.25195192  -0.00013636  0.05442624  1
  O2-  O121  1  0.24935068  -0.00160612  0.39785109  1
  O2-  O122  1  0.24731321  -0.00877114  0.73022645  1
  O2-  O123  1  0.24481501  0.50269965  0.05572708  1
  O2-  O124  1  0.24478361  0.50712463  0.39807101  1
  O2-  O125  1  0.25288638  0.50668889  0.73169217  1
  O2-  O126  1  0.75936725  -0.00776844  0.06410137  1
  O2-  O127  1  0.75542230  0.00295325  0.39661592  1
  O2-  O128  1  0.74911286  0.00353863  0.72266923  1
  O2-  O129  1  0.74897140  0.50853445  0.06100432  1
  O2-  O130  1  0.74913708  0.49747881  0.39129637  1
  O2-  O131  1  0.74759534  0.50047279  0.72357250  1
  O2-  O132  1  -0.00430073  0.25649324  0.27393773  1
  O2-  O133  1  -0.00380909  0.25600045  0.60548915  1
  O2-  O134  1  0.00248962  0.24313332  0.93888715  1
  O2-  O135  1  0.01248710  0.75083163  0.27525213  1
  O2-  O136  1  -0.00075419  0.75641525  0.60527961  1
  O2-  O137  1  -0.00056561  0.74946445  0.93633249  1
  O2-  O138  1  0.50127534  0.24702567  0.27315703  1
  O2-  O139  1  0.49816950  0.24684521  0.60108179  1
  O2-  O140  1  0.49824588  0.25067107  0.94489691  1
  O2-  O141  1  0.49259703  0.75252894  0.27228932  1
  O2-  O142  1  0.49839847  0.74883817  0.59945313  1
  O2-  O143  1  0.50618454  0.75513683  0.93740440  1
  O2-  O144  1  0.08057072  0.18235140  0.08709080  1
  O2-  O145  1  0.07145917  0.18316765  0.43164496  1
  O2-  O146  1  0.06573893  0.18137311  0.76730445  1
  O2-  O147  1  0.07377617  0.67879269  0.10112368  1
  O2-  O148  1  0.06610674  0.67271082  0.42562413  1
  O2-  O149  1  0.06485789  0.67684905  0.76433943  1
  O2-  O150  1  0.56631136  0.18224455  0.09423248  1
  O2-  O151  1  0.57698417  0.18057562  0.42043697  1
  O2-  O152  1  0.57550583  0.18192124  0.76634561  1
  O2-  O153  1  0.56427676  0.67370149  0.09926179  1
  O2-  O154  1  0.57102609  0.68016189  0.43031959  1
  O2-  O155  1  0.57350630  0.68058536  0.76415027  1
  O2-  O156  1  0.17882534  0.43231555  0.23332246  1
  O2-  O157  1  0.18024198  0.43127241  0.57114544  1
  O2-  O158  1  0.17954552  0.42440940  0.91040665  1
  O2-  O159  1  0.17659721  0.93052188  0.23300493  1
  O2-  O160  1  0.17067309  0.93103702  0.57977252  1
  O2-  O161  1  0.18207120  0.92821633  0.90689524  1
  O2-  O162  1  0.67804793  0.42532645  0.24483782  1
  O2-  O163  1  0.68231072  0.42753048  0.57455977  1
  O2-  O164  1  0.67791413  0.42870560  0.89960959  1
  O2-  O165  1  0.68323749  0.92648085  0.23565138  1
  O2-  O166  1  0.68411494  0.92715464  0.57669362  1
  O2-  O167  1  0.67650917  0.93417302  0.90093221  1
  O2-  O168  1  0.42595865  0.32006878  0.09200297  1
  O2-  O169  1  0.43278694  0.31937300  0.42086477  1
  O2-  O170  1  0.43094654  0.31968667  0.76576226  1
  O2-  O171  1  0.42537495  0.82196134  0.10012131  1
  O2-  O172  1  0.43253149  0.82578974  0.42291137  1
  O2-  O173  1  0.43360325  0.82369027  0.76249910  1
  O2-  O174  1  0.93150978  0.31896456  0.09995620  1
  O2-  O175  1  0.91842313  0.32262226  0.42126616  1
  O2-  O176  1  0.92365102  0.32089077  0.75518780  1
  O2-  O177  1  0.93216828  0.82159490  0.09729988  1
  O2-  O178  1  0.92856105  0.81503168  0.43364938  1
  O2-  O179  1  0.92839310  0.82181721  0.75581982  1
  O2-  O180  1  0.32047537  0.07025415  0.23414929  1
  O2-  O181  1  0.31589166  0.06953766  0.57005517  1
  O2-  O182  1  0.32156167  0.07684473  0.90970758  1
  O2-  O183  1  0.32392890  0.56908299  0.23452835  1
  O2-  O184  1  0.32342740  0.56936715  0.58025309  1
  O2-  O185  1  0.31980498  0.56767456  0.90787997  1
  O2-  O186  1  0.81767377  0.07742724  0.24636380  1
  O2-  O187  1  0.82357555  0.07044071  0.57499016  1
  O2-  O188  1  0.81791909  0.07493612  0.90092566  1
  O2-  O189  1  0.81948150  0.56839627  0.24315911  1
  O2-  O190  1  0.82011091  0.57127020  0.57778507  1
  O2-  O191  1  0.82752132  0.56512238  0.91135524  1
  O2-  O192  1  0.04085746  0.08653999  0.26211464  1
  O2-  O193  1  0.03743431  0.08439777  0.59910867  1
  O2-  O194  1  0.05745499  0.08383927  0.93643861  1
  O2-  O195  1  0.04093760  0.58447460  0.27300730  1
  O2-  O196  1  0.03209421  0.58320075  0.59731095  1
  O2-  O197  1  0.04312729  0.57955632  0.93436970  1
  O2-  O198  1  0.54610061  0.08440892  0.27064957  1
  O2-  O199  1  0.54835220  0.07948285  0.60041736  1
  O2-  O200  1  0.54317211  0.09003690  0.94075231  1
  O2-  O201  1  0.54128402  0.57962083  0.26686349  1
  O2-  O202  1  0.54740251  0.58055074  0.59796896  1
  O2-  O203  1  0.53587403  0.57985427  0.93189562  1
  O2-  O204  1  0.16773452  0.21393124  0.26269274  1
  O2-  O205  1  0.16548999  0.21185396  0.60230066  1
  O2-  O206  1  0.16733883  0.21088434  0.93431287  1
  O2-  O207  1  0.17148321  0.69291516  0.28094773  1
  O2-  O208  1  0.16762027  0.69971932  0.59843680  1
  O2-  O209  1  0.16834664  0.70676470  0.93024879  1
  O2-  O210  1  0.66428202  0.20829342  0.26774164  1
  O2-  O211  1  0.66935460  0.20896818  0.59526251  1
  O2-  O212  1  0.66130165  0.21027561  0.94334116  1
  O2-  O213  1  0.66555999  0.70934952  0.26395648  1
  O2-  O214  1  0.67114767  0.70941682  0.59924839  1
  O2-  O215  1  0.67383189  0.69097611  0.93742563  1
  O2-  O216  1  0.08368137  0.45089063  0.06051725  1
  O2-  O217  1  0.07631875  0.45057319  0.40041661  1
  O2-  O218  1  0.08068111  0.46047050  0.73551259  1
  O2-  O219  1  0.08989190  0.95542129  0.05941604  1
  O2-  O220  1  0.07648517  0.95961940  0.39896487  1
  O2-  O221  1  0.08241005  0.95674094  0.73216045  1
  O2-  O222  1  0.57941663  0.45760332  0.06847690  1
  O2-  O223  1  0.58701973  0.45371887  0.39745057  1
  O2-  O224  1  0.58519363  0.45427395  0.72520538  1
  O2-  O225  1  0.58443946  0.96251852  0.07044204  1
  O2-  O226  1  0.58684204  0.95850517  0.40342463  1
  O2-  O227  1  0.58798477  0.95545919  0.72779328  1
  O2-  O228  1  0.20970930  0.33814091  0.06478469  1
  O2-  O229  1  0.21378740  0.33514864  0.39877567  1
  O2-  O230  1  0.21072165  0.33498261  0.73977678  1
  O2-  O231  1  0.20940374  0.83616316  0.05957976  1
  O2-  O232  1  0.19637459  0.82914375  0.40075080  1
  O2-  O233  1  0.19630078  0.82972935  0.72643369  1
  O2-  O234  1  0.71099412  0.33691629  0.07037396  1
  O2-  O235  1  0.70690835  0.33510589  0.39806402  1
  O2-  O236  1  0.70728200  0.33672236  0.72733821  1
  O2-  O237  1  0.70272333  0.82477962  0.06387259  1
  O2-  O238  1  0.71635325  0.83091042  0.40204112  1
  O2-  O239  1  0.71073382  0.83893862  0.73057183  1
  O2-  O240  1  0.46189464  0.40949302  0.26768973  1
  O2-  O241  1  0.45714970  0.41678939  0.59606013  1
  O2-  O242  1  0.45392327  0.41209161  0.93873454  1
  O2-  O243  1  0.45630668  0.91780354  0.27245287  1
  O2-  O244  1  0.45891813  0.91998101  0.59583960  1
  O2-  O245  1  0.45707925  0.92409792  0.93513795  1
  O2-  O246  1  0.94822137  0.41795063  0.27060704  1
  O2-  O247  1  0.94991340  0.41767726  0.60568183  1
  O2-  O248  1  0.95824633  0.41243969  0.92922689  1
  O2-  O249  1  0.95256267  0.91799250  0.26587804  1
  O2-  O250  1  0.95116082  0.91638607  0.60395154  1
  O2-  O251  1  0.95796261  0.92244050  0.93093252  1
  O2-  O252  1  0.33988395  0.29237611  0.26711999  1
  O2-  O253  1  0.32901816  0.29146750  0.60036486  1
  O2-  O254  1  0.33565873  0.29258937  0.93904327  1
  O2-  O255  1  0.33118372  0.80287426  0.27580934  1
  O2-  O256  1  0.32764190  0.80116561  0.59845101  1
  O2-  O257  1  0.33479946  0.79349383  0.92929690  1
  O2-  O258  1  0.83160752  0.29522997  0.26846640  1
  O2-  O259  1  0.83407436  0.29805840  0.60122615  1
  O2-  O260  1  0.83092149  0.28817587  0.93369883  1
  O2-  O261  1  0.83811663  0.77995526  0.26516765  1
  O2-  O262  1  0.83627125  0.79253860  0.60503862  1
  O2-  O263  1  0.83005522  0.79748241  0.93003435  1
  O2-  O264  1  0.41368431  0.04860746  0.06303062  1
  O2-  O265  1  0.42048521  0.04701031  0.40203366  1
  O2-  O266  1  0.41889732  0.04109394  0.73476968  1
  O2-  O267  1  0.40781011  0.53887536  0.06287653  1
  O2-  O268  1  0.41887076  0.53390980  0.40261097  1
  O2-  O269  1  0.41727329  0.54437925  0.73018182  1
  O2-  O270  1  0.92756818  0.05418445  0.06250706  1
  O2-  O271  1  0.91650999  0.05025155  0.39363014  1
  O2-  O272  1  0.91255306  0.04355504  0.72973599  1
  O2-  O273  1  0.91477365  0.53569911  0.06515844  1
  O2-  O274  1  0.90948447  0.54274545  0.39858493  1
  O2-  O275  1  0.90994017  0.54217872  0.73236510  1
  O2-  O276  1  0.29173931  0.16367161  0.06395623  1
  O2-  O277  1  0.29261173  0.16997016  0.39872247  1
  O2-  O278  1  0.28725079  0.16441363  0.73778334  1
  O2-  O279  1  0.29339501  0.66395499  0.05893877  1
  O2-  O280  1  0.30776429  0.67256687  0.40215092  1
  O2-  O281  1  0.29906824  0.66897187  0.72789469  1
  O2-  O282  1  0.78959303  0.16642294  0.07186859  1
  O2-  O283  1  0.79350229  0.16648214  0.39934074  1
  O2-  O284  1  0.79594522  0.16587561  0.72512404  1
  O2-  O285  1  0.80800095  0.66698386  0.05957444  1
  O2-  O286  1  0.78814249  0.65946957  0.39726385  1
  O2-  O287  1  0.79304104  0.66321053  0.73153625  1
