# generated using pymatgen
data_Ca2Al2SiO7
_symmetry_space_group_name_H-M   'P 1'
_cell_length_a   15.45680311
_cell_length_b   15.45665281
_cell_length_c   15.28227683
_cell_angle_alpha   90.00890087
_cell_angle_beta   90.00046981
_cell_angle_gamma   89.98617547
_symmetry_Int_Tables_number   1
_chemical_formula_structural   Ca2Al2SiO7
_chemical_formula_sum   'Ca48 Al48 Si24 O168'
_cell_volume   3651.09532117
_cell_formula_units_Z   24
loop_
 _symmetry_equiv_pos_site_id
 _symmetry_equiv_pos_as_xyz
  1  'x, y, z'
loop_
 _atom_type_symbol
 _atom_type_oxidation_number
  Ca2+  2.0
  Al0+  0.0
  Si0+  0.0
  O2-  -2.0
loop_
 _atom_site_type_symbol
 _atom_site_label
 _atom_site_symmetry_multiplicity
 _atom_site_fract_x
 _atom_site_fract_y
 _atom_site_fract_z
 _atom_site_occupancy
  Ca2+  Ca0  1  0.17307132  0.08728975  0.17016112  1
  Ca2+  Ca1  1  0.17043943  0.07887767  0.50753936  1
  Ca2+  Ca2  1  0.16160273  0.08196914  0.83368356  1
  Ca2+  Ca3  1  0.17062786  0.57402954  0.17247638  1
  Ca2+  Ca4  1  0.17042279  0.57301189  0.51289222  1
  Ca2+  Ca5  1  0.17101247  0.58411759  0.83210500  1
  Ca2+  Ca6  1  0.66199682  0.07728945  0.17214194  1
  Ca2+  Ca7  1  0.67342393  0.07604378  0.50558380  1
  Ca2+  Ca8  1  0.67060336  0.08707092  0.83826479  1
  Ca2+  Ca9  1  0.66582724  0.57579152  0.16415760  1
  Ca2+  Ca10  1  0.66318106  0.58035786  0.50244638  1
  Ca2+  Ca11  1  0.66621969  0.58285456  0.84293840  1
  Ca2+  Ca12  1  0.08005527  0.32972700  0.15872296  1
  Ca2+  Ca13  1  0.09302815  0.33001642  0.49845657  1
  Ca2+  Ca14  1  0.08274561  0.32462155  0.82790323  1
  Ca2+  Ca15  1  0.06900969  0.83468625  0.16119642  1
  Ca2+  Ca16  1  0.08503386  0.82894094  0.50070279  1
  Ca2+  Ca17  1  0.08060309  0.82868897  0.82557900  1
  Ca2+  Ca18  1  0.57698079  0.33414137  0.15862336  1
  Ca2+  Ca19  1  0.56972570  0.33752671  0.49429553  1
  Ca2+  Ca20  1  0.57590968  0.33861158  0.83184628  1
  Ca2+  Ca21  1  0.58123816  0.82991606  0.15675219  1
  Ca2+  Ca22  1  0.58439331  0.82919927  0.49915980  1
  Ca2+  Ca23  1  0.57288947  0.82140324  0.82878908  1
  Ca2+  Ca24  1  0.33113581  0.41004752  0.17359552  1
  Ca2+  Ca25  1  0.32652049  0.41609397  0.50841887  1
  Ca2+  Ca26  1  0.33499971  0.41486660  0.83193890  1
  Ca2+  Ca27  1  0.33855434  0.92642699  0.17175332  1
  Ca2+  Ca28  1  0.33186242  0.92311637  0.51013404  1
  Ca2+  Ca29  1  0.32912353  0.90551715  0.83557094  1
  Ca2+  Ca30  1  0.82283476  0.41531623  0.16622119  1
  Ca2+  Ca31  1  0.82267961  0.41318124  0.50393127  1
  Ca2+  Ca32  1  0.82792789  0.42442184  0.84742517  1
  Ca2+  Ca33  1  0.82887934  0.91271996  0.17256106  1
  Ca2+  Ca34  1  0.83165432  0.91726200  0.50274441  1
  Ca2+  Ca35  1  0.83824863  0.92290106  0.83743045  1
  Ca2+  Ca36  1  0.41955702  0.17556730  0.16057415  1
  Ca2+  Ca37  1  0.40767205  0.17725632  0.49581938  1
  Ca2+  Ca38  1  0.42242048  0.17815237  0.83333559  1
  Ca2+  Ca39  1  0.42515684  0.67392084  0.15601356  1
  Ca2+  Ca40  1  0.41476498  0.66775839  0.50521837  1
  Ca2+  Ca41  1  0.42481383  0.66717675  0.82434846  1
  Ca2+  Ca42  1  0.92471347  0.17468128  0.15533037  1
  Ca2+  Ca43  1  0.92186880  0.16049424  0.50303472  1
  Ca2+  Ca44  1  0.92283269  0.17048469  0.82937544  1
  Ca2+  Ca45  1  0.90961304  0.67555098  0.16125855  1
  Ca2+  Ca46  1  0.92512554  0.66985876  0.49580952  1
  Ca2+  Ca47  1  0.91628557  0.67053181  0.82989391  1
  Al0+  Al48  1  0.00024668  -0.00134547  -0.00406707  1
  Al0+  Al49  1  0.00107684  -0.00087600  0.32806313  1
  Al0+  Al50  1  -0.00004307  0.00222973  0.67016120  1
  Al0+  Al51  1  0.00052724  0.50162224  0.00403492  1
  Al0+  Al52  1  0.00090719  0.49874260  0.33644760  1
  Al0+  Al53  1  -0.00236873  0.49920772  0.66620978  1
  Al0+  Al54  1  0.49836964  0.00189627  -0.00747116  1
  Al0+  Al55  1  0.50141517  0.00063551  0.34487414  1
  Al0+  Al56  1  0.50120858  0.00030235  0.66572952  1
  Al0+  Al57  1  0.49910764  0.50111108  -0.00127564  1
  Al0+  Al58  1  0.49999983  0.50128208  0.33209655  1
  Al0+  Al59  1  0.49913085  0.49963323  0.66101391  1
  Al0+  Al60  1  0.25095917  0.24807753  -0.00659236  1
  Al0+  Al61  1  0.25102326  0.24979525  0.33594096  1
  Al0+  Al62  1  0.24858641  0.24814348  0.66392985  1
  Al0+  Al63  1  0.24658966  0.75055913  0.00469618  1
  Al0+  Al64  1  0.25047387  0.74965198  0.32997681  1
  Al0+  Al65  1  0.24940104  0.74938840  0.66578518  1
  Al0+  Al66  1  0.75139812  0.25020329  -0.00031173  1
  Al0+  Al67  1  0.75093362  0.24971401  0.33895215  1
  Al0+  Al68  1  0.75021313  0.24892443  0.67086709  1
  Al0+  Al69  1  0.75044883  0.75149462  -0.00501737  1
  Al0+  Al70  1  0.75087832  0.74994556  0.33466777  1
  Al0+  Al71  1  0.74795892  0.75012559  0.66274776  1
  Al0+  Al72  1  0.07135677  0.17926438  0.98456403  1
  Al0+  Al73  1  0.67843084  0.42878477  0.34793576  1
  Al0+  Al74  1  0.93062896  0.81918311  0.32015423  1
  Al0+  Al75  1  0.92878806  0.32401270  0.98647616  1
  Al0+  Al76  1  0.42977900  0.32010577  0.31953468  1
  Al0+  Al77  1  0.07000863  0.67744070  0.65382356  1
  Al0+  Al78  1  0.81978011  0.06931306  0.68232315  1
  Al0+  Al79  1  0.32041101  0.06993660  0.34693715  1
  Al0+  Al80  1  0.17707360  0.42639790  0.68444817  1
  Al0+  Al81  1  0.57301338  0.17813460  0.98705277  1
  Al0+  Al82  1  0.06887132  0.17975546  0.65048195  1
  Al0+  Al83  1  0.57160673  0.67831365  0.64822419  1
  Al0+  Al84  1  0.43061176  0.31813842  0.65099340  1
  Al0+  Al85  1  0.17982914  0.42986010  0.34642304  1
  Al0+  Al86  1  0.82248070  0.57400459  0.01544876  1
  Al0+  Al87  1  0.42618946  0.82287713  0.98726149  1
  Al0+  Al88  1  0.42902220  0.32263917  0.98517112  1
  Al0+  Al89  1  0.32060802  0.56922457  0.68234359  1
  Al0+  Al90  1  0.57021876  0.67982229  0.98629043  1
  Al0+  Al91  1  0.68000534  0.92778504  0.34676210  1
  Al0+  Al92  1  0.42769952  0.82165202  0.64979133  1
  Al0+  Al93  1  0.18102792  0.92961789  0.68029438  1
  Al0+  Al94  1  0.67728787  0.42804979  0.01478791  1
  Al0+  Al95  1  0.92853819  0.81977913  0.98493249  1
  Si0+  Si96  1  0.92664025  0.32205214  0.31939387  1
  Si0+  Si97  1  0.57568311  0.17791536  0.64814450  1
  Si0+  Si98  1  0.82483985  0.07190452  0.34840097  1
  Si0+  Si99  1  0.82137084  0.57192693  0.35139853  1
  Si0+  Si100  1  0.57107002  0.68030029  0.31667095  1
  Si0+  Si101  1  0.17688763  0.92761982  0.34799602  1
  Si0+  Si102  1  0.42906592  0.82385622  0.31943899  1
  Si0+  Si103  1  0.32271019  0.57465607  0.34902977  1
  Si0+  Si104  1  0.07049089  0.18009308  0.31882687  1
  Si0+  Si105  1  0.67725338  0.92605604  0.68635818  1
  Si0+  Si106  1  0.07272639  0.67746069  0.98505233  1
  Si0+  Si107  1  0.32379597  0.07272013  0.68590205  1
  Si0+  Si108  1  0.92875022  0.82285047  0.65000473  1
  Si0+  Si109  1  0.32048792  0.57264068  0.01604278  1
  Si0+  Si110  1  0.82054618  0.57226205  0.67986527  1
  Si0+  Si111  1  0.82331043  0.07074001  0.01612811  1
  Si0+  Si112  1  0.07326355  0.67529376  0.31563128  1
  Si0+  Si113  1  0.18100512  0.42702902  0.01427688  1
  Si0+  Si114  1  0.17692530  0.92800240  0.01736068  1
  Si0+  Si115  1  0.67893971  0.43024345  0.68085355  1
  Si0+  Si116  1  0.57397136  0.17741807  0.32052477  1
  Si0+  Si117  1  0.32023498  0.07058408  0.01376827  1
  Si0+  Si118  1  0.92597365  0.32208144  0.64876412  1
  Si0+  Si119  1  0.67886647  0.93207699  0.01204664  1
  O2-  O120  1  0.24996639  -0.00159261  0.05737975  1
  O2-  O121  1  0.24867569  -0.00808813  0.39270837  1
  O2-  O122  1  0.25933737  -0.00036925  0.72956312  1
  O2-  O123  1  0.25267236  0.49757525  0.05756555  1
  O2-  O124  1  0.25214190  0.50720654  0.39146022  1
  O2-  O125  1  0.24881811  0.49817732  0.73495295  1
  O2-  O126  1  0.74875839  0.00305758  0.05799297  1
  O2-  O127  1  0.75551347  0.00313819  0.39131400  1
  O2-  O128  1  0.74490483  -0.00438768  0.73053990  1
  O2-  O129  1  0.75125238  0.49978218  0.06405161  1
  O2-  O130  1  0.75449500  0.50176467  0.39618018  1
  O2-  O131  1  0.74928139  0.50198778  0.72195577  1
  O2-  O132  1  -0.00149294  0.25090278  0.27815810  1
  O2-  O133  1  -0.00267330  0.25708909  0.60236904  1
  O2-  O134  1  -0.00000306  0.25221231  0.93560179  1
  O2-  O135  1  0.00513381  0.74476008  0.27180515  1
  O2-  O136  1  -0.00422997  0.75260059  0.60598453  1
  O2-  O137  1  0.00152469  0.74310865  0.94059683  1
  O2-  O138  1  0.50741771  0.24720132  0.27502759  1
  O2-  O139  1  0.50390249  0.24224277  0.60285068  1
  O2-  O140  1  0.50690257  0.25560025  0.93743648  1
  O2-  O141  1  0.49948990  0.75251686  0.27651977  1
  O2-  O142  1  0.50097549  0.75185881  0.59798177  1
  O2-  O143  1  0.49396591  0.74766970  0.93761161  1
  O2-  O144  1  0.07213823  0.18072787  0.09936340  1
  O2-  O145  1  0.06906503  0.17782250  0.42364099  1
  O2-  O146  1  0.06592594  0.17893309  0.76298133  1
  O2-  O147  1  0.07534536  0.68084717  0.09098727  1
  O2-  O148  1  0.07283092  0.67583767  0.42105083  1
  O2-  O149  1  0.06660088  0.67911574  0.76692273  1
  O2-  O150  1  0.56750822  0.17224954  0.10102344  1
  O2-  O151  1  0.57433157  0.17831139  0.42589928  1
  O2-  O152  1  0.57756675  0.18157598  0.75355209  1
  O2-  O153  1  0.56948021  0.68267874  0.10083698  1
  O2-  O154  1  0.57133856  0.68025018  0.42144427  1
  O2-  O155  1  0.57378532  0.67852814  0.76130302  1
  O2-  O156  1  0.18033153  0.42898701  0.23256011  1
  O2-  O157  1  0.17966990  0.42773129  0.57039598  1
  O2-  O158  1  0.18046326  0.42743314  0.90991037  1
  O2-  O159  1  0.17557570  0.93053177  0.24217746  1
  O2-  O160  1  0.17980988  0.93273602  0.56657303  1
  O2-  O161  1  0.17591536  0.92582108  0.91269603  1
  O2-  O162  1  0.67891113  0.42886758  0.23546278  1
  O2-  O163  1  0.68101149  0.42971265  0.57522768  1
  O2-  O164  1  0.67777610  0.43076848  0.90093272  1
  O2-  O165  1  0.67892123  0.92857155  0.23305249  1
  O2-  O166  1  0.68032715  0.92632621  0.58028791  1
  O2-  O167  1  0.68100072  0.93383363  0.90742522  1
  O2-  O168  1  0.42534553  0.31857031  0.09917666  1
  O2-  O169  1  0.42839939  0.31867874  0.43235665  1
  O2-  O170  1  0.43385507  0.31879128  0.76377295  1
  O2-  O171  1  0.43019057  0.82434674  0.10203312  1
  O2-  O172  1  0.42751230  0.82280428  0.42381493  1
  O2-  O173  1  0.42917443  0.81847990  0.76316064  1
  O2-  O174  1  0.93132633  0.32070322  0.10119916  1
  O2-  O175  1  0.92477543  0.32142629  0.42428919  1
  O2-  O176  1  0.92425382  0.32051669  0.75388399  1
  O2-  O177  1  0.92909218  0.82172532  0.09847762  1
  O2-  O178  1  0.93261167  0.81901120  0.43309702  1
  O2-  O179  1  0.92905375  0.82150044  0.75558920  1
  O2-  O180  1  0.31949573  0.06987920  0.23316378  1
  O2-  O181  1  0.31998987  0.07262601  0.57975127  1
  O2-  O182  1  0.31930113  0.07124148  0.90929968  1
  O2-  O183  1  0.32155440  0.57595379  0.24292422  1
  O2-  O184  1  0.31886848  0.56754179  0.56824388  1
  O2-  O185  1  0.31839859  0.57633818  0.91175933  1
  O2-  O186  1  0.82564852  0.07274626  0.24284299  1
  O2-  O187  1  0.81919227  0.06684319  0.56846071  1
  O2-  O188  1  0.82489184  0.06764950  0.91127007  1
  O2-  O189  1  0.81987432  0.57317166  0.24617524  1
  O2-  O190  1  0.82072530  0.57110677  0.57443484  1
  O2-  O191  1  0.82139500  0.57405584  0.90149770  1
  O2-  O192  1  0.04482871  0.08849591  0.26929347  1
  O2-  O193  1  0.03380884  0.08391909  0.59640923  1
  O2-  O194  1  0.04217265  0.08128043  0.93290859  1
  O2-  O195  1  0.04710887  0.58129813  0.27020065  1
  O2-  O196  1  0.03746530  0.58171420  0.59793449  1
  O2-  O197  1  0.05263713  0.58255412  0.94119661  1
  O2-  O198  1  0.54680325  0.08270976  0.27704249  1
  O2-  O199  1  0.55570638  0.08166864  0.60553596  1
  O2-  O200  1  0.53966941  0.08438974  0.92791948  1
  O2-  O201  1  0.54219163  0.58931220  0.26853129  1
  O2-  O202  1  0.54189736  0.58114983  0.59368431  1
  O2-  O203  1  0.54458451  0.58147944  0.93404225  1
  O2-  O204  1  0.16156081  0.21013867  0.27168858  1
  O2-  O205  1  0.16607161  0.20641796  0.59583142  1
  O2-  O206  1  0.16866109  0.20504430  0.93024483  1
  O2-  O207  1  0.16740045  0.69932562  0.26873662  1
  O2-  O208  1  0.16508352  0.70858135  0.59811437  1
  O2-  O209  1  0.16447873  0.70715579  0.93829655  1
  O2-  O210  1  0.66938586  0.19913300  0.27572949  1
  O2-  O211  1  0.66866212  0.20583055  0.60158706  1
  O2-  O212  1  0.67387319  0.19763675  0.93694386  1
  O2-  O213  1  0.66322227  0.70853582  0.27101443  1
  O2-  O214  1  0.67004013  0.70735038  0.59315565  1
  O2-  O215  1  0.66620294  0.71088257  0.93199384  1
  O2-  O216  1  0.08997286  0.45511455  0.06398984  1
  O2-  O217  1  0.08213391  0.45558511  0.40151712  1
  O2-  O218  1  0.07657764  0.45387885  0.73333437  1
  O2-  O219  1  0.08589923  0.95957004  0.06531308  1
  O2-  O220  1  0.08451895  0.95660554  0.39459614  1
  O2-  O221  1  0.08554146  0.96323935  0.73469706  1
  O2-  O222  1  0.57864954  0.45807112  0.06828950  1
  O2-  O223  1  0.58233751  0.46282676  0.40112747  1
  O2-  O224  1  0.58691470  0.45810070  0.72580717  1
  O2-  O225  1  0.58583034  0.95927738  0.05864721  1
  O2-  O226  1  0.58623895  0.95732072  0.40643376  1
  O2-  O227  1  0.58271159  0.95054532  0.73039690  1
  O2-  O228  1  0.20918044  0.33430398  0.06076641  1
  O2-  O229  1  0.21219506  0.33441334  0.40068633  1
  O2-  O230  1  0.20582778  0.32679096  0.73398851  1
  O2-  O231  1  0.20063764  0.83653098  0.06843677  1
  O2-  O232  1  0.19814861  0.83131792  0.39029343  1
  O2-  O233  1  0.20683474  0.83201329  0.73427678  1
  O2-  O234  1  0.70529155  0.32878818  0.06835507  1
  O2-  O235  1  0.70878158  0.33251927  0.40399362  1
  O2-  O236  1  0.70642988  0.33858305  0.72780525  1
  O2-  O237  1  0.70785909  0.84049444  0.05920700  1
  O2-  O238  1  0.71309780  0.83278195  0.40261815  1
  O2-  O239  1  0.70387989  0.83202196  0.73045555  1
  O2-  O240  1  0.45705627  0.41853776  0.26707587  1
  O2-  O241  1  0.46205390  0.41355817  0.59564876  1
  O2-  O242  1  0.45092499  0.42226070  0.93359763  1
  O2-  O243  1  0.45889240  0.91669599  0.27498993  1
  O2-  O244  1  0.45481033  0.92220447  0.59908305  1
  O2-  O245  1  0.45360711  0.91888500  0.93154924  1
  O2-  O246  1  0.95422183  0.41425271  0.27293059  1
  O2-  O247  1  0.94551070  0.41697149  0.60309377  1
  O2-  O248  1  0.95500568  0.42372639  0.93640364  1
  O2-  O249  1  0.96028532  0.91563479  0.26347352  1
  O2-  O250  1  0.95660440  0.91573594  0.60492650  1
  O2-  O251  1  0.96232376  0.91454126  0.93055302  1
  O2-  O252  1  0.33376347  0.28539186  0.26585517  1
  O2-  O253  1  0.33351637  0.28704397  0.59822164  1
  O2-  O254  1  0.33449864  0.28778747  0.92968239  1
  O2-  O255  1  0.33632550  0.79910690  0.27066425  1
  O2-  O256  1  0.32960719  0.79341599  0.59644150  1
  O2-  O257  1  0.32487577  0.79762791  0.94077905  1
  O2-  O258  1  0.83521686  0.29265413  0.27181282  1
  O2-  O259  1  0.83345788  0.29066240  0.60224337  1
  O2-  O260  1  0.83080200  0.29697325  0.93392448  1
  O2-  O261  1  0.83358278  0.78818234  0.26630933  1
  O2-  O262  1  0.83464703  0.79841973  0.60447678  1
  O2-  O263  1  0.83303698  0.79335503  0.92829577  1
  O2-  O264  1  0.41221465  0.04245187  0.06169374  1
  O2-  O265  1  0.41588134  0.04382293  0.40478840  1
  O2-  O266  1  0.42063024  0.05405014  0.72781304  1
  O2-  O267  1  0.41325521  0.54893416  0.06332463  1
  O2-  O268  1  0.41611716  0.54938527  0.39415765  1
  O2-  O269  1  0.42017624  0.53953819  0.73249097  1
  O2-  O270  1  0.91411925  0.03863785  0.06402412  1
  O2-  O271  1  0.91809773  0.04320136  0.39422732  1
  O2-  O272  1  0.91506941  0.03809806  0.73756835  1
  O2-  O273  1  0.92188714  0.55005188  0.07033984  1
  O2-  O274  1  0.91613191  0.54802219  0.39617535  1
  O2-  O275  1  0.91143836  0.54530538  0.72862445  1
  O2-  O276  1  0.29009582  0.16176604  0.06255355  1
  O2-  O277  1  0.28462940  0.16370623  0.40229324  1
  O2-  O278  1  0.29220402  0.16409460  0.73149722  1
  O2-  O279  1  0.28874933  0.66229050  0.06767526  1
  O2-  O280  1  0.29882890  0.66936367  0.39441278  1
  O2-  O281  1  0.29196953  0.66789468  0.73382110  1
  O2-  O282  1  0.80126772  0.16402697  0.06291660  1
  O2-  O283  1  0.80112881  0.16438063  0.39774195  1
  O2-  O284  1  0.79012634  0.16627709  0.73696651  1
  O2-  O285  1  0.79081821  0.67288187  0.06740617  1
  O2-  O286  1  0.79422187  0.66432176  0.39896521  1
  O2-  O287  1  0.79421420  0.66542162  0.72548235  1
