# generated using pymatgen
data_Ca2Al2SiO7
_symmetry_space_group_name_H-M   'P 1'
_cell_length_a   15.46051320
_cell_length_b   15.46137650
_cell_length_c   15.28497190
_cell_angle_alpha   89.99911026
_cell_angle_beta   89.99760329
_cell_angle_gamma   89.98341396
_symmetry_Int_Tables_number   1
_chemical_formula_structural   Ca2Al2SiO7
_chemical_formula_sum   'Ca48 Al48 Si24 O168'
_cell_volume   3653.73199115
_cell_formula_units_Z   24
loop_
 _symmetry_equiv_pos_site_id
 _symmetry_equiv_pos_as_xyz
  1  'x, y, z'
loop_
 _atom_type_symbol
 _atom_type_oxidation_number
  Ca2+  2.0
  Al0+  0.0
  Si0+  0.0
  O2-  -2.0
loop_
 _atom_site_type_symbol
 _atom_site_label
 _atom_site_symmetry_multiplicity
 _atom_site_fract_x
 _atom_site_fract_y
 _atom_site_fract_z
 _atom_site_occupancy
  Ca2+  Ca0  1  0.16559181  0.07685196  0.17303988  1
  Ca2+  Ca1  1  0.16742494  0.07076332  0.50754886  1
  Ca2+  Ca2  1  0.16130466  0.08102391  0.83574325  1
  Ca2+  Ca3  1  0.16581525  0.58409852  0.16791446  1
  Ca2+  Ca4  1  0.17337555  0.57729486  0.51422270  1
  Ca2+  Ca5  1  0.16679887  0.58756630  0.83291687  1
  Ca2+  Ca6  1  0.66463431  0.08308356  0.16943448  1
  Ca2+  Ca7  1  0.67192672  0.09180230  0.49974595  1
  Ca2+  Ca8  1  0.66406845  0.07698768  0.84319658  1
  Ca2+  Ca9  1  0.67935658  0.58893776  0.17291534  1
  Ca2+  Ca10  1  0.67286233  0.58466926  0.50672595  1
  Ca2+  Ca11  1  0.67738444  0.58010032  0.83851823  1
  Ca2+  Ca12  1  0.07560580  0.32427375  0.15401367  1
  Ca2+  Ca13  1  0.08977427  0.32888722  0.50146264  1
  Ca2+  Ca14  1  0.08225034  0.32632488  0.82973080  1
  Ca2+  Ca15  1  0.07559910  0.82950421  0.15898696  1
  Ca2+  Ca16  1  0.08923899  0.82934144  0.50007314  1
  Ca2+  Ca17  1  0.07964391  0.82331732  0.82855733  1
  Ca2+  Ca18  1  0.57660468  0.32378606  0.16184764  1
  Ca2+  Ca19  1  0.57980181  0.33577079  0.49136378  1
  Ca2+  Ca20  1  0.58620104  0.33275639  0.83246467  1
  Ca2+  Ca21  1  0.57709526  0.83465146  0.16093371  1
  Ca2+  Ca22  1  0.56964187  0.82510322  0.49197528  1
  Ca2+  Ca23  1  0.57261702  0.83850962  0.83048340  1
  Ca2+  Ca24  1  0.33555885  0.41111945  0.16855316  1
  Ca2+  Ca25  1  0.33317142  0.42332760  0.51040338  1
  Ca2+  Ca26  1  0.32936237  0.41880896  0.83597348  1
  Ca2+  Ca27  1  0.32896747  0.91098696  0.17135083  1
  Ca2+  Ca28  1  0.32590539  0.90804331  0.50463190  1
  Ca2+  Ca29  1  0.32894554  0.90999512  0.83619041  1
  Ca2+  Ca30  1  0.84029383  0.42672637  0.16947848  1
  Ca2+  Ca31  1  0.82410616  0.42829698  0.50868505  1
  Ca2+  Ca32  1  0.83592983  0.42470300  0.83681508  1
  Ca2+  Ca33  1  0.82806929  0.91963471  0.16935933  1
  Ca2+  Ca34  1  0.83125265  0.92412875  0.50121124  1
  Ca2+  Ca35  1  0.82619337  0.91337797  0.84403126  1
  Ca2+  Ca36  1  0.42440771  0.17442481  0.16096802  1
  Ca2+  Ca37  1  0.42418279  0.17683242  0.49042305  1
  Ca2+  Ca38  1  0.42135700  0.17074563  0.83488443  1
  Ca2+  Ca39  1  0.42413033  0.67661262  0.16508945  1
  Ca2+  Ca40  1  0.41540355  0.67181616  0.49526957  1
  Ca2+  Ca41  1  0.41092222  0.67723694  0.82673699  1
  Ca2+  Ca42  1  0.91888844  0.16982762  0.15849191  1
  Ca2+  Ca43  1  0.92082307  0.16508291  0.49673534  1
  Ca2+  Ca44  1  0.92598789  0.17037582  0.83082454  1
  Ca2+  Ca45  1  0.91998944  0.66759101  0.15542957  1
  Ca2+  Ca46  1  0.91995998  0.65802569  0.49996742  1
  Ca2+  Ca47  1  0.92068255  0.66404071  0.83205251  1
  Al0+  Al48  1  -0.00123387  -0.00239127  -0.00559308  1
  Al0+  Al49  1  -0.00018788  -0.00186892  0.34226999  1
  Al0+  Al50  1  0.00069291  0.00035936  0.66650511  1
  Al0+  Al51  1  0.00226431  0.49827244  -0.00181238  1
  Al0+  Al52  1  0.00085482  0.49914421  0.33855035  1
  Al0+  Al53  1  -0.00030835  0.49894640  0.66824677  1
  Al0+  Al54  1  0.49814087  0.00012247  -0.00198263  1
  Al0+  Al55  1  0.49816359  0.00073136  0.32855133  1
  Al0+  Al56  1  0.49941282  0.00125328  0.65869090  1
  Al0+  Al57  1  0.49979297  0.50059244  -0.00013236  1
  Al0+  Al58  1  0.50005682  0.50181139  0.32407818  1
  Al0+  Al59  1  0.50162745  0.50120732  0.67579484  1
  Al0+  Al60  1  0.25176994  0.24923849  -0.00502480  1
  Al0+  Al61  1  0.24867537  0.24732191  0.33066715  1
  Al0+  Al62  1  0.25169765  0.24856316  0.66475125  1
  Al0+  Al63  1  0.25065913  0.74920824  -0.00329780  1
  Al0+  Al64  1  0.24842103  0.74709872  0.33315660  1
  Al0+  Al65  1  0.24654406  0.75102322  0.66661064  1
  Al0+  Al66  1  0.74994452  0.25040793  -0.00711659  1
  Al0+  Al67  1  0.75172554  0.25147571  0.33401885  1
  Al0+  Al68  1  0.75180561  0.25039102  0.67028133  1
  Al0+  Al69  1  0.74899798  0.75015188  0.00677087  1
  Al0+  Al70  1  0.75214047  0.75227846  0.33777327  1
  Al0+  Al71  1  0.74919217  0.75298469  0.66946940  1
  Al0+  Al72  1  0.18054736  0.92803196  0.34666054  1
  Al0+  Al73  1  0.06727284  0.67883383  0.65126007  1
  Al0+  Al74  1  0.67844866  0.42773753  0.68265472  1
  Al0+  Al75  1  0.07162940  0.67865798  0.98563439  1
  Al0+  Al76  1  0.17993711  0.42561948  0.68246452  1
  Al0+  Al77  1  0.42809894  0.82033514  0.65162819  1
  Al0+  Al78  1  0.17943519  0.93018574  0.68297849  1
  Al0+  Al79  1  0.82101805  0.57359492  0.68364804  1
  Al0+  Al80  1  0.07175010  0.17643475  0.98627779  1
  Al0+  Al81  1  0.43034853  0.81992062  0.98550342  1
  Al0+  Al82  1  0.07179536  0.17874205  0.64973522  1
  Al0+  Al83  1  0.57437479  0.17992716  0.31879318  1
  Al0+  Al84  1  0.82255743  0.57322262  0.34822004  1
  Al0+  Al85  1  0.92835770  0.32198734  0.98474760  1
  Al0+  Al86  1  0.42605425  0.81986226  0.31765769  1
  Al0+  Al87  1  0.92591402  0.81996901  0.98691807  1
  Al0+  Al88  1  0.82168775  0.56813319  0.01542549  1
  Al0+  Al89  1  0.67683693  0.93024075  0.01417693  1
  Al0+  Al90  1  0.32049698  0.57231488  0.68242104  1
  Al0+  Al91  1  0.81950608  0.07197506  0.34625326  1
  Al0+  Al92  1  0.57042401  0.17895782  0.98375220  1
  Al0+  Al93  1  0.42912151  0.32334141  0.98190858  1
  Al0+  Al94  1  0.42653030  0.32238738  0.31919770  1
  Al0+  Al95  1  0.57476923  0.67998812  0.31852018  1
  Si0+  Si96  1  0.92506228  0.82323889  0.64798504  1
  Si0+  Si97  1  0.32057496  0.56855324  0.34544402  1
  Si0+  Si98  1  0.06871673  0.67713295  0.31984937  1
  Si0+  Si99  1  0.67840609  0.43055206  0.34628043  1
  Si0+  Si100  1  0.57273735  0.17941516  0.65089790  1
  Si0+  Si101  1  0.57299378  0.67846932  0.65274040  1
  Si0+  Si102  1  0.57334696  0.67817245  0.98339439  1
  Si0+  Si103  1  0.93171906  0.32165129  0.32065553  1
  Si0+  Si104  1  0.82153849  0.07102914  0.68317018  1
  Si0+  Si105  1  0.43122990  0.32245240  0.65284901  1
  Si0+  Si106  1  0.18182788  0.42755724  0.01583736  1
  Si0+  Si107  1  0.67681606  0.42635010  0.01948686  1
  Si0+  Si108  1  0.17880947  0.42657570  0.34645714  1
  Si0+  Si109  1  0.17858929  0.92791559  0.01448827  1
  Si0+  Si110  1  0.32141725  0.57314124  0.01759604  1
  Si0+  Si111  1  0.32217270  0.07338731  0.34987604  1
  Si0+  Si112  1  0.06896891  0.17629885  0.31989703  1
  Si0+  Si113  1  0.32423318  0.07147486  0.68284516  1
  Si0+  Si114  1  0.82265723  0.07216656  0.01439562  1
  Si0+  Si115  1  0.67501288  0.92864263  0.35143290  1
  Si0+  Si116  1  0.92756140  0.32072776  0.64704985  1
  Si0+  Si117  1  0.31944118  0.07123804  0.01521460  1
  Si0+  Si118  1  0.93051787  0.82321476  0.32092811  1
  Si0+  Si119  1  0.67760625  0.93240746  0.67949494  1
  O2-  O120  1  0.24629141  0.00174181  0.05732488  1
  O2-  O121  1  0.25827740  0.00002356  0.39360598  1
  O2-  O122  1  0.25520362  0.00421867  0.72895049  1
  O2-  O123  1  0.25235763  0.49909122  0.05922394  1
  O2-  O124  1  0.25537272  0.49198006  0.38694991  1
  O2-  O125  1  0.24943366  0.49951814  0.73334010  1
  O2-  O126  1  0.75256315  0.00536468  0.05939381  1
  O2-  O127  1  0.74067379  0.00158467  0.39465491  1
  O2-  O128  1  0.74977005  0.00079846  0.72406859  1
  O2-  O129  1  0.74700999  0.49356951  0.06400384  1
  O2-  O130  1  0.74238666  0.50293660  0.39205344  1
  O2-  O131  1  0.74967991  0.50045539  0.73221098  1
  O2-  O132  1  0.00031092  0.24871179  0.27723290  1
  O2-  O133  1  -0.00161916  0.25434863  0.60143661  1
  O2-  O134  1  -0.00100394  0.24758865  0.93669233  1
  O2-  O135  1  -0.00386873  0.74689412  0.27889922  1
  O2-  O136  1  -0.00916752  0.75177052  0.60321352  1
  O2-  O137  1  -0.00303746  0.74803224  0.93649962  1
  O2-  O138  1  0.49888152  0.24963414  0.27122162  1
  O2-  O139  1  0.50481136  0.25406728  0.61014091  1
  O2-  O140  1  0.50385994  0.25472193  0.93162467  1
  O2-  O141  1  0.50472561  0.75459328  0.26868835  1
  O2-  O142  1  0.50064584  0.74256499  0.60711846  1
  O2-  O143  1  0.50429651  0.74551687  0.93775972  1
  O2-  O144  1  0.07089782  0.17689819  0.10101070  1
  O2-  O145  1  0.06913619  0.17784718  0.42479194  1
  O2-  O146  1  0.06817559  0.17810494  0.76231232  1
  O2-  O147  1  0.07247121  0.68106582  0.10044049  1
  O2-  O148  1  0.06964371  0.67607053  0.42461243  1
  O2-  O149  1  0.06778848  0.68199761  0.76371398  1
  O2-  O150  1  0.56797832  0.17862669  0.09717657  1
  O2-  O151  1  0.57441107  0.18520105  0.43314019  1
  O2-  O152  1  0.57060878  0.17531505  0.75537229  1
  O2-  O153  1  0.57165745  0.68030567  0.08912579  1
  O2-  O154  1  0.57164869  0.67904512  0.43253646  1
  O2-  O155  1  0.57508859  0.68321586  0.75802888  1
  O2-  O156  1  0.17465456  0.42854522  0.24138799  1
  O2-  O157  1  0.18524935  0.42586755  0.56768758  1
  O2-  O158  1  0.18295929  0.42636580  0.91141494  1
  O2-  O159  1  0.17762524  0.93044826  0.23312908  1
  O2-  O160  1  0.18078611  0.93045673  0.56943284  1
  O2-  O161  1  0.18073639  0.92752795  0.90973415  1
  O2-  O162  1  0.68280416  0.42856264  0.24115532  1
  O2-  O163  1  0.67824586  0.42706755  0.56826143  1
  O2-  O164  1  0.67662770  0.42961162  0.91408344  1
  O2-  O165  1  0.67829263  0.92701358  0.24609706  1
  O2-  O166  1  0.67855246  0.93490078  0.57443938  1
  O2-  O167  1  0.67644509  0.93222452  0.90041188  1
  O2-  O168  1  0.42773514  0.31894572  0.09553199  1
  O2-  O169  1  0.42672779  0.32307875  0.43344431  1
  O2-  O170  1  0.43008021  0.31961857  0.75733050  1
  O2-  O171  1  0.42834886  0.81850415  0.09844057  1
  O2-  O172  1  0.42388051  0.81459075  0.43126064  1
  O2-  O173  1  0.43157339  0.82295444  0.76465082  1
  O2-  O174  1  0.93206784  0.32139852  0.09964013  1
  O2-  O175  1  0.93416992  0.32184662  0.42544304  1
  O2-  O176  1  0.92606058  0.31660733  0.75216547  1
  O2-  O177  1  0.92944290  0.82183881  0.10135159  1
  O2-  O178  1  0.93269973  0.82576495  0.42587620  1
  O2-  O179  1  0.92440388  0.82469878  0.75317316  1
  O2-  O180  1  0.31701369  0.07748758  0.24441373  1
  O2-  O181  1  0.32416118  0.07100021  0.57702950  1
  O2-  O182  1  0.32001909  0.07063213  0.91010891  1
  O2-  O183  1  0.31640870  0.57131978  0.24037634  1
  O2-  O184  1  0.32111696  0.56926172  0.56772434  1
  O2-  O185  1  0.31983136  0.57549158  0.91302242  1
  O2-  O186  1  0.82401394  0.06923922  0.23363122  1
  O2-  O187  1  0.82005708  0.07182724  0.57758030  1
  O2-  O188  1  0.82264107  0.06927757  0.90866831  1
  O2-  O189  1  0.82794621  0.56951787  0.23536047  1
  O2-  O190  1  0.81760733  0.57203386  0.56946705  1
  O2-  O191  1  0.82022451  0.56814174  0.90293784  1
  O2-  O192  1  0.03859376  0.08458999  0.27455630  1
  O2-  O193  1  0.03782907  0.08248779  0.59596476  1
  O2-  O194  1  0.04498283  0.07884784  0.93202364  1
  O2-  O195  1  0.04215823  0.58460790  0.27259613  1
  O2-  O196  1  0.04121026  0.58000486  0.59757207  1
  O2-  O197  1  0.04872344  0.57927436  0.93503031  1
  O2-  O198  1  0.54980095  0.08017386  0.26787044  1
  O2-  O199  1  0.54273008  0.09049310  0.59892266  1
  O2-  O200  1  0.53558689  0.08314733  0.92965304  1
  O2-  O201  1  0.54619951  0.58377220  0.26190370  1
  O2-  O202  1  0.55210508  0.58227279  0.61005579  1
  O2-  O203  1  0.54955802  0.58389049  0.93930345  1
  O2-  O204  1  0.16104986  0.20097008  0.27186878  1
  O2-  O205  1  0.16974667  0.20742072  0.59592277  1
  O2-  O206  1  0.16896752  0.20507315  0.93295586  1
  O2-  O207  1  0.15959776  0.70534708  0.27136738  1
  O2-  O208  1  0.16320217  0.71228380  0.59683195  1
  O2-  O209  1  0.16798600  0.71012448  0.93187860  1
  O2-  O210  1  0.67244771  0.20924616  0.26549757  1
  O2-  O211  1  0.66678401  0.20436261  0.60638325  1
  O2-  O212  1  0.66996757  0.20034189  0.93058769  1
  O2-  O213  1  0.67523467  0.70702414  0.26874378  1
  O2-  O214  1  0.66462352  0.70923556  0.60460304  1
  O2-  O215  1  0.66674007  0.70453739  0.93927279  1
  O2-  O216  1  0.09025868  0.45488691  0.06443336  1
  O2-  O217  1  0.09070582  0.45889079  0.39816305  1
  O2-  O218  1  0.07947667  0.44887042  0.73108825  1
  O2-  O219  1  0.08492486  0.95302391  0.06025570  1
  O2-  O220  1  0.08685122  0.96131201  0.40461024  1
  O2-  O221  1  0.08227560  0.96165731  0.73513119  1
  O2-  O222  1  0.58245063  0.45208544  0.06464014  1
  O2-  O223  1  0.58207703  0.45223662  0.38913254  1
  O2-  O224  1  0.58130888  0.45284050  0.73884789  1
  O2-  O225  1  0.58049909  0.96277226  0.06824822  1
  O2-  O226  1  0.57902513  0.94967762  0.39486299  1
  O2-  O227  1  0.58595954  0.96330057  0.72556959  1
  O2-  O228  1  0.21064024  0.33542428  0.06369947  1
  O2-  O229  1  0.20052166  0.33221248  0.39206969  1
  O2-  O230  1  0.21040834  0.32741646  0.73432641  1
  O2-  O231  1  0.21019254  0.83715167  0.06237758  1
  O2-  O232  1  0.20909363  0.82997961  0.40001670  1
  O2-  O233  1  0.20943175  0.83417461  0.73655328  1
  O2-  O234  1  0.70093967  0.33047264  0.06145399  1
  O2-  O235  1  0.70760679  0.33904209  0.39508357  1
  O2-  O236  1  0.70794382  0.32940679  0.73607916  1
  O2-  O237  1  0.70631511  0.83480362  0.07102156  1
  O2-  O238  1  0.70582200  0.83795590  0.40082096  1
  O2-  O239  1  0.70176550  0.84055341  0.72787918  1
  O2-  O240  1  0.45159969  0.41979308  0.26368795  1
  O2-  O241  1  0.45725088  0.41616921  0.60788052  1
  O2-  O242  1  0.45189284  0.42421824  0.93241476  1
  O2-  O243  1  0.44506392  0.92154563  0.26833418  1
  O2-  O244  1  0.46082114  0.91583389  0.59552983  1
  O2-  O245  1  0.45927278  0.91616292  0.93120376  1
  O2-  O246  1  0.96372235  0.41213928  0.27256396  1
  O2-  O247  1  0.94989177  0.41556935  0.60283955  1
  O2-  O248  1  0.96155058  0.41731652  0.93068031  1
  O2-  O249  1  0.96417647  0.91263137  0.27252888  1
  O2-  O250  1  0.95440065  0.91600352  0.60185436  1
  O2-  O251  1  0.95251643  0.91704768  0.93135545  1
  O2-  O252  1  0.32790238  0.29269738  0.26574110  1
  O2-  O253  1  0.34094562  0.29253548  0.60348390  1
  O2-  O254  1  0.33286669  0.29066922  0.92839143  1
  O2-  O255  1  0.32966017  0.78426079  0.26390295  1
  O2-  O256  1  0.33102002  0.79023658  0.59957891  1
  O2-  O257  1  0.33459613  0.78782978  0.93157954  1
  O2-  O258  1  0.83970907  0.29675419  0.27355703  1
  O2-  O259  1  0.83467256  0.29075055  0.60047201  1
  O2-  O260  1  0.83030345  0.29859408  0.93044134  1
  O2-  O261  1  0.83640499  0.80243610  0.27615457  1
  O2-  O262  1  0.82971674  0.80202945  0.60244692  1
  O2-  O263  1  0.82648317  0.79354390  0.93602328  1
  O2-  O264  1  0.40966656  0.04053676  0.06335860  1
  O2-  O265  1  0.41841870  0.05468620  0.39330844  1
  O2-  O266  1  0.41839447  0.04502843  0.72737086  1
  O2-  O267  1  0.41438252  0.54784678  0.06440946  1
  O2-  O268  1  0.41481754  0.54657374  0.39069529  1
  O2-  O269  1  0.41917392  0.54896738  0.73607075  1
  O2-  O270  1  0.91622464  0.04494902  0.06089947  1
  O2-  O271  1  0.91287045  0.03647150  0.40498703  1
  O2-  O272  1  0.91310362  0.04295621  0.72918705  1
  O2-  O273  1  0.91988434  0.53718197  0.06841775  1
  O2-  O274  1  0.91677374  0.53577697  0.40399187  1
  O2-  O275  1  0.91960930  0.54470231  0.73394496  1
  O2-  O276  1  0.29286341  0.16351439  0.06299683  1
  O2-  O277  1  0.29154129  0.16504761  0.39878435  1
  O2-  O278  1  0.30003230  0.16524946  0.72816578  1
  O2-  O279  1  0.28914673  0.66337274  0.06652420  1
  O2-  O280  1  0.28689605  0.65721056  0.39533294  1
  O2-  O281  1  0.28803484  0.66941303  0.73448431  1
  O2-  O282  1  0.79992134  0.16774354  0.05789537  1
  O2-  O283  1  0.79331978  0.16960321  0.40257017  1
  O2-  O284  1  0.79528307  0.16254839  0.73063900  1
  O2-  O285  1  0.79112101  0.66479284  0.07050208  1
  O2-  O286  1  0.79903788  0.67154310  0.40239889  1
  O2-  O287  1  0.79332179  0.67308969  0.73494996  1
