# generated using pymatgen
data_Ca2Al2SiO7
_symmetry_space_group_name_H-M   'P 1'
_cell_length_a   15.46833175
_cell_length_b   15.46632687
_cell_length_c   15.29038175
_cell_angle_alpha   90.01216481
_cell_angle_beta   89.97741456
_cell_angle_gamma   90.02585571
_symmetry_Int_Tables_number   1
_chemical_formula_structural   Ca2Al2SiO7
_chemical_formula_sum   'Ca48 Al48 Si24 O168'
_cell_volume   3658.04381225
_cell_formula_units_Z   24
loop_
 _symmetry_equiv_pos_site_id
 _symmetry_equiv_pos_as_xyz
  1  'x, y, z'
loop_
 _atom_type_symbol
 _atom_type_oxidation_number
  Ca2+  2.0
  Al0+  0.0
  Si0+  0.0
  O2-  -2.0
loop_
 _atom_site_type_symbol
 _atom_site_label
 _atom_site_symmetry_multiplicity
 _atom_site_fract_x
 _atom_site_fract_y
 _atom_site_fract_z
 _atom_site_occupancy
  Ca2+  Ca0  1  0.17461722  0.08165103  0.17245848  1
  Ca2+  Ca1  1  0.17019835  0.08711208  0.50175649  1
  Ca2+  Ca2  1  0.16595463  0.08425513  0.83288978  1
  Ca2+  Ca3  1  0.18218152  0.58648963  0.17146579  1
  Ca2+  Ca4  1  0.17887509  0.57741055  0.50794284  1
  Ca2+  Ca5  1  0.17762795  0.58329517  0.83462215  1
  Ca2+  Ca6  1  0.66782118  0.06703207  0.17545628  1
  Ca2+  Ca7  1  0.67714569  0.07316151  0.50578316  1
  Ca2+  Ca8  1  0.66716043  0.07241577  0.83438911  1
  Ca2+  Ca9  1  0.66601462  0.58199988  0.16535093  1
  Ca2+  Ca10  1  0.66655203  0.58204098  0.50781455  1
  Ca2+  Ca11  1  0.66882975  0.58023089  0.83263392  1
  Ca2+  Ca12  1  0.07656304  0.33360502  0.16650806  1
  Ca2+  Ca13  1  0.07905165  0.33242090  0.49737030  1
  Ca2+  Ca14  1  0.08495832  0.32889929  0.82324196  1
  Ca2+  Ca15  1  0.06922712  0.83657479  0.16230403  1
  Ca2+  Ca16  1  0.07453675  0.82989308  0.49424017  1
  Ca2+  Ca17  1  0.07444995  0.83106826  0.83087299  1
  Ca2+  Ca18  1  0.57373406  0.33433855  0.16050980  1
  Ca2+  Ca19  1  0.58024942  0.33591027  0.49262647  1
  Ca2+  Ca20  1  0.58232205  0.34429137  0.83167162  1
  Ca2+  Ca21  1  0.58550359  0.82914882  0.16200053  1
  Ca2+  Ca22  1  0.59042321  0.82266476  0.49873356  1
  Ca2+  Ca23  1  0.57712979  0.83164802  0.82506100  1
  Ca2+  Ca24  1  0.34363529  0.42545224  0.17070300  1
  Ca2+  Ca25  1  0.33546434  0.42687382  0.50491669  1
  Ca2+  Ca26  1  0.33539004  0.43004027  0.83681077  1
  Ca2+  Ca27  1  0.33538395  0.91962975  0.17253228  1
  Ca2+  Ca28  1  0.33834623  0.92216820  0.50461506  1
  Ca2+  Ca29  1  0.33719545  0.91186015  0.83875514  1
  Ca2+  Ca30  1  0.82950276  0.41896374  0.16995262  1
  Ca2+  Ca31  1  0.82823783  0.42147563  0.51194883  1
  Ca2+  Ca32  1  0.82169124  0.42750146  0.83884954  1
  Ca2+  Ca33  1  0.82515313  0.91357385  0.17460036  1
  Ca2+  Ca34  1  0.82386669  0.91781000  0.50345927  1
  Ca2+  Ca35  1  0.81923324  0.91389372  0.83786403  1
  Ca2+  Ca36  1  0.41188724  0.17705415  0.16264278  1
  Ca2+  Ca37  1  0.41774822  0.17404982  0.49130994  1
  Ca2+  Ca38  1  0.41950238  0.17616117  0.83048011  1
  Ca2+  Ca39  1  0.42207757  0.66585911  0.16130963  1
  Ca2+  Ca40  1  0.42741439  0.66258468  0.49688065  1
  Ca2+  Ca41  1  0.41877104  0.67327782  0.82449643  1
  Ca2+  Ca42  1  0.90764437  0.17074997  0.16823639  1
  Ca2+  Ca43  1  0.91626757  0.16597446  0.49432724  1
  Ca2+  Ca44  1  0.92187926  0.16515319  0.82254630  1
  Ca2+  Ca45  1  0.91259315  0.67729711  0.16000674  1
  Ca2+  Ca46  1  0.91237703  0.67043572  0.49267063  1
  Ca2+  Ca47  1  0.90376840  0.66847116  0.83183900  1
  Al0+  Al48  1  0.00064639  -0.00073197  -0.00440613  1
  Al0+  Al49  1  0.00107960  -0.00010254  0.33096266  1
  Al0+  Al50  1  0.00295866  0.00136638  0.66352814  1
  Al0+  Al51  1  0.00192018  0.49938260  0.00258491  1
  Al0+  Al52  1  0.00182182  0.49888165  0.32722619  1
  Al0+  Al53  1  0.00134515  0.50036905  0.67371096  1
  Al0+  Al54  1  0.50022806  0.00157904  0.00139422  1
  Al0+  Al55  1  0.49977083  -0.00208840  0.34374048  1
  Al0+  Al56  1  0.49898085  0.00391332  0.66654645  1
  Al0+  Al57  1  0.49971373  0.49997674  0.00213130  1
  Al0+  Al58  1  0.50131767  0.50050113  0.32864861  1
  Al0+  Al59  1  0.49909000  0.50281271  0.66959665  1
  Al0+  Al60  1  0.25016495  0.25071359  -0.00495485  1
  Al0+  Al61  1  0.24869982  0.25019716  0.33205458  1
  Al0+  Al62  1  0.24893575  0.24904880  0.66470075  1
  Al0+  Al63  1  0.24843023  0.75067193  0.00253874  1
  Al0+  Al64  1  0.25144017  0.74887376  0.33952515  1
  Al0+  Al65  1  0.24749788  0.75378257  0.66503547  1
  Al0+  Al66  1  0.74986682  0.24916027  0.00115193  1
  Al0+  Al67  1  0.74929855  0.24802090  0.33075806  1
  Al0+  Al68  1  0.74991643  0.24974218  0.67426656  1
  Al0+  Al69  1  0.74941373  0.75013451  0.00221768  1
  Al0+  Al70  1  0.74954957  0.74714388  0.32753532  1
  Al0+  Al71  1  0.74706114  0.75162511  0.66887360  1
  Al0+  Al72  1  0.67763888  0.93030170  0.68283170  1
  Al0+  Al73  1  0.32022919  0.07184180  0.34674215  1
  Al0+  Al74  1  0.82214391  0.57070577  0.01788140  1
  Al0+  Al75  1  0.42627855  0.82433502  0.65026238  1
  Al0+  Al76  1  0.82229254  0.57315820  0.67879482  1
  Al0+  Al77  1  0.42960372  0.31928283  0.32062661  1
  Al0+  Al78  1  0.32351640  0.56985715  0.34821709  1
  Al0+  Al79  1  0.57026359  0.67920238  0.31700452  1
  Al0+  Al80  1  0.07109274  0.17895182  0.65029014  1
  Al0+  Al81  1  0.42990376  0.32168526  0.98378981  1
  Al0+  Al82  1  0.42846187  0.82199661  0.98929733  1
  Al0+  Al83  1  0.31915134  0.57182285  0.01472942  1
  Al0+  Al84  1  0.17993319  0.42732675  0.68083585  1
  Al0+  Al85  1  0.92824430  0.81970615  0.98410930  1
  Al0+  Al86  1  0.82142555  0.07178089  0.34747383  1
  Al0+  Al87  1  0.67784487  0.93049143  0.01458773  1
  Al0+  Al88  1  0.67923355  0.92394614  0.35017429  1
  Al0+  Al89  1  0.56966528  0.68009356  0.65165256  1
  Al0+  Al90  1  0.93064143  0.81962400  0.32053405  1
  Al0+  Al91  1  0.92727024  0.32113702  0.32017383  1
  Al0+  Al92  1  0.67864563  0.42753116  0.01827366  1
  Al0+  Al93  1  0.67721453  0.42791273  0.67936653  1
  Al0+  Al94  1  0.32030077  0.57363431  0.68159692  1
  Al0+  Al95  1  0.82396665  0.07034692  0.68189301  1
  Si0+  Si96  1  0.57281007  0.17973209  0.65143573  1
  Si0+  Si97  1  0.07046077  0.18007032  0.98453330  1
  Si0+  Si98  1  0.57097911  0.67859262  0.98229317  1
  Si0+  Si99  1  0.57152674  0.17526007  0.31794856  1
  Si0+  Si100  1  0.82290706  0.56847212  0.34527448  1
  Si0+  Si101  1  0.57213560  0.17773534  0.98305514  1
  Si0+  Si102  1  0.31977314  0.07213471  0.01306578  1
  Si0+  Si103  1  0.17641673  0.42858995  0.34915026  1
  Si0+  Si104  1  0.17789594  0.92979360  0.01466926  1
  Si0+  Si105  1  0.17930345  0.42477634  0.01835511  1
  Si0+  Si106  1  0.92791053  0.32184122  0.98366635  1
  Si0+  Si107  1  0.07253373  0.67786239  0.98340125  1
  Si0+  Si108  1  0.92943478  0.81963934  0.65255096  1
  Si0+  Si109  1  0.17782203  0.92780462  0.35038108  1
  Si0+  Si110  1  0.32067697  0.07212757  0.68295033  1
  Si0+  Si111  1  0.07468528  0.67712687  0.31681667  1
  Si0+  Si112  1  0.07165268  0.67773838  0.65190279  1
  Si0+  Si113  1  0.07193596  0.17809169  0.31445308  1
  Si0+  Si114  1  0.17876395  0.93016754  0.68219555  1
  Si0+  Si115  1  0.82513546  0.07019106  0.01608978  1
  Si0+  Si116  1  0.92793092  0.32218209  0.65302435  1
  Si0+  Si117  1  0.42666005  0.82278241  0.31828394  1
  Si0+  Si118  1  0.68018342  0.42875687  0.34560898  1
  Si0+  Si119  1  0.43021015  0.32065344  0.65223500  1
  O2-  O120  1  0.25192838  -0.00178337  0.05570187  1
  O2-  O121  1  0.24789448  -0.00491019  0.39453468  1
  O2-  O122  1  0.25376260  -0.00293906  0.72490667  1
  O2-  O123  1  0.24651697  0.49467195  0.06235764  1
  O2-  O124  1  0.24698344  0.49547346  0.39231335  1
  O2-  O125  1  0.24976702  0.50019911  0.73189905  1
  O2-  O126  1  0.75542575  0.00313036  0.06014838  1
  O2-  O127  1  0.75120068  -0.00178197  0.39686844  1
  O2-  O128  1  0.75214804  -0.00026272  0.73320575  1
  O2-  O129  1  0.75196459  0.49765907  0.06920923  1
  O2-  O130  1  0.75617949  0.49409798  0.38756871  1
  O2-  O131  1  0.75086169  0.49963646  0.72674621  1
  O2-  O132  1  -0.00000373  0.24407312  0.27155172  1
  O2-  O133  1  -0.00513207  0.25295370  0.60617080  1
  O2-  O134  1  -0.00154875  0.24972147  0.94226989  1
  O2-  O135  1  0.00670617  0.74626540  0.27264389  1
  O2-  O136  1  -0.00493082  0.74323509  0.61019951  1
  O2-  O137  1  -0.00124941  0.74038584  0.93768188  1
  O2-  O138  1  0.50035768  0.24100792  0.27282012  1
  O2-  O139  1  0.50553896  0.25463684  0.60955195  1
  O2-  O140  1  0.50839967  0.25074267  0.93739343  1
  O2-  O141  1  0.49557939  0.75577694  0.27290425  1
  O2-  O142  1  0.49729256  0.75167373  0.60037702  1
  O2-  O143  1  0.50166248  0.74790456  0.94051029  1
  O2-  O144  1  0.07282436  0.17982913  0.08942262  1
  O2-  O145  1  0.07426586  0.17991430  0.41965477  1
  O2-  O146  1  0.07205396  0.17903036  0.76397187  1
  O2-  O147  1  0.07496750  0.68321696  0.08895302  1
  O2-  O148  1  0.07253500  0.67676626  0.42264293  1
  O2-  O149  1  0.07577330  0.68225799  0.75671362  1
  O2-  O150  1  0.56753372  0.17547240  0.08852846  1
  O2-  O151  1  0.57193955  0.18020337  0.42365967  1
  O2-  O152  1  0.56830407  0.17658702  0.75646682  1
  O2-  O153  1  0.56948540  0.67924581  0.08835759  1
  O2-  O154  1  0.57147902  0.67572793  0.42960223  1
  O2-  O155  1  0.56923574  0.68021411  0.76515138  1
  O2-  O156  1  0.17443822  0.42966185  0.24349944  1
  O2-  O157  1  0.18098313  0.42800700  0.56699076  1
  O2-  O158  1  0.18043216  0.42263777  0.91310587  1
  O2-  O159  1  0.17770986  0.92922503  0.24437210  1
  O2-  O160  1  0.17600983  0.93168372  0.57732034  1
  O2-  O161  1  0.17596812  0.93164499  0.90957752  1
  O2-  O162  1  0.67996456  0.42991627  0.24085971  1
  O2-  O163  1  0.67881092  0.42623154  0.56506604  1
  O2-  O164  1  0.68030522  0.42895706  0.90509927  1
  O2-  O165  1  0.67994851  0.92544109  0.23615183  1
  O2-  O166  1  0.68125500  0.92951194  0.56964879  1
  O2-  O167  1  0.67655650  0.93284943  0.90190494  1
  O2-  O168  1  0.42729304  0.31740528  0.09694543  1
  O2-  O169  1  0.43221243  0.31984896  0.43410842  1
  O2-  O170  1  0.42903932  0.31754545  0.75738673  1
  O2-  O171  1  0.42809829  0.82287377  0.10236557  1
  O2-  O172  1  0.42463216  0.82127873  0.42332863  1
  O2-  O173  1  0.42687163  0.82295781  0.76438777  1
  O2-  O174  1  0.92912891  0.31997593  0.08903504  1
  O2-  O175  1  0.92951063  0.32436144  0.43294816  1
  O2-  O176  1  0.93094297  0.31980953  0.75863394  1
  O2-  O177  1  0.93233357  0.82258426  0.09717533  1
  O2-  O178  1  0.93186898  0.81667259  0.43407327  1
  O2-  O179  1  0.93247372  0.82044064  0.75771632  1
  O2-  O180  1  0.31714337  0.07195255  0.23302087  1
  O2-  O181  1  0.31856377  0.07429739  0.57797686  1
  O2-  O182  1  0.31700107  0.07357562  0.90796831  1
  O2-  O183  1  0.32191101  0.56942480  0.23488945  1
  O2-  O184  1  0.32019477  0.56967961  0.56793533  1
  O2-  O185  1  0.31636270  0.57318651  0.90212506  1
  O2-  O186  1  0.81836862  0.07146921  0.23353964  1
  O2-  O187  1  0.82336061  0.06870492  0.56847536  1
  O2-  O188  1  0.82749406  0.06845682  0.91074034  1
  O2-  O189  1  0.82271365  0.56807612  0.24056161  1
  O2-  O190  1  0.82410406  0.57085692  0.56442438  1
  O2-  O191  1  0.82053958  0.56893160  0.90460391  1
  O2-  O192  1  0.05186727  0.08328837  0.26835544  1
  O2-  O193  1  0.04409801  0.08201835  0.59455930  1
  O2-  O194  1  0.04478706  0.08797712  0.93608721  1
  O2-  O195  1  0.05121225  0.58435782  0.26860072  1
  O2-  O196  1  0.04999937  0.58340644  0.60685341  1
  O2-  O197  1  0.05549736  0.58088356  0.94110714  1
  O2-  O198  1  0.54672540  0.07957038  0.27617181  1
  O2-  O199  1  0.54019024  0.09096659  0.60146102  1
  O2-  O200  1  0.53947925  0.08738049  0.93442253  1
  O2-  O201  1  0.53722110  0.58447738  0.26066385  1
  O2-  O202  1  0.54129747  0.58078051  0.59845978  1
  O2-  O203  1  0.54504595  0.58476607  0.93838218  1
  O2-  O204  1  0.16350829  0.20755779  0.26549537  1
  O2-  O205  1  0.16755645  0.21007893  0.59537900  1
  O2-  O206  1  0.16129403  0.20808135  0.93483210  1
  O2-  O207  1  0.16900628  0.70395814  0.27249331  1
  O2-  O208  1  0.15940095  0.71226323  0.60055847  1
  O2-  O209  1  0.16271701  0.71161318  0.93523823  1
  O2-  O210  1  0.66338578  0.20132425  0.26918862  1
  O2-  O211  1  0.66666664  0.20358444  0.60654608  1
  O2-  O212  1  0.66812226  0.19700255  0.93913092  1
  O2-  O213  1  0.66605540  0.70811314  0.26061332  1
  O2-  O214  1  0.66870587  0.70906194  0.59819164  1
  O2-  O215  1  0.66479421  0.70425357  0.93834961  1
  O2-  O216  1  0.08483804  0.44789778  0.06369657  1
  O2-  O217  1  0.08364842  0.45651301  0.39614948  1
  O2-  O218  1  0.08224982  0.45286938  0.73625392  1
  O2-  O219  1  0.08813323  0.96301402  0.06334466  1
  O2-  O220  1  0.08524543  0.95544452  0.39700600  1
  O2-  O221  1  0.08969645  0.96301629  0.73192993  1
  O2-  O222  1  0.58004763  0.45657922  0.07007723  1
  O2-  O223  1  0.59036287  0.46138230  0.39302244  1
  O2-  O224  1  0.58036189  0.45773662  0.73369300  1
  O2-  O225  1  0.58240424  0.96420537  0.07011874  1
  O2-  O226  1  0.58087595  0.94869272  0.40373104  1
  O2-  O227  1  0.57977051  0.96369467  0.73423257  1
  O2-  O228  1  0.20602412  0.33112943  0.06416760  1
  O2-  O229  1  0.19899085  0.33377664  0.39290903  1
  O2-  O230  1  0.20880180  0.32871443  0.73335011  1
  O2-  O231  1  0.20203200  0.83862687  0.06398890  1
  O2-  O232  1  0.19942843  0.83376708  0.39714618  1
  O2-  O233  1  0.20089796  0.83800639  0.73122883  1
  O2-  O234  1  0.70456676  0.32690874  0.06908067  1
  O2-  O235  1  0.70143361  0.33471953  0.39082412  1
  O2-  O236  1  0.70168893  0.33048814  0.73592853  1
  O2-  O237  1  0.70729269  0.83361033  0.06712790  1
  O2-  O238  1  0.71315342  0.82602386  0.40061579  1
  O2-  O239  1  0.70489553  0.83249342  0.73615916  1
  O2-  O240  1  0.46513757  0.41293925  0.26486044  1
  O2-  O241  1  0.45367225  0.41420902  0.60718810  1
  O2-  O242  1  0.45820274  0.41947722  0.93159693  1
  O2-  O243  1  0.44945088  0.91884922  0.27549277  1
  O2-  O244  1  0.45221248  0.92530738  0.60101396  1
  O2-  O245  1  0.45599073  0.92023177  0.93615958  1
  O2-  O246  1  0.96140473  0.41537856  0.26181491  1
  O2-  O247  1  0.95452481  0.41644224  0.60824013  1
  O2-  O248  1  0.95695265  0.41378301  0.93788570  1
  O2-  O249  1  0.96151711  0.91603175  0.26532229  1
  O2-  O250  1  0.96497661  0.90863530  0.60505402  1
  O2-  O251  1  0.96561455  0.91428075  0.92956969  1
  O2-  O252  1  0.33179685  0.29158528  0.26688226  1
  O2-  O253  1  0.34058053  0.28697205  0.60458823  1
  O2-  O254  1  0.33495575  0.28584545  0.92905717  1
  O2-  O255  1  0.33156811  0.79826903  0.27350665  1
  O2-  O256  1  0.32509796  0.80225500  0.59947043  1
  O2-  O257  1  0.32967067  0.79452248  0.93707395  1
  O2-  O258  1  0.83131964  0.29072554  0.26349417  1
  O2-  O259  1  0.83276284  0.29864801  0.60930647  1
  O2-  O260  1  0.83543989  0.29549458  0.93743937  1
  O2-  O261  1  0.83647255  0.78612892  0.26464615  1
  O2-  O262  1  0.83621886  0.79666369  0.60687154  1
  O2-  O263  1  0.83056810  0.79103759  0.93177757  1
  O2-  O264  1  0.41161324  0.04856659  0.06104075  1
  O2-  O265  1  0.41602303  0.04597130  0.40418457  1
  O2-  O266  1  0.41317421  0.05040686  0.73100465  1
  O2-  O267  1  0.41574084  0.54119703  0.06764074  1
  O2-  O268  1  0.41908130  0.53414604  0.40036962  1
  O2-  O269  1  0.41729840  0.54527138  0.73552284  1
  O2-  O270  1  0.91907961  0.04465743  0.06185215  1
  O2-  O271  1  0.92297760  0.04826498  0.39555825  1
  O2-  O272  1  0.92404864  0.04324232  0.73206558  1
  O2-  O273  1  0.92309001  0.54568469  0.06830757  1
  O2-  O274  1  0.91723017  0.54582386  0.39024094  1
  O2-  O275  1  0.92051275  0.54968579  0.73417621  1
  O2-  O276  1  0.28635063  0.16221713  0.06088762  1
  O2-  O277  1  0.28648341  0.16775248  0.40107630  1
  O2-  O278  1  0.28744352  0.16143207  0.73168383  1
  O2-  O279  1  0.28565008  0.66741598  0.07033340  1
  O2-  O280  1  0.29413912  0.66618102  0.40299658  1
  O2-  O281  1  0.28818079  0.67226177  0.73170404  1
  O2-  O282  1  0.80153779  0.16523804  0.05968094  1
  O2-  O283  1  0.79257880  0.17041675  0.40046700  1
  O2-  O284  1  0.79730949  0.16829236  0.73618427  1
  O2-  O285  1  0.79257894  0.66919265  0.06949110  1
  O2-  O286  1  0.79175081  0.65901680  0.39175678  1
  O2-  O287  1  0.79228260  0.67006854  0.73261169  1
