# generated using pymatgen
data_Ca2Al2SiO7
_symmetry_space_group_name_H-M   'P 1'
_cell_length_a   15.45573199
_cell_length_b   15.45528454
_cell_length_c   15.28142514
_cell_angle_alpha   90.00930177
_cell_angle_beta   90.00416515
_cell_angle_gamma   89.99958061
_symmetry_Int_Tables_number   1
_chemical_formula_structural   Ca2Al2SiO7
_chemical_formula_sum   'Ca48 Al48 Si24 O168'
_cell_volume   3650.31576992
_cell_formula_units_Z   24
loop_
 _symmetry_equiv_pos_site_id
 _symmetry_equiv_pos_as_xyz
  1  'x, y, z'
loop_
 _atom_type_symbol
 _atom_type_oxidation_number
  Ca2+  2.0
  Al0+  0.0
  Si0+  0.0
  O2-  -2.0
loop_
 _atom_site_type_symbol
 _atom_site_label
 _atom_site_symmetry_multiplicity
 _atom_site_fract_x
 _atom_site_fract_y
 _atom_site_fract_z
 _atom_site_occupancy
  Ca2+  Ca0  1  0.16508472  0.06601500  0.17149626  1
  Ca2+  Ca1  1  0.16602409  0.07568339  0.50115109  1
  Ca2+  Ca2  1  0.16992074  0.07557398  0.84222142  1
  Ca2+  Ca3  1  0.15685565  0.57826671  0.17016754  1
  Ca2+  Ca4  1  0.16906372  0.58439499  0.50037216  1
  Ca2+  Ca5  1  0.16879071  0.58176835  0.83851650  1
  Ca2+  Ca6  1  0.66840430  0.08140906  0.16941126  1
  Ca2+  Ca7  1  0.65904277  0.07625785  0.50335362  1
  Ca2+  Ca8  1  0.66749070  0.08348755  0.83574439  1
  Ca2+  Ca9  1  0.68065778  0.58423626  0.17508850  1
  Ca2+  Ca10  1  0.67041947  0.57411233  0.50492599  1
  Ca2+  Ca11  1  0.67180899  0.57554512  0.83705692  1
  Ca2+  Ca12  1  0.08622379  0.33681909  0.16203937  1
  Ca2+  Ca13  1  0.07853417  0.33796527  0.49600814  1
  Ca2+  Ca14  1  0.07777232  0.33644118  0.82954127  1
  Ca2+  Ca15  1  0.07849921  0.82412896  0.15897129  1
  Ca2+  Ca16  1  0.07142338  0.82826056  0.48972762  1
  Ca2+  Ca17  1  0.07290760  0.83340195  0.83237542  1
  Ca2+  Ca18  1  0.59416691  0.32330047  0.16526144  1
  Ca2+  Ca19  1  0.59024942  0.32722967  0.49523471  1
  Ca2+  Ca20  1  0.58573763  0.32293207  0.82256195  1
  Ca2+  Ca21  1  0.57888474  0.83774507  0.16298891  1
  Ca2+  Ca22  1  0.57978109  0.84197581  0.49669556  1
  Ca2+  Ca23  1  0.57320803  0.83625353  0.82558199  1
  Ca2+  Ca24  1  0.32029455  0.41559980  0.17185501  1
  Ca2+  Ca25  1  0.33072645  0.42111044  0.50866626  1
  Ca2+  Ca26  1  0.33335810  0.42123552  0.83576936  1
  Ca2+  Ca27  1  0.32146928  0.90660974  0.16726675  1
  Ca2+  Ca28  1  0.32707412  0.91180802  0.50459041  1
  Ca2+  Ca29  1  0.33109577  0.91185001  0.83966094  1
  Ca2+  Ca30  1  0.83294162  0.43286635  0.17337558  1
  Ca2+  Ca31  1  0.82697816  0.42014610  0.50364165  1
  Ca2+  Ca32  1  0.83195748  0.41861248  0.83701125  1
  Ca2+  Ca33  1  0.83566656  0.91952703  0.17227206  1
  Ca2+  Ca34  1  0.82342759  0.90958603  0.50477636  1
  Ca2+  Ca35  1  0.83179223  0.91798201  0.83856621  1
  Ca2+  Ca36  1  0.42980615  0.16559649  0.16178562  1
  Ca2+  Ca37  1  0.42812771  0.17225465  0.49827497  1
  Ca2+  Ca38  1  0.42830274  0.17266216  0.82532672  1
  Ca2+  Ca39  1  0.42047923  0.67213974  0.16099754  1
  Ca2+  Ca40  1  0.41528188  0.66710824  0.50228903  1
  Ca2+  Ca41  1  0.41069042  0.67603407  0.82812047  1
  Ca2+  Ca42  1  0.91402313  0.16767895  0.16140681  1
  Ca2+  Ca43  1  0.91239970  0.17503310  0.50078859  1
  Ca2+  Ca44  1  0.91578393  0.16963345  0.82918812  1
  Ca2+  Ca45  1  0.91933316  0.67275257  0.16176492  1
  Ca2+  Ca46  1  0.91603539  0.67538317  0.49059349  1
  Ca2+  Ca47  1  0.91818288  0.67194140  0.83355142  1
  Al0+  Al48  1  -0.00025702  0.00040545  0.00461858  1
  Al0+  Al49  1  0.00016373  0.00234750  0.33663632  1
  Al0+  Al50  1  -0.00106081  -0.00165714  0.66227216  1
  Al0+  Al51  1  -0.00035654  0.50077838  0.00270666  1
  Al0+  Al52  1  0.00062728  0.50144329  0.33949024  1
  Al0+  Al53  1  0.00094379  0.49962544  0.66242443  1
  Al0+  Al54  1  0.50049796  0.00153336  -0.00883689  1
  Al0+  Al55  1  0.50020301  0.00336162  0.33058797  1
  Al0+  Al56  1  0.49824663  -0.00044287  0.66303741  1
  Al0+  Al57  1  0.49914203  0.49830258  0.00252642  1
  Al0+  Al58  1  0.49867284  0.49998793  0.33326901  1
  Al0+  Al59  1  0.49893790  0.50083260  0.67482890  1
  Al0+  Al60  1  0.25168208  0.24956747  0.00384840  1
  Al0+  Al61  1  0.25036145  0.25057467  0.33755522  1
  Al0+  Al62  1  0.25073694  0.24760650  0.66432112  1
  Al0+  Al63  1  0.25016148  0.74832623  -0.00345805  1
  Al0+  Al64  1  0.24811167  0.74956910  0.33447628  1
  Al0+  Al65  1  0.24970659  0.74852051  0.66673927  1
  Al0+  Al66  1  0.75086310  0.24747786  -0.00066500  1
  Al0+  Al67  1  0.75092938  0.24997901  0.33007186  1
  Al0+  Al68  1  0.75266829  0.24884826  0.66185073  1
  Al0+  Al69  1  0.74855873  0.74956985  -0.00033215  1
  Al0+  Al70  1  0.74841738  0.75303255  0.33707403  1
  Al0+  Al71  1  0.74901194  0.74984763  0.66958492  1
  Al0+  Al72  1  0.17958797  0.42854854  0.34941962  1
  Al0+  Al73  1  0.92614184  0.82319872  0.31754088  1
  Al0+  Al74  1  0.42831279  0.32396895  0.65224800  1
  Al0+  Al75  1  0.32003586  0.57072476  0.68170598  1
  Al0+  Al76  1  0.57090415  0.18068985  0.31647180  1
  Al0+  Al77  1  0.17997077  0.92798592  0.01243426  1
  Al0+  Al78  1  0.07068465  0.67913680  0.31756405  1
  Al0+  Al79  1  0.17887095  0.92781931  0.34850608  1
  Al0+  Al80  1  0.93100699  0.32135752  0.65314999  1
  Al0+  Al81  1  0.92743982  0.82363618  0.98467394  1
  Al0+  Al82  1  0.57214220  0.18138804  0.98397695  1
  Al0+  Al83  1  0.68086121  0.42732675  0.68094520  1
  Al0+  Al84  1  0.42867155  0.81981565  0.65111868  1
  Al0+  Al85  1  0.81952333  0.57171882  0.01283991  1
  Al0+  Al86  1  0.92740415  0.82059130  0.65215574  1
  Al0+  Al87  1  0.43064778  0.81858887  0.98693615  1
  Al0+  Al88  1  0.67832032  0.93214684  0.34541577  1
  Al0+  Al89  1  0.57178469  0.18013925  0.64924063  1
  Al0+  Al90  1  0.82118032  0.57325155  0.35045175  1
  Al0+  Al91  1  0.18011743  0.42936968  0.01224841  1
  Al0+  Al92  1  0.06979868  0.67691486  0.98305046  1
  Al0+  Al93  1  0.82058240  0.07034589  0.01293615  1
  Al0+  Al94  1  0.67925608  0.42848158  0.34692472  1
  Al0+  Al95  1  0.67742781  0.92900935  0.68161718  1
  Si0+  Si96  1  0.32192440  0.07110146  0.35064074  1
  Si0+  Si97  1  0.17819821  0.92943757  0.68177821  1
  Si0+  Si98  1  0.82374528  0.57179520  0.68439250  1
  Si0+  Si99  1  0.32368851  0.07151833  0.01624500  1
  Si0+  Si100  1  0.67599341  0.92893617  0.01426256  1
  Si0+  Si101  1  0.57038125  0.67786629  0.32016197  1
  Si0+  Si102  1  0.07318264  0.17597980  0.65010549  1
  Si0+  Si103  1  0.42895535  0.82160545  0.31918100  1
  Si0+  Si104  1  0.93105637  0.32033868  0.98750718  1
  Si0+  Si105  1  0.32284348  0.57250168  0.01813737  1
  Si0+  Si106  1  0.82334016  0.07368589  0.35144824  1
  Si0+  Si107  1  0.57319919  0.67461639  0.98367073  1
  Si0+  Si108  1  0.42636196  0.32355262  0.31549486  1
  Si0+  Si109  1  0.32026662  0.07060271  0.68199134  1
  Si0+  Si110  1  0.42557543  0.32197005  0.98402331  1
  Si0+  Si111  1  0.32331017  0.57285074  0.34983753  1
  Si0+  Si112  1  0.67804159  0.42641022  0.01571283  1
  Si0+  Si113  1  0.57224651  0.67769565  0.65127295  1
  Si0+  Si114  1  0.07170531  0.67862691  0.64922414  1
  Si0+  Si115  1  0.82302578  0.07036508  0.68249729  1
  Si0+  Si116  1  0.17751808  0.42608749  0.68314908  1
  Si0+  Si117  1  0.07346914  0.17979159  0.31769385  1
  Si0+  Si118  1  0.93069099  0.32033432  0.31713018  1
  Si0+  Si119  1  0.07296391  0.17821611  0.98794054  1
  O2-  O120  1  0.25626564  0.00159924  0.06034261  1
  O2-  O121  1  0.25405037  0.00199756  0.39600297  1
  O2-  O122  1  0.24863331  0.00051028  0.72497191  1
  O2-  O123  1  0.25451097  0.50321024  0.06139172  1
  O2-  O124  1  0.25559832  0.50271129  0.39318330  1
  O2-  O125  1  0.24769272  0.49266554  0.72742328  1
  O2-  O126  1  0.74862453  -0.00707763  0.05909916  1
  O2-  O127  1  0.75619197  0.00292634  0.39363175  1
  O2-  O128  1  0.75385766  0.00259967  0.72707021  1
  O2-  O129  1  0.74105924  0.50016407  0.05918452  1
  O2-  O130  1  0.74855512  0.50112444  0.39936742  1
  O2-  O131  1  0.75624657  0.50139625  0.72837543  1
  O2-  O132  1  0.00284834  0.25052125  0.27410233  1
  O2-  O133  1  0.00796760  0.24829530  0.60659012  1
  O2-  O134  1  0.00311633  0.24988132  0.94520027  1
  O2-  O135  1  -0.00126216  0.75148487  0.26815612  1
  O2-  O136  1  -0.00005905  0.74402998  0.60595638  1
  O2-  O137  1  -0.00115761  0.75074317  0.93426813  1
  O2-  O138  1  0.49822334  0.25851124  0.27045368  1
  O2-  O139  1  0.50387582  0.25711788  0.60025194  1
  O2-  O140  1  0.49878849  0.25860192  0.94004716  1
  O2-  O141  1  0.49980095  0.75000877  0.27773175  1
  O2-  O142  1  0.50584436  0.74783328  0.60457419  1
  O2-  O143  1  0.50452973  0.74331406  0.93961534  1
  O2-  O144  1  0.07269014  0.17903444  0.09310147  1
  O2-  O145  1  0.07318263  0.18013745  0.42288502  1
  O2-  O146  1  0.07292489  0.17387520  0.75604829  1
  O2-  O147  1  0.06838866  0.67602771  0.09625636  1
  O2-  O148  1  0.07243887  0.68185303  0.43138598  1
  O2-  O149  1  0.07212525  0.67864442  0.75478649  1
  O2-  O150  1  0.57144742  0.18146454  0.09732728  1
  O2-  O151  1  0.56866503  0.17922656  0.42891527  1
  O2-  O152  1  0.57011491  0.18023573  0.76303777  1
  O2-  O153  1  0.57188962  0.67481798  0.08974086  1
  O2-  O154  1  0.56779336  0.67575327  0.42493566  1
  O2-  O155  1  0.57117212  0.67960540  0.75704808  1
  O2-  O156  1  0.18089366  0.42653904  0.23610676  1
  O2-  O157  1  0.17730074  0.42742323  0.57772739  1
  O2-  O158  1  0.18125697  0.42744816  0.89923046  1
  O2-  O159  1  0.18115804  0.92782826  0.23529177  1
  O2-  O160  1  0.17941130  0.93155450  0.57660931  1
  O2-  O161  1  0.18043309  0.93217998  0.89891095  1
  O2-  O162  1  0.68315030  0.42980261  0.23293885  1
  O2-  O163  1  0.68242188  0.42912246  0.56812970  1
  O2-  O164  1  0.68046088  0.42537899  0.91002488  1
  O2-  O165  1  0.67427048  0.93445683  0.23227833  1
  O2-  O166  1  0.67722275  0.93117265  0.56842347  1
  O2-  O167  1  0.67442255  0.93197061  0.90877757  1
  O2-  O168  1  0.42216922  0.31947654  0.08955891  1
  O2-  O169  1  0.42454017  0.32205489  0.42067538  1
  O2-  O170  1  0.42690072  0.31880542  0.76609664  1
  O2-  O171  1  0.43168488  0.81789663  0.10077824  1
  O2-  O172  1  0.42896605  0.82151172  0.42416759  1
  O2-  O173  1  0.42712085  0.81901137  0.76415162  1
  O2-  O174  1  0.93160562  0.31934204  0.09273779  1
  O2-  O175  1  0.93089285  0.31739425  0.42225752  1
  O2-  O176  1  0.93286460  0.32058582  0.76695793  1
  O2-  O177  1  0.92899003  0.82463975  0.09776759  1
  O2-  O178  1  0.92727750  0.82122484  0.43149960  1
  O2-  O179  1  0.93060408  0.82362063  0.76503825  1
  O2-  O180  1  0.32080605  0.07024701  0.24486569  1
  O2-  O181  1  0.31813199  0.07032674  0.57689647  1
  O2-  O182  1  0.32053186  0.07319721  0.91043519  1
  O2-  O183  1  0.32595784  0.57317225  0.24427436  1
  O2-  O184  1  0.31610734  0.57278474  0.56851921  1
  O2-  O185  1  0.32324090  0.57141407  0.91271273  1
  O2-  O186  1  0.82285620  0.07541897  0.24557329  1
  O2-  O187  1  0.82534867  0.06981728  0.57709036  1
  O2-  O188  1  0.82021174  0.07444135  0.90008031  1
  O2-  O189  1  0.82057673  0.57161040  0.23649209  1
  O2-  O190  1  0.82242182  0.57149947  0.57910531  1
  O2-  O191  1  0.81971675  0.56698942  0.89953181  1
  O2-  O192  1  0.04521267  0.08793207  0.27064385  1
  O2-  O193  1  0.04365461  0.08488268  0.60085934  1
  O2-  O194  1  0.04407379  0.08786597  0.93905348  1
  O2-  O195  1  0.04316887  0.57864645  0.26818651  1
  O2-  O196  1  0.05122978  0.58356691  0.60396732  1
  O2-  O197  1  0.03965702  0.57856514  0.92981007  1
  O2-  O198  1  0.53561557  0.08589979  0.26049234  1
  O2-  O199  1  0.53549196  0.08395099  0.59696826  1
  O2-  O200  1  0.53991184  0.08668066  0.92791934  1
  O2-  O201  1  0.54237612  0.58727471  0.26935774  1
  O2-  O202  1  0.54313241  0.58465527  0.60668017  1
  O2-  O203  1  0.54824859  0.57966256  0.93909015  1
  O2-  O204  1  0.16572971  0.20691949  0.27089460  1
  O2-  O205  1  0.16735209  0.19693983  0.60344012  1
  O2-  O206  1  0.16558698  0.20427417  0.94054734  1
  O2-  O207  1  0.17043350  0.70608458  0.26521157  1
  O2-  O208  1  0.16354900  0.70827314  0.60251142  1
  O2-  O209  1  0.16924485  0.70307703  0.93157109  1
  O2-  O210  1  0.66860171  0.20966964  0.26232858  1
  O2-  O211  1  0.67175921  0.20225361  0.59766704  1
  O2-  O212  1  0.66897614  0.21132942  0.92981435  1
  O2-  O213  1  0.66124279  0.70749817  0.27252568  1
  O2-  O214  1  0.66663367  0.69969164  0.60612817  1
  O2-  O215  1  0.66629144  0.69809492  0.93657729  1
  O2-  O216  1  0.08367549  0.45812529  0.06727972  1
  O2-  O217  1  0.08412782  0.45878886  0.40478056  1
  O2-  O218  1  0.08403004  0.45409575  0.72890095  1
  O2-  O219  1  0.08606389  0.96226303  0.06857456  1
  O2-  O220  1  0.08386480  0.96294315  0.40331598  1
  O2-  O221  1  0.08619953  0.95890003  0.72786053  1
  O2-  O222  1  0.58167272  0.44404811  0.05995573  1
  O2-  O223  1  0.57846603  0.45281743  0.39665062  1
  O2-  O224  1  0.58498371  0.45737569  0.73691528  1
  O2-  O225  1  0.58354760  0.96020737  0.06023408  1
  O2-  O226  1  0.58206942  0.96616657  0.39964158  1
  O2-  O227  1  0.57951869  0.96044347  0.73332173  1
  O2-  O228  1  0.20982497  0.33241734  0.06836371  1
  O2-  O229  1  0.20818017  0.33149782  0.40425757  1
  O2-  O230  1  0.19874690  0.32993582  0.72650283  1
  O2-  O231  1  0.21214457  0.83135244  0.06537315  1
  O2-  O232  1  0.21077177  0.83237062  0.40350796  1
  O2-  O233  1  0.20670288  0.83775157  0.72762201  1
  O2-  O234  1  0.71000736  0.33503472  0.06193608  1
  O2-  O235  1  0.71090535  0.33030130  0.39802333  1
  O2-  O236  1  0.71413057  0.33018455  0.73293119  1
  O2-  O237  1  0.69342237  0.83274305  0.05789429  1
  O2-  O238  1  0.70185188  0.83493056  0.40124906  1
  O2-  O239  1  0.70481042  0.83137804  0.73564847  1
  O2-  O240  1  0.44624053  0.41879515  0.26982022  1
  O2-  O241  1  0.44912615  0.42606161  0.60487862  1
  O2-  O242  1  0.44570228  0.41836211  0.94124953  1
  O2-  O243  1  0.45693171  0.91285788  0.27124819  1
  O2-  O244  1  0.45558753  0.91666036  0.59641874  1
  O2-  O245  1  0.45862210  0.91512527  0.93112114  1
  O2-  O246  1  0.95879818  0.41319978  0.27304179  1
  O2-  O247  1  0.96040398  0.41704370  0.59644046  1
  O2-  O248  1  0.95923734  0.41084217  0.93887249  1
  O2-  O249  1  0.95370978  0.92454098  0.27010527  1
  O2-  O250  1  0.95921169  0.91621598  0.59665605  1
  O2-  O251  1  0.95845682  0.92260291  0.93285844  1
  O2-  O252  1  0.33349352  0.29268169  0.26953066  1
  O2-  O253  1  0.33054544  0.29178056  0.59872904  1
  O2-  O254  1  0.33382227  0.29220592  0.93591618  1
  O2-  O255  1  0.33738190  0.79239788  0.27225532  1
  O2-  O256  1  0.33236818  0.78617608  0.59754677  1
  O2-  O257  1  0.33479261  0.78839376  0.93122667  1
  O2-  O258  1  0.84055515  0.29116862  0.26749524  1
  O2-  O259  1  0.83760527  0.28771465  0.59560319  1
  O2-  O260  1  0.84041289  0.29052540  0.93933124  1
  O2-  O261  1  0.82591432  0.79740381  0.26679471  1
  O2-  O262  1  0.82931502  0.79114626  0.60089473  1
  O2-  O263  1  0.82742160  0.79653791  0.93369724  1
  O2-  O264  1  0.41818453  0.04568536  0.05979833  1
  O2-  O265  1  0.41505952  0.04501540  0.39627469  1
  O2-  O266  1  0.41108013  0.04115557  0.72944817  1
  O2-  O267  1  0.41707648  0.54819906  0.06535840  1
  O2-  O268  1  0.41651705  0.54856641  0.39744500  1
  O2-  O269  1  0.41610588  0.54603590  0.73994241  1
  O2-  O270  1  0.91757697  0.04558256  0.06949470  1
  O2-  O271  1  0.91789349  0.05449616  0.39812532  1
  O2-  O272  1  0.91726640  0.04454236  0.72874922  1
  O2-  O273  1  0.91353240  0.53617550  0.06812300  1
  O2-  O274  1  0.91801735  0.54332792  0.40443821  1
  O2-  O275  1  0.91843723  0.54531166  0.72814589  1
  O2-  O276  1  0.29829331  0.16402035  0.06454738  1
  O2-  O277  1  0.29516695  0.16384613  0.39773378  1
  O2-  O278  1  0.29306602  0.16232274  0.73093886  1
  O2-  O279  1  0.29824984  0.66612488  0.06362910  1
  O2-  O280  1  0.29619194  0.66549449  0.39704208  1
  O2-  O281  1  0.28513688  0.66625561  0.73686893  1
  O2-  O282  1  0.78827676  0.16609968  0.06936925  1
  O2-  O283  1  0.79505931  0.16684281  0.39650996  1
  O2-  O284  1  0.79927838  0.16483701  0.72754113  1
  O2-  O285  1  0.79044963  0.66864988  0.06765226  1
  O2-  O286  1  0.79088412  0.67086614  0.40263096  1
  O2-  O287  1  0.79657980  0.66430344  0.73156905  1
