# generated using pymatgen
data_Ca2Al2SiO7
_symmetry_space_group_name_H-M   'P 1'
_cell_length_a   15.45852810
_cell_length_b   15.45994801
_cell_length_c   15.28463542
_cell_angle_alpha   89.99271294
_cell_angle_beta   90.00614850
_cell_angle_gamma   90.00709344
_symmetry_Int_Tables_number   1
_chemical_formula_structural   Ca2Al2SiO7
_chemical_formula_sum   'Ca48 Al48 Si24 O168'
_cell_volume   3652.84499477
_cell_formula_units_Z   24
loop_
 _symmetry_equiv_pos_site_id
 _symmetry_equiv_pos_as_xyz
  1  'x, y, z'
loop_
 _atom_type_symbol
 _atom_type_oxidation_number
  Ca2+  2.0
  Al0+  0.0
  Si0+  0.0
  O2-  -2.0
loop_
 _atom_site_type_symbol
 _atom_site_label
 _atom_site_symmetry_multiplicity
 _atom_site_fract_x
 _atom_site_fract_y
 _atom_site_fract_z
 _atom_site_occupancy
  Ca2+  Ca0  1  0.17352546  0.07947835  0.17011242  1
  Ca2+  Ca1  1  0.17047335  0.08076872  0.50777152  1
  Ca2+  Ca2  1  0.16429420  0.07373559  0.83756792  1
  Ca2+  Ca3  1  0.16246471  0.58368470  0.17055512  1
  Ca2+  Ca4  1  0.16403388  0.57526841  0.50585337  1
  Ca2+  Ca5  1  0.17436202  0.58696248  0.84115504  1
  Ca2+  Ca6  1  0.67344174  0.08278518  0.16846686  1
  Ca2+  Ca7  1  0.67301288  0.07851837  0.50205999  1
  Ca2+  Ca8  1  0.67040701  0.07074952  0.84491707  1
  Ca2+  Ca9  1  0.67507551  0.58817095  0.16895376  1
  Ca2+  Ca10  1  0.66400934  0.59043993  0.50592995  1
  Ca2+  Ca11  1  0.67320693  0.58452852  0.83924071  1
  Ca2+  Ca12  1  0.08027730  0.33267978  0.16099422  1
  Ca2+  Ca13  1  0.09195436  0.33156000  0.49919764  1
  Ca2+  Ca14  1  0.08249554  0.32811611  0.82995008  1
  Ca2+  Ca15  1  0.07562332  0.82941184  0.15780369  1
  Ca2+  Ca16  1  0.07508805  0.83443692  0.49465545  1
  Ca2+  Ca17  1  0.07469579  0.84064192  0.82973229  1
  Ca2+  Ca18  1  0.58403587  0.31751781  0.15955110  1
  Ca2+  Ca19  1  0.57709197  0.32663793  0.49076524  1
  Ca2+  Ca20  1  0.58272316  0.32464543  0.83310535  1
  Ca2+  Ca21  1  0.58338641  0.83358215  0.16311147  1
  Ca2+  Ca22  1  0.58549807  0.82555811  0.49866927  1
  Ca2+  Ca23  1  0.58635554  0.83186518  0.82707002  1
  Ca2+  Ca24  1  0.32625683  0.42256218  0.17066417  1
  Ca2+  Ca25  1  0.32191227  0.42238770  0.50656186  1
  Ca2+  Ca26  1  0.32908900  0.42742829  0.83415181  1
  Ca2+  Ca27  1  0.32766439  0.92375531  0.16469594  1
  Ca2+  Ca28  1  0.32777290  0.92082029  0.50349195  1
  Ca2+  Ca29  1  0.31795030  0.91673960  0.84227392  1
  Ca2+  Ca30  1  0.84199527  0.42412146  0.16538745  1
  Ca2+  Ca31  1  0.82924674  0.42147194  0.50215177  1
  Ca2+  Ca32  1  0.83720816  0.42320180  0.84318542  1
  Ca2+  Ca33  1  0.83567532  0.92058989  0.16701363  1
  Ca2+  Ca34  1  0.83428753  0.91583177  0.50409590  1
  Ca2+  Ca35  1  0.82635963  0.91333218  0.84103277  1
  Ca2+  Ca36  1  0.42431349  0.15440690  0.16126478  1
  Ca2+  Ca37  1  0.42139868  0.16391098  0.48960853  1
  Ca2+  Ca38  1  0.42111305  0.15626901  0.83462978  1
  Ca2+  Ca39  1  0.42241581  0.66234227  0.16153636  1
  Ca2+  Ca40  1  0.42513245  0.66127788  0.49854681  1
  Ca2+  Ca41  1  0.41942984  0.66234806  0.82753088  1
  Ca2+  Ca42  1  0.90735119  0.17180808  0.15826912  1
  Ca2+  Ca43  1  0.92435598  0.16337783  0.49700574  1
  Ca2+  Ca44  1  0.91842767  0.16797418  0.83256708  1
  Ca2+  Ca45  1  0.92601601  0.67568296  0.15896100  1
  Ca2+  Ca46  1  0.92123684  0.68262332  0.49206689  1
  Ca2+  Ca47  1  0.91977498  0.67647329  0.83496785  1
  Al0+  Al48  1  -0.00190499  0.00039543  0.00389479  1
  Al0+  Al49  1  -0.00063173  0.00246304  0.33286362  1
  Al0+  Al50  1  0.00058771  0.00382114  0.66103634  1
  Al0+  Al51  1  -0.00008208  0.50013548  -0.00476726  1
  Al0+  Al52  1  -0.00119821  0.50034346  0.33784229  1
  Al0+  Al53  1  -0.00182641  0.49916499  0.66987454  1
  Al0+  Al54  1  0.50014746  -0.00317420  0.00044566  1
  Al0+  Al55  1  0.50110108  -0.00136426  0.33452317  1
  Al0+  Al56  1  0.50238641  -0.00216738  0.66671623  1
  Al0+  Al57  1  0.49882757  0.49687111  0.00337421  1
  Al0+  Al58  1  0.49956081  0.49877007  0.32786163  1
  Al0+  Al59  1  0.50062567  0.49793058  0.66572683  1
  Al0+  Al60  1  0.25191769  0.25202484  0.00163887  1
  Al0+  Al61  1  0.25044621  0.25176546  0.34009047  1
  Al0+  Al62  1  0.25131320  0.25189648  0.66759138  1
  Al0+  Al63  1  0.25245914  0.74873053  0.00713921  1
  Al0+  Al64  1  0.25156206  0.74960635  0.33226489  1
  Al0+  Al65  1  0.25052512  0.75146331  0.67223511  1
  Al0+  Al66  1  0.74764938  0.24905081  -0.00916037  1
  Al0+  Al67  1  0.74955920  0.24941054  0.33569225  1
  Al0+  Al68  1  0.75020746  0.25115166  0.66472127  1
  Al0+  Al69  1  0.75113545  0.74774241  0.00578573  1
  Al0+  Al70  1  0.74971401  0.75097750  0.32629902  1
  Al0+  Al71  1  0.75010244  0.75065090  0.66195626  1
  Al0+  Al72  1  0.17780659  0.43154659  0.34738156  1
  Al0+  Al73  1  0.07135377  0.67728666  0.32060001  1
  Al0+  Al74  1  0.57079330  0.17871771  0.31983938  1
  Al0+  Al75  1  0.07369754  0.67992977  0.98411812  1
  Al0+  Al76  1  0.56944280  0.67808625  0.31748297  1
  Al0+  Al77  1  0.32141414  0.57076198  0.68080716  1
  Al0+  Al78  1  0.07069354  0.18244360  0.65324136  1
  Al0+  Al79  1  0.56853397  0.17685686  0.98408159  1
  Al0+  Al80  1  0.92867716  0.82255924  0.98387453  1
  Al0+  Al81  1  0.68139253  0.92884921  0.67887690  1
  Al0+  Al82  1  0.17599867  0.92847182  0.01613124  1
  Al0+  Al83  1  0.17694468  0.42803013  0.68499628  1
  Al0+  Al84  1  0.82085450  0.07276862  0.34901220  1
  Al0+  Al85  1  0.92924491  0.32036606  0.98688321  1
  Al0+  Al86  1  0.82177293  0.56918605  0.01377909  1
  Al0+  Al87  1  0.81967769  0.07261835  0.01290694  1
  Al0+  Al88  1  0.56917095  0.67945913  0.65577194  1
  Al0+  Al89  1  0.67890779  0.92612090  0.01661750  1
  Al0+  Al90  1  0.92991580  0.82450111  0.31574306  1
  Al0+  Al91  1  0.32144285  0.06957527  0.34768941  1
  Al0+  Al92  1  0.32050263  0.07185810  0.01309468  1
  Al0+  Al93  1  0.93001722  0.82089484  0.65280370  1
  Al0+  Al94  1  0.32229826  0.57079650  0.01600113  1
  Al0+  Al95  1  0.17765735  0.93095450  0.67838935  1
  Si0+  Si96  1  0.43142789  0.32016273  0.65066017  1
  Si0+  Si97  1  0.42652705  0.32049037  0.31541632  1
  Si0+  Si98  1  0.07304386  0.18125290  0.31909081  1
  Si0+  Si99  1  0.67757115  0.42705136  0.01618091  1
  Si0+  Si100  1  0.81884484  0.57172111  0.34940734  1
  Si0+  Si101  1  0.32485340  0.57262229  0.35036745  1
  Si0+  Si102  1  0.82195570  0.07393194  0.68289000  1
  Si0+  Si103  1  0.43039898  0.81935463  0.98479417  1
  Si0+  Si104  1  0.07501510  0.17830904  0.98583094  1
  Si0+  Si105  1  0.67903442  0.92660100  0.35162495  1
  Si0+  Si106  1  0.32405772  0.07232323  0.68183098  1
  Si0+  Si107  1  0.42579201  0.82321632  0.65053769  1
  Si0+  Si108  1  0.92831267  0.32043244  0.32048268  1
  Si0+  Si109  1  0.57079241  0.67644911  0.98576859  1
  Si0+  Si110  1  0.92566943  0.32478058  0.64733616  1
  Si0+  Si111  1  0.57154997  0.17665718  0.65025644  1
  Si0+  Si112  1  0.07391337  0.67731633  0.65205832  1
  Si0+  Si113  1  0.42739009  0.82280683  0.31580594  1
  Si0+  Si114  1  0.42718383  0.32329565  0.98119919  1
  Si0+  Si115  1  0.67849571  0.42714174  0.68123075  1
  Si0+  Si116  1  0.17772406  0.92799854  0.35010261  1
  Si0+  Si117  1  0.17772500  0.42927162  0.01650916  1
  Si0+  Si118  1  0.67846551  0.42909882  0.34703539  1
  Si0+  Si119  1  0.81886555  0.57117034  0.68010611  1
  O2-  O120  1  0.24500740  0.00484851  0.06428244  1
  O2-  O121  1  0.24651941  -0.00369590  0.39560701  1
  O2-  O122  1  0.25484169  0.00386834  0.72437448  1
  O2-  O123  1  0.24456240  0.49906226  0.06150789  1
  O2-  O124  1  0.25080529  0.50894482  0.39316143  1
  O2-  O125  1  0.24407345  0.50549053  0.73282995  1
  O2-  O126  1  0.75104913  -0.00127852  0.06495048  1
  O2-  O127  1  0.74955273  -0.00574168  0.39504011  1
  O2-  O128  1  0.75341623  0.00516131  0.72610421  1
  O2-  O129  1  0.74708358  0.49404592  0.06145493  1
  O2-  O130  1  0.74379226  0.50430230  0.39206642  1
  O2-  O131  1  0.75114582  0.49639880  0.72234254  1
  O2-  O132  1  -0.00033162  0.25024072  0.27792341  1
  O2-  O133  1  -0.00298159  0.25839169  0.60428039  1
  O2-  O134  1  0.00366732  0.24484793  0.94193153  1
  O2-  O135  1  0.00459937  0.75324706  0.26968894  1
  O2-  O136  1  0.00740038  0.74777675  0.60715353  1
  O2-  O137  1  0.00497256  0.75489236  0.93351121  1
  O2-  O138  1  0.49332722  0.24997703  0.27174345  1
  O2-  O139  1  0.49875479  0.24559268  0.60760039  1
  O2-  O140  1  0.49168635  0.25010928  0.93703488  1
  O2-  O141  1  0.49312533  0.75085262  0.27149359  1
  O2-  O142  1  0.49258995  0.75154506  0.60758583  1
  O2-  O143  1  0.50096936  0.74734440  0.94256611  1
  O2-  O144  1  0.07834686  0.18256970  0.09158093  1
  O2-  O145  1  0.07338232  0.18277996  0.42439715  1
  O2-  O146  1  0.06800052  0.18179137  0.76617372  1
  O2-  O147  1  0.06999774  0.67830589  0.09769291  1
  O2-  O148  1  0.06714082  0.67625277  0.43473638  1
  O2-  O149  1  0.07180790  0.67717709  0.75715384  1
  O2-  O150  1  0.56901951  0.17938446  0.09722503  1
  O2-  O151  1  0.56992334  0.18243465  0.43372826  1
  O2-  O152  1  0.57113359  0.17755151  0.75500544  1
  O2-  O153  1  0.56831734  0.67584046  0.09094186  1
  O2-  O154  1  0.56881049  0.67766556  0.43099693  1
  O2-  O155  1  0.57061334  0.67912279  0.76869516  1
  O2-  O156  1  0.17817483  0.42950447  0.23447823  1
  O2-  O157  1  0.18037347  0.42881194  0.57106013  1
  O2-  O158  1  0.17973351  0.42787546  0.91118232  1
  O2-  O159  1  0.17874785  0.93027132  0.24503278  1
  O2-  O160  1  0.17937729  0.93284500  0.56496471  1
  O2-  O161  1  0.17737103  0.92987770  0.90207180  1
  O2-  O162  1  0.68188287  0.42749090  0.24258279  1
  O2-  O163  1  0.67825382  0.42588029  0.57568856  1
  O2-  O164  1  0.67636310  0.43026992  0.90998195  1
  O2-  O165  1  0.67702215  0.92754854  0.24655329  1
  O2-  O166  1  0.68095119  0.92993864  0.56570553  1
  O2-  O167  1  0.67842647  0.92620358  0.90246219  1
  O2-  O168  1  0.42979999  0.32669780  0.08655464  1
  O2-  O169  1  0.42979027  0.32126873  0.42160704  1
  O2-  O170  1  0.43488634  0.32196665  0.75536999  1
  O2-  O171  1  0.43219560  0.81926395  0.09003872  1
  O2-  O172  1  0.42822538  0.82355835  0.42171286  1
  O2-  O173  1  0.42747337  0.82579390  0.75577314  1
  O2-  O174  1  0.93094875  0.32095562  0.10070394  1
  O2-  O175  1  0.92697915  0.32063175  0.42570400  1
  O2-  O176  1  0.92105328  0.32374562  0.75236781  1
  O2-  O177  1  0.92809798  0.81975087  0.09703623  1
  O2-  O178  1  0.92934073  0.82214938  0.43022170  1
  O2-  O179  1  0.92691691  0.81907477  0.76518191  1
  O2-  O180  1  0.31991325  0.06909331  0.23521025  1
  O2-  O181  1  0.32453090  0.07162026  0.57576888  1
  O2-  O182  1  0.32020350  0.06780997  0.89916548  1
  O2-  O183  1  0.32847324  0.56802648  0.24513141  1
  O2-  O184  1  0.32513079  0.56626370  0.56717361  1
  O2-  O185  1  0.32662609  0.56761740  0.90320407  1
  O2-  O186  1  0.81706095  0.07897029  0.23693197  1
  O2-  O187  1  0.81939048  0.07531674  0.57687882  1
  O2-  O188  1  0.81692411  0.07423587  0.89911360  1
  O2-  O189  1  0.82012286  0.56777048  0.24473703  1
  O2-  O190  1  0.81627054  0.56976778  0.57446499  1
  O2-  O191  1  0.81785735  0.56903096  0.90010134  1
  O2-  O192  1  0.04878455  0.08876396  0.27293028  1
  O2-  O193  1  0.03916078  0.08854769  0.59384815  1
  O2-  O194  1  0.05001678  0.08426807  0.94145597  1
  O2-  O195  1  0.03751171  0.57976840  0.26837674  1
  O2-  O196  1  0.04553911  0.58306445  0.60758921  1
  O2-  O197  1  0.04243561  0.58264710  0.93045047  1
  O2-  O198  1  0.54305102  0.08082151  0.26838509  1
  O2-  O199  1  0.54612806  0.08435218  0.60247817  1
  O2-  O200  1  0.53750918  0.08001607  0.93004387  1
  O2-  O201  1  0.54222774  0.58050692  0.26279190  1
  O2-  O202  1  0.54199687  0.58144723  0.60052390  1
  O2-  O203  1  0.54313899  0.58352563  0.94014465  1
  O2-  O204  1  0.16409854  0.21244130  0.27260737  1
  O2-  O205  1  0.16893449  0.21164570  0.59955429  1
  O2-  O206  1  0.16736844  0.20653182  0.93781535  1
  O2-  O207  1  0.17375430  0.69604214  0.27215266  1
  O2-  O208  1  0.16929625  0.69935282  0.60794084  1
  O2-  O209  1  0.17593451  0.70279762  0.93696365  1
  O2-  O210  1  0.66567202  0.21589749  0.26701731  1
  O2-  O211  1  0.66301098  0.20773144  0.60340824  1
  O2-  O212  1  0.66153592  0.21137374  0.92528672  1
  O2-  O213  1  0.66562925  0.70793896  0.26335908  1
  O2-  O214  1  0.66353153  0.71200484  0.59779843  1
  O2-  O215  1  0.66371544  0.70257527  0.94069163  1
  O2-  O216  1  0.08349196  0.45330215  0.06110635  1
  O2-  O217  1  0.08090149  0.45842850  0.40437698  1
  O2-  O218  1  0.07453854  0.44671627  0.73325054  1
  O2-  O219  1  0.07796151  0.95384411  0.06959938  1
  O2-  O220  1  0.08442891  0.95562943  0.39550973  1
  O2-  O221  1  0.08233656  0.96689573  0.73140044  1
  O2-  O222  1  0.58504021  0.45166473  0.06401706  1
  O2-  O223  1  0.58410332  0.45201756  0.39252485  1
  O2-  O224  1  0.58805715  0.45553551  0.72970447  1
  O2-  O225  1  0.58061678  0.95502005  0.06838048  1
  O2-  O226  1  0.58600721  0.95305652  0.39870096  1
  O2-  O227  1  0.58361773  0.95653370  0.73264570  1
  O2-  O228  1  0.20491878  0.33656031  0.06405185  1
  O2-  O229  1  0.21176808  0.33696833  0.40438141  1
  O2-  O230  1  0.21186173  0.33149907  0.73769910  1
  O2-  O231  1  0.21127021  0.83329636  0.07056435  1
  O2-  O232  1  0.20308005  0.83362078  0.39551506  1
  O2-  O233  1  0.20466451  0.83460802  0.73397395  1
  O2-  O234  1  0.70254097  0.33240696  0.05848495  1
  O2-  O235  1  0.71043347  0.34039281  0.39869400  1
  O2-  O236  1  0.70457248  0.33479937  0.72889117  1
  O2-  O237  1  0.70430863  0.82796295  0.07038617  1
  O2-  O238  1  0.70453775  0.83174853  0.39607208  1
  O2-  O239  1  0.71217669  0.83195076  0.73187117  1
  O2-  O240  1  0.45337805  0.41284770  0.26812659  1
  O2-  O241  1  0.46443307  0.40884241  0.59991108  1
  O2-  O242  1  0.46002526  0.41419096  0.93266088  1
  O2-  O243  1  0.45782773  0.91437547  0.26874873  1
  O2-  O244  1  0.45571941  0.91507073  0.60153010  1
  O2-  O245  1  0.45789637  0.90968813  0.93502954  1
  O2-  O246  1  0.95580221  0.41279221  0.27449746  1
  O2-  O247  1  0.94768013  0.41986155  0.60179344  1
  O2-  O248  1  0.96034579  0.41504770  0.92981886  1
  O2-  O249  1  0.95550715  0.92438721  0.26504111  1
  O2-  O250  1  0.95816683  0.91829085  0.59879824  1
  O2-  O251  1  0.95141934  0.92373315  0.93326590  1
  O2-  O252  1  0.33182251  0.29689286  0.27176102  1
  O2-  O253  1  0.33844623  0.29643934  0.60379692  1
  O2-  O254  1  0.33218341  0.30281720  0.93596051  1
  O2-  O255  1  0.33290835  0.80188446  0.27000508  1
  O2-  O256  1  0.33151564  0.80062515  0.60406101  1
  O2-  O257  1  0.33836217  0.79108075  0.93881275  1
  O2-  O258  1  0.83689871  0.29282275  0.27294924  1
  O2-  O259  1  0.83222600  0.29778959  0.59941305  1
  O2-  O260  1  0.83294191  0.29355745  0.92962742  1
  O2-  O261  1  0.83201291  0.79447042  0.26439367  1
  O2-  O262  1  0.83590749  0.78570926  0.59578232  1
  O2-  O263  1  0.83039369  0.78626128  0.93363878  1
  O2-  O264  1  0.41659147  0.03684582  0.06596670  1
  O2-  O265  1  0.41825891  0.03857559  0.40239437  1
  O2-  O266  1  0.41796368  0.04631885  0.72640551  1
  O2-  O267  1  0.41724650  0.53492350  0.07147450  1
  O2-  O268  1  0.41710237  0.54018088  0.39678193  1
  O2-  O269  1  0.41854733  0.53475745  0.73359299  1
  O2-  O270  1  0.91921111  0.05266642  0.06634639  1
  O2-  O271  1  0.91967130  0.04624844  0.40179569  1
  O2-  O272  1  0.91654419  0.05066617  0.72543847  1
  O2-  O273  1  0.91742519  0.53508235  0.06739327  1
  O2-  O274  1  0.90750016  0.53924698  0.39999782  1
  O2-  O275  1  0.91080981  0.54669986  0.72788593  1
  O2-  O276  1  0.30083296  0.17298826  0.06487462  1
  O2-  O277  1  0.29282468  0.16667333  0.40234249  1
  O2-  O278  1  0.30153843  0.16669084  0.72631981  1
  O2-  O279  1  0.29861577  0.66710831  0.07243062  1
  O2-  O280  1  0.30778892  0.66901055  0.39368382  1
  O2-  O281  1  0.30240844  0.67141014  0.73265821  1
  O2-  O282  1  0.78657110  0.17138477  0.06367416  1
  O2-  O283  1  0.78664780  0.16782819  0.40592046  1
  O2-  O284  1  0.79642619  0.16857819  0.72705815  1
  O2-  O285  1  0.78912408  0.66234982  0.07167778  1
  O2-  O286  1  0.79153121  0.66476680  0.39440017  1
  O2-  O287  1  0.78584665  0.66076358  0.72702228  1
