# generated using pymatgen
data_Ca2Al2SiO7
_symmetry_space_group_name_H-M   'P 1'
_cell_length_a   15.45530665
_cell_length_b   15.45531600
_cell_length_c   15.28101550
_cell_angle_alpha   90.00097117
_cell_angle_beta   90.01152667
_cell_angle_gamma   89.99404726
_symmetry_Int_Tables_number   1
_chemical_formula_structural   Ca2Al2SiO7
_chemical_formula_sum   'Ca48 Al48 Si24 O168'
_cell_volume   3650.12485761
_cell_formula_units_Z   24
loop_
 _symmetry_equiv_pos_site_id
 _symmetry_equiv_pos_as_xyz
  1  'x, y, z'
loop_
 _atom_type_symbol
 _atom_type_oxidation_number
  Ca2+  2.0
  Al0+  0.0
  Si0+  0.0
  O2-  -2.0
loop_
 _atom_site_type_symbol
 _atom_site_label
 _atom_site_symmetry_multiplicity
 _atom_site_fract_x
 _atom_site_fract_y
 _atom_site_fract_z
 _atom_site_occupancy
  Ca2+  Ca0  1  0.17507717  0.08451870  0.17348917  1
  Ca2+  Ca1  1  0.16881822  0.08597192  0.50640184  1
  Ca2+  Ca2  1  0.16613412  0.07163503  0.84085189  1
  Ca2+  Ca3  1  0.16482930  0.57958923  0.17116478  1
  Ca2+  Ca4  1  0.16713633  0.58958242  0.49911202  1
  Ca2+  Ca5  1  0.16042077  0.58228124  0.84182770  1
  Ca2+  Ca6  1  0.66181914  0.08259351  0.17452263  1
  Ca2+  Ca7  1  0.66217658  0.07345528  0.50034973  1
  Ca2+  Ca8  1  0.66434088  0.07856566  0.83710822  1
  Ca2+  Ca9  1  0.67089338  0.57330169  0.17524477  1
  Ca2+  Ca10  1  0.66143326  0.57783132  0.49893914  1
  Ca2+  Ca11  1  0.67820717  0.57644877  0.84466323  1
  Ca2+  Ca12  1  0.07573063  0.33489752  0.16268230  1
  Ca2+  Ca13  1  0.07904362  0.32062930  0.49052174  1
  Ca2+  Ca14  1  0.08049653  0.33231873  0.83190138  1
  Ca2+  Ca15  1  0.09206340  0.82246921  0.16252284  1
  Ca2+  Ca16  1  0.08435235  0.82854068  0.49831079  1
  Ca2+  Ca17  1  0.08459394  0.82655080  0.82382853  1
  Ca2+  Ca18  1  0.58302416  0.32875470  0.16365835  1
  Ca2+  Ca19  1  0.57893794  0.32700079  0.48503264  1
  Ca2+  Ca20  1  0.58782747  0.32797744  0.83625274  1
  Ca2+  Ca21  1  0.58605597  0.82925759  0.16704974  1
  Ca2+  Ca22  1  0.58079043  0.83425931  0.49340690  1
  Ca2+  Ca23  1  0.57537317  0.83607802  0.82463488  1
  Ca2+  Ca24  1  0.32834348  0.41782848  0.17503139  1
  Ca2+  Ca25  1  0.34100932  0.42433859  0.49725143  1
  Ca2+  Ca26  1  0.32253551  0.42072443  0.84049293  1
  Ca2+  Ca27  1  0.32996231  0.92796291  0.16777953  1
  Ca2+  Ca28  1  0.33007352  0.92353939  0.50520311  1
  Ca2+  Ca29  1  0.32192063  0.91650809  0.83833348  1
  Ca2+  Ca30  1  0.82954566  0.41321341  0.16860645  1
  Ca2+  Ca31  1  0.83056772  0.41053271  0.49654566  1
  Ca2+  Ca32  1  0.83380632  0.42325565  0.84755173  1
  Ca2+  Ca33  1  0.82646530  0.92000755  0.17426144  1
  Ca2+  Ca34  1  0.82275337  0.90908326  0.50505764  1
  Ca2+  Ca35  1  0.83177276  0.91304473  0.83190816  1
  Ca2+  Ca36  1  0.42380828  0.16100015  0.16577277  1
  Ca2+  Ca37  1  0.41924513  0.17255729  0.48760197  1
  Ca2+  Ca38  1  0.41760766  0.16114920  0.83705478  1
  Ca2+  Ca39  1  0.42144123  0.65983345  0.16901743  1
  Ca2+  Ca40  1  0.41785116  0.67518778  0.49104583  1
  Ca2+  Ca41  1  0.41724282  0.67543736  0.82694819  1
  Ca2+  Ca42  1  0.91769824  0.17834700  0.16588619  1
  Ca2+  Ca43  1  0.92936626  0.16611281  0.49301762  1
  Ca2+  Ca44  1  0.92198143  0.17370517  0.82962168  1
  Ca2+  Ca45  1  0.92596735  0.66184937  0.16107256  1
  Ca2+  Ca46  1  0.92685591  0.67164376  0.49736759  1
  Ca2+  Ca47  1  0.92599957  0.66854755  0.83029662  1
  Al0+  Al48  1  -0.00227478  -0.00192820  0.00571222  1
  Al0+  Al49  1  -0.00031124  -0.00110442  0.32881824  1
  Al0+  Al50  1  -0.00122255  0.00043926  0.66381098  1
  Al0+  Al51  1  0.00070711  0.50117219  -0.00045442  1
  Al0+  Al52  1  -0.00084440  0.50113351  0.32974806  1
  Al0+  Al53  1  -0.00044237  0.49981558  0.66196991  1
  Al0+  Al54  1  0.49935245  -0.00020649  -0.00194921  1
  Al0+  Al55  1  0.49699901  0.00002724  0.33879638  1
  Al0+  Al56  1  0.50050371  0.00084328  0.66696694  1
  Al0+  Al57  1  0.50084620  0.49827276  -0.00148776  1
  Al0+  Al58  1  0.49973254  0.50137257  0.33466001  1
  Al0+  Al59  1  0.49970332  0.49914568  0.67196537  1
  Al0+  Al60  1  0.25169418  0.25047978  0.00650522  1
  Al0+  Al61  1  0.24985181  0.25054277  0.33194189  1
  Al0+  Al62  1  0.25167536  0.25312042  0.66478127  1
  Al0+  Al63  1  0.25155988  0.75046872  -0.00048866  1
  Al0+  Al64  1  0.24996020  0.75053139  0.33218903  1
  Al0+  Al65  1  0.25340234  0.75184045  0.66210044  1
  Al0+  Al66  1  0.74919746  0.24876663  -0.00748644  1
  Al0+  Al67  1  0.75114012  0.24863288  0.33336023  1
  Al0+  Al68  1  0.74884670  0.24882436  0.66716847  1
  Al0+  Al69  1  0.75177009  0.74906190  0.00311586  1
  Al0+  Al70  1  0.74929025  0.74915715  0.33435383  1
  Al0+  Al71  1  0.75010010  0.74704122  0.66989685  1
  Al0+  Al72  1  0.92700762  0.82138413  0.65196444  1
  Al0+  Al73  1  0.93104294  0.31957327  0.98519859  1
  Al0+  Al74  1  0.56941021  0.17855624  0.98428180  1
  Al0+  Al75  1  0.32110897  0.06979976  0.01503377  1
  Al0+  Al76  1  0.07130465  0.68178510  0.31789758  1
  Al0+  Al77  1  0.57104731  0.67987733  0.32042644  1
  Al0+  Al78  1  0.07294614  0.17632746  0.31633367  1
  Al0+  Al79  1  0.17901046  0.93021145  0.67854000  1
  Al0+  Al80  1  0.82185106  0.57143720  0.01681052  1
  Al0+  Al81  1  0.56943455  0.17733730  0.32006203  1
  Al0+  Al82  1  0.07262034  0.67806131  0.65046885  1
  Al0+  Al83  1  0.67892469  0.92839461  0.68145051  1
  Al0+  Al84  1  0.42938958  0.32356969  0.31788768  1
  Al0+  Al85  1  0.07093543  0.68197798  0.98633676  1
  Al0+  Al86  1  0.68033863  0.42838121  0.34744447  1
  Al0+  Al87  1  0.43091699  0.82212711  0.65215268  1
  Al0+  Al88  1  0.32010871  0.57087397  0.34705020  1
  Al0+  Al89  1  0.17914494  0.43017244  0.01308587  1
  Al0+  Al90  1  0.07147470  0.18009499  0.65626228  1
  Al0+  Al91  1  0.17628976  0.92670568  0.01553245  1
  Al0+  Al92  1  0.92896333  0.32057947  0.31816627  1
  Al0+  Al93  1  0.31845691  0.07216197  0.34928910  1
  Al0+  Al94  1  0.67942769  0.92876065  0.34668272  1
  Al0+  Al95  1  0.67912294  0.42674414  0.01552821  1
  Si0+  Si96  1  0.82137221  0.07299292  0.68428714  1
  Si0+  Si97  1  0.17575849  0.42919646  0.35141832  1
  Si0+  Si98  1  0.17724994  0.92800399  0.35070331  1
  Si0+  Si99  1  0.43237933  0.82006251  0.98497993  1
  Si0+  Si100  1  0.17903582  0.42978586  0.67955893  1
  Si0+  Si101  1  0.32169188  0.07554229  0.68376834  1
  Si0+  Si102  1  0.42991020  0.32271611  0.65238385  1
  Si0+  Si103  1  0.07404293  0.17634038  0.98492468  1
  Si0+  Si104  1  0.32153697  0.57172758  0.68169634  1
  Si0+  Si105  1  0.92591935  0.82137457  0.31554324  1
  Si0+  Si106  1  0.82319635  0.57221562  0.35298906  1
  Si0+  Si107  1  0.42786495  0.82252262  0.31497504  1
  Si0+  Si108  1  0.57113783  0.17993822  0.65084690  1
  Si0+  Si109  1  0.82036116  0.07159972  0.01384097  1
  Si0+  Si110  1  0.82350351  0.07157696  0.35042769  1
  Si0+  Si111  1  0.32359138  0.57310605  0.01489486  1
  Si0+  Si112  1  0.92506078  0.82447423  0.98353945  1
  Si0+  Si113  1  0.82217360  0.56854976  0.68183951  1
  Si0+  Si114  1  0.57138340  0.67605296  0.65228717  1
  Si0+  Si115  1  0.57330892  0.67719761  0.98505142  1
  Si0+  Si116  1  0.67848378  0.92931812  0.01383179  1
  Si0+  Si117  1  0.92618492  0.32227432  0.65015945  1
  Si0+  Si118  1  0.42608112  0.32374250  0.98131003  1
  Si0+  Si119  1  0.67803943  0.42745592  0.68297266  1
  O2-  O120  1  0.24318637  0.00397552  0.06442921  1
  O2-  O121  1  0.24016485  0.00127475  0.39606264  1
  O2-  O122  1  0.25168221  0.00734161  0.72624531  1
  O2-  O123  1  0.25596265  0.50349944  0.05800553  1
  O2-  O124  1  0.24566924  0.49684351  0.39638870  1
  O2-  O125  1  0.24573892  0.50520546  0.72265736  1
  O2-  O126  1  0.75095764  -0.00158419  0.05526370  1
  O2-  O127  1  0.75480584  0.00245630  0.39433848  1
  O2-  O128  1  0.75419806  0.00233941  0.72900518  1
  O2-  O129  1  0.74863588  0.50040213  0.06580485  1
  O2-  O130  1  0.75498531  0.50242382  0.39710458  1
  O2-  O131  1  0.75199332  0.49582873  0.72383559  1
  O2-  O132  1  0.00239990  0.25029790  0.26782953  1
  O2-  O133  1  -0.00458888  0.25321622  0.60868390  1
  O2-  O134  1  0.00678514  0.24549910  0.93843343  1
  O2-  O135  1  -0.00359776  0.75551950  0.27052098  1
  O2-  O136  1  0.00228823  0.75273241  0.60197286  1
  O2-  O137  1  -0.00173000  0.75952948  0.94108207  1
  O2-  O138  1  0.50018977  0.25049519  0.26795785  1
  O2-  O139  1  0.50065324  0.25172967  0.61060883  1
  O2-  O140  1  0.49484353  0.25424009  0.93731093  1
  O2-  O141  1  0.49749939  0.75443656  0.27098529  1
  O2-  O142  1  0.50678950  0.74776287  0.60731213  1
  O2-  O143  1  0.50228546  0.74762265  0.94194545  1
  O2-  O144  1  0.07128188  0.17768626  0.08991201  1
  O2-  O145  1  0.07113340  0.17681103  0.43076284  1
  O2-  O146  1  0.07094652  0.18313276  0.76957407  1
  O2-  O147  1  0.07106335  0.68220940  0.09918855  1
  O2-  O148  1  0.07099625  0.68394954  0.43100049  1
  O2-  O149  1  0.07028745  0.67548839  0.76414082  1
  O2-  O150  1  0.56906798  0.17501120  0.09639139  1
  O2-  O151  1  0.56748062  0.17801604  0.43441584  1
  O2-  O152  1  0.57203087  0.18027769  0.75608390  1
  O2-  O153  1  0.57242039  0.67840587  0.08983963  1
  O2-  O154  1  0.56906555  0.68123004  0.43396234  1
  O2-  O155  1  0.56774163  0.67463068  0.75840756  1
  O2-  O156  1  0.17509163  0.43189374  0.24584384  1
  O2-  O157  1  0.18168452  0.42704474  0.57506180  1
  O2-  O158  1  0.17996862  0.43144340  0.89870821  1
  O2-  O159  1  0.18117526  0.92640094  0.24522370  1
  O2-  O160  1  0.18243479  0.93129114  0.56571377  1
  O2-  O161  1  0.17857568  0.92542355  0.90134880  1
  O2-  O162  1  0.68068602  0.42929941  0.23507796  1
  O2-  O163  1  0.67516310  0.42779495  0.57819473  1
  O2-  O164  1  0.68114061  0.42978873  0.90065878  1
  O2-  O165  1  0.68103882  0.92896067  0.23297383  1
  O2-  O166  1  0.67788454  0.93055146  0.56875283  1
  O2-  O167  1  0.67779064  0.92961874  0.90848015  1
  O2-  O168  1  0.42645372  0.32756576  0.08584576  1
  O2-  O169  1  0.43269273  0.32275819  0.43273967  1
  O2-  O170  1  0.42935973  0.32470490  0.75738235  1
  O2-  O171  1  0.43494439  0.82129159  0.08975119  1
  O2-  O172  1  0.42854683  0.82147103  0.42088634  1
  O2-  O173  1  0.43088953  0.81944826  0.76596127  1
  O2-  O174  1  0.92989762  0.31741082  0.09739767  1
  O2-  O175  1  0.93077097  0.31790593  0.43263567  1
  O2-  O176  1  0.92618746  0.32354425  0.75588336  1
  O2-  O177  1  0.91936848  0.82395281  0.08869726  1
  O2-  O178  1  0.92497653  0.81962696  0.42117449  1
  O2-  O179  1  0.92647782  0.81763434  0.76567991  1
  O2-  O180  1  0.32161168  0.06751051  0.23662225  1
  O2-  O181  1  0.32165549  0.07686386  0.57836037  1
  O2-  O182  1  0.32210433  0.06513632  0.90078985  1
  O2-  O183  1  0.31846004  0.57017489  0.23396118  1
  O2-  O184  1  0.32673849  0.56858450  0.57717603  1
  O2-  O185  1  0.32334236  0.57334338  0.90845260  1
  O2-  O186  1  0.82261574  0.07023189  0.24443348  1
  O2-  O187  1  0.81779518  0.07764642  0.57928003  1
  O2-  O188  1  0.82059756  0.07077302  0.90846507  1
  O2-  O189  1  0.82226008  0.57366606  0.24778419  1
  O2-  O190  1  0.82169031  0.56823190  0.57701302  1
  O2-  O191  1  0.82006956  0.57131280  0.90215772  1
  O2-  O192  1  0.04492603  0.07800773  0.26312674  1
  O2-  O193  1  0.04214264  0.08467352  0.60034601  1
  O2-  O194  1  0.04524410  0.08181863  0.94134252  1
  O2-  O195  1  0.04148746  0.58466866  0.26583175  1
  O2-  O196  1  0.04225290  0.58028222  0.59625520  1
  O2-  O197  1  0.03797766  0.58632858  0.93149606  1
  O2-  O198  1  0.53834302  0.07902051  0.26827402  1
  O2-  O199  1  0.54346464  0.08814203  0.60454658  1
  O2-  O200  1  0.53629866  0.08242518  0.92818250  1
  O2-  O201  1  0.53840167  0.58499404  0.26576542  1
  O2-  O202  1  0.54187591  0.58278257  0.60722477  1
  O2-  O203  1  0.54677856  0.58547936  0.93605832  1
  O2-  O204  1  0.17131332  0.20392204  0.26532108  1
  O2-  O205  1  0.16740681  0.21328395  0.60160524  1
  O2-  O206  1  0.16903653  0.20045644  0.94106859  1
  O2-  O207  1  0.16780308  0.71233799  0.26366245  1
  O2-  O208  1  0.17215846  0.70395589  0.59969241  1
  O2-  O209  1  0.16962819  0.70864680  0.93263371  1
  O2-  O210  1  0.66985794  0.20058801  0.27061458  1
  O2-  O211  1  0.66319367  0.20694983  0.60372819  1
  O2-  O212  1  0.66446528  0.20840483  0.92582610  1
  O2-  O213  1  0.66743527  0.70991821  0.26578961  1
  O2-  O214  1  0.66657533  0.69580347  0.60902369  1
  O2-  O215  1  0.66535614  0.70586050  0.93814074  1
  O2-  O216  1  0.08470939  0.46350936  0.06756077  1
  O2-  O217  1  0.08264267  0.45695606  0.39783373  1
  O2-  O218  1  0.08492426  0.45331374  0.72524296  1
  O2-  O219  1  0.07549043  0.94534941  0.06736669  1
  O2-  O220  1  0.08020298  0.94682103  0.39232918  1
  O2-  O221  1  0.08054438  0.95705067  0.73141883  1
  O2-  O222  1  0.57873853  0.45262891  0.06439258  1
  O2-  O223  1  0.58482364  0.46210904  0.40271461  1
  O2-  O224  1  0.58747780  0.45685417  0.73301870  1
  O2-  O225  1  0.58765668  0.95860858  0.06089285  1
  O2-  O226  1  0.58327788  0.95907909  0.40179533  1
  O2-  O227  1  0.58299207  0.96271159  0.73633940  1
  O2-  O228  1  0.20666074  0.33399339  0.06822866  1
  O2-  O229  1  0.20014750  0.33476207  0.39584044  1
  O2-  O230  1  0.21229430  0.34073907  0.73015081  1
  O2-  O231  1  0.21401617  0.83126350  0.06871952  1
  O2-  O232  1  0.20829149  0.83627466  0.39731611  1
  O2-  O233  1  0.21399997  0.83352534  0.73146070  1
  O2-  O234  1  0.70801701  0.32699848  0.06337951  1
  O2-  O235  1  0.71109027  0.33154714  0.40298968  1
  O2-  O236  1  0.70313937  0.33415304  0.72917950  1
  O2-  O237  1  0.70406956  0.83691989  0.06088960  1
  O2-  O238  1  0.70956869  0.83201413  0.40175417  1
  O2-  O239  1  0.70564156  0.83000577  0.73529049  1
  O2-  O240  1  0.45709072  0.42165615  0.26585662  1
  O2-  O241  1  0.45928473  0.41481875  0.60596165  1
  O2-  O242  1  0.45219092  0.41682661  0.93188013  1
  O2-  O243  1  0.45524597  0.91560191  0.27035595  1
  O2-  O244  1  0.46083880  0.91928153  0.59908705  1
  O2-  O245  1  0.46270457  0.90950993  0.93459892  1
  O2-  O246  1  0.95393567  0.41986386  0.26650640  1
  O2-  O247  1  0.95059684  0.41493529  0.60275388  1
  O2-  O248  1  0.96265437  0.41605881  0.93098844  1
  O2-  O249  1  0.94702431  0.91584983  0.26987802  1
  O2-  O250  1  0.94739733  0.92165887  0.60011665  1
  O2-  O251  1  0.94522323  0.92008786  0.93860911  1
  O2-  O252  1  0.32943293  0.29944882  0.26849036  1
  O2-  O253  1  0.33864491  0.29733056  0.60335807  1
  O2-  O254  1  0.33232176  0.29685653  0.93464062  1
  O2-  O255  1  0.33553598  0.79512133  0.26852052  1
  O2-  O256  1  0.33710041  0.79033027  0.59498633  1
  O2-  O257  1  0.34084921  0.79186284  0.93675151  1
  O2-  O258  1  0.83169982  0.28991204  0.26511530  1
  O2-  O259  1  0.83192736  0.29604787  0.60540209  1
  O2-  O260  1  0.83589051  0.28753097  0.92812914  1
  O2-  O261  1  0.83298682  0.79428587  0.26925162  1
  O2-  O262  1  0.82898352  0.78776378  0.59989347  1
  O2-  O263  1  0.83266518  0.79471676  0.93533020  1
  O2-  O264  1  0.41745861  0.03302910  0.06760053  1
  O2-  O265  1  0.41280349  0.03779621  0.40632510  1
  O2-  O266  1  0.41557685  0.04844562  0.72849222  1
  O2-  O267  1  0.41806826  0.54865225  0.05898976  1
  O2-  O268  1  0.41586621  0.54104453  0.40389835  1
  O2-  O269  1  0.41077295  0.53952678  0.73347132  1
  O2-  O270  1  0.91114786  0.04713881  0.06454284  1
  O2-  O271  1  0.91756472  0.04496675  0.39571262  1
  O2-  O272  1  0.91526348  0.04944110  0.73035894  1
  O2-  O273  1  0.91941754  0.54172611  0.06801125  1
  O2-  O274  1  0.91698099  0.54613552  0.39904851  1
  O2-  O275  1  0.91458602  0.54079208  0.72912212  1
  O2-  O276  1  0.30322483  0.17040648  0.06620465  1
  O2-  O277  1  0.29239530  0.17078183  0.40270652  1
  O2-  O278  1  0.29869430  0.17033935  0.72955901  1
  O2-  O279  1  0.30003337  0.66641744  0.06099646  1
  O2-  O280  1  0.28954385  0.66831334  0.40083836  1
  O2-  O281  1  0.29919074  0.66533787  0.72749011  1
  O2-  O282  1  0.78853138  0.16206985  0.05990919  1
  O2-  O283  1  0.79952868  0.16450809  0.39790098  1
  O2-  O284  1  0.79240736  0.16574008  0.73287691  1
  O2-  O285  1  0.79459649  0.67012264  0.07006978  1
  O2-  O286  1  0.79513966  0.66497024  0.39951407  1
  O2-  O287  1  0.79350473  0.65873157  0.73188866  1
