# generated using pymatgen
data_Ca2Al2SiO7
_symmetry_space_group_name_H-M   'P 1'
_cell_length_a   15.45555862
_cell_length_b   15.45533178
_cell_length_c   15.28195572
_cell_angle_alpha   89.99524983
_cell_angle_beta   89.99089701
_cell_angle_gamma   89.99575822
_symmetry_Int_Tables_number   1
_chemical_formula_structural   Ca2Al2SiO7
_chemical_formula_sum   'Ca48 Al48 Si24 O168'
_cell_volume   3650.41270935
_cell_formula_units_Z   24
loop_
 _symmetry_equiv_pos_site_id
 _symmetry_equiv_pos_as_xyz
  1  'x, y, z'
loop_
 _atom_type_symbol
 _atom_type_oxidation_number
  Ca2+  2.0
  Al0+  0.0
  Si0+  0.0
  O2-  -2.0
loop_
 _atom_site_type_symbol
 _atom_site_label
 _atom_site_symmetry_multiplicity
 _atom_site_fract_x
 _atom_site_fract_y
 _atom_site_fract_z
 _atom_site_occupancy
  Ca2+  Ca0  1  0.17498597  0.08585550  0.17147753  1
  Ca2+  Ca1  1  0.17241772  0.07630231  0.50634965  1
  Ca2+  Ca2  1  0.17269261  0.09076679  0.83593851  1
  Ca2+  Ca3  1  0.16867408  0.58026051  0.16935496  1
  Ca2+  Ca4  1  0.17088416  0.58165035  0.51154494  1
  Ca2+  Ca5  1  0.16953621  0.58563982  0.83049813  1
  Ca2+  Ca6  1  0.67084795  0.07840568  0.16457494  1
  Ca2+  Ca7  1  0.66688732  0.08624639  0.50438760  1
  Ca2+  Ca8  1  0.67089860  0.08210702  0.84212292  1
  Ca2+  Ca9  1  0.67129775  0.57690337  0.17924773  1
  Ca2+  Ca10  1  0.67465280  0.58097430  0.49966651  1
  Ca2+  Ca11  1  0.67345263  0.58140133  0.83488541  1
  Ca2+  Ca12  1  0.07116688  0.32869625  0.15942029  1
  Ca2+  Ca13  1  0.08163348  0.32673245  0.49711496  1
  Ca2+  Ca14  1  0.08015888  0.31971084  0.83291994  1
  Ca2+  Ca15  1  0.07395851  0.84051800  0.16631588  1
  Ca2+  Ca16  1  0.08513627  0.83199377  0.49648574  1
  Ca2+  Ca17  1  0.07821177  0.83454612  0.82641980  1
  Ca2+  Ca18  1  0.57402999  0.33654134  0.16446599  1
  Ca2+  Ca19  1  0.57430228  0.33285552  0.49623376  1
  Ca2+  Ca20  1  0.57393224  0.32324071  0.82584272  1
  Ca2+  Ca21  1  0.58433821  0.82771737  0.16014660  1
  Ca2+  Ca22  1  0.58082726  0.82421088  0.49295341  1
  Ca2+  Ca23  1  0.57533880  0.84458365  0.83516077  1
  Ca2+  Ca24  1  0.33511908  0.41108292  0.17053378  1
  Ca2+  Ca25  1  0.33957024  0.41911936  0.50494919  1
  Ca2+  Ca26  1  0.34000408  0.41687441  0.83467971  1
  Ca2+  Ca27  1  0.33016277  0.92885398  0.17411539  1
  Ca2+  Ca28  1  0.32242686  0.92603419  0.50794627  1
  Ca2+  Ca29  1  0.32851259  0.92807829  0.84073728  1
  Ca2+  Ca30  1  0.82967767  0.41765474  0.18032334  1
  Ca2+  Ca31  1  0.83334703  0.42344127  0.50206813  1
  Ca2+  Ca32  1  0.83975700  0.42110034  0.83765004  1
  Ca2+  Ca33  1  0.83772863  0.91764700  0.16596287  1
  Ca2+  Ca34  1  0.83253554  0.91217175  0.50042014  1
  Ca2+  Ca35  1  0.82684936  0.92201718  0.84529582  1
  Ca2+  Ca36  1  0.40867755  0.17333559  0.16147996  1
  Ca2+  Ca37  1  0.41348695  0.17060469  0.49928714  1
  Ca2+  Ca38  1  0.41314127  0.17229316  0.82519209  1
  Ca2+  Ca39  1  0.42574237  0.67353485  0.16146556  1
  Ca2+  Ca40  1  0.42056044  0.66396472  0.49415428  1
  Ca2+  Ca41  1  0.41306385  0.67397377  0.82913238  1
  Ca2+  Ca42  1  0.91984085  0.17520973  0.15508439  1
  Ca2+  Ca43  1  0.92498651  0.17011988  0.49389301  1
  Ca2+  Ca44  1  0.92650692  0.16017674  0.83092360  1
  Ca2+  Ca45  1  0.91059291  0.67714054  0.16557736  1
  Ca2+  Ca46  1  0.91745770  0.66739069  0.49490210  1
  Ca2+  Ca47  1  0.92110914  0.67185926  0.82717141  1
  Al0+  Al48  1  0.00036938  -0.00123354  -0.00486841  1
  Al0+  Al49  1  0.00120405  -0.00150409  0.33345908  1
  Al0+  Al50  1  -0.00266708  -0.00016434  0.66358357  1
  Al0+  Al51  1  0.00200989  0.50000252  -0.00192276  1
  Al0+  Al52  1  0.00163878  0.50025337  0.33345598  1
  Al0+  Al53  1  0.00035567  0.50275510  0.66873721  1
  Al0+  Al54  1  0.49989176  -0.00109207  0.00681153  1
  Al0+  Al55  1  0.50144254  0.00131754  0.33847249  1
  Al0+  Al56  1  0.49883945  0.00035269  0.66407079  1
  Al0+  Al57  1  0.50137699  0.50093379  -0.00426193  1
  Al0+  Al58  1  0.50159090  0.49846436  0.32773454  1
  Al0+  Al59  1  0.50149224  0.50077639  0.66990490  1
  Al0+  Al60  1  0.24834981  0.25248839  -0.00306548  1
  Al0+  Al61  1  0.25129892  0.25069664  0.33435644  1
  Al0+  Al62  1  0.24722858  0.25111766  0.66038451  1
  Al0+  Al63  1  0.25278170  0.74944964  -0.00104090  1
  Al0+  Al64  1  0.25003394  0.75035376  0.33500501  1
  Al0+  Al65  1  0.24775566  0.74952655  0.67042416  1
  Al0+  Al66  1  0.74837850  0.25280266  0.00102468  1
  Al0+  Al67  1  0.74761315  0.24945332  0.33489763  1
  Al0+  Al68  1  0.74783532  0.25034469  0.66383365  1
  Al0+  Al69  1  0.75100677  0.74750282  -0.00154425  1
  Al0+  Al70  1  0.75113312  0.74915334  0.32902811  1
  Al0+  Al71  1  0.74883065  0.74943282  0.67291803  1
  Al0+  Al72  1  0.82309361  0.07212461  0.01441740  1
  Al0+  Al73  1  0.07060484  0.68032791  0.65295109  1
  Al0+  Al74  1  0.82193874  0.57168302  0.34810448  1
  Al0+  Al75  1  0.31876993  0.07282703  0.01353102  1
  Al0+  Al76  1  0.67717690  0.42719016  0.34980203  1
  Al0+  Al77  1  0.92531185  0.32290856  0.98517555  1
  Al0+  Al78  1  0.43046542  0.31842706  0.31837354  1
  Al0+  Al79  1  0.67925633  0.92746103  0.01648133  1
  Al0+  Al80  1  0.57000584  0.67985681  0.32067170  1
  Al0+  Al81  1  0.32277524  0.56989309  0.67990648  1
  Al0+  Al82  1  0.43009105  0.82200603  0.98736958  1
  Al0+  Al83  1  0.17646768  0.92911165  0.68413198  1
  Al0+  Al84  1  0.82122399  0.57067245  0.68267912  1
  Al0+  Al85  1  0.06920517  0.17777183  0.64994100  1
  Al0+  Al86  1  0.32238807  0.07358784  0.35076949  1
  Al0+  Al87  1  0.06966056  0.17879814  0.98618723  1
  Al0+  Al88  1  0.17765275  0.92861636  0.34867913  1
  Al0+  Al89  1  0.42922536  0.32211215  0.65095377  1
  Al0+  Al90  1  0.92861960  0.32111514  0.32218823  1
  Al0+  Al91  1  0.42915174  0.32063231  0.98522313  1
  Al0+  Al92  1  0.31979219  0.07182472  0.68321198  1
  Al0+  Al93  1  0.93070300  0.81991668  0.31997459  1
  Al0+  Al94  1  0.57163678  0.17658222  0.65106930  1
  Al0+  Al95  1  0.92946520  0.81950489  0.98492045  1
  Si0+  Si96  1  0.82318728  0.56900514  0.01571992  1
  Si0+  Si97  1  0.67852940  0.92807263  0.68002612  1
  Si0+  Si98  1  0.07083887  0.17853966  0.31696201  1
  Si0+  Si99  1  0.57119223  0.17729009  0.98614936  1
  Si0+  Si100  1  0.32328527  0.57180140  0.01639442  1
  Si0+  Si101  1  0.57346957  0.17448140  0.31370283  1
  Si0+  Si102  1  0.92549733  0.82059136  0.65017212  1
  Si0+  Si103  1  0.17843843  0.92466025  0.01661696  1
  Si0+  Si104  1  0.17898010  0.42975835  0.34766963  1
  Si0+  Si105  1  0.67773513  0.43064353  0.01475441  1
  Si0+  Si106  1  0.18049720  0.43076282  0.01512896  1
  Si0+  Si107  1  0.32149253  0.57022514  0.34482538  1
  Si0+  Si108  1  0.57198555  0.68041164  0.65318851  1
  Si0+  Si109  1  0.07399993  0.67711000  0.98336082  1
  Si0+  Si110  1  0.42794409  0.82032839  0.65184303  1
  Si0+  Si111  1  0.82099117  0.07088607  0.34798321  1
  Si0+  Si112  1  0.68021151  0.92770947  0.34863311  1
  Si0+  Si113  1  0.07570066  0.67660121  0.31633964  1
  Si0+  Si114  1  0.81925407  0.07223989  0.67877846  1
  Si0+  Si115  1  0.42727258  0.82322221  0.31874516  1
  Si0+  Si116  1  0.67894571  0.42738327  0.68586212  1
  Si0+  Si117  1  0.92742851  0.32336393  0.65004756  1
  Si0+  Si118  1  0.17684465  0.42792742  0.68418889  1
  Si0+  Si119  1  0.57199974  0.67793718  0.98048057  1
  O2-  O120  1  0.24445893  -0.00328925  0.05956573  1
  O2-  O121  1  0.25094825  -0.00052326  0.39772862  1
  O2-  O122  1  0.24685125  0.00186524  0.73522648  1
  O2-  O123  1  0.25261851  0.50073022  0.05872290  1
  O2-  O124  1  0.24912589  0.50206395  0.38869253  1
  O2-  O125  1  0.25012797  0.49316778  0.72729374  1
  O2-  O126  1  0.75325523  -0.00187131  0.06598714  1
  O2-  O127  1  0.74982985  -0.00012220  0.39131561  1
  O2-  O128  1  0.74669461  0.00242769  0.72012398  1
  O2-  O129  1  0.75425348  0.49593800  0.05703558  1
  O2-  O130  1  0.75272366  0.49682760  0.39811440  1
  O2-  O131  1  0.75057858  0.49282518  0.73097360  1
  O2-  O132  1  0.00031413  0.24528276  0.27315886  1
  O2-  O133  1  -0.00563658  0.25362669  0.60492306  1
  O2-  O134  1  -0.00876820  0.24501107  0.93633234  1
  O2-  O135  1  0.00643684  0.74536600  0.27354313  1
  O2-  O136  1  -0.00394303  0.75439061  0.60573858  1
  O2-  O137  1  0.00721271  0.74765901  0.93964490  1
  O2-  O138  1  0.50212758  0.24113743  0.27073053  1
  O2-  O139  1  0.49862785  0.24759315  0.60119221  1
  O2-  O140  1  0.49980773  0.24202460  0.94043054  1
  O2-  O141  1  0.49662657  0.75568486  0.27375886  1
  O2-  O142  1  0.49835604  0.74809903  0.60986374  1
  O2-  O143  1  0.50607332  0.74969014  0.93731007  1
  O2-  O144  1  0.07161258  0.18427083  0.10000379  1
  O2-  O145  1  0.06885024  0.17990123  0.42272849  1
  O2-  O146  1  0.06751003  0.17856411  0.76280118  1
  O2-  O147  1  0.07349557  0.67414899  0.08906344  1
  O2-  O148  1  0.07768613  0.67546982  0.42166699  1
  O2-  O149  1  0.06839595  0.68029106  0.76614833  1
  O2-  O150  1  0.57232179  0.18030316  0.09171381  1
  O2-  O151  1  0.57480733  0.17432412  0.41906171  1
  O2-  O152  1  0.57531269  0.17749449  0.76474812  1
  O2-  O153  1  0.56962385  0.67541476  0.08621101  1
  O2-  O154  1  0.56845334  0.68138092  0.43441698  1
  O2-  O155  1  0.57346867  0.68296447  0.75815720  1
  O2-  O156  1  0.17883600  0.43038337  0.24220639  1
  O2-  O157  1  0.17435580  0.43136500  0.57816004  1
  O2-  O158  1  0.17992251  0.43244795  0.91042719  1
  O2-  O159  1  0.17776396  0.92970459  0.23477567  1
  O2-  O160  1  0.17909973  0.92860499  0.57059778  1
  O2-  O161  1  0.18135524  0.92107951  0.91138833  1
  O2-  O162  1  0.67688055  0.43040978  0.23556165  1
  O2-  O163  1  0.67820404  0.42988914  0.58057665  1
  O2-  O164  1  0.67508091  0.43431699  0.90983201  1
  O2-  O165  1  0.67998873  0.92721498  0.24411646  1
  O2-  O166  1  0.68106101  0.92318143  0.57464062  1
  O2-  O167  1  0.67913078  0.92998018  0.90229750  1
  O2-  O168  1  0.43079014  0.32243325  0.09833634  1
  O2-  O169  1  0.43125139  0.32225517  0.43073177  1
  O2-  O170  1  0.43320975  0.32226361  0.76474580  1
  O2-  O171  1  0.42986530  0.81717725  0.10047175  1
  O2-  O172  1  0.42857297  0.81945338  0.42467960  1
  O2-  O173  1  0.43064068  0.82100477  0.75703023  1
  O2-  O174  1  0.92905118  0.32579695  0.09901395  1
  O2-  O175  1  0.93250149  0.31983751  0.43541448  1
  O2-  O176  1  0.92809697  0.32195084  0.75554406  1
  O2-  O177  1  0.92961012  0.81729777  0.09821744  1
  O2-  O178  1  0.92841746  0.81839949  0.43296838  1
  O2-  O179  1  0.92382395  0.81873811  0.75566962  1
  O2-  O180  1  0.31967277  0.07420306  0.23660360  1
  O2-  O181  1  0.32009743  0.06809111  0.56990437  1
  O2-  O182  1  0.31872201  0.07331990  0.90076427  1
  O2-  O183  1  0.31982956  0.57005407  0.23939212  1
  O2-  O184  1  0.32266518  0.57010428  0.56617790  1
  O2-  O185  1  0.32282634  0.57237392  0.91149205  1
  O2-  O186  1  0.82056701  0.07051049  0.24330233  1
  O2-  O187  1  0.81926678  0.07065576  0.57321708  1
  O2-  O188  1  0.81965077  0.07038360  0.90026963  1
  O2-  O189  1  0.81965497  0.57161055  0.23406279  1
  O2-  O190  1  0.81860576  0.57280867  0.56998685  1
  O2-  O191  1  0.82184143  0.56916379  0.91040560  1
  O2-  O192  1  0.04756795  0.08435717  0.27231969  1
  O2-  O193  1  0.03515255  0.08244698  0.59477402  1
  O2-  O194  1  0.04912309  0.07939860  0.93228057  1
  O2-  O195  1  0.05109943  0.58301614  0.26951095  1
  O2-  O196  1  0.04082122  0.58318510  0.59907461  1
  O2-  O197  1  0.04649228  0.58502896  0.93543620  1
  O2-  O198  1  0.55124553  0.07892391  0.26962941  1
  O2-  O199  1  0.54675586  0.07739269  0.59666540  1
  O2-  O200  1  0.55061603  0.08160804  0.94353860  1
  O2-  O201  1  0.53809447  0.58564397  0.26328004  1
  O2-  O202  1  0.54712089  0.58760921  0.60742451  1
  O2-  O203  1  0.54220177  0.58692145  0.93159071  1
  O2-  O204  1  0.16376560  0.20807837  0.27269430  1
  O2-  O205  1  0.16376790  0.21002222  0.59365044  1
  O2-  O206  1  0.16358692  0.21724855  0.93062183  1
  O2-  O207  1  0.16938075  0.70136981  0.26867006  1
  O2-  O208  1  0.16821816  0.70841410  0.59906659  1
  O2-  O209  1  0.16896640  0.69941425  0.93890549  1
  O2-  O210  1  0.66656874  0.20150890  0.26753813  1
  O2-  O211  1  0.66962445  0.20611869  0.59604878  1
  O2-  O212  1  0.66327848  0.20629458  0.93860875  1
  O2-  O213  1  0.66509569  0.71096655  0.26457736  1
  O2-  O214  1  0.66223113  0.71276637  0.60515175  1
  O2-  O215  1  0.66688193  0.69929508  0.93603393  1
  O2-  O216  1  0.08947850  0.46119213  0.06429340  1
  O2-  O217  1  0.08824243  0.45631162  0.39733577  1
  O2-  O218  1  0.08596745  0.45863147  0.73274239  1
  O2-  O219  1  0.08282396  0.94761163  0.05869292  1
  O2-  O220  1  0.07935621  0.95624440  0.40288048  1
  O2-  O221  1  0.07474319  0.95429020  0.73182143  1
  O2-  O222  1  0.58784115  0.46508442  0.06312102  1
  O2-  O223  1  0.58014597  0.46226774  0.40150632  1
  O2-  O224  1  0.58770500  0.45797558  0.73388656  1
  O2-  O225  1  0.58228800  0.95504359  0.07271986  1
  O2-  O226  1  0.58840864  0.95238255  0.39818326  1
  O2-  O227  1  0.58566082  0.95367293  0.72585338  1
  O2-  O228  1  0.20830800  0.34027690  0.06430787  1
  O2-  O229  1  0.20784304  0.33905709  0.39587453  1
  O2-  O230  1  0.19872064  0.33306936  0.72790779  1
  O2-  O231  1  0.20645816  0.83179539  0.06404404  1
  O2-  O232  1  0.20463514  0.82865815  0.40091175  1
  O2-  O233  1  0.20459011  0.83056289  0.73639889  1
  O2-  O234  1  0.69731615  0.33734675  0.06231961  1
  O2-  O235  1  0.70126014  0.32765941  0.40224846  1
  O2-  O236  1  0.70160199  0.33227551  0.73043889  1
  O2-  O237  1  0.70702342  0.82682536  0.06595416  1
  O2-  O238  1  0.71079748  0.83687585  0.39651623  1
  O2-  O239  1  0.70768272  0.83914476  0.73206782  1
  O2-  O240  1  0.46205211  0.41408272  0.26193502  1
  O2-  O241  1  0.46146172  0.42131968  0.60024002  1
  O2-  O242  1  0.46229808  0.41698972  0.93182662  1
  O2-  O243  1  0.45319326  0.91779275  0.27577779  1
  O2-  O244  1  0.45751321  0.91030432  0.60256778  1
  O2-  O245  1  0.46122265  0.91875997  0.93359809  1
  O2-  O246  1  0.96076185  0.41734144  0.26779703  1
  O2-  O247  1  0.95533874  0.41701301  0.60586690  1
  O2-  O248  1  0.96190480  0.41882767  0.93140978  1
  O2-  O249  1  0.96089260  0.91683159  0.26504731  1
  O2-  O250  1  0.94630706  0.91490242  0.60401873  1
  O2-  O251  1  0.95510794  0.91638618  0.92981432  1
  O2-  O252  1  0.33186543  0.29118190  0.26478897  1
  O2-  O253  1  0.32894724  0.30099866  0.59944778  1
  O2-  O254  1  0.33153688  0.29552441  0.93217518  1
  O2-  O255  1  0.33430848  0.79667854  0.27216219  1
  O2-  O256  1  0.33651927  0.79090006  0.60600833  1
  O2-  O257  1  0.33522843  0.78802391  0.93160603  1
  O2-  O258  1  0.83041551  0.29279455  0.27056209  1
  O2-  O259  1  0.83302774  0.29991786  0.60511251  1
  O2-  O260  1  0.82390030  0.30483054  0.93481025  1
  O2-  O261  1  0.83539425  0.78892991  0.26353441  1
  O2-  O262  1  0.83190363  0.79126009  0.60523045  1
  O2-  O263  1  0.83360293  0.78597752  0.93065854  1
  O2-  O264  1  0.41504696  0.04323846  0.06856651  1
  O2-  O265  1  0.42210414  0.04766141  0.40249046  1
  O2-  O266  1  0.41993061  0.04256445  0.73311114  1
  O2-  O267  1  0.41584804  0.54344575  0.06214723  1
  O2-  O268  1  0.41257396  0.53997389  0.39114448  1
  O2-  O269  1  0.41973573  0.54392455  0.73656573  1
  O2-  O270  1  0.92257017  0.04428503  0.06570987  1
  O2-  O271  1  0.91256382  0.04228492  0.39543993  1
  O2-  O272  1  0.90979678  0.04262420  0.72663854  1
  O2-  O273  1  0.91678480  0.54554680  0.06136931  1
  O2-  O274  1  0.92220353  0.54637443  0.39923925  1
  O2-  O275  1  0.91846167  0.54316191  0.73718551  1
  O2-  O276  1  0.28572200  0.16988412  0.06649692  1
  O2-  O277  1  0.29195888  0.17163657  0.40311954  1
  O2-  O278  1  0.29125333  0.17288385  0.73040114  1
  O2-  O279  1  0.29502943  0.66288704  0.06537394  1
  O2-  O280  1  0.29820628  0.66277748  0.39295206  1
  O2-  O281  1  0.28896847  0.66469901  0.73585824  1
  O2-  O282  1  0.79336016  0.17138339  0.06638209  1
  O2-  O283  1  0.79306386  0.16159143  0.39734627  1
  O2-  O284  1  0.79413544  0.16467913  0.72604368  1
  O2-  O285  1  0.79260413  0.66009533  0.06240428  1
  O2-  O286  1  0.78869950  0.66908346  0.40055510  1
  O2-  O287  1  0.78565502  0.66523301  0.73907402  1
