# generated using pymatgen
data_Ca2Al2SiO7
_symmetry_space_group_name_H-M   'P 1'
_cell_length_a   15.45387989
_cell_length_b   15.45382365
_cell_length_c   15.28008645
_cell_angle_alpha   90.00574170
_cell_angle_beta   89.98562127
_cell_angle_gamma   89.99401711
_symmetry_Int_Tables_number   1
_chemical_formula_structural   Ca2Al2SiO7
_chemical_formula_sum   'Ca48 Al48 Si24 O168'
_cell_volume   3649.21354261
_cell_formula_units_Z   24
loop_
 _symmetry_equiv_pos_site_id
 _symmetry_equiv_pos_as_xyz
  1  'x, y, z'
loop_
 _atom_type_symbol
 _atom_type_oxidation_number
  Ca2+  2.0
  Al0+  0.0
  Si0+  0.0
  O2-  -2.0
loop_
 _atom_site_type_symbol
 _atom_site_label
 _atom_site_symmetry_multiplicity
 _atom_site_fract_x
 _atom_site_fract_y
 _atom_site_fract_z
 _atom_site_occupancy
  Ca2+  Ca0  1  0.16280722  0.07957119  0.16880017  1
  Ca2+  Ca1  1  0.16755922  0.08541647  0.50403709  1
  Ca2+  Ca2  1  0.17033789  0.07692471  0.83668950  1
  Ca2+  Ca3  1  0.17490163  0.57657197  0.17038868  1
  Ca2+  Ca4  1  0.16934740  0.57795066  0.50748288  1
  Ca2+  Ca5  1  0.17674443  0.59155453  0.83643270  1
  Ca2+  Ca6  1  0.66851910  0.07403334  0.17270653  1
  Ca2+  Ca7  1  0.67083090  0.07327253  0.50681642  1
  Ca2+  Ca8  1  0.67283388  0.08365739  0.83451652  1
  Ca2+  Ca9  1  0.67187483  0.58808759  0.16637169  1
  Ca2+  Ca10  1  0.67680747  0.58865643  0.50053589  1
  Ca2+  Ca11  1  0.67719997  0.57979708  0.84186900  1
  Ca2+  Ca12  1  0.08331388  0.33096559  0.16605464  1
  Ca2+  Ca13  1  0.08065324  0.33069721  0.49475775  1
  Ca2+  Ca14  1  0.06919712  0.33945844  0.83022260  1
  Ca2+  Ca15  1  0.07169821  0.83482428  0.15832057  1
  Ca2+  Ca16  1  0.07277568  0.82648448  0.49906286  1
  Ca2+  Ca17  1  0.07778525  0.82808620  0.82906970  1
  Ca2+  Ca18  1  0.57554653  0.34013291  0.15952238  1
  Ca2+  Ca19  1  0.56989272  0.33645391  0.49728904  1
  Ca2+  Ca20  1  0.57501717  0.34407894  0.83293032  1
  Ca2+  Ca21  1  0.58352047  0.82235731  0.16132692  1
  Ca2+  Ca22  1  0.58676288  0.82794583  0.49156040  1
  Ca2+  Ca23  1  0.57990137  0.82572381  0.83572003  1
  Ca2+  Ca24  1  0.33598258  0.41833391  0.17055883  1
  Ca2+  Ca25  1  0.32933794  0.41520956  0.50523251  1
  Ca2+  Ca26  1  0.33861041  0.42544822  0.83801388  1
  Ca2+  Ca27  1  0.32690777  0.90975704  0.16614439  1
  Ca2+  Ca28  1  0.33127963  0.92669001  0.51092473  1
  Ca2+  Ca29  1  0.32786041  0.91802775  0.84349223  1
  Ca2+  Ca30  1  0.83252741  0.42744375  0.16789873  1
  Ca2+  Ca31  1  0.83649993  0.42823120  0.50790050  1
  Ca2+  Ca32  1  0.83391449  0.42489914  0.84376610  1
  Ca2+  Ca33  1  0.82923523  0.90824464  0.17408838  1
  Ca2+  Ca34  1  0.83384282  0.91521364  0.50271903  1
  Ca2+  Ca35  1  0.84480116  0.92084821  0.83535704  1
  Ca2+  Ca36  1  0.41638760  0.17986336  0.16225930  1
  Ca2+  Ca37  1  0.40769273  0.17737206  0.49729583  1
  Ca2+  Ca38  1  0.41427449  0.17789240  0.82714750  1
  Ca2+  Ca39  1  0.42907793  0.66551089  0.15566480  1
  Ca2+  Ca40  1  0.42396573  0.66314352  0.49569165  1
  Ca2+  Ca41  1  0.41916544  0.66089472  0.83188764  1
  Ca2+  Ca42  1  0.92389346  0.17202945  0.16048770  1
  Ca2+  Ca43  1  0.91808473  0.17079017  0.49817266  1
  Ca2+  Ca44  1  0.91073905  0.17928413  0.82713360  1
  Ca2+  Ca45  1  0.90884645  0.67323254  0.16204049  1
  Ca2+  Ca46  1  0.91269532  0.67109409  0.49729507  1
  Ca2+  Ca47  1  0.91675847  0.67260529  0.82448940  1
  Al0+  Al48  1  0.00252575  -0.00004662  0.00038013  1
  Al0+  Al49  1  0.00019025  0.00046297  0.32668413  1
  Al0+  Al50  1  -0.00159163  -0.00066699  0.66733018  1
  Al0+  Al51  1  0.00210112  0.50030213  0.00202170  1
  Al0+  Al52  1  0.00192330  0.50074756  0.34162376  1
  Al0+  Al53  1  0.00029582  0.50015450  0.66278461  1
  Al0+  Al54  1  0.50092094  0.00124302  -0.00184329  1
  Al0+  Al55  1  0.49938151  0.00070828  0.33867503  1
  Al0+  Al56  1  0.49970074  0.00028805  0.67275309  1
  Al0+  Al57  1  0.50186297  0.49982754  -0.00106425  1
  Al0+  Al58  1  0.50180931  0.50104314  0.32584952  1
  Al0+  Al59  1  0.49897371  0.49946364  0.66345254  1
  Al0+  Al60  1  0.25118678  0.24841521  -0.00533221  1
  Al0+  Al61  1  0.24835265  0.25051653  0.32764802  1
  Al0+  Al62  1  0.24882204  0.24990072  0.66951407  1
  Al0+  Al63  1  0.24945884  0.75128789  0.00899229  1
  Al0+  Al64  1  0.24863673  0.75016424  0.33647281  1
  Al0+  Al65  1  0.25006109  0.74887256  0.66464162  1
  Al0+  Al66  1  0.75055308  0.25007324  0.00291031  1
  Al0+  Al67  1  0.74877647  0.25096641  0.33411748  1
  Al0+  Al68  1  0.74733548  0.24773365  0.66399263  1
  Al0+  Al69  1  0.74998794  0.75201573  -0.00771956  1
  Al0+  Al70  1  0.74883200  0.75042759  0.33450951  1
  Al0+  Al71  1  0.74804185  0.74937935  0.66822856  1
  Al0+  Al72  1  0.43035569  0.31920792  0.31887488  1
  Al0+  Al73  1  0.82312315  0.57377231  0.01432139  1
  Al0+  Al74  1  0.92914670  0.82054148  0.98533439  1
  Al0+  Al75  1  0.42937075  0.32008614  0.65236963  1
  Al0+  Al76  1  0.92766932  0.82109404  0.65042438  1
  Al0+  Al77  1  0.57096233  0.67862921  0.98154848  1
  Al0+  Al78  1  0.56977295  0.68182915  0.31985522  1
  Al0+  Al79  1  0.81919023  0.57019891  0.34790477  1
  Al0+  Al80  1  0.68000388  0.42843759  0.01538538  1
  Al0+  Al81  1  0.32116781  0.56979455  0.67890013  1
  Al0+  Al82  1  0.18149959  0.42837351  0.34740282  1
  Al0+  Al83  1  0.42689453  0.82118650  0.98626686  1
  Al0+  Al84  1  0.43003180  0.32033904  0.98455492  1
  Al0+  Al85  1  0.67965555  0.92996628  0.34601715  1
  Al0+  Al86  1  0.82057289  0.07021189  0.67993852  1
  Al0+  Al87  1  0.92598542  0.32144427  0.65256089  1
  Al0+  Al88  1  0.82156311  0.57034641  0.68091083  1
  Al0+  Al89  1  0.07347536  0.67828882  0.65095145  1
  Al0+  Al90  1  0.93012614  0.32111149  0.98894256  1
  Al0+  Al91  1  0.32077449  0.07267287  0.68147657  1
  Al0+  Al92  1  0.93136700  0.81750083  0.31928335  1
  Al0+  Al93  1  0.06909955  0.18044084  0.31950560  1
  Al0+  Al94  1  0.17981444  0.93014500  0.01505137  1
  Al0+  Al95  1  0.32116355  0.57008811  0.01438923  1
  Si0+  Si96  1  0.56905028  0.67957629  0.65060636  1
  Si0+  Si97  1  0.17825954  0.42532992  0.01577604  1
  Si0+  Si98  1  0.57103158  0.17452216  0.64852426  1
  Si0+  Si99  1  0.92640558  0.32520195  0.31788069  1
  Si0+  Si100  1  0.67906205  0.93045758  0.01408213  1
  Si0+  Si101  1  0.42859968  0.82291732  0.65249665  1
  Si0+  Si102  1  0.67570992  0.42635115  0.35118564  1
  Si0+  Si103  1  0.67688759  0.92649910  0.68673150  1
  Si0+  Si104  1  0.82370041  0.07332947  0.34832273  1
  Si0+  Si105  1  0.82217193  0.07148475  0.01588294  1
  Si0+  Si106  1  0.17748561  0.42713059  0.68432260  1
  Si0+  Si107  1  0.57374887  0.17656147  0.98320050  1
  Si0+  Si108  1  0.07204622  0.17719044  0.98073239  1
  Si0+  Si109  1  0.17624933  0.92840609  0.34969518  1
  Si0+  Si110  1  0.07470170  0.67555705  0.31563254  1
  Si0+  Si111  1  0.42517606  0.82526438  0.31969661  1
  Si0+  Si112  1  0.31857268  0.07034855  0.34703384  1
  Si0+  Si113  1  0.57320119  0.17549622  0.31789725  1
  Si0+  Si114  1  0.17878911  0.92788261  0.68223860  1
  Si0+  Si115  1  0.67765289  0.42801933  0.68052584  1
  Si0+  Si116  1  0.07048177  0.17852554  0.65204550  1
  Si0+  Si117  1  0.32426178  0.57182503  0.34956401  1
  Si0+  Si118  1  0.32342015  0.07308734  0.01818798  1
  Si0+  Si119  1  0.07302489  0.67747344  0.98668477  1
  O2-  O120  1  0.25659370  0.00308431  0.06310988  1
  O2-  O121  1  0.25152078  -0.00423540  0.39081298  1
  O2-  O122  1  0.24816052  -0.00420853  0.72684637  1
  O2-  O123  1  0.24891398  0.49212669  0.05992737  1
  O2-  O124  1  0.25492874  0.50446787  0.39427512  1
  O2-  O125  1  0.24524210  0.49733665  0.72735528  1
  O2-  O126  1  0.75249090  -0.00110803  0.05728982  1
  O2-  O127  1  0.75246119  0.00701718  0.39206931  1
  O2-  O128  1  0.74828481  -0.00621372  0.72882960  1
  O2-  O129  1  0.75165947  0.50118745  0.06467998  1
  O2-  O130  1  0.74807345  0.49115739  0.39495055  1
  O2-  O131  1  0.75132680  0.49055839  0.72539233  1
  O2-  O132  1  -0.00768499  0.25360620  0.27375474  1
  O2-  O133  1  0.00137746  0.24625465  0.60717340  1
  O2-  O134  1  0.00472012  0.24779950  0.93850037  1
  O2-  O135  1  0.00615576  0.74381578  0.27088635  1
  O2-  O136  1  -0.00278841  0.74639333  0.60098789  1
  O2-  O137  1  0.00041638  0.74161655  0.94162594  1
  O2-  O138  1  0.50840412  0.24713840  0.27289257  1
  O2-  O139  1  0.50095587  0.24232960  0.60495380  1
  O2-  O140  1  0.50588522  0.24595136  0.93899405  1
  O2-  O141  1  0.49114714  0.75422872  0.27607729  1
  O2-  O142  1  0.49934202  0.75268498  0.60872567  1
  O2-  O143  1  0.49467040  0.74763224  0.93255615  1
  O2-  O144  1  0.07093521  0.17643746  0.08662927  1
  O2-  O145  1  0.06963924  0.18013337  0.43274892  1
  O2-  O146  1  0.07022853  0.17874282  0.75752370  1
  O2-  O147  1  0.07325677  0.67934193  0.09247110  1
  O2-  O148  1  0.07667175  0.67838603  0.42101291  1
  O2-  O149  1  0.07701096  0.68272022  0.76463004  1
  O2-  O150  1  0.57194672  0.17352514  0.08898539  1
  O2-  O151  1  0.57107679  0.17350346  0.42327079  1
  O2-  O152  1  0.57162382  0.17364593  0.75402816  1
  O2-  O153  1  0.57236578  0.68260540  0.09526268  1
  O2-  O154  1  0.56872187  0.68322749  0.43375546  1
  O2-  O155  1  0.56804393  0.67903819  0.75521919  1
  O2-  O156  1  0.18345645  0.42835456  0.23412838  1
  O2-  O157  1  0.18101107  0.42443394  0.57848466  1
  O2-  O158  1  0.17677242  0.42593343  0.91030792  1
  O2-  O159  1  0.17627526  0.92947174  0.24475674  1
  O2-  O160  1  0.18065260  0.92999426  0.57606386  1
  O2-  O161  1  0.17929188  0.93330076  0.90185692  1
  O2-  O162  1  0.67515784  0.42564712  0.24603357  1
  O2-  O163  1  0.67535107  0.43160353  0.57468566  1
  O2-  O164  1  0.68215616  0.42781796  0.90133371  1
  O2-  O165  1  0.68047818  0.93070310  0.23265775  1
  O2-  O166  1  0.67403108  0.92777115  0.58086272  1
  O2-  O167  1  0.67762185  0.93346714  0.90911251  1
  O2-  O168  1  0.42893464  0.31731774  0.09785521  1
  O2-  O169  1  0.42883069  0.31738362  0.43221827  1
  O2-  O170  1  0.43218137  0.32133226  0.76507615  1
  O2-  O171  1  0.43052694  0.82124753  0.10024034  1
  O2-  O172  1  0.42557054  0.82691458  0.42577549  1
  O2-  O173  1  0.42875640  0.82320988  0.75718828  1
  O2-  O174  1  0.93194334  0.31806629  0.10219384  1
  O2-  O175  1  0.92759176  0.32299226  0.42360965  1
  O2-  O176  1  0.92674458  0.32068366  0.76589370  1
  O2-  O177  1  0.92907594  0.82218004  0.09875111  1
  O2-  O178  1  0.93232117  0.81884693  0.43202038  1
  O2-  O179  1  0.93180665  0.82222956  0.76392727  1
  O2-  O180  1  0.31850597  0.06971317  0.24212235  1
  O2-  O181  1  0.31831338  0.07182931  0.56753055  1
  O2-  O182  1  0.32111565  0.07335615  0.91256773  1
  O2-  O183  1  0.32349862  0.57102302  0.24400881  1
  O2-  O184  1  0.32356570  0.56734246  0.56566344  1
  O2-  O185  1  0.31899010  0.57008162  0.90101406  1
  O2-  O186  1  0.82294772  0.07308024  0.24244157  1
  O2-  O187  1  0.81850908  0.07001673  0.56664606  1
  O2-  O188  1  0.82098649  0.07237664  0.91069641  1
  O2-  O189  1  0.81785547  0.57121203  0.23513739  1
  O2-  O190  1  0.81705815  0.57196682  0.56751535  1
  O2-  O191  1  0.82314382  0.57194264  0.90064081  1
  O2-  O192  1  0.03996297  0.08493432  0.26181298  1
  O2-  O193  1  0.04622161  0.08470581  0.60563788  1
  O2-  O194  1  0.04432040  0.08475716  0.93442155  1
  O2-  O195  1  0.05056756  0.58047174  0.27285394  1
  O2-  O196  1  0.05016692  0.57879742  0.59852196  1
  O2-  O197  1  0.05549603  0.58218754  0.94123022  1
  O2-  O198  1  0.54386928  0.08282069  0.27098642  1
  O2-  O199  1  0.54581916  0.07991845  0.60359656  1
  O2-  O200  1  0.54857229  0.08416406  0.93442296  1
  O2-  O201  1  0.54344261  0.58559290  0.26368922  1
  O2-  O202  1  0.53911061  0.58937034  0.60141153  1
  O2-  O203  1  0.54509330  0.57978837  0.92966093  1
  O2-  O204  1  0.16338266  0.21222246  0.26166144  1
  O2-  O205  1  0.16384395  0.20487127  0.60531737  1
  O2-  O206  1  0.16648309  0.19895925  0.93531564  1
  O2-  O207  1  0.16922484  0.70118514  0.27051115  1
  O2-  O208  1  0.17060637  0.70937198  0.59444394  1
  O2-  O209  1  0.16489491  0.70968569  0.94143512  1
  O2-  O210  1  0.66875743  0.19581315  0.27276963  1
  O2-  O211  1  0.66351427  0.19949887  0.60016716  1
  O2-  O212  1  0.66821626  0.20076781  0.93852219  1
  O2-  O213  1  0.66371129  0.71775486  0.26538760  1
  O2-  O214  1  0.66054434  0.70822999  0.60325632  1
  O2-  O215  1  0.66620938  0.71293774  0.92603308  1
  O2-  O216  1  0.08643739  0.45180972  0.06516798  1
  O2-  O217  1  0.08546793  0.45579044  0.40430520  1
  O2-  O218  1  0.08314768  0.45208186  0.72821516  1
  O2-  O219  1  0.08473722  0.96537986  0.07121220  1
  O2-  O220  1  0.08610235  0.96211923  0.39646678  1
  O2-  O221  1  0.08571909  0.95448369  0.72816219  1
  O2-  O222  1  0.58171145  0.45694795  0.06776600  1
  O2-  O223  1  0.58278352  0.45704101  0.39654594  1
  O2-  O224  1  0.58633035  0.46050772  0.72729914  1
  O2-  O225  1  0.58818152  0.95997651  0.06302087  1
  O2-  O226  1  0.58275754  0.95835449  0.40300095  1
  O2-  O227  1  0.58485910  0.95482224  0.73474877  1
  O2-  O228  1  0.20270973  0.32992807  0.05927909  1
  O2-  O229  1  0.21377050  0.33147754  0.40071158  1
  O2-  O230  1  0.20218871  0.33430593  0.73183872  1
  O2-  O231  1  0.20723482  0.83546564  0.07461584  1
  O2-  O232  1  0.19943870  0.83529679  0.39733596  1
  O2-  O233  1  0.20546275  0.83475837  0.72750601  1
  O2-  O234  1  0.70593992  0.32931345  0.06978610  1
  O2-  O235  1  0.69466479  0.33047488  0.39680311  1
  O2-  O236  1  0.69415826  0.33125395  0.72273578  1
  O2-  O237  1  0.70647375  0.83800136  0.05941323  1
  O2-  O238  1  0.71259929  0.83598196  0.40280612  1
  O2-  O239  1  0.69938097  0.83234999  0.73182830  1
  O2-  O240  1  0.45877325  0.41593543  0.26469542  1
  O2-  O241  1  0.46268662  0.41493111  0.59574280  1
  O2-  O242  1  0.46131201  0.41631824  0.93087811  1
  O2-  O243  1  0.45122179  0.91886441  0.27425482  1
  O2-  O244  1  0.45631682  0.91569996  0.60603153  1
  O2-  O245  1  0.45646193  0.92014424  0.93393941  1
  O2-  O246  1  0.95682086  0.41798888  0.27375394  1
  O2-  O247  1  0.95799039  0.41648002  0.59731381  1
  O2-  O248  1  0.96128062  0.41773624  0.93460372  1
  O2-  O249  1  0.96023317  0.91454446  0.26477907  1
  O2-  O250  1  0.95768656  0.91970740  0.59766114  1
  O2-  O251  1  0.96491269  0.91693317  0.93345630  1
  O2-  O252  1  0.33624361  0.28432878  0.26344679  1
  O2-  O253  1  0.33123536  0.28896978  0.60086272  1
  O2-  O254  1  0.33390893  0.28910445  0.92943685  1
  O2-  O255  1  0.32966206  0.80273192  0.27588983  1
  O2-  O256  1  0.33719151  0.79702927  0.60364435  1
  O2-  O257  1  0.32557494  0.79760458  0.93783582  1
  O2-  O258  1  0.83085646  0.30351418  0.27389420  1
  O2-  O259  1  0.82982659  0.28999515  0.59774462  1
  O2-  O260  1  0.83389169  0.28820294  0.93567253  1
  O2-  O261  1  0.83421350  0.78662810  0.26719918  1
  O2-  O262  1  0.82669895  0.79526293  0.60095354  1
  O2-  O263  1  0.83244846  0.79811803  0.92912548  1
  O2-  O264  1  0.41862485  0.05115587  0.06254040  1
  O2-  O265  1  0.41086430  0.04782237  0.39665931  1
  O2-  O266  1  0.41766223  0.04489032  0.73579525  1
  O2-  O267  1  0.41823484  0.54000599  0.06667188  1
  O2-  O268  1  0.41858711  0.54528145  0.39345848  1
  O2-  O269  1  0.41715566  0.53649487  0.73292614  1
  O2-  O270  1  0.91500425  0.04547927  0.06165745  1
  O2-  O271  1  0.91670097  0.04442372  0.39354227  1
  O2-  O272  1  0.91753836  0.04238091  0.73543584  1
  O2-  O273  1  0.92207055  0.54632132  0.06763598  1
  O2-  O274  1  0.91690225  0.54438364  0.40257694  1
  O2-  O275  1  0.92076777  0.54455957  0.73112531  1
  O2-  O276  1  0.29399836  0.16608061  0.06411761  1
  O2-  O277  1  0.28505114  0.16059984  0.39373135  1
  O2-  O278  1  0.28807958  0.16750266  0.73737469  1
  O2-  O279  1  0.29019564  0.66482949  0.07170815  1
  O2-  O280  1  0.30118000  0.66698858  0.39510576  1
  O2-  O281  1  0.29365965  0.66815903  0.73166389  1
  O2-  O282  1  0.79339689  0.16136726  0.06612266  1
  O2-  O283  1  0.80152062  0.16831000  0.39382564  1
  O2-  O284  1  0.78634873  0.16627906  0.73458449  1
  O2-  O285  1  0.79147503  0.67346646  0.06352951  1
  O2-  O286  1  0.78255979  0.66465583  0.40255428  1
  O2-  O287  1  0.78704954  0.66609789  0.73409357  1
