# generated using pymatgen
data_Ca2Al2SiO7
_symmetry_space_group_name_H-M   'P 1'
_cell_length_a   15.45190620
_cell_length_b   15.45190722
_cell_length_c   15.27908634
_cell_angle_alpha   89.99823380
_cell_angle_beta   90.01048190
_cell_angle_gamma   90.01170142
_symmetry_Int_Tables_number   1
_chemical_formula_structural   Ca2Al2SiO7
_chemical_formula_sum   'Ca48 Al48 Si24 O168'
_cell_volume   3648.05622817
_cell_formula_units_Z   24
loop_
 _symmetry_equiv_pos_site_id
 _symmetry_equiv_pos_as_xyz
  1  'x, y, z'
loop_
 _atom_type_symbol
 _atom_type_oxidation_number
  Ca2+  2.0
  Al0+  0.0
  Si0+  0.0
  O2-  -2.0
loop_
 _atom_site_type_symbol
 _atom_site_label
 _atom_site_symmetry_multiplicity
 _atom_site_fract_x
 _atom_site_fract_y
 _atom_site_fract_z
 _atom_site_occupancy
  Ca2+  Ca0  1  0.16610782  0.07306962  0.17425204  1
  Ca2+  Ca1  1  0.17713406  0.07377596  0.50615711  1
  Ca2+  Ca2  1  0.15947520  0.07186678  0.83766883  1
  Ca2+  Ca3  1  0.16898761  0.58344729  0.17247346  1
  Ca2+  Ca4  1  0.16674728  0.58529075  0.50351959  1
  Ca2+  Ca5  1  0.17618705  0.59473605  0.83723449  1
  Ca2+  Ca6  1  0.67006211  0.08180411  0.17330645  1
  Ca2+  Ca7  1  0.65834836  0.06930043  0.50298671  1
  Ca2+  Ca8  1  0.67506208  0.07605117  0.83634664  1
  Ca2+  Ca9  1  0.67188584  0.57957405  0.17316455  1
  Ca2+  Ca10  1  0.67093400  0.58632480  0.50703068  1
  Ca2+  Ca11  1  0.66244131  0.57275380  0.83568913  1
  Ca2+  Ca12  1  0.08645682  0.32703224  0.16127306  1
  Ca2+  Ca13  1  0.07793044  0.34039706  0.49548772  1
  Ca2+  Ca14  1  0.07723604  0.32430806  0.82733661  1
  Ca2+  Ca15  1  0.09234407  0.82587610  0.16107028  1
  Ca2+  Ca16  1  0.08829683  0.82740885  0.49856985  1
  Ca2+  Ca17  1  0.08463125  0.82890809  0.82581187  1
  Ca2+  Ca18  1  0.57850205  0.32970943  0.15990803  1
  Ca2+  Ca19  1  0.58258276  0.32657758  0.49526542  1
  Ca2+  Ca20  1  0.58096933  0.33967968  0.82985751  1
  Ca2+  Ca21  1  0.58582353  0.83008436  0.16957823  1
  Ca2+  Ca22  1  0.58903387  0.82595487  0.49253718  1
  Ca2+  Ca23  1  0.58282346  0.82559023  0.82194377  1
  Ca2+  Ca24  1  0.32941299  0.41833077  0.16671940  1
  Ca2+  Ca25  1  0.32469977  0.42132148  0.50387312  1
  Ca2+  Ca26  1  0.33865615  0.43014204  0.83899333  1
  Ca2+  Ca27  1  0.32075688  0.92011226  0.17414027  1
  Ca2+  Ca28  1  0.32664150  0.92400887  0.50493935  1
  Ca2+  Ca29  1  0.32066507  0.91925896  0.83445390  1
  Ca2+  Ca30  1  0.82965173  0.42300522  0.17093479  1
  Ca2+  Ca31  1  0.82996053  0.42375014  0.50603589  1
  Ca2+  Ca32  1  0.82190019  0.40864390  0.83449969  1
  Ca2+  Ca33  1  0.83036328  0.92314961  0.16991094  1
  Ca2+  Ca34  1  0.82368439  0.90977728  0.50489901  1
  Ca2+  Ca35  1  0.83311427  0.91411544  0.83381153  1
  Ca2+  Ca36  1  0.41743145  0.16925730  0.16399742  1
  Ca2+  Ca37  1  0.41821320  0.15956803  0.49215813  1
  Ca2+  Ca38  1  0.41200984  0.17409252  0.82955428  1
  Ca2+  Ca39  1  0.42009513  0.66386121  0.16314290  1
  Ca2+  Ca40  1  0.42770510  0.66195260  0.49943425  1
  Ca2+  Ca41  1  0.41751382  0.66393100  0.82552533  1
  Ca2+  Ca42  1  0.92158384  0.16492738  0.15730832  1
  Ca2+  Ca43  1  0.91368586  0.17562155  0.50014385  1
  Ca2+  Ca44  1  0.91807144  0.16582708  0.83156365  1
  Ca2+  Ca45  1  0.92714767  0.66454296  0.16588996  1
  Ca2+  Ca46  1  0.92424477  0.67099889  0.49465211  1
  Ca2+  Ca47  1  0.93197321  0.67195347  0.82274438  1
  Al0+  Al48  1  -0.00158412  -0.00110364  0.00545260  1
  Al0+  Al49  1  -0.00170934  0.00113850  0.33921902  1
  Al0+  Al50  1  -0.00051293  0.00077240  0.66317249  1
  Al0+  Al51  1  -0.00008123  0.49985197  -0.00754508  1
  Al0+  Al52  1  -0.00153976  0.50206587  0.33554692  1
  Al0+  Al53  1  -0.00027455  0.49883683  0.66070428  1
  Al0+  Al54  1  0.49979933  -0.00095086  -0.00212906  1
  Al0+  Al55  1  0.50112095  0.00013255  0.33243939  1
  Al0+  Al56  1  0.50029438  0.00066598  0.67800063  1
  Al0+  Al57  1  0.50004496  0.49863204  0.00664315  1
  Al0+  Al58  1  0.50003739  0.49884254  0.32748635  1
  Al0+  Al59  1  0.49918325  0.49881110  0.66717630  1
  Al0+  Al60  1  0.25075316  0.25079967  -0.01220630  1
  Al0+  Al61  1  0.24834944  0.25221240  0.34125290  1
  Al0+  Al62  1  0.25019393  0.25186841  0.66846545  1
  Al0+  Al63  1  0.25306739  0.75040360  0.00567661  1
  Al0+  Al64  1  0.25147173  0.74933754  0.33335105  1
  Al0+  Al65  1  0.25250846  0.75137543  0.66863087  1
  Al0+  Al66  1  0.74898039  0.24839844  0.00919035  1
  Al0+  Al67  1  0.74899033  0.25134987  0.32713277  1
  Al0+  Al68  1  0.74912561  0.24998512  0.66497244  1
  Al0+  Al69  1  0.75006663  0.74851773  -0.00036720  1
  Al0+  Al70  1  0.75205468  0.75003310  0.33317041  1
  Al0+  Al71  1  0.75200494  0.74842009  0.66669369  1
  Al0+  Al72  1  0.06996313  0.17728753  0.98789733  1
  Al0+  Al73  1  0.92761978  0.31911006  0.65272173  1
  Al0+  Al74  1  0.68030565  0.42931064  0.67804044  1
  Al0+  Al75  1  0.31976290  0.57037575  0.01554405  1
  Al0+  Al76  1  0.67956488  0.42973227  0.01586015  1
  Al0+  Al77  1  0.68149052  0.93120662  0.34509376  1
  Al0+  Al78  1  0.07127271  0.68036285  0.31819448  1
  Al0+  Al79  1  0.56983068  0.17797570  0.31932347  1
  Al0+  Al80  1  0.68034310  0.92573276  0.68099178  1
  Al0+  Al81  1  0.07258603  0.67941596  0.98682205  1
  Al0+  Al82  1  0.43108222  0.32058280  0.98494496  1
  Al0+  Al83  1  0.56940455  0.67798890  0.65499881  1
  Al0+  Al84  1  0.32035388  0.07152762  0.34549068  1
  Al0+  Al85  1  0.17868208  0.43076761  0.34522637  1
  Al0+  Al86  1  0.81948322  0.57014819  0.34706503  1
  Al0+  Al87  1  0.57316295  0.67838010  0.31839209  1
  Al0+  Al88  1  0.81941535  0.06859941  0.01337077  1
  Al0+  Al89  1  0.17670869  0.92606202  0.34992248  1
  Al0+  Al90  1  0.32250394  0.07373835  0.68495108  1
  Al0+  Al91  1  0.18009456  0.93060915  0.01479049  1
  Al0+  Al92  1  0.17822446  0.93025051  0.68244294  1
  Al0+  Al93  1  0.31905328  0.56850459  0.67831074  1
  Al0+  Al94  1  0.92891272  0.82279704  0.65069983  1
  Al0+  Al95  1  0.07484561  0.68030030  0.65028496  1
  Si0+  Si96  1  0.92566463  0.32153434  0.98443436  1
  Si0+  Si97  1  0.82391759  0.57151697  0.68462578  1
  Si0+  Si98  1  0.42895735  0.32186466  0.65058813  1
  Si0+  Si99  1  0.07031913  0.18017302  0.32092164  1
  Si0+  Si100  1  0.57113077  0.67919420  0.98578827  1
  Si0+  Si101  1  0.32459968  0.57181047  0.34992977  1
  Si0+  Si102  1  0.92808864  0.82392881  0.31500775  1
  Si0+  Si103  1  0.82399995  0.57275966  0.01508005  1
  Si0+  Si104  1  0.92901202  0.32211384  0.31659371  1
  Si0+  Si105  1  0.67546485  0.92518561  0.01698473  1
  Si0+  Si106  1  0.42974099  0.82129309  0.98501106  1
  Si0+  Si107  1  0.07341155  0.17858166  0.64727880  1
  Si0+  Si108  1  0.32232142  0.07498865  0.01543090  1
  Si0+  Si109  1  0.56969269  0.17881374  0.65370219  1
  Si0+  Si110  1  0.67680053  0.42751383  0.34975834  1
  Si0+  Si111  1  0.42518822  0.32161239  0.31667520  1
  Si0+  Si112  1  0.92699773  0.82141216  0.98485462  1
  Si0+  Si113  1  0.82040940  0.07287979  0.68096341  1
  Si0+  Si114  1  0.57380059  0.17677750  0.98168643  1
  Si0+  Si115  1  0.17402734  0.42818972  0.68534033  1
  Si0+  Si116  1  0.17621737  0.42665142  0.01235433  1
  Si0+  Si117  1  0.42954001  0.82157597  0.31628258  1
  Si0+  Si118  1  0.82235084  0.07613408  0.35165487  1
  Si0+  Si119  1  0.43038577  0.82445621  0.65095929  1
  O2-  O120  1  0.25249470  0.00848661  0.06058993  1
  O2-  O121  1  0.24939780  -0.00075190  0.39608485  1
  O2-  O122  1  0.24697772  0.00510814  0.73381524  1
  O2-  O123  1  0.24113055  0.49784080  0.05872553  1
  O2-  O124  1  0.25330285  0.50523981  0.39253045  1
  O2-  O125  1  0.24047411  0.49944122  0.72843071  1
  O2-  O126  1  0.74296428  -0.00451427  0.05978031  1
  O2-  O127  1  0.75378800  0.00695974  0.39452737  1
  O2-  O128  1  0.75786566  -0.00136175  0.72567119  1
  O2-  O129  1  0.75636133  0.50324641  0.06011988  1
  O2-  O130  1  0.74125302  0.49918101  0.39449285  1
  O2-  O131  1  0.75458938  0.50283505  0.72813760  1
  O2-  O132  1  -0.00189417  0.24880551  0.27552821  1
  O2-  O133  1  0.00565372  0.24889329  0.60356905  1
  O2-  O134  1  -0.00409466  0.25364773  0.94167964  1
  O2-  O135  1  0.00215470  0.76070204  0.27080530  1
  O2-  O136  1  0.00234361  0.75216077  0.60065588  1
  O2-  O137  1  -0.00397315  0.75280635  0.94152563  1
  O2-  O138  1  0.49454607  0.25273640  0.27349039  1
  O2-  O139  1  0.49463028  0.24521997  0.61008715  1
  O2-  O140  1  0.50461977  0.24451627  0.93682478  1
  O2-  O141  1  0.49630978  0.75072950  0.27098839  1
  O2-  O142  1  0.50041991  0.75712131  0.60639116  1
  O2-  O143  1  0.50371555  0.75287527  0.94310393  1
  O2-  O144  1  0.06934121  0.17930299  0.10168827  1
  O2-  O145  1  0.06844732  0.18331505  0.42572490  1
  O2-  O146  1  0.07092278  0.17871414  0.75324493  1
  O2-  O147  1  0.07103487  0.67875460  0.10013481  1
  O2-  O148  1  0.06882553  0.67835901  0.43061441  1
  O2-  O149  1  0.07424003  0.68185906  0.76439930  1
  O2-  O150  1  0.57213275  0.17702170  0.08744128  1
  O2-  O151  1  0.57017974  0.17908991  0.43291197  1
  O2-  O152  1  0.57255119  0.18177004  0.75871397  1
  O2-  O153  1  0.57165578  0.68108717  0.09098352  1
  O2-  O154  1  0.57209224  0.67837276  0.43148453  1
  O2-  O155  1  0.56609320  0.67668585  0.76872106  1
  O2-  O156  1  0.17992592  0.42781693  0.23178519  1
  O2-  O157  1  0.17669140  0.42682728  0.57939671  1
  O2-  O158  1  0.17725457  0.42675997  0.90704447  1
  O2-  O159  1  0.17811807  0.92830203  0.23578091  1
  O2-  O160  1  0.18179286  0.93077069  0.56921164  1
  O2-  O161  1  0.17998610  0.92988441  0.90211478  1
  O2-  O162  1  0.67981139  0.42736737  0.24396687  1
  O2-  O163  1  0.68061023  0.42836112  0.56512241  1
  O2-  O164  1  0.67953239  0.43070675  0.90241723  1
  O2-  O165  1  0.68359746  0.93263309  0.23163414  1
  O2-  O166  1  0.67786646  0.92814030  0.56791360  1
  O2-  O167  1  0.67591116  0.92380109  0.91145795  1
  O2-  O168  1  0.43097832  0.31910083  0.09822869  1
  O2-  O169  1  0.42661851  0.32348777  0.42243167  1
  O2-  O170  1  0.43263222  0.32466259  0.75561304  1
  O2-  O171  1  0.43048887  0.82160519  0.09012679  1
  O2-  O172  1  0.43133826  0.82201425  0.42169641  1
  O2-  O173  1  0.43170153  0.82183208  0.75714319  1
  O2-  O174  1  0.92673024  0.32240299  0.09031944  1
  O2-  O175  1  0.92771368  0.32136540  0.42173469  1
  O2-  O176  1  0.92584111  0.31408769  0.76599352  1
  O2-  O177  1  0.92446660  0.82040568  0.09044671  1
  O2-  O178  1  0.92473786  0.82073982  0.42008127  1
  O2-  O179  1  0.92881486  0.82013061  0.76496896  1
  O2-  O180  1  0.31750182  0.07261796  0.23143781  1
  O2-  O181  1  0.32387182  0.07132418  0.57128432  1
  O2-  O182  1  0.32213702  0.07198557  0.91020152  1
  O2-  O183  1  0.32480627  0.56975534  0.24411966  1
  O2-  O184  1  0.32258010  0.56363742  0.56536155  1
  O2-  O185  1  0.32232516  0.57061117  0.90242655  1
  O2-  O186  1  0.82301995  0.07536395  0.24583401  1
  O2-  O187  1  0.81512660  0.07721913  0.57560217  1
  O2-  O188  1  0.81814211  0.06839684  0.90012754  1
  O2-  O189  1  0.82040394  0.56627633  0.23335396  1
  O2-  O190  1  0.82206275  0.57006415  0.57888146  1
  O2-  O191  1  0.82210730  0.57428063  0.90979082  1
  O2-  O192  1  0.04386782  0.08695167  0.27482740  1
  O2-  O193  1  0.04683424  0.08616532  0.60033237  1
  O2-  O194  1  0.03406732  0.08182740  0.93464994  1
  O2-  O195  1  0.03439778  0.58464571  0.26467587  1
  O2-  O196  1  0.04802365  0.58024922  0.59989168  1
  O2-  O197  1  0.04559873  0.58258722  0.93050235  1
  O2-  O198  1  0.54136606  0.08196113  0.26264574  1
  O2-  O199  1  0.54373256  0.08483468  0.60949483  1
  O2-  O200  1  0.55139793  0.08158398  0.93669997  1
  O2-  O201  1  0.54425414  0.58107947  0.26327813  1
  O2-  O202  1  0.53441238  0.58334510  0.59924215  1
  O2-  O203  1  0.53993677  0.58726978  0.94157776  1
  O2-  O204  1  0.16181901  0.21076047  0.27445066  1
  O2-  O205  1  0.16796024  0.20464798  0.60332247  1
  O2-  O206  1  0.16461757  0.20538425  0.92921498  1
  O2-  O207  1  0.17104007  0.70469871  0.26609758  1
  O2-  O208  1  0.17408218  0.70811708  0.59842862  1
  O2-  O209  1  0.17028344  0.71288136  0.93694387  1
  O2-  O210  1  0.66594148  0.20950365  0.26286728  1
  O2-  O211  1  0.65889223  0.20993313  0.60361328  1
  O2-  O212  1  0.66817003  0.20406521  0.93860515  1
  O2-  O213  1  0.66864788  0.71204524  0.26334084  1
  O2-  O214  1  0.66804379  0.70381557  0.60397309  1
  O2-  O215  1  0.66409242  0.70273131  0.93801644  1
  O2-  O216  1  0.08025804  0.44696668  0.05641534  1
  O2-  O217  1  0.08287529  0.46120511  0.40009723  1
  O2-  O218  1  0.07837394  0.44812109  0.72884414  1
  O2-  O219  1  0.08311076  0.95767259  0.06937507  1
  O2-  O220  1  0.07809166  0.95381273  0.40182988  1
  O2-  O221  1  0.07782192  0.95753808  0.73309745  1
  O2-  O222  1  0.58554514  0.46254795  0.07259879  1
  O2-  O223  1  0.58044090  0.44754288  0.39158215  1
  O2-  O224  1  0.58459133  0.46123194  0.73316733  1
  O2-  O225  1  0.58111805  0.94972477  0.06219331  1
  O2-  O226  1  0.58474503  0.96005830  0.39908332  1
  O2-  O227  1  0.58664152  0.95861156  0.73896422  1
  O2-  O228  1  0.20648244  0.33332048  0.05716508  1
  O2-  O229  1  0.20797059  0.33684048  0.40538532  1
  O2-  O230  1  0.20129122  0.33491791  0.73061015  1
  O2-  O231  1  0.21722772  0.83696516  0.07039838  1
  O2-  O232  1  0.20761272  0.82787288  0.40099862  1
  O2-  O233  1  0.21086252  0.83327058  0.73593332  1
  O2-  O234  1  0.70731123  0.33333573  0.07142806  1
  O2-  O235  1  0.70625200  0.33432817  0.39431744  1
  O2-  O236  1  0.71176739  0.33308072  0.73342907  1
  O2-  O237  1  0.70261005  0.83164473  0.06298028  1
  O2-  O238  1  0.71259617  0.83486237  0.39838620  1
  O2-  O239  1  0.70996590  0.82932381  0.73637090  1
  O2-  O240  1  0.45061255  0.41417048  0.26784363  1
  O2-  O241  1  0.46271967  0.40989723  0.60011090  1
  O2-  O242  1  0.46637112  0.41752342  0.93313380  1
  O2-  O243  1  0.45780816  0.91349136  0.26788761  1
  O2-  O244  1  0.45549633  0.91962570  0.60866852  1
  O2-  O245  1  0.45346011  0.91375393  0.93621831  1
  O2-  O246  1  0.95944943  0.41273543  0.26912871  1
  O2-  O247  1  0.95478092  0.41582942  0.59694577  1
  O2-  O248  1  0.94715562  0.41466378  0.93557808  1
  O2-  O249  1  0.94714705  0.92143880  0.27315489  1
  O2-  O250  1  0.94935222  0.92332973  0.59809325  1
  O2-  O251  1  0.95180054  0.91534831  0.94028687  1
  O2-  O252  1  0.33104730  0.29527129  0.27174993  1
  O2-  O253  1  0.33436575  0.30069895  0.60536434  1
  O2-  O254  1  0.33558043  0.29495570  0.92596528  1
  O2-  O255  1  0.33597101  0.79616278  0.26941484  1
  O2-  O256  1  0.33786937  0.79762883  0.60468517  1
  O2-  O257  1  0.33968954  0.78913868  0.93736049  1
  O2-  O258  1  0.83717224  0.29659280  0.26755759  1
  O2-  O259  1  0.83281311  0.28515942  0.59575406  1
  O2-  O260  1  0.83195308  0.29147924  0.94093873  1
  O2-  O261  1  0.83732999  0.79281568  0.26592776  1
  O2-  O262  1  0.83102406  0.79133521  0.59785019  1
  O2-  O263  1  0.83283922  0.79668147  0.93783935  1
  O2-  O264  1  0.41709644  0.04850456  0.05955487  1
  O2-  O265  1  0.41913478  0.04330389  0.39730249  1
  O2-  O266  1  0.41917061  0.04593944  0.74187900  1
  O2-  O267  1  0.41414643  0.53602607  0.07143279  1
  O2-  O268  1  0.41804250  0.54303659  0.39484639  1
  O2-  O269  1  0.41337432  0.53247050  0.73441400  1
  O2-  O270  1  0.91351854  0.03727203  0.07209443  1
  O2-  O271  1  0.91546411  0.05368606  0.39928888  1
  O2-  O272  1  0.91646979  0.05417976  0.72406180  1
  O2-  O273  1  0.91820460  0.54609866  0.05998793  1
  O2-  O274  1  0.91312043  0.53557100  0.40312708  1
  O2-  O275  1  0.91791691  0.54429850  0.72870802  1
  O2-  O276  1  0.29919220  0.17091339  0.05684916  1
  O2-  O277  1  0.29347510  0.16883077  0.40156609  1
  O2-  O278  1  0.29798829  0.17500008  0.73419654  1
  O2-  O279  1  0.29323305  0.66650566  0.07193171  1
  O2-  O280  1  0.30285327  0.66616792  0.39460889  1
  O2-  O281  1  0.29594776  0.66690098  0.73244228  1
  O2-  O282  1  0.79174436  0.16411330  0.07161996  1
  O2-  O283  1  0.79576952  0.17088844  0.39444137  1
  O2-  O284  1  0.78759267  0.16281791  0.73048048  1
  O2-  O285  1  0.79671550  0.66546027  0.06291448  1
  O2-  O286  1  0.79150966  0.66707262  0.40034942  1
  O2-  O287  1  0.79943860  0.66453988  0.73121823  1
