# generated using pymatgen
data_Ca2Al2SiO7
_symmetry_space_group_name_H-M   'P 1'
_cell_length_a   15.45826007
_cell_length_b   15.45922627
_cell_length_c   15.28382918
_cell_angle_alpha   89.99296724
_cell_angle_beta   90.01108805
_cell_angle_gamma   89.98007250
_symmetry_Int_Tables_number   1
_chemical_formula_structural   Ca2Al2SiO7
_chemical_formula_sum   'Ca48 Al48 Si24 O168'
_cell_volume   3652.41822201
_cell_formula_units_Z   24
loop_
 _symmetry_equiv_pos_site_id
 _symmetry_equiv_pos_as_xyz
  1  'x, y, z'
loop_
 _atom_type_symbol
 _atom_type_oxidation_number
  Ca2+  2.0
  Al0+  0.0
  Si0+  0.0
  O2-  -2.0
loop_
 _atom_site_type_symbol
 _atom_site_label
 _atom_site_symmetry_multiplicity
 _atom_site_fract_x
 _atom_site_fract_y
 _atom_site_fract_z
 _atom_site_occupancy
  Ca2+  Ca0  1  0.17533885  0.08560034  0.16665257  1
  Ca2+  Ca1  1  0.17434298  0.08903965  0.50406834  1
  Ca2+  Ca2  1  0.16859901  0.08431358  0.84463281  1
  Ca2+  Ca3  1  0.16442697  0.57925360  0.17381679  1
  Ca2+  Ca4  1  0.16549309  0.56922152  0.50700585  1
  Ca2+  Ca5  1  0.16040755  0.58091606  0.83680635  1
  Ca2+  Ca6  1  0.67047653  0.09063306  0.17600866  1
  Ca2+  Ca7  1  0.67858085  0.09534645  0.49942579  1
  Ca2+  Ca8  1  0.67346263  0.08791192  0.83963497  1
  Ca2+  Ca9  1  0.66109527  0.57369514  0.17080353  1
  Ca2+  Ca10  1  0.65829130  0.58006209  0.50110874  1
  Ca2+  Ca11  1  0.66242723  0.57868450  0.84300517  1
  Ca2+  Ca12  1  0.07172904  0.33295637  0.16141100  1
  Ca2+  Ca13  1  0.08142017  0.33176176  0.49483514  1
  Ca2+  Ca14  1  0.08485138  0.32276655  0.82864410  1
  Ca2+  Ca15  1  0.07877186  0.83213062  0.15510079  1
  Ca2+  Ca16  1  0.08622797  0.82583414  0.49906478  1
  Ca2+  Ca17  1  0.08527305  0.82864061  0.83423636  1
  Ca2+  Ca18  1  0.58738082  0.32478909  0.16426865  1
  Ca2+  Ca19  1  0.57057408  0.33325387  0.48938792  1
  Ca2+  Ca20  1  0.57858950  0.33062036  0.83340687  1
  Ca2+  Ca21  1  0.58057991  0.82487298  0.16358925  1
  Ca2+  Ca22  1  0.58199570  0.82184182  0.49106290  1
  Ca2+  Ca23  1  0.58590445  0.82070730  0.82998324  1
  Ca2+  Ca24  1  0.32540426  0.41400653  0.17545132  1
  Ca2+  Ca25  1  0.32487257  0.40569149  0.50362338  1
  Ca2+  Ca26  1  0.32902546  0.41260770  0.83254747  1
  Ca2+  Ca27  1  0.33309813  0.92526363  0.17076728  1
  Ca2+  Ca28  1  0.34048688  0.92140293  0.49747034  1
  Ca2+  Ca29  1  0.32457025  0.92443993  0.84639416  1
  Ca2+  Ca30  1  0.82470831  0.40783789  0.17167684  1
  Ca2+  Ca31  1  0.82611994  0.41138903  0.49813390  1
  Ca2+  Ca32  1  0.82701416  0.41655344  0.84251712  1
  Ca2+  Ca33  1  0.83452467  0.92253614  0.17176615  1
  Ca2+  Ca34  1  0.83220811  0.93026475  0.50425314  1
  Ca2+  Ca35  1  0.83751544  0.92062104  0.83645470  1
  Ca2+  Ca36  1  0.42120025  0.16560588  0.16563519  1
  Ca2+  Ca37  1  0.41961166  0.17524512  0.48985412  1
  Ca2+  Ca38  1  0.41876047  0.16860780  0.83146453  1
  Ca2+  Ca39  1  0.42490699  0.66830393  0.16660770  1
  Ca2+  Ca40  1  0.42544938  0.67255074  0.49210215  1
  Ca2+  Ca41  1  0.42728518  0.66250464  0.82980238  1
  Ca2+  Ca42  1  0.91741571  0.17592788  0.16083353  1
  Ca2+  Ca43  1  0.92006925  0.16633070  0.49448189  1
  Ca2+  Ca44  1  0.92657816  0.16813966  0.83156659  1
  Ca2+  Ca45  1  0.92255442  0.67447600  0.15667071  1
  Ca2+  Ca46  1  0.92299768  0.66309304  0.49936424  1
  Ca2+  Ca47  1  0.92652165  0.67189702  0.83386354  1
  Al0+  Al48  1  -0.00014431  0.00098518  -0.00160384  1
  Al0+  Al49  1  0.00117744  -0.00193955  0.33896790  1
  Al0+  Al50  1  0.00065794  0.00096592  0.66650147  1
  Al0+  Al51  1  -0.00297445  0.50226248  -0.00578005  1
  Al0+  Al52  1  -0.00082558  0.49860904  0.33404689  1
  Al0+  Al53  1  -0.00162042  0.49944596  0.66860713  1
  Al0+  Al54  1  0.50161092  0.00052282  -0.00159285  1
  Al0+  Al55  1  0.50018167  -0.00181089  0.33263425  1
  Al0+  Al56  1  0.50232757  -0.00067708  0.66843387  1
  Al0+  Al57  1  0.49897747  0.49879140  0.00179875  1
  Al0+  Al58  1  0.49780812  0.50019665  0.33064489  1
  Al0+  Al59  1  0.49783684  0.49967425  0.65957221  1
  Al0+  Al60  1  0.25016707  0.25201705  0.00270639  1
  Al0+  Al61  1  0.24962508  0.24751207  0.33776837  1
  Al0+  Al62  1  0.24883734  0.24984858  0.66532842  1
  Al0+  Al63  1  0.25044107  0.75019081  0.00137272  1
  Al0+  Al64  1  0.25117510  0.74961639  0.33116458  1
  Al0+  Al65  1  0.25110098  0.74935113  0.66246734  1
  Al0+  Al66  1  0.74760316  0.25078200  -0.00483177  1
  Al0+  Al67  1  0.75116205  0.25238676  0.33742278  1
  Al0+  Al68  1  0.75104053  0.25072174  0.67461636  1
  Al0+  Al69  1  0.75087976  0.75024896  -0.00735353  1
  Al0+  Al70  1  0.75296362  0.74915943  0.33104639  1
  Al0+  Al71  1  0.75088937  0.75008872  0.66218004  1
  Al0+  Al72  1  0.32320267  0.07338019  0.01574168  1
  Al0+  Al73  1  0.17773349  0.92884034  0.01536345  1
  Al0+  Al74  1  0.42495201  0.32050042  0.31677628  1
  Al0+  Al75  1  0.42817988  0.82183254  0.31633192  1
  Al0+  Al76  1  0.67905706  0.42944593  0.01414215  1
  Al0+  Al77  1  0.56871530  0.67829181  0.98640647  1
  Al0+  Al78  1  0.17807867  0.42946138  0.34641204  1
  Al0+  Al79  1  0.57131675  0.67938736  0.65197506  1
  Al0+  Al80  1  0.07134126  0.67787375  0.65146838  1
  Al0+  Al81  1  0.06974599  0.17884987  0.65160817  1
  Al0+  Al82  1  0.92634428  0.32174058  0.98370884  1
  Al0+  Al83  1  0.67815372  0.43093727  0.34770834  1
  Al0+  Al84  1  0.07392539  0.67907513  0.98602266  1
  Al0+  Al85  1  0.82139439  0.07139449  0.68363637  1
  Al0+  Al86  1  0.82104100  0.07136489  0.34576331  1
  Al0+  Al87  1  0.32173468  0.06899453  0.34888168  1
  Al0+  Al88  1  0.92848454  0.82358135  0.98483599  1
  Al0+  Al89  1  0.57019381  0.17776987  0.98569025  1
  Al0+  Al90  1  0.57342864  0.67784944  0.31603074  1
  Al0+  Al91  1  0.07201536  0.18187118  0.98736422  1
  Al0+  Al92  1  0.17835440  0.42874632  0.68265746  1
  Al0+  Al93  1  0.93062046  0.31998214  0.32145404  1
  Al0+  Al94  1  0.57176761  0.18107649  0.32097871  1
  Al0+  Al95  1  0.42994868  0.31796676  0.65345219  1
  Si0+  Si96  1  0.92620236  0.32207573  0.64969132  1
  Si0+  Si97  1  0.93101942  0.82246906  0.32014840  1
  Si0+  Si98  1  0.07216227  0.17483233  0.31767457  1
  Si0+  Si99  1  0.92928141  0.82219654  0.64722707  1
  Si0+  Si100  1  0.67923211  0.92537533  0.34894932  1
  Si0+  Si101  1  0.67925947  0.92631574  0.68401154  1
  Si0+  Si102  1  0.82080079  0.57262659  0.68261806  1
  Si0+  Si103  1  0.17804198  0.92567528  0.35232460  1
  Si0+  Si104  1  0.18062469  0.92701139  0.68084989  1
  Si0+  Si105  1  0.06969293  0.67845852  0.32041408  1
  Si0+  Si106  1  0.32088573  0.57328654  0.35088452  1
  Si0+  Si107  1  0.67974199  0.92647976  0.01405366  1
  Si0+  Si108  1  0.42692471  0.32238972  0.98393055  1
  Si0+  Si109  1  0.42804321  0.82402461  0.65092882  1
  Si0+  Si110  1  0.82260022  0.57368322  0.35020772  1
  Si0+  Si111  1  0.67659341  0.43176393  0.68191623  1
  Si0+  Si112  1  0.57432521  0.17692581  0.65104982  1
  Si0+  Si113  1  0.32125953  0.57208808  0.68265215  1
  Si0+  Si114  1  0.32171167  0.07062647  0.68144566  1
  Si0+  Si115  1  0.81928359  0.07072942  0.01483229  1
  Si0+  Si116  1  0.32166838  0.57097973  0.01491133  1
  Si0+  Si117  1  0.42871009  0.82267421  0.98264737  1
  Si0+  Si118  1  0.82152982  0.57346245  0.01591867  1
  Si0+  Si119  1  0.17668257  0.43103074  0.01423706  1
  O2-  O120  1  0.25060575  0.00053999  0.06424270  1
  O2-  O121  1  0.24635350  -0.00540255  0.39669210  1
  O2-  O122  1  0.25258286  -0.00264798  0.72257598  1
  O2-  O123  1  0.24546190  0.50456524  0.05589393  1
  O2-  O124  1  0.25506592  0.50159272  0.39467546  1
  O2-  O125  1  0.25094422  0.50626423  0.72914891  1
  O2-  O126  1  0.74879280  -0.00095775  0.05701781  1
  O2-  O127  1  0.74421369  -0.00193641  0.39292832  1
  O2-  O128  1  0.74477621  -0.00253282  0.72943396  1
  O2-  O129  1  0.75474412  0.50362397  0.06056710  1
  O2-  O130  1  0.74971035  0.50941471  0.39475213  1
  O2-  O131  1  0.74737140  0.50337378  0.72400469  1
  O2-  O132  1  0.00390978  0.24423665  0.27460143  1
  O2-  O133  1  -0.00580586  0.25291254  0.60546375  1
  O2-  O134  1  0.00186660  0.25379071  0.93395490  1
  O2-  O135  1  0.00156166  0.75144878  0.27798363  1
  O2-  O136  1  -0.00254163  0.75279164  0.60291254  1
  O2-  O137  1  0.00389297  0.75372578  0.93687169  1
  O2-  O138  1  0.49944825  0.25086632  0.26764348  1
  O2-  O139  1  0.50461671  0.24355414  0.60685962  1
  O2-  O140  1  0.49256342  0.25021188  0.94054778  1
  O2-  O141  1  0.50173514  0.75085665  0.26741096  1
  O2-  O142  1  0.49849451  0.75664844  0.60769580  1
  O2-  O143  1  0.49543982  0.75290031  0.93691023  1
  O2-  O144  1  0.07121517  0.18369517  0.10096220  1
  O2-  O145  1  0.07021528  0.17497122  0.42370944  1
  O2-  O146  1  0.07127833  0.17895722  0.76443517  1
  O2-  O147  1  0.07066921  0.67729414  0.10012283  1
  O2-  O148  1  0.06763519  0.67871357  0.42569313  1
  O2-  O149  1  0.07007820  0.68043292  0.76390784  1
  O2-  O150  1  0.57440876  0.17885569  0.09807914  1
  O2-  O151  1  0.57209537  0.18416197  0.43504913  1
  O2-  O152  1  0.57270821  0.17748487  0.75686138  1
  O2-  O153  1  0.56773056  0.67898992  0.09867114  1
  O2-  O154  1  0.57239037  0.68071038  0.43003976  1
  O2-  O155  1  0.56983632  0.67853937  0.76531356  1
  O2-  O156  1  0.17541574  0.43425497  0.23295716  1
  O2-  O157  1  0.17920043  0.42896950  0.56961896  1
  O2-  O158  1  0.17956422  0.42977471  0.90904477  1
  O2-  O159  1  0.17511354  0.92511142  0.24726947  1
  O2-  O160  1  0.18158423  0.92617626  0.57569167  1
  O2-  O161  1  0.18058332  0.92843929  0.90094795  1
  O2-  O162  1  0.68209423  0.42921460  0.23489219  1
  O2-  O163  1  0.67739644  0.43145172  0.57693383  1
  O2-  O164  1  0.67751760  0.43250419  0.90020492  1
  O2-  O165  1  0.68358220  0.92224408  0.24328077  1
  O2-  O166  1  0.68071489  0.92451064  0.57863668  1
  O2-  O167  1  0.68085073  0.92624515  0.90870424  1
  O2-  O168  1  0.42623745  0.32485825  0.08889138  1
  O2-  O169  1  0.42565842  0.31767046  0.43070725  1
  O2-  O170  1  0.43152179  0.31781783  0.76691317  1
  O2-  O171  1  0.43100823  0.82188263  0.08776673  1
  O2-  O172  1  0.42924033  0.81889582  0.43067004  1
  O2-  O173  1  0.42718549  0.82391851  0.75644812  1
  O2-  O174  1  0.92681716  0.31923214  0.09753436  1
  O2-  O175  1  0.93131651  0.31990517  0.43474721  1
  O2-  O176  1  0.92582032  0.32142710  0.75506318  1
  O2-  O177  1  0.92718837  0.82136483  0.09904142  1
  O2-  O178  1  0.93195391  0.82245660  0.42522565  1
  O2-  O179  1  0.92915953  0.82152816  0.75252264  1
  O2-  O180  1  0.31972901  0.06917060  0.23631614  1
  O2-  O181  1  0.32184915  0.06937266  0.57648452  1
  O2-  O182  1  0.32243110  0.07158050  0.90110091  1
  O2-  O183  1  0.31636382  0.57583165  0.24495990  1
  O2-  O184  1  0.32028883  0.57195590  0.57743390  1
  O2-  O185  1  0.32498847  0.56871980  0.90965158  1
  O2-  O186  1  0.82236526  0.06862489  0.23257808  1
  O2-  O187  1  0.81991417  0.07109664  0.57031374  1
  O2-  O188  1  0.81763600  0.06942250  0.90954920  1
  O2-  O189  1  0.82606305  0.57498482  0.24504239  1
  O2-  O190  1  0.82192847  0.57194211  0.57745492  1
  O2-  O191  1  0.81929310  0.57366584  0.90990189  1
  O2-  O192  1  0.04665834  0.08038264  0.27407828  1
  O2-  O193  1  0.04097701  0.08174435  0.59743052  1
  O2-  O194  1  0.04364679  0.08377300  0.93460934  1
  O2-  O195  1  0.03927363  0.58824004  0.27233969  1
  O2-  O196  1  0.03694594  0.58158601  0.59861224  1
  O2-  O197  1  0.04173960  0.58341696  0.92978545  1
  O2-  O198  1  0.54959717  0.08002040  0.27196768  1
  O2-  O199  1  0.55330658  0.08132289  0.60743045  1
  O2-  O200  1  0.54474659  0.08041872  0.92950515  1
  O2-  O201  1  0.54241147  0.58059016  0.26386698  1
  O2-  O202  1  0.53771211  0.58494845  0.59662880  1
  O2-  O203  1  0.53498444  0.58222889  0.93244584  1
  O2-  O204  1  0.16596795  0.19973844  0.27420034  1
  O2-  O205  1  0.16569770  0.21086385  0.59773048  1
  O2-  O206  1  0.17070406  0.21026690  0.93388280  1
  O2-  O207  1  0.16253448  0.70241653  0.27454091  1
  O2-  O208  1  0.16812513  0.70762619  0.59691229  1
  O2-  O209  1  0.17343225  0.70317100  0.93281939  1
  O2-  O210  1  0.66991574  0.21149748  0.26898649  1
  O2-  O211  1  0.66863364  0.20533325  0.60877404  1
  O2-  O212  1  0.66340750  0.21291087  0.92804067  1
  O2-  O213  1  0.67340188  0.70459021  0.26537994  1
  O2-  O214  1  0.66840550  0.70783610  0.59770115  1
  O2-  O215  1  0.66475243  0.70839275  0.93123182  1
  O2-  O216  1  0.08319504  0.45794445  0.05892859  1
  O2-  O217  1  0.08304938  0.46374402  0.40245158  1
  O2-  O218  1  0.08077078  0.45815095  0.73536528  1
  O2-  O219  1  0.07848634  0.95627132  0.06751439  1
  O2-  O220  1  0.08486746  0.94927226  0.40100553  1
  O2-  O221  1  0.08818615  0.95419664  0.72641681  1
  O2-  O222  1  0.58259705  0.46045861  0.06779886  1
  O2-  O223  1  0.57974158  0.45965363  0.40037012  1
  O2-  O224  1  0.58421685  0.46049217  0.72777225  1
  O2-  O225  1  0.58693101  0.95113832  0.05999121  1
  O2-  O226  1  0.58419174  0.94463739  0.39357375  1
  O2-  O227  1  0.58413560  0.94747701  0.73011931  1
  O2-  O228  1  0.20598573  0.34091369  0.06348754  1
  O2-  O229  1  0.20517690  0.33201825  0.40044345  1
  O2-  O230  1  0.21368889  0.33296195  0.73630930  1
  O2-  O231  1  0.20447980  0.82927725  0.06787810  1
  O2-  O232  1  0.20532452  0.83181782  0.39829639  1
  O2-  O233  1  0.20821618  0.83473722  0.72800997  1
  O2-  O234  1  0.71077431  0.33215924  0.06609830  1
  O2-  O235  1  0.71326186  0.33748313  0.40536489  1
  O2-  O236  1  0.70393678  0.34027040  0.73054784  1
  O2-  O237  1  0.70981265  0.83522391  0.06135744  1
  O2-  O238  1  0.71086858  0.83382550  0.39734356  1
  O2-  O239  1  0.70842367  0.83312461  0.73029642  1
  O2-  O240  1  0.44609750  0.42156687  0.26795112  1
  O2-  O241  1  0.45813732  0.41412085  0.59783750  1
  O2-  O242  1  0.45680776  0.41384206  0.93564168  1
  O2-  O243  1  0.45523841  0.91982034  0.26368526  1
  O2-  O244  1  0.45348672  0.91806673  0.60485543  1
  O2-  O245  1  0.45528071  0.91523197  0.93524803  1
  O2-  O246  1  0.96103639  0.41634120  0.26633669  1
  O2-  O247  1  0.95079054  0.41603015  0.60471865  1
  O2-  O248  1  0.94776940  0.42215343  0.93275967  1
  O2-  O249  1  0.95935252  0.91373273  0.27199618  1
  O2-  O250  1  0.95696836  0.91516386  0.60150130  1
  O2-  O251  1  0.95430433  0.92159851  0.93094286  1
  O2-  O252  1  0.32649522  0.28986409  0.26559608  1
  O2-  O253  1  0.33401272  0.28643125  0.59995384  1
  O2-  O254  1  0.33291460  0.29949578  0.93744203  1
  O2-  O255  1  0.32990247  0.79215871  0.26321588  1
  O2-  O256  1  0.33594900  0.79784052  0.60235142  1
  O2-  O257  1  0.33445716  0.79802056  0.93805750  1
  O2-  O258  1  0.83449916  0.28915712  0.26824307  1
  O2-  O259  1  0.83129270  0.29603735  0.60602473  1
  O2-  O260  1  0.83027631  0.29039879  0.92870982  1
  O2-  O261  1  0.83970907  0.79634689  0.27152538  1
  O2-  O262  1  0.83610429  0.79659704  0.60041925  1
  O2-  O263  1  0.83288785  0.79267442  0.92723105  1
  O2-  O264  1  0.42248853  0.04384860  0.06634961  1
  O2-  O265  1  0.41856334  0.03777997  0.40390281  1
  O2-  O266  1  0.41543986  0.04633265  0.72800465  1
  O2-  O267  1  0.41028982  0.53834074  0.06533676  1
  O2-  O268  1  0.41605204  0.55227447  0.39472756  1
  O2-  O269  1  0.41445645  0.54205033  0.72853413  1
  O2-  O270  1  0.91135732  0.04495073  0.06171174  1
  O2-  O271  1  0.91601239  0.03713713  0.40253898  1
  O2-  O272  1  0.91809882  0.03783805  0.73602204  1
  O2-  O273  1  0.91647961  0.55128316  0.06124274  1
  O2-  O274  1  0.91375075  0.54227273  0.39893430  1
  O2-  O275  1  0.91112002  0.54331242  0.73188466  1
  O2-  O276  1  0.29492672  0.17200698  0.06861503  1
  O2-  O277  1  0.28940507  0.16406031  0.40561517  1
  O2-  O278  1  0.29096828  0.16118118  0.72869324  1
  O2-  O279  1  0.29943903  0.66412166  0.06199632  1
  O2-  O280  1  0.29299715  0.66593522  0.39848488  1
  O2-  O281  1  0.29965868  0.66737738  0.72779320  1
  O2-  O282  1  0.78871465  0.16254442  0.05992675  1
  O2-  O283  1  0.79131500  0.16661604  0.40292876  1
  O2-  O284  1  0.79207177  0.16759700  0.73983626  1
  O2-  O285  1  0.79525217  0.66766223  0.06050698  1
  O2-  O286  1  0.80283539  0.66874261  0.39719170  1
  O2-  O287  1  0.79555425  0.66611226  0.72788436  1
