# generated using pymatgen
data_Ca2Al2SiO7
_symmetry_space_group_name_H-M   'P 1'
_cell_length_a   15.45808361
_cell_length_b   15.45825668
_cell_length_c   15.28407951
_cell_angle_alpha   89.99342568
_cell_angle_beta   89.99962631
_cell_angle_gamma   90.01783483
_symmetry_Int_Tables_number   1
_chemical_formula_structural   Ca2Al2SiO7
_chemical_formula_sum   'Ca48 Al48 Si24 O168'
_cell_volume   3652.20738881
_cell_formula_units_Z   24
loop_
 _symmetry_equiv_pos_site_id
 _symmetry_equiv_pos_as_xyz
  1  'x, y, z'
loop_
 _atom_type_symbol
 _atom_type_oxidation_number
  Ca2+  2.0
  Al0+  0.0
  Si0+  0.0
  O2-  -2.0
loop_
 _atom_site_type_symbol
 _atom_site_label
 _atom_site_symmetry_multiplicity
 _atom_site_fract_x
 _atom_site_fract_y
 _atom_site_fract_z
 _atom_site_occupancy
  Ca2+  Ca0  1  0.17002714  0.08550355  0.16701728  1
  Ca2+  Ca1  1  0.16397475  0.08313058  0.50317816  1
  Ca2+  Ca2  1  0.16224343  0.07550901  0.84136541  1
  Ca2+  Ca3  1  0.17028233  0.58523055  0.16538269  1
  Ca2+  Ca4  1  0.17343621  0.58666271  0.50114912  1
  Ca2+  Ca5  1  0.16868348  0.58078700  0.84878190  1
  Ca2+  Ca6  1  0.68205198  0.07877062  0.17193486  1
  Ca2+  Ca7  1  0.67377466  0.07081905  0.50174020  1
  Ca2+  Ca8  1  0.67436626  0.07771400  0.84067350  1
  Ca2+  Ca9  1  0.66777489  0.58068212  0.16798779  1
  Ca2+  Ca10  1  0.68070936  0.58179994  0.50637099  1
  Ca2+  Ca11  1  0.67211301  0.57684905  0.83765218  1
  Ca2+  Ca12  1  0.07850342  0.32442103  0.15536423  1
  Ca2+  Ca13  1  0.08388561  0.32001014  0.49373859  1
  Ca2+  Ca14  1  0.08510834  0.32352290  0.83295781  1
  Ca2+  Ca15  1  0.08025834  0.83074726  0.15998099  1
  Ca2+  Ca16  1  0.06962953  0.83913186  0.49814437  1
  Ca2+  Ca17  1  0.08308843  0.83385163  0.82987236  1
  Ca2+  Ca18  1  0.58284542  0.33422212  0.15776631  1
  Ca2+  Ca19  1  0.58522426  0.33555023  0.49952108  1
  Ca2+  Ca20  1  0.58630609  0.33736052  0.83106928  1
  Ca2+  Ca21  1  0.57783066  0.82907709  0.15737928  1
  Ca2+  Ca22  1  0.58801561  0.83708517  0.49411908  1
  Ca2+  Ca23  1  0.57887325  0.83247040  0.83232735  1
  Ca2+  Ca24  1  0.32772759  0.42839549  0.16584298  1
  Ca2+  Ca25  1  0.33351543  0.42269465  0.49968372  1
  Ca2+  Ca26  1  0.32443768  0.42350028  0.84478567  1
  Ca2+  Ca27  1  0.32889099  0.92157696  0.16502052  1
  Ca2+  Ca28  1  0.32378324  0.92427625  0.50470138  1
  Ca2+  Ca29  1  0.32177211  0.91944628  0.84447394  1
  Ca2+  Ca30  1  0.83353042  0.41929569  0.16708082  1
  Ca2+  Ca31  1  0.83427773  0.43006365  0.50631102  1
  Ca2+  Ca32  1  0.82638840  0.41365579  0.84048433  1
  Ca2+  Ca33  1  0.83492052  0.92489239  0.17351882  1
  Ca2+  Ca34  1  0.82972161  0.91216315  0.50230027  1
  Ca2+  Ca35  1  0.83376594  0.91871750  0.83423115  1
  Ca2+  Ca36  1  0.41542621  0.16093547  0.16146249  1
  Ca2+  Ca37  1  0.41706698  0.16663742  0.49237063  1
  Ca2+  Ca38  1  0.41410447  0.16570001  0.83244736  1
  Ca2+  Ca39  1  0.41846926  0.66970728  0.15365044  1
  Ca2+  Ca40  1  0.41968005  0.66833448  0.49293321  1
  Ca2+  Ca41  1  0.41789037  0.66836058  0.83824258  1
  Ca2+  Ca42  1  0.92337009  0.16499893  0.15740762  1
  Ca2+  Ca43  1  0.92790796  0.15936244  0.49357019  1
  Ca2+  Ca44  1  0.92414605  0.16644156  0.83505920  1
  Ca2+  Ca45  1  0.91634829  0.67274052  0.16245379  1
  Ca2+  Ca46  1  0.90693033  0.67480441  0.49589747  1
  Ca2+  Ca47  1  0.92189546  0.66952467  0.82853564  1
  Al0+  Al48  1  -0.00042305  0.00018497  0.00372043  1
  Al0+  Al49  1  0.00044922  -0.00105928  0.32661577  1
  Al0+  Al50  1  0.00074743  -0.00116409  0.66213806  1
  Al0+  Al51  1  -0.00273921  0.50018167  -0.00360235  1
  Al0+  Al52  1  0.00065264  0.49853865  0.33875422  1
  Al0+  Al53  1  0.00321212  0.49984145  0.66811528  1
  Al0+  Al54  1  0.49932894  -0.00085511  -0.00276516  1
  Al0+  Al55  1  0.49813113  0.00042045  0.33933257  1
  Al0+  Al56  1  0.50070647  0.00094492  0.66831865  1
  Al0+  Al57  1  0.50147477  0.49936862  0.00207463  1
  Al0+  Al58  1  0.49791565  0.49978612  0.33678497  1
  Al0+  Al59  1  0.50072257  0.50073135  0.66701802  1
  Al0+  Al60  1  0.25012041  0.25035340  0.00236287  1
  Al0+  Al61  1  0.25112809  0.25034522  0.33220567  1
  Al0+  Al62  1  0.25225297  0.25240701  0.66014084  1
  Al0+  Al63  1  0.24971325  0.75180813  -0.00031378  1
  Al0+  Al64  1  0.25032025  0.75003550  0.33882855  1
  Al0+  Al65  1  0.25157975  0.75226594  0.66792374  1
  Al0+  Al66  1  0.74955598  0.24976327  0.00467013  1
  Al0+  Al67  1  0.74997389  0.24805315  0.33776052  1
  Al0+  Al68  1  0.74998888  0.25061021  0.66580102  1
  Al0+  Al69  1  0.74830737  0.74844674  -0.00600589  1
  Al0+  Al70  1  0.74882842  0.74779060  0.33290293  1
  Al0+  Al71  1  0.74955742  0.74969073  0.67262142  1
  Al0+  Al72  1  0.17472885  0.42842536  0.01431047  1
  Al0+  Al73  1  0.92634306  0.32089499  0.98544593  1
  Al0+  Al74  1  0.42865380  0.82261613  0.98414862  1
  Al0+  Al75  1  0.68025179  0.42947501  0.01479459  1
  Al0+  Al76  1  0.81981281  0.06943304  0.01220321  1
  Al0+  Al77  1  0.67994112  0.42902069  0.68167527  1
  Al0+  Al78  1  0.82406572  0.57196148  0.68445236  1
  Al0+  Al79  1  0.07251421  0.17867320  0.98425233  1
  Al0+  Al80  1  0.67968268  0.92871686  0.34549282  1
  Al0+  Al81  1  0.32070745  0.57184423  0.34801698  1
  Al0+  Al82  1  0.07121844  0.17936457  0.31680793  1
  Al0+  Al83  1  0.67778467  0.92929922  0.68298619  1
  Al0+  Al84  1  0.06978387  0.68007541  0.98883725  1
  Al0+  Al85  1  0.32199399  0.07179269  0.01349808  1
  Al0+  Al86  1  0.17851977  0.93129965  0.67951862  1
  Al0+  Al87  1  0.57170754  0.67634864  0.98299943  1
  Al0+  Al88  1  0.92922473  0.81762577  0.65345281  1
  Al0+  Al89  1  0.31934050  0.07142226  0.34807372  1
  Al0+  Al90  1  0.92766713  0.81809169  0.31846453  1
  Al0+  Al91  1  0.82128129  0.56948514  0.34512417  1
  Al0+  Al92  1  0.17708808  0.92845733  0.01638348  1
  Al0+  Al93  1  0.07021145  0.18049915  0.65192304  1
  Al0+  Al94  1  0.32027295  0.57133940  0.01357927  1
  Al0+  Al95  1  0.82456756  0.07090714  0.34962811  1
  Si0+  Si96  1  0.92707375  0.32348126  0.31838665  1
  Si0+  Si97  1  0.07569296  0.67615485  0.64951623  1
  Si0+  Si98  1  0.32125023  0.57190804  0.68172789  1
  Si0+  Si99  1  0.67634507  0.42694595  0.35004132  1
  Si0+  Si100  1  0.57027862  0.17815459  0.31900030  1
  Si0+  Si101  1  0.82191214  0.57402691  0.01661690  1
  Si0+  Si102  1  0.42966063  0.32092411  0.98592990  1
  Si0+  Si103  1  0.56847181  0.67968434  0.65015002  1
  Si0+  Si104  1  0.17777301  0.92701996  0.35100710  1
  Si0+  Si105  1  0.42864487  0.82280349  0.64914259  1
  Si0+  Si106  1  0.67760069  0.92605443  0.01487847  1
  Si0+  Si107  1  0.18194945  0.42805639  0.68007771  1
  Si0+  Si108  1  0.42796522  0.82162175  0.32033125  1
  Si0+  Si109  1  0.82288290  0.07156620  0.68240402  1
  Si0+  Si110  1  0.17911513  0.42777391  0.35129551  1
  Si0+  Si111  1  0.07385408  0.67658745  0.31876179  1
  Si0+  Si112  1  0.92694063  0.82311755  0.98312055  1
  Si0+  Si113  1  0.56905276  0.67811322  0.31957080  1
  Si0+  Si114  1  0.92689743  0.32345296  0.64868076  1
  Si0+  Si115  1  0.57133303  0.17907498  0.98615678  1
  Si0+  Si116  1  0.57215530  0.17740901  0.65048507  1
  Si0+  Si117  1  0.43063358  0.32209968  0.31652597  1
  Si0+  Si118  1  0.32150352  0.07427099  0.68199255  1
  Si0+  Si119  1  0.43092490  0.32183065  0.65000763  1
  O2-  O120  1  0.24870860  0.00219379  0.06446579  1
  O2-  O121  1  0.24319118  -0.00061844  0.39526649  1
  O2-  O122  1  0.25258621  0.00687413  0.72559157  1
  O2-  O123  1  0.24491006  0.50288530  0.06368753  1
  O2-  O124  1  0.24494428  0.49939979  0.39655203  1
  O2-  O125  1  0.24578654  0.50543836  0.72219367  1
  O2-  O126  1  0.74833545  -0.00847320  0.05907132  1
  O2-  O127  1  0.75382447  -0.00303134  0.39852466  1
  O2-  O128  1  0.75228575  0.00496648  0.72729608  1
  O2-  O129  1  0.75350038  0.50497945  0.06109758  1
  O2-  O130  1  0.74855219  0.49236332  0.39225956  1
  O2-  O131  1  0.75554865  0.49563701  0.73269194  1
  O2-  O132  1  -0.00721488  0.25235619  0.27423998  1
  O2-  O133  1  -0.00554801  0.25396130  0.60376354  1
  O2-  O134  1  0.00147831  0.25229864  0.93480728  1
  O2-  O135  1  0.00334940  0.74281728  0.27448494  1
  O2-  O136  1  0.00302738  0.74089298  0.60594541  1
  O2-  O137  1  -0.00394670  0.75444432  0.94003743  1
  O2-  O138  1  0.50290048  0.25210785  0.27524533  1
  O2-  O139  1  0.50175698  0.25004147  0.60832305  1
  O2-  O140  1  0.49781228  0.24736838  0.94298914  1
  O2-  O141  1  0.49820454  0.74971400  0.27854665  1
  O2-  O142  1  0.50036911  0.75286646  0.60566714  1
  O2-  O143  1  0.50068665  0.75014466  0.93370473  1
  O2-  O144  1  0.07107499  0.17982544  0.09769090  1
  O2-  O145  1  0.07227393  0.18198498  0.43071311  1
  O2-  O146  1  0.07224913  0.18187274  0.76423071  1
  O2-  O147  1  0.06740332  0.68072996  0.10232748  1
  O2-  O148  1  0.07577689  0.67849568  0.42459020  1
  O2-  O149  1  0.07882295  0.67716289  0.75475390  1
  O2-  O150  1  0.57122018  0.18042411  0.09145632  1
  O2-  O151  1  0.56791937  0.17956409  0.42447263  1
  O2-  O152  1  0.57056275  0.17641549  0.75554967  1
  O2-  O153  1  0.57137232  0.67751446  0.09744197  1
  O2-  O154  1  0.56750581  0.67720304  0.42510758  1
  O2-  O155  1  0.56401497  0.67714888  0.75451947  1
  O2-  O156  1  0.18023500  0.42800031  0.24641339  1
  O2-  O157  1  0.18637156  0.42656572  0.57477161  1
  O2-  O158  1  0.18032308  0.42821756  0.89988575  1
  O2-  O159  1  0.18141621  0.92256067  0.24613188  1
  O2-  O160  1  0.18038627  0.93198298  0.56611675  1
  O2-  O161  1  0.17713693  0.92985751  0.90235503  1
  O2-  O162  1  0.67265646  0.42828462  0.24475426  1
  O2-  O163  1  0.67747079  0.43266492  0.56771895  1
  O2-  O164  1  0.67980770  0.42862839  0.90206258  1
  O2-  O165  1  0.67762126  0.93139421  0.23224381  1
  O2-  O166  1  0.67624200  0.93065492  0.56998039  1
  O2-  O167  1  0.67768840  0.92939435  0.90902500  1
  O2-  O168  1  0.43276550  0.32236959  0.09111597  1
  O2-  O169  1  0.43197196  0.32318417  0.42227617  1
  O2-  O170  1  0.42835896  0.32200836  0.75481540  1
  O2-  O171  1  0.43214397  0.82341701  0.09848738  1
  O2-  O172  1  0.42863637  0.81981759  0.42598022  1
  O2-  O173  1  0.42770714  0.82169642  0.75356297  1
  O2-  O174  1  0.92519062  0.31826442  0.09940232  1
  O2-  O175  1  0.93021393  0.32571134  0.42425232  1
  O2-  O176  1  0.92679095  0.32235968  0.75374473  1
  O2-  O177  1  0.92467746  0.82093527  0.08882479  1
  O2-  O178  1  0.92725771  0.81667786  0.43188590  1
  O2-  O179  1  0.93231285  0.81898717  0.76629041  1
  O2-  O180  1  0.32256056  0.06928988  0.23597217  1
  O2-  O181  1  0.32211465  0.07369792  0.57608349  1
  O2-  O182  1  0.32329473  0.07121988  0.89957380  1
  O2-  O183  1  0.32291711  0.57078206  0.23604336  1
  O2-  O184  1  0.32255070  0.57022045  0.57612680  1
  O2-  O185  1  0.32036117  0.56731048  0.89933543  1
  O2-  O186  1  0.82095950  0.07246860  0.23627444  1
  O2-  O187  1  0.82150025  0.07038751  0.57684182  1
  O2-  O188  1  0.81735002  0.06914902  0.89860843  1
  O2-  O189  1  0.81896569  0.56941430  0.23239774  1
  O2-  O190  1  0.81987664  0.57199264  0.57019877  1
  O2-  O191  1  0.82074054  0.57455580  0.91135993  1
  O2-  O192  1  0.04577296  0.08176098  0.26370085  1
  O2-  O193  1  0.04018544  0.08426106  0.59673804  1
  O2-  O194  1  0.04000357  0.08025816  0.93322272  1
  O2-  O195  1  0.05181312  0.58057177  0.27657063  1
  O2-  O196  1  0.05696008  0.58010169  0.60443554  1
  O2-  O197  1  0.04091249  0.58408556  0.93212319  1
  O2-  O198  1  0.53779330  0.08761714  0.27254344  1
  O2-  O199  1  0.54191417  0.08677153  0.60135231  1
  O2-  O200  1  0.54648388  0.08731920  0.93709254  1
  O2-  O201  1  0.53974580  0.58592734  0.27350106  1
  O2-  O202  1  0.53741299  0.58895050  0.60091510  1
  O2-  O203  1  0.54063113  0.57841507  0.93031828  1
  O2-  O204  1  0.16820499  0.21313504  0.26550621  1
  O2-  O205  1  0.16690644  0.21397156  0.59689055  1
  O2-  O206  1  0.17203014  0.20625564  0.93217035  1
  O2-  O207  1  0.16760704  0.70451003  0.27361400  1
  O2-  O208  1  0.16890847  0.70543208  0.60271449  1
  O2-  O209  1  0.16655626  0.70802562  0.93389265  1
  O2-  O210  1  0.66395037  0.20258256  0.27336534  1
  O2-  O211  1  0.66381122  0.20440361  0.60188815  1
  O2-  O212  1  0.66089880  0.21064149  0.93749898  1
  O2-  O213  1  0.66013868  0.70392233  0.27098842  1
  O2-  O214  1  0.66188074  0.70624162  0.60592528  1
  O2-  O215  1  0.66941788  0.70324966  0.92759794  1
  O2-  O216  1  0.07545612  0.45427567  0.06561120  1
  O2-  O217  1  0.08551085  0.44907724  0.39952073  1
  O2-  O218  1  0.08773303  0.44643624  0.72519016  1
  O2-  O219  1  0.07903431  0.95414617  0.07004372  1
  O2-  O220  1  0.08313798  0.95213099  0.39377863  1
  O2-  O221  1  0.08181539  0.96077200  0.73259223  1
  O2-  O222  1  0.58397629  0.45896660  0.07002949  1
  O2-  O223  1  0.58411887  0.45550564  0.39786506  1
  O2-  O224  1  0.58117013  0.45969114  0.73327589  1
  O2-  O225  1  0.58465290  0.95371192  0.05975317  1
  O2-  O226  1  0.58299402  0.96000120  0.40176221  1
  O2-  O227  1  0.58116477  0.96147647  0.73658600  1
  O2-  O228  1  0.20766171  0.33247827  0.06815848  1
  O2-  O229  1  0.21200328  0.33689671  0.39896477  1
  O2-  O230  1  0.21792641  0.33913592  0.72771853  1
  O2-  O231  1  0.20760189  0.83141201  0.06988053  1
  O2-  O232  1  0.20646478  0.83586456  0.40095215  1
  O2-  O233  1  0.21078245  0.83456359  0.73249428  1
  O2-  O234  1  0.70908582  0.33367453  0.07118018  1
  O2-  O235  1  0.69661304  0.33199312  0.39556478  1
  O2-  O236  1  0.70099556  0.32745682  0.73183800  1
  O2-  O237  1  0.69912488  0.83037663  0.05780503  1
  O2-  O238  1  0.70405421  0.82911995  0.39820800  1
  O2-  O239  1  0.70639448  0.83318321  0.73693731  1
  O2-  O240  1  0.45833102  0.41435791  0.26971865  1
  O2-  O241  1  0.46022882  0.41330876  0.60101695  1
  O2-  O242  1  0.46069933  0.41061418  0.93656607  1
  O2-  O243  1  0.45622759  0.91373594  0.27455376  1
  O2-  O244  1  0.45563844  0.91595187  0.60306601  1
  O2-  O245  1  0.45821043  0.91980452  0.92786285  1
  O2-  O246  1  0.95456595  0.41685348  0.27216098  1
  O2-  O247  1  0.95522350  0.41734109  0.60317903  1
  O2-  O248  1  0.94736839  0.42069683  0.93272945  1
  O2-  O249  1  0.95817859  0.91385403  0.26363636  1
  O2-  O250  1  0.96110007  0.91327143  0.59736028  1
  O2-  O251  1  0.95264607  0.91654936  0.93783111  1
  O2-  O252  1  0.33917111  0.29433803  0.27007415  1
  O2-  O253  1  0.34096844  0.29477393  0.59778117  1
  O2-  O254  1  0.33774661  0.29579102  0.93752035  1
  O2-  O255  1  0.33569514  0.79354918  0.27472683  1
  O2-  O256  1  0.33742791  0.79325488  0.60042425  1
  O2-  O257  1  0.33093347  0.79382996  0.93058519  1
  O2-  O258  1  0.83048521  0.30217004  0.27643829  1
  O2-  O259  1  0.83208749  0.30121710  0.60260518  1
  O2-  O260  1  0.82885846  0.28713898  0.93251099  1
  O2-  O261  1  0.83149166  0.78594189  0.26397771  1
  O2-  O262  1  0.83065868  0.78796475  0.60116707  1
  O2-  O263  1  0.83358462  0.79816959  0.93603093  1
  O2-  O264  1  0.42119130  0.04271408  0.06606201  1
  O2-  O265  1  0.41424694  0.03972833  0.40565204  1
  O2-  O266  1  0.41550764  0.04964174  0.72676874  1
  O2-  O267  1  0.41681701  0.53809104  0.06689764  1
  O2-  O268  1  0.41535020  0.53697124  0.40532010  1
  O2-  O269  1  0.41112784  0.53875624  0.72813491  1
  O2-  O270  1  0.91530910  0.04136297  0.06779795  1
  O2-  O271  1  0.92393584  0.04217014  0.39938855  1
  O2-  O272  1  0.91544141  0.04287806  0.72738825  1
  O2-  O273  1  0.91499093  0.54930264  0.06283083  1
  O2-  O274  1  0.91797777  0.54292548  0.40232115  1
  O2-  O275  1  0.92607719  0.54986185  0.73225554  1
  O2-  O276  1  0.29936501  0.17111374  0.06655427  1
  O2-  O277  1  0.29337616  0.17015285  0.40137741  1
  O2-  O278  1  0.29909122  0.17012813  0.72437877  1
  O2-  O279  1  0.29625492  0.67048238  0.06502212  1
  O2-  O280  1  0.29235742  0.66776691  0.40562356  1
  O2-  O281  1  0.29941145  0.66562056  0.72673351  1
  O2-  O282  1  0.78413519  0.16265697  0.06878362  1
  O2-  O283  1  0.79487211  0.16882432  0.40410195  1
  O2-  O284  1  0.79823752  0.16618519  0.72610032  1
  O2-  O285  1  0.79424876  0.66779622  0.06197039  1
  O2-  O286  1  0.78495164  0.66324177  0.40090714  1
  O2-  O287  1  0.79121060  0.66747132  0.73838798  1
