# generated using pymatgen
data_Ca2Al2SiO7
_symmetry_space_group_name_H-M   'P 1'
_cell_length_a   15.45846480
_cell_length_b   15.45814516
_cell_length_c   15.28385564
_cell_angle_alpha   89.98639853
_cell_angle_beta   90.00018594
_cell_angle_gamma   90.00583862
_symmetry_Int_Tables_number   1
_chemical_formula_structural   Ca2Al2SiO7
_chemical_formula_sum   'Ca48 Al48 Si24 O168'
_cell_volume   3652.21768522
_cell_formula_units_Z   24
loop_
 _symmetry_equiv_pos_site_id
 _symmetry_equiv_pos_as_xyz
  1  'x, y, z'
loop_
 _atom_type_symbol
 _atom_type_oxidation_number
  Ca2+  2.0
  Al0+  0.0
  Si0+  0.0
  O2-  -2.0
loop_
 _atom_site_type_symbol
 _atom_site_label
 _atom_site_symmetry_multiplicity
 _atom_site_fract_x
 _atom_site_fract_y
 _atom_site_fract_z
 _atom_site_occupancy
  Ca2+  Ca0  1  0.17733640  0.07748396  0.16865983  1
  Ca2+  Ca1  1  0.17747786  0.09122699  0.50634107  1
  Ca2+  Ca2  1  0.17697722  0.08369334  0.83965367  1
  Ca2+  Ca3  1  0.16869527  0.58140169  0.17031225  1
  Ca2+  Ca4  1  0.17259458  0.58132704  0.51002130  1
  Ca2+  Ca5  1  0.17033712  0.58995930  0.83139758  1
  Ca2+  Ca6  1  0.66150617  0.07380113  0.17280877  1
  Ca2+  Ca7  1  0.66683968  0.07941495  0.50850219  1
  Ca2+  Ca8  1  0.66214702  0.07457854  0.83628960  1
  Ca2+  Ca9  1  0.67857459  0.59218695  0.16875305  1
  Ca2+  Ca10  1  0.66947847  0.57585344  0.50852214  1
  Ca2+  Ca11  1  0.66138060  0.58033120  0.83805834  1
  Ca2+  Ca12  1  0.07618121  0.33144819  0.16687962  1
  Ca2+  Ca13  1  0.07658991  0.32647181  0.49631523  1
  Ca2+  Ca14  1  0.07875371  0.32632583  0.82614971  1
  Ca2+  Ca15  1  0.07433412  0.83806246  0.15706704  1
  Ca2+  Ca16  1  0.08387791  0.82749566  0.49975703  1
  Ca2+  Ca17  1  0.07657966  0.83803397  0.82902871  1
  Ca2+  Ca18  1  0.58185278  0.31813380  0.16577735  1
  Ca2+  Ca19  1  0.58387228  0.32195126  0.49519588  1
  Ca2+  Ca20  1  0.58758074  0.32106536  0.82637691  1
  Ca2+  Ca21  1  0.58420369  0.83517774  0.15551284  1
  Ca2+  Ca22  1  0.59222262  0.83350136  0.50209046  1
  Ca2+  Ca23  1  0.58660780  0.82852892  0.83271552  1
  Ca2+  Ca24  1  0.33490006  0.41422139  0.17186563  1
  Ca2+  Ca25  1  0.33976243  0.42043725  0.50653402  1
  Ca2+  Ca26  1  0.33581248  0.42408929  0.83291333  1
  Ca2+  Ca27  1  0.34091324  0.92699694  0.16476998  1
  Ca2+  Ca28  1  0.33488371  0.93051548  0.50516071  1
  Ca2+  Ca29  1  0.33171580  0.92580047  0.84129452  1
  Ca2+  Ca30  1  0.83476105  0.42770669  0.17286779  1
  Ca2+  Ca31  1  0.82998685  0.41683396  0.50226935  1
  Ca2+  Ca32  1  0.82432175  0.42200258  0.83500012  1
  Ca2+  Ca33  1  0.82144748  0.91735632  0.17234198  1
  Ca2+  Ca34  1  0.82127748  0.92895385  0.50348871  1
  Ca2+  Ca35  1  0.82520608  0.91745857  0.83619377  1
  Ca2+  Ca36  1  0.42389257  0.16024973  0.16465418  1
  Ca2+  Ca37  1  0.42560537  0.16387898  0.49392132  1
  Ca2+  Ca38  1  0.42533990  0.15738699  0.83003866  1
  Ca2+  Ca39  1  0.42816733  0.67824820  0.15439183  1
  Ca2+  Ca40  1  0.42339585  0.66478650  0.50007629  1
  Ca2+  Ca41  1  0.42312073  0.67410680  0.82615638  1
  Ca2+  Ca42  1  0.90678297  0.17101695  0.16624298  1
  Ca2+  Ca43  1  0.91477650  0.16550391  0.49512176  1
  Ca2+  Ca44  1  0.92319739  0.16130172  0.82238833  1
  Ca2+  Ca45  1  0.91217307  0.67136995  0.15686699  1
  Ca2+  Ca46  1  0.91993411  0.66382320  0.49654999  1
  Ca2+  Ca47  1  0.91605508  0.67340162  0.83221305  1
  Al0+  Al48  1  0.00073665  0.00150617  -0.00112351  1
  Al0+  Al49  1  0.00022529  -0.00344941  0.33595206  1
  Al0+  Al50  1  -0.00014473  0.00038692  0.66026528  1
  Al0+  Al51  1  -0.00042734  0.49952440  0.00215513  1
  Al0+  Al52  1  0.00225439  0.49835348  0.33367879  1
  Al0+  Al53  1  0.00037700  0.50077195  0.66358834  1
  Al0+  Al54  1  0.50040614  -0.00015213  -0.00078760  1
  Al0+  Al55  1  0.49775772  -0.00337289  0.33900947  1
  Al0+  Al56  1  0.49890600  -0.00102061  0.67014454  1
  Al0+  Al57  1  0.49969334  0.49678136  0.00078568  1
  Al0+  Al58  1  0.50125397  0.50021098  0.32738044  1
  Al0+  Al59  1  0.50016538  0.50177540  0.67243055  1
  Al0+  Al60  1  0.24953321  0.25175713  0.00455358  1
  Al0+  Al61  1  0.24849367  0.25040107  0.33365515  1
  Al0+  Al62  1  0.24837721  0.25199464  0.66815459  1
  Al0+  Al63  1  0.24923313  0.74956914  0.00170639  1
  Al0+  Al64  1  0.25127298  0.74818496  0.33196350  1
  Al0+  Al65  1  0.24934214  0.75058464  0.66503502  1
  Al0+  Al66  1  0.74888104  0.25252013  -0.00511591  1
  Al0+  Al67  1  0.75088324  0.25134771  0.32519356  1
  Al0+  Al68  1  0.75022683  0.25152633  0.67035968  1
  Al0+  Al69  1  0.75226935  0.74998614  -0.00210877  1
  Al0+  Al70  1  0.75313758  0.74953256  0.34350127  1
  Al0+  Al71  1  0.75017007  0.75091802  0.66368920  1
  Al0+  Al72  1  0.82305518  0.57019428  0.34857570  1
  Al0+  Al73  1  0.82193009  0.07222574  0.68147952  1
  Al0+  Al74  1  0.56989156  0.17959310  0.98470730  1
  Al0+  Al75  1  0.92931272  0.32052557  0.31887723  1
  Al0+  Al76  1  0.32148315  0.07112992  0.01632507  1
  Al0+  Al77  1  0.57040391  0.17577058  0.31904276  1
  Al0+  Al78  1  0.07178796  0.17865871  0.65307170  1
  Al0+  Al79  1  0.68199819  0.93014716  0.01227209  1
  Al0+  Al80  1  0.31845804  0.07066547  0.34875321  1
  Al0+  Al81  1  0.57262974  0.67829184  0.98584004  1
  Al0+  Al82  1  0.17648992  0.92745977  0.01397921  1
  Al0+  Al83  1  0.07062226  0.68016048  0.65295659  1
  Al0+  Al84  1  0.42790485  0.32223496  0.31919082  1
  Al0+  Al85  1  0.57102069  0.67819334  0.65184126  1
  Al0+  Al86  1  0.42753209  0.82158985  0.98405124  1
  Al0+  Al87  1  0.67873960  0.42990993  0.67970359  1
  Al0+  Al88  1  0.32077246  0.57206610  0.68009070  1
  Al0+  Al89  1  0.67881543  0.92852746  0.68513489  1
  Al0+  Al90  1  0.57009375  0.17820643  0.65380546  1
  Al0+  Al91  1  0.81904739  0.56878718  0.01176163  1
  Al0+  Al92  1  0.93009197  0.82262457  0.98683244  1
  Al0+  Al93  1  0.82122766  0.07372443  0.34614319  1
  Al0+  Al94  1  0.67710293  0.92907783  0.34963750  1
  Al0+  Al95  1  0.31941694  0.07301061  0.68074138  1
  Si0+  Si96  1  0.42746316  0.82122825  0.64827724  1
  Si0+  Si97  1  0.32205782  0.57055856  0.34686685  1
  Si0+  Si98  1  0.32221203  0.57118996  0.01627284  1
  Si0+  Si99  1  0.57332662  0.67949553  0.31976449  1
  Si0+  Si100  1  0.82344175  0.07474862  0.01453586  1
  Si0+  Si101  1  0.92702715  0.82291066  0.64545768  1
  Si0+  Si102  1  0.17720790  0.92514180  0.35114483  1
  Si0+  Si103  1  0.17961713  0.42955707  0.34936840  1
  Si0+  Si104  1  0.17804780  0.92768834  0.68086906  1
  Si0+  Si105  1  0.92978068  0.32328309  0.98371140  1
  Si0+  Si106  1  0.42819306  0.32271434  0.65316305  1
  Si0+  Si107  1  0.92785239  0.32218691  0.65026962  1
  Si0+  Si108  1  0.42783526  0.81844315  0.31896683  1
  Si0+  Si109  1  0.67781387  0.42945609  0.34771951  1
  Si0+  Si110  1  0.07256911  0.67815313  0.31722944  1
  Si0+  Si111  1  0.67630202  0.42559226  0.01943124  1
  Si0+  Si112  1  0.07194321  0.17599216  0.31567883  1
  Si0+  Si113  1  0.93028360  0.81814393  0.31861388  1
  Si0+  Si114  1  0.07160397  0.67562542  0.98450176  1
  Si0+  Si115  1  0.07073923  0.18120147  0.98645548  1
  Si0+  Si116  1  0.17657638  0.42957337  0.68392920  1
  Si0+  Si117  1  0.17891442  0.43015835  0.01637496  1
  Si0+  Si118  1  0.42448129  0.32159821  0.98166777  1
  Si0+  Si119  1  0.82400032  0.57194435  0.68299814  1
  O2-  O120  1  0.25122168  -0.00407193  0.06497395  1
  O2-  O121  1  0.24192155  -0.00291168  0.39533637  1
  O2-  O122  1  0.24281506  -0.00079319  0.72542118  1
  O2-  O123  1  0.25051641  0.50058290  0.05907008  1
  O2-  O124  1  0.25535891  0.49609357  0.39015210  1
  O2-  O125  1  0.24482807  0.49867831  0.72796690  1
  O2-  O126  1  0.75508984  0.00645136  0.05909345  1
  O2-  O127  1  0.74332120  0.00848768  0.39624488  1
  O2-  O128  1  0.75000323  0.00222711  0.73387210  1
  O2-  O129  1  0.74200460  0.49816405  0.06183463  1
  O2-  O130  1  0.74777052  0.49600874  0.39378839  1
  O2-  O131  1  0.75172435  0.50712541  0.72639883  1
  O2-  O132  1  -0.00132278  0.24023899  0.27113661  1
  O2-  O133  1  -0.00599918  0.25052044  0.60695103  1
  O2-  O134  1  -0.00412248  0.24761977  0.94255686  1
  O2-  O135  1  0.00192705  0.74820163  0.27429881  1
  O2-  O136  1  -0.00438477  0.75212393  0.60285275  1
  O2-  O137  1  0.00838290  0.74971142  0.94175429  1
  O2-  O138  1  0.49620206  0.24703223  0.26932566  1
  O2-  O139  1  0.49402898  0.25245531  0.60811226  1
  O2-  O140  1  0.49353109  0.25378601  0.93842427  1
  O2-  O141  1  0.50392603  0.75199050  0.27796564  1
  O2-  O142  1  0.49776210  0.75374940  0.60358731  1
  O2-  O143  1  0.49821416  0.74750696  0.93534378  1
  O2-  O144  1  0.07132479  0.18438768  0.09158037  1
  O2-  O145  1  0.07413014  0.18088797  0.42111091  1
  O2-  O146  1  0.07222620  0.18275109  0.76671389  1
  O2-  O147  1  0.06859600  0.67105668  0.09048598  1
  O2-  O148  1  0.07438188  0.67869815  0.42217782  1
  O2-  O149  1  0.06984580  0.68128299  0.76589284  1
  O2-  O150  1  0.57049977  0.18036861  0.09779568  1
  O2-  O151  1  0.56974478  0.17841066  0.43277311  1
  O2-  O152  1  0.56871041  0.17983931  0.76684499  1
  O2-  O153  1  0.57208737  0.68065605  0.10042019  1
  O2-  O154  1  0.56957764  0.67600379  0.42471384  1
  O2-  O155  1  0.56799694  0.67654512  0.76437121  1
  O2-  O156  1  0.17696606  0.43304268  0.24384997  1
  O2-  O157  1  0.17624467  0.43016969  0.57827777  1
  O2-  O158  1  0.17739712  0.42970047  0.91157058  1
  O2-  O159  1  0.17673172  0.92351061  0.24585883  1
  O2-  O160  1  0.18175172  0.92547403  0.57495208  1
  O2-  O161  1  0.17389167  0.93237620  0.90047526  1
  O2-  O162  1  0.67827190  0.43307905  0.24217379  1
  O2-  O163  1  0.68022458  0.42998452  0.56623901  1
  O2-  O164  1  0.67875903  0.42413822  0.91379790  1
  O2-  O165  1  0.67961407  0.92423156  0.23584504  1
  O2-  O166  1  0.68064263  0.92969618  0.57152324  1
  O2-  O167  1  0.68369648  0.92931732  0.89992101  1
  O2-  O168  1  0.42331594  0.32243256  0.08723093  1
  O2-  O169  1  0.43026515  0.32673814  0.43259116  1
  O2-  O170  1  0.42811861  0.32319413  0.75879717  1
  O2-  O171  1  0.42954167  0.81959950  0.09860000  1
  O2-  O172  1  0.42132687  0.81405084  0.42359059  1
  O2-  O173  1  0.42434643  0.81881965  0.75347086  1
  O2-  O174  1  0.93265682  0.32537134  0.08883673  1
  O2-  O175  1  0.93447973  0.32529937  0.43155609  1
  O2-  O176  1  0.93166011  0.32575936  0.75617907  1
  O2-  O177  1  0.92972867  0.81968321  0.10046844  1
  O2-  O178  1  0.93339013  0.81540529  0.42335544  1
  O2-  O179  1  0.92847140  0.82293003  0.75121625  1
  O2-  O180  1  0.31813690  0.06844893  0.23594300  1
  O2-  O181  1  0.31833140  0.07215423  0.56735468  1
  O2-  O182  1  0.31749902  0.07352861  0.90292274  1
  O2-  O183  1  0.31802523  0.57207958  0.24174013  1
  O2-  O184  1  0.31990212  0.56891541  0.56630720  1
  O2-  O185  1  0.32062914  0.57003181  0.91141945  1
  O2-  O186  1  0.82319528  0.06816983  0.23233111  1
  O2-  O187  1  0.82108807  0.07207921  0.56798095  1
  O2-  O188  1  0.82523557  0.07402937  0.90925274  1
  O2-  O189  1  0.82252251  0.57189302  0.23531341  1
  O2-  O190  1  0.82575858  0.56763361  0.57716483  1
  O2-  O191  1  0.82310173  0.56477388  0.89906531  1
  O2-  O192  1  0.05274322  0.07917703  0.27398535  1
  O2-  O193  1  0.04737800  0.08190077  0.59656184  1
  O2-  O194  1  0.04777048  0.08905485  0.93843659  1
  O2-  O195  1  0.04649021  0.58572790  0.27053540  1
  O2-  O196  1  0.04273739  0.58261378  0.59754295  1
  O2-  O197  1  0.04117612  0.58397277  0.93670193  1
  O2-  O198  1  0.53999031  0.07596201  0.26931560  1
  O2-  O199  1  0.53859484  0.08129906  0.60136342  1
  O2-  O200  1  0.53888396  0.08358986  0.93131701  1
  O2-  O201  1  0.54531856  0.58949582  0.26913027  1
  O2-  O202  1  0.53655488  0.58192158  0.59820057  1
  O2-  O203  1  0.54586281  0.57691960  0.93782125  1
  O2-  O204  1  0.16244039  0.20878446  0.26744672  1
  O2-  O205  1  0.16619470  0.21586067  0.59776786  1
  O2-  O206  1  0.16100200  0.21517280  0.93946423  1
  O2-  O207  1  0.16491184  0.70461665  0.26901481  1
  O2-  O208  1  0.16679265  0.71055263  0.59630969  1
  O2-  O209  1  0.16769245  0.69405756  0.94182171  1
  O2-  O210  1  0.66752733  0.20494826  0.26360300  1
  O2-  O211  1  0.66725994  0.21181967  0.60252505  1
  O2-  O212  1  0.66605002  0.21242127  0.92987463  1
  O2-  O213  1  0.66755464  0.70658842  0.27724958  1
  O2-  O214  1  0.66888847  0.70530466  0.59781714  1
  O2-  O215  1  0.67013765  0.70597491  0.93242662  1
  O2-  O216  1  0.08825205  0.45970540  0.06588657  1
  O2-  O217  1  0.09117444  0.46281716  0.39933081  1
  O2-  O218  1  0.08328060  0.45623508  0.73053766  1
  O2-  O219  1  0.07990336  0.96106738  0.06946034  1
  O2-  O220  1  0.08274805  0.94495677  0.39758247  1
  O2-  O221  1  0.08223765  0.94958391  0.72237859  1
  O2-  O222  1  0.58064079  0.44477040  0.06376489  1
  O2-  O223  1  0.58467686  0.45762861  0.39367842  1
  O2-  O224  1  0.58382365  0.45954198  0.73687180  1
  O2-  O225  1  0.58474872  0.95917919  0.06549505  1
  O2-  O226  1  0.57689956  0.94714060  0.40255473  1
  O2-  O227  1  0.57935788  0.95398292  0.73592439  1
  O2-  O228  1  0.20576685  0.33972251  0.06704927  1
  O2-  O229  1  0.20063144  0.33635989  0.39607489  1
  O2-  O230  1  0.20273430  0.33750064  0.73234895  1
  O2-  O231  1  0.19655265  0.82611125  0.06592371  1
  O2-  O232  1  0.20722422  0.83159545  0.39630399  1
  O2-  O233  1  0.20426940  0.83519049  0.72826339  1
  O2-  O234  1  0.70846855  0.33411407  0.06596276  1
  O2-  O235  1  0.70307130  0.33488055  0.39079530  1
  O2-  O236  1  0.71265718  0.33646085  0.73754071  1
  O2-  O237  1  0.71408220  0.83384713  0.06626626  1
  O2-  O238  1  0.71345815  0.83421246  0.40555711  1
  O2-  O239  1  0.70922793  0.82868900  0.73442035  1
  O2-  O240  1  0.45678835  0.41996372  0.26221631  1
  O2-  O241  1  0.45520231  0.41637581  0.60825468  1
  O2-  O242  1  0.44910302  0.41610273  0.93681237  1
  O2-  O243  1  0.45184608  0.91150904  0.27364371  1
  O2-  O244  1  0.45364541  0.91483352  0.60291447  1
  O2-  O245  1  0.45538724  0.91937673  0.93196746  1
  O2-  O246  1  0.96914428  0.41493402  0.26347345  1
  O2-  O247  1  0.95729649  0.41411060  0.60229735  1
  O2-  O248  1  0.96498056  0.41196826  0.93492873  1
  O2-  O249  1  0.95686060  0.91031827  0.27112430  1
  O2-  O250  1  0.95515976  0.91451576  0.59682600  1
  O2-  O251  1  0.95921428  0.91941111  0.93164836  1
  O2-  O252  1  0.32649907  0.29965338  0.26866718  1
  O2-  O253  1  0.33268640  0.30238983  0.60848270  1
  O2-  O254  1  0.32952040  0.29875054  0.93661187  1
  O2-  O255  1  0.33850892  0.78591758  0.26818616  1
  O2-  O256  1  0.33490481  0.79387510  0.60055145  1
  O2-  O257  1  0.32748775  0.79373291  0.93350485  1
  O2-  O258  1  0.83296527  0.29895996  0.25995307  1
  O2-  O259  1  0.83387285  0.29978561  0.60491273  1
  O2-  O260  1  0.83638385  0.30233483  0.93727321  1
  O2-  O261  1  0.83810596  0.78784093  0.27331485  1
  O2-  O262  1  0.83445474  0.79641009  0.59878463  1
  O2-  O263  1  0.83757556  0.78639714  0.92981993  1
  O2-  O264  1  0.41923642  0.04112532  0.06903636  1
  O2-  O265  1  0.41289165  0.03665651  0.40405626  1
  O2-  O266  1  0.41393556  0.03898013  0.73483921  1
  O2-  O267  1  0.41333861  0.54206051  0.06477050  1
  O2-  O268  1  0.41583872  0.54610120  0.39186897  1
  O2-  O269  1  0.41426767  0.54020725  0.73786516  1
  O2-  O270  1  0.91767477  0.05241446  0.06032907  1
  O2-  O271  1  0.91899603  0.04082275  0.39941179  1
  O2-  O272  1  0.92236455  0.04237710  0.73102152  1
  O2-  O273  1  0.91499989  0.53538682  0.06767216  1
  O2-  O274  1  0.92039879  0.53865006  0.40072670  1
  O2-  O275  1  0.91659747  0.54311997  0.72958809  1
  O2-  O276  1  0.28981546  0.16920775  0.06928280  1
  O2-  O277  1  0.28833718  0.16841988  0.40108000  1
  O2-  O278  1  0.28907741  0.16982432  0.73438042  1
  O2-  O279  1  0.29509261  0.66228895  0.06547112  1
  O2-  O280  1  0.29036231  0.66047491  0.39573995  1
  O2-  O281  1  0.28751459  0.66790423  0.73362406  1
  O2-  O282  1  0.79792857  0.17012872  0.05748495  1
  O2-  O283  1  0.80375266  0.17716526  0.39266888  1
  O2-  O284  1  0.80125332  0.17249889  0.73337010  1
  O2-  O285  1  0.79125594  0.66575176  0.06651193  1
  O2-  O286  1  0.79438791  0.66464191  0.40635511  1
  O2-  O287  1  0.80291258  0.66778407  0.72429663  1
