# generated using pymatgen
data_Ca2Al2SiO7
_symmetry_space_group_name_H-M   'P 1'
_cell_length_a   15.46720325
_cell_length_b   15.46524212
_cell_length_c   15.28974772
_cell_angle_alpha   90.00426184
_cell_angle_beta   89.99339594
_cell_angle_gamma   89.97226044
_symmetry_Int_Tables_number   1
_chemical_formula_structural   Ca2Al2SiO7
_chemical_formula_sum   'Ca48 Al48 Si24 O168'
_cell_volume   3657.36901106
_cell_formula_units_Z   24
loop_
 _symmetry_equiv_pos_site_id
 _symmetry_equiv_pos_as_xyz
  1  'x, y, z'
loop_
 _atom_type_symbol
 _atom_type_oxidation_number
  Ca2+  2.0
  Al0+  0.0
  Si0+  0.0
  O2-  -2.0
loop_
 _atom_site_type_symbol
 _atom_site_label
 _atom_site_symmetry_multiplicity
 _atom_site_fract_x
 _atom_site_fract_y
 _atom_site_fract_z
 _atom_site_occupancy
  Ca2+  Ca0  1  0.15699865  0.07876814  0.17421681  1
  Ca2+  Ca1  1  0.15720446  0.07828106  0.49642498  1
  Ca2+  Ca2  1  0.16430161  0.08371752  0.84233899  1
  Ca2+  Ca3  1  0.16599116  0.58397102  0.16999501  1
  Ca2+  Ca4  1  0.17714931  0.59418753  0.50081414  1
  Ca2+  Ca5  1  0.16826634  0.57902987  0.84230761  1
  Ca2+  Ca6  1  0.68020223  0.08856318  0.16771207  1
  Ca2+  Ca7  1  0.67247477  0.07669574  0.50639175  1
  Ca2+  Ca8  1  0.66889842  0.08193128  0.84054193  1
  Ca2+  Ca9  1  0.67103050  0.58199166  0.16635028  1
  Ca2+  Ca10  1  0.66685075  0.58318980  0.50235244  1
  Ca2+  Ca11  1  0.67780410  0.57327179  0.84528586  1
  Ca2+  Ca12  1  0.07741739  0.32509682  0.15563389  1
  Ca2+  Ca13  1  0.07088293  0.32811493  0.49205804  1
  Ca2+  Ca14  1  0.07539335  0.33478292  0.83540754  1
  Ca2+  Ca15  1  0.07936790  0.82550475  0.16502147  1
  Ca2+  Ca16  1  0.07465766  0.83276320  0.49019550  1
  Ca2+  Ca17  1  0.06896294  0.82862040  0.83556107  1
  Ca2+  Ca18  1  0.57731790  0.33085043  0.15519115  1
  Ca2+  Ca19  1  0.58478315  0.32616139  0.49761891  1
  Ca2+  Ca20  1  0.59611216  0.32086293  0.83626308  1
  Ca2+  Ca21  1  0.57678186  0.82762107  0.16206608  1
  Ca2+  Ca22  1  0.58401308  0.82773056  0.49597192  1
  Ca2+  Ca23  1  0.57960417  0.83736535  0.83041172  1
  Ca2+  Ca24  1  0.32348389  0.41400329  0.16934716  1
  Ca2+  Ca25  1  0.33013025  0.42922569  0.50454405  1
  Ca2+  Ca26  1  0.32802198  0.41841455  0.84226416  1
  Ca2+  Ca27  1  0.32695983  0.91495230  0.17114318  1
  Ca2+  Ca28  1  0.32261647  0.91499436  0.50106648  1
  Ca2+  Ca29  1  0.33277584  0.91767242  0.84112944  1
  Ca2+  Ca30  1  0.83362705  0.41405127  0.16513438  1
  Ca2+  Ca31  1  0.83871091  0.41482444  0.50214375  1
  Ca2+  Ca32  1  0.83526521  0.41771164  0.84732414  1
  Ca2+  Ca33  1  0.84983929  0.92854420  0.16968928  1
  Ca2+  Ca34  1  0.83617087  0.92061829  0.50439605  1
  Ca2+  Ca35  1  0.83127027  0.91734017  0.84085030  1
  Ca2+  Ca36  1  0.42499179  0.17107354  0.15366275  1
  Ca2+  Ca37  1  0.42535160  0.16320781  0.49976845  1
  Ca2+  Ca38  1  0.42785690  0.17558641  0.83431976  1
  Ca2+  Ca39  1  0.41780680  0.66729093  0.16543061  1
  Ca2+  Ca40  1  0.42047974  0.65969475  0.49108095  1
  Ca2+  Ca41  1  0.41373854  0.66988950  0.83281277  1
  Ca2+  Ca42  1  0.92086575  0.17063065  0.16257408  1
  Ca2+  Ca43  1  0.91523675  0.17595490  0.49053347  1
  Ca2+  Ca44  1  0.91175431  0.17636059  0.83740599  1
  Ca2+  Ca45  1  0.92256292  0.67658694  0.15670619  1
  Ca2+  Ca46  1  0.92040840  0.68126383  0.48989243  1
  Ca2+  Ca47  1  0.91611982  0.66930653  0.83280264  1
  Al0+  Al48  1  0.00023307  -0.00212864  -0.00406204  1
  Al0+  Al49  1  -0.00057171  0.00244409  0.33945472  1
  Al0+  Al50  1  -0.00014828  0.00051120  0.66661121  1
  Al0+  Al51  1  0.00290029  0.50037202  0.00283692  1
  Al0+  Al52  1  -0.00188564  0.50060322  0.33013495  1
  Al0+  Al53  1  0.00294809  0.50029545  0.66067722  1
  Al0+  Al54  1  0.49946788  -0.00080208  -0.00564448  1
  Al0+  Al55  1  0.50079544  -0.00086806  0.33410794  1
  Al0+  Al56  1  0.49989780  -0.00081899  0.66478669  1
  Al0+  Al57  1  0.49916323  0.50186777  -0.00033694  1
  Al0+  Al58  1  0.50060118  0.49928494  0.33364894  1
  Al0+  Al59  1  0.49985990  0.49995260  0.67330713  1
  Al0+  Al60  1  0.25257896  0.24994073  -0.00323850  1
  Al0+  Al61  1  0.25116216  0.25018120  0.33639876  1
  Al0+  Al62  1  0.25131000  0.25054121  0.66509428  1
  Al0+  Al63  1  0.24948432  0.75092327  -0.00783437  1
  Al0+  Al64  1  0.24997908  0.75179398  0.33995180  1
  Al0+  Al65  1  0.25064155  0.75198046  0.67309461  1
  Al0+  Al66  1  0.75045954  0.24783646  0.00248692  1
  Al0+  Al67  1  0.74828711  0.24916307  0.33576080  1
  Al0+  Al68  1  0.75012959  0.24848403  0.65679722  1
  Al0+  Al69  1  0.74747579  0.75002844  0.00129970  1
  Al0+  Al70  1  0.74735772  0.74975292  0.32436321  1
  Al0+  Al71  1  0.74847801  0.75047001  0.66697602  1
  Al0+  Al72  1  0.92996544  0.32028565  0.98713079  1
  Al0+  Al73  1  0.82306461  0.57265723  0.01619768  1
  Al0+  Al74  1  0.92670972  0.82093093  0.98493142  1
  Al0+  Al75  1  0.92561361  0.32185116  0.31585526  1
  Al0+  Al76  1  0.32160158  0.57167771  0.68335450  1
  Al0+  Al77  1  0.18013749  0.93153370  0.34671876  1
  Al0+  Al78  1  0.82108095  0.06772463  0.01299191  1
  Al0+  Al79  1  0.92791962  0.82239371  0.31836118  1
  Al0+  Al80  1  0.57268012  0.17969509  0.98642820  1
  Al0+  Al81  1  0.67897283  0.42789912  0.01535797  1
  Al0+  Al82  1  0.07222946  0.17679569  0.98525760  1
  Al0+  Al83  1  0.31922431  0.56836663  0.34516554  1
  Al0+  Al84  1  0.42967062  0.81935470  0.98676876  1
  Al0+  Al85  1  0.07386594  0.67985080  0.31998887  1
  Al0+  Al86  1  0.07113741  0.67780973  0.98436690  1
  Al0+  Al87  1  0.57001338  0.17864175  0.65071197  1
  Al0+  Al88  1  0.18098177  0.42794704  0.01385248  1
  Al0+  Al89  1  0.57017516  0.67669067  0.31939962  1
  Al0+  Al90  1  0.92742984  0.82005025  0.65259626  1
  Al0+  Al91  1  0.93038840  0.32123134  0.65277943  1
  Al0+  Al92  1  0.42829874  0.32416477  0.98582864  1
  Al0+  Al93  1  0.67948761  0.92840970  0.68032571  1
  Al0+  Al94  1  0.81893302  0.06990168  0.34887760  1
  Al0+  Al95  1  0.07165783  0.18080498  0.31982605  1
  Si0+  Si96  1  0.56869665  0.67824323  0.65330255  1
  Si0+  Si97  1  0.43063556  0.32115590  0.32142674  1
  Si0+  Si98  1  0.67482337  0.92601604  0.34920571  1
  Si0+  Si99  1  0.17835665  0.42776051  0.68279531  1
  Si0+  Si100  1  0.42802687  0.82230369  0.31952208  1
  Si0+  Si101  1  0.67425493  0.92773841  0.01791500  1
  Si0+  Si102  1  0.18024188  0.92933119  0.01397389  1
  Si0+  Si103  1  0.07336216  0.67978754  0.64962309  1
  Si0+  Si104  1  0.56903731  0.17742723  0.31892925  1
  Si0+  Si105  1  0.57223815  0.67731426  0.98082131  1
  Si0+  Si106  1  0.42771735  0.32341900  0.64839684  1
  Si0+  Si107  1  0.67934082  0.43057186  0.34990120  1
  Si0+  Si108  1  0.82084473  0.57373843  0.34823900  1
  Si0+  Si109  1  0.82152454  0.57048472  0.67712786  1
  Si0+  Si110  1  0.32071788  0.57518158  0.01697673  1
  Si0+  Si111  1  0.32200141  0.07003886  0.01333233  1
  Si0+  Si112  1  0.82146454  0.07277150  0.68394956  1
  Si0+  Si113  1  0.07526018  0.17756627  0.64964310  1
  Si0+  Si114  1  0.32635832  0.07391436  0.35051659  1
  Si0+  Si115  1  0.17534228  0.42558085  0.35130965  1
  Si0+  Si116  1  0.68077342  0.42740773  0.67941742  1
  Si0+  Si117  1  0.42768342  0.82091257  0.65003821  1
  Si0+  Si118  1  0.17809289  0.93096786  0.68506679  1
  Si0+  Si119  1  0.32216101  0.07093398  0.68220458  1
  O2-  O120  1  0.24850263  0.00289581  0.05674638  1
  O2-  O121  1  0.25436577  0.00804742  0.39392561  1
  O2-  O122  1  0.24703090  0.00501886  0.72574738  1
  O2-  O123  1  0.25575064  0.50329654  0.06057986  1
  O2-  O124  1  0.24118085  0.49826282  0.39483331  1
  O2-  O125  1  0.24662358  0.49677151  0.72722717  1
  O2-  O126  1  0.74721731  -0.00831302  0.06136822  1
  O2-  O127  1  0.74628956  -0.00849386  0.39350832  1
  O2-  O128  1  0.75498291  0.00166296  0.72733754  1
  O2-  O129  1  0.75137541  0.49922594  0.06591353  1
  O2-  O130  1  0.75268782  0.49966020  0.39214184  1
  O2-  O131  1  0.75603041  0.49445739  0.71967857  1
  O2-  O132  1  0.00377679  0.25526269  0.26890368  1
  O2-  O133  1  0.00517550  0.24571369  0.60768825  1
  O2-  O134  1  0.00168419  0.24941119  0.93467119  1
  O2-  O135  1  -0.00253641  0.74700669  0.27052336  1
  O2-  O136  1  0.00306855  0.74652495  0.60561882  1
  O2-  O137  1  -0.00699188  0.74365481  0.93492116  1
  O2-  O138  1  0.49396799  0.24405495  0.27869527  1
  O2-  O139  1  0.49602688  0.25451467  0.60337900  1
  O2-  O140  1  0.50538319  0.25686384  0.93677114  1
  O2-  O141  1  0.49638199  0.75363698  0.27577329  1
  O2-  O142  1  0.49620181  0.74712540  0.60875990  1
  O2-  O143  1  0.50423915  0.74665431  0.93661292  1
  O2-  O144  1  0.07202311  0.17600707  0.09840711  1
  O2-  O145  1  0.06955074  0.18203217  0.43405664  1
  O2-  O146  1  0.07862185  0.17777800  0.75466421  1
  O2-  O147  1  0.07636654  0.68354389  0.09743347  1
  O2-  O148  1  0.07392365  0.68468551  0.43431381  1
  O2-  O149  1  0.07226841  0.67914150  0.75479085  1
  O2-  O150  1  0.56860532  0.17765008  0.10036365  1
  O2-  O151  1  0.56813527  0.17786872  0.42444458  1
  O2-  O152  1  0.57026564  0.18003565  0.76305576  1
  O2-  O153  1  0.57030752  0.67761588  0.08644363  1
  O2-  O154  1  0.56857261  0.67586933  0.43343250  1
  O2-  O155  1  0.56821625  0.67923947  0.75775742  1
  O2-  O156  1  0.18064010  0.42075543  0.24641966  1
  O2-  O157  1  0.17982497  0.42738798  0.57716792  1
  O2-  O158  1  0.18270403  0.42864710  0.90025747  1
  O2-  O159  1  0.18407336  0.93057072  0.23371723  1
  O2-  O160  1  0.17963539  0.92969729  0.57988910  1
  O2-  O161  1  0.18280332  0.93034307  0.90841900  1
  O2-  O162  1  0.67573859  0.43056579  0.24568967  1
  O2-  O163  1  0.67755485  0.43034326  0.57391434  1
  O2-  O164  1  0.68210672  0.42901458  0.90080750  1
  O2-  O165  1  0.66564227  0.93023678  0.24466862  1
  O2-  O166  1  0.67902702  0.92809544  0.56705960  1
  O2-  O167  1  0.67216739  0.93051595  0.91194041  1
  O2-  O168  1  0.42717708  0.31861406  0.10010318  1
  O2-  O169  1  0.43503998  0.32247728  0.42686118  1
  O2-  O170  1  0.42637840  0.32216514  0.75317857  1
  O2-  O171  1  0.42895916  0.81857147  0.10006750  1
  O2-  O172  1  0.42927251  0.82312039  0.42546863  1
  O2-  O173  1  0.42844579  0.82203948  0.75491465  1
  O2-  O174  1  0.93033370  0.31768237  0.09992563  1
  O2-  O175  1  0.92563461  0.31895604  0.43033653  1
  O2-  O176  1  0.92860949  0.32300448  0.76512195  1
  O2-  O177  1  0.93357812  0.82418196  0.09781229  1
  O2-  O178  1  0.92825866  0.82097097  0.43277629  1
  O2-  O179  1  0.92723915  0.81803732  0.76511626  1
  O2-  O180  1  0.33247770  0.07227098  0.24549624  1
  O2-  O181  1  0.32344609  0.06766346  0.57695793  1
  O2-  O182  1  0.32271933  0.06676154  0.90788571  1
  O2-  O183  1  0.32159956  0.56581334  0.23277754  1
  O2-  O184  1  0.32263823  0.57127591  0.56979458  1
  O2-  O185  1  0.31789377  0.57609492  0.91111813  1
  O2-  O186  1  0.81771850  0.07139049  0.23609271  1
  O2-  O187  1  0.81940766  0.07232215  0.57813549  1
  O2-  O188  1  0.81861340  0.06750229  0.89956381  1
  O2-  O189  1  0.81799684  0.57552347  0.24416606  1
  O2-  O190  1  0.81749237  0.57171322  0.57179364  1
  O2-  O191  1  0.81989363  0.57192141  0.90121194  1
  O2-  O192  1  0.04145329  0.08235917  0.27043003  1
  O2-  O193  1  0.04972622  0.08323093  0.60510711  1
  O2-  O194  1  0.04401790  0.07953131  0.93049557  1
  O2-  O195  1  0.05348020  0.57863816  0.27165153  1
  O2-  O196  1  0.05368161  0.58538246  0.60287197  1
  O2-  O197  1  0.04892258  0.57815276  0.93232963  1
  O2-  O198  1  0.54513295  0.08464034  0.27255495  1
  O2-  O199  1  0.53550295  0.08300200  0.59604862  1
  O2-  O200  1  0.53867904  0.08412570  0.93146158  1
  O2-  O201  1  0.53625625  0.58186705  0.26496185  1
  O2-  O202  1  0.54237400  0.58522728  0.60652851  1
  O2-  O203  1  0.54678001  0.58438537  0.93376997  1
  O2-  O204  1  0.17478955  0.19975427  0.27188503  1
  O2-  O205  1  0.16921954  0.20151117  0.60230963  1
  O2-  O206  1  0.17139034  0.20309707  0.93314819  1
  O2-  O207  1  0.17164585  0.71232616  0.26881159  1
  O2-  O208  1  0.16728989  0.71047684  0.60650353  1
  O2-  O209  1  0.16559654  0.71302006  0.92707810  1
  O2-  O210  1  0.65895164  0.21008691  0.27316707  1
  O2-  O211  1  0.66448003  0.20934535  0.59265131  1
  O2-  O212  1  0.67044907  0.20555898  0.93179595  1
  O2-  O213  1  0.66414068  0.70546944  0.26136886  1
  O2-  O214  1  0.65948735  0.70742825  0.60446130  1
  O2-  O215  1  0.66549466  0.70223425  0.93451628  1
  O2-  O216  1  0.08545136  0.45629931  0.06948039  1
  O2-  O217  1  0.07961782  0.44743198  0.39464816  1
  O2-  O218  1  0.08435490  0.45438547  0.72775337  1
  O2-  O219  1  0.08811732  0.95451941  0.06029380  1
  O2-  O220  1  0.08587757  0.96311009  0.40551024  1
  O2-  O221  1  0.08561762  0.95684855  0.73195955  1
  O2-  O222  1  0.57917767  0.45727566  0.06639202  1
  O2-  O223  1  0.58935073  0.46150742  0.40021748  1
  O2-  O224  1  0.59080577  0.45673408  0.72871709  1
  O2-  O225  1  0.58129057  0.95690924  0.06384246  1
  O2-  O226  1  0.58285299  0.95412872  0.39986901  1
  O2-  O227  1  0.58165009  0.95948641  0.73233430  1
  O2-  O228  1  0.21518090  0.33158334  0.06773836  1
  O2-  O229  1  0.20561183  0.33436563  0.40148763  1
  O2-  O230  1  0.20425257  0.33365875  0.72785676  1
  O2-  O231  1  0.21368406  0.83878055  0.05971549  1
  O2-  O232  1  0.21375206  0.83808039  0.40656160  1
  O2-  O233  1  0.20973647  0.84113640  0.73348807  1
  O2-  O234  1  0.70339275  0.32889505  0.06820701  1
  O2-  O235  1  0.70492288  0.33819442  0.39844381  1
  O2-  O236  1  0.70620519  0.33337861  0.72239435  1
  O2-  O237  1  0.69179474  0.83155835  0.06072675  1
  O2-  O238  1  0.69670612  0.82978495  0.39174509  1
  O2-  O239  1  0.70650238  0.83098181  0.73519325  1
  O2-  O240  1  0.46493175  0.40886273  0.27204938  1
  O2-  O241  1  0.45666501  0.41744657  0.60446526  1
  O2-  O242  1  0.44770735  0.42512394  0.93525749  1
  O2-  O243  1  0.45308266  0.91572986  0.27251823  1
  O2-  O244  1  0.45661515  0.91127458  0.60121946  1
  O2-  O245  1  0.45913642  0.91490146  0.92951199  1
  O2-  O246  1  0.94358837  0.42406709  0.26901351  1
  O2-  O247  1  0.96064243  0.41764838  0.59586277  1
  O2-  O248  1  0.95762183  0.41923317  0.93582535  1
  O2-  O249  1  0.96160382  0.92039263  0.27070240  1
  O2-  O250  1  0.95814279  0.91827457  0.60141320  1
  O2-  O251  1  0.96198897  0.91502340  0.92797090  1
  O2-  O252  1  0.33608603  0.30063254  0.27749852  1
  O2-  O253  1  0.33445141  0.29799977  0.60075174  1
  O2-  O254  1  0.33482348  0.28874825  0.92815421  1
  O2-  O255  1  0.33499770  0.79628260  0.27465028  1
  O2-  O256  1  0.33423415  0.79502011  0.60489098  1
  O2-  O257  1  0.33538497  0.78963032  0.92791630  1
  O2-  O258  1  0.82721406  0.28893388  0.26667099  1
  O2-  O259  1  0.83479308  0.29162267  0.59558372  1
  O2-  O260  1  0.83186949  0.29030705  0.93448427  1
  O2-  O261  1  0.82853359  0.80039050  0.26606381  1
  O2-  O262  1  0.83087574  0.78837813  0.59855566  1
  O2-  O263  1  0.82505890  0.79914421  0.93582140  1
  O2-  O264  1  0.41237982  0.03795551  0.06140948  1
  O2-  O265  1  0.41768605  0.04311452  0.40033059  1
  O2-  O266  1  0.41168793  0.03783135  0.73001137  1
  O2-  O267  1  0.41685684  0.55619461  0.05959314  1
  O2-  O268  1  0.41488144  0.53304436  0.40111888  1
  O2-  O269  1  0.41794000  0.54193308  0.73848464  1
  O2-  O270  1  0.91849233  0.03629961  0.06579208  1
  O2-  O271  1  0.91471537  0.04262371  0.40609328  1
  O2-  O272  1  0.91694508  0.05152278  0.72733265  1
  O2-  O273  1  0.92215676  0.54854591  0.06762175  1
  O2-  O274  1  0.91375658  0.55017074  0.39664705  1
  O2-  O275  1  0.91647370  0.54845798  0.72029608  1
  O2-  O276  1  0.30025490  0.16310302  0.05961963  1
  O2-  O277  1  0.30558737  0.16828934  0.39796112  1
  O2-  O278  1  0.30035056  0.16572627  0.72629076  1
  O2-  O279  1  0.29153599  0.66844710  0.06185426  1
  O2-  O280  1  0.29425931  0.66604711  0.40180453  1
  O2-  O281  1  0.29280675  0.66918637  0.73668975  1
  O2-  O282  1  0.78911413  0.16277027  0.06876546  1
  O2-  O283  1  0.78237855  0.16483267  0.40450616  1
  O2-  O284  1  0.79098226  0.16639248  0.72683847  1
  O2-  O285  1  0.79048882  0.67048147  0.06896984  1
  O2-  O286  1  0.78774568  0.66485170  0.39556501  1
  O2-  O287  1  0.78829907  0.65927433  0.72641623  1
