# generated using pymatgen
data_Ca2Al2SiO7
_symmetry_space_group_name_H-M   'P 1'
_cell_length_a   15.46752065
_cell_length_b   15.46615719
_cell_length_c   15.28844308
_cell_angle_alpha   90.00544281
_cell_angle_beta   90.01288054
_cell_angle_gamma   90.02322764
_symmetry_Int_Tables_number   1
_chemical_formula_structural   Ca2Al2SiO7
_chemical_formula_sum   'Ca48 Al48 Si24 O168'
_cell_volume   3657.34842496
_cell_formula_units_Z   24
loop_
 _symmetry_equiv_pos_site_id
 _symmetry_equiv_pos_as_xyz
  1  'x, y, z'
loop_
 _atom_type_symbol
 _atom_type_oxidation_number
  Ca2+  2.0
  Al0+  0.0
  Si0+  0.0
  O2-  -2.0
loop_
 _atom_site_type_symbol
 _atom_site_label
 _atom_site_symmetry_multiplicity
 _atom_site_fract_x
 _atom_site_fract_y
 _atom_site_fract_z
 _atom_site_occupancy
  Ca2+  Ca0  1  0.17817614  0.07681163  0.17307034  1
  Ca2+  Ca1  1  0.17222342  0.07684467  0.50647468  1
  Ca2+  Ca2  1  0.17269878  0.08051248  0.83441734  1
  Ca2+  Ca3  1  0.16851932  0.57576532  0.17312630  1
  Ca2+  Ca4  1  0.15823487  0.57715746  0.49938633  1
  Ca2+  Ca5  1  0.17593867  0.57462685  0.84373617  1
  Ca2+  Ca6  1  0.66301707  0.07316580  0.17586345  1
  Ca2+  Ca7  1  0.66740188  0.08095081  0.50048224  1
  Ca2+  Ca8  1  0.67417628  0.08325850  0.83792200  1
  Ca2+  Ca9  1  0.66153337  0.57206450  0.17421216  1
  Ca2+  Ca10  1  0.66645893  0.58293919  0.50400045  1
  Ca2+  Ca11  1  0.66914857  0.57886875  0.83415186  1
  Ca2+  Ca12  1  0.08887234  0.33660188  0.16363000  1
  Ca2+  Ca13  1  0.08024131  0.32820814  0.49682529  1
  Ca2+  Ca14  1  0.08199999  0.32681349  0.82262751  1
  Ca2+  Ca15  1  0.08309830  0.83971756  0.16492070  1
  Ca2+  Ca16  1  0.08109302  0.83266805  0.48789252  1
  Ca2+  Ca17  1  0.08868818  0.83673256  0.82850605  1
  Ca2+  Ca18  1  0.58134530  0.33139040  0.16719614  1
  Ca2+  Ca19  1  0.57097460  0.32821047  0.48853663  1
  Ca2+  Ca20  1  0.57635114  0.33493010  0.82734125  1
  Ca2+  Ca21  1  0.58994668  0.82984496  0.16359715  1
  Ca2+  Ca22  1  0.59031385  0.82300986  0.49128614  1
  Ca2+  Ca23  1  0.58412234  0.82820014  0.82842911  1
  Ca2+  Ca24  1  0.32631159  0.41893820  0.17194088  1
  Ca2+  Ca25  1  0.33355635  0.40963693  0.49891965  1
  Ca2+  Ca26  1  0.33107845  0.41930660  0.83972212  1
  Ca2+  Ca27  1  0.32785561  0.92674116  0.17464173  1
  Ca2+  Ca28  1  0.32552190  0.92675864  0.50489291  1
  Ca2+  Ca29  1  0.32423783  0.92795018  0.83956524  1
  Ca2+  Ca30  1  0.81913746  0.41492128  0.17349196  1
  Ca2+  Ca31  1  0.82749360  0.42121013  0.50707928  1
  Ca2+  Ca32  1  0.83361591  0.42167524  0.83583900  1
  Ca2+  Ca33  1  0.82503601  0.91232809  0.17277982  1
  Ca2+  Ca34  1  0.83166946  0.91800545  0.50061765  1
  Ca2+  Ca35  1  0.82888892  0.92423344  0.83365744  1
  Ca2+  Ca36  1  0.41419049  0.16474062  0.16874285  1
  Ca2+  Ca37  1  0.41236844  0.17197170  0.49295895  1
  Ca2+  Ca38  1  0.41032702  0.17085651  0.82641368  1
  Ca2+  Ca39  1  0.41894576  0.66404355  0.16504140  1
  Ca2+  Ca40  1  0.42902298  0.66838326  0.49407683  1
  Ca2+  Ca41  1  0.42097745  0.66582609  0.82718592  1
  Ca2+  Ca42  1  0.92028739  0.16758319  0.16331688  1
  Ca2+  Ca43  1  0.91988623  0.16378267  0.50174489  1
  Ca2+  Ca44  1  0.92266772  0.17286799  0.81979007  1
  Ca2+  Ca45  1  0.92336563  0.67130326  0.17151185  1
  Ca2+  Ca46  1  0.91944575  0.67236538  0.49056490  1
  Ca2+  Ca47  1  0.91716760  0.66774334  0.82644435  1
  Al0+  Al48  1  -0.00030193  0.00151701  -0.00100979  1
  Al0+  Al49  1  -0.00112872  0.00132238  0.32957219  1
  Al0+  Al50  1  -0.00311995  -0.00054510  0.67061521  1
  Al0+  Al51  1  -0.00052219  0.50241487  0.00149962  1
  Al0+  Al52  1  -0.00037713  0.50115027  0.33212934  1
  Al0+  Al53  1  -0.00243372  0.50060924  0.66877645  1
  Al0+  Al54  1  0.50247396  -0.00075094  0.00351054  1
  Al0+  Al55  1  0.50143932  -0.00013958  0.34050241  1
  Al0+  Al56  1  0.49729678  -0.00175483  0.67083884  1
  Al0+  Al57  1  0.50181272  0.49913378  0.00472623  1
  Al0+  Al58  1  0.49871330  0.49867902  0.32941673  1
  Al0+  Al59  1  0.49978286  0.49991101  0.65858801  1
  Al0+  Al60  1  0.25069610  0.25019592  0.00424352  1
  Al0+  Al61  1  0.24865162  0.25260356  0.33586485  1
  Al0+  Al62  1  0.24843284  0.24894036  0.66154290  1
  Al0+  Al63  1  0.25153782  0.75058089  0.00377733  1
  Al0+  Al64  1  0.25186650  0.74789482  0.33300508  1
  Al0+  Al65  1  0.25068533  0.74777239  0.66852988  1
  Al0+  Al66  1  0.75065638  0.25120869  0.00149484  1
  Al0+  Al67  1  0.74836610  0.25039818  0.33461043  1
  Al0+  Al68  1  0.74771389  0.24998231  0.66744083  1
  Al0+  Al69  1  0.75232784  0.75013021  -0.00067929  1
  Al0+  Al70  1  0.75186411  0.74984234  0.32693914  1
  Al0+  Al71  1  0.75191465  0.74670295  0.66781940  1
  Al0+  Al72  1  0.68062355  0.92741711  0.34733481  1
  Al0+  Al73  1  0.92656149  0.32353937  0.65141939  1
  Al0+  Al74  1  0.07329455  0.67793264  0.31768607  1
  Al0+  Al75  1  0.57140512  0.67971316  0.31750728  1
  Al0+  Al76  1  0.82105174  0.57005545  0.68008041  1
  Al0+  Al77  1  0.32326407  0.57159002  0.01443171  1
  Al0+  Al78  1  0.42680569  0.31971548  0.31435730  1
  Al0+  Al79  1  0.17777527  0.92668244  0.68110159  1
  Al0+  Al80  1  0.32281327  0.07211245  0.01578586  1
  Al0+  Al81  1  0.68145366  0.92899682  0.01214435  1
  Al0+  Al82  1  0.81833389  0.07204227  0.67957729  1
  Al0+  Al83  1  0.57164322  0.17755716  0.31818871  1
  Al0+  Al84  1  0.57130965  0.68162984  0.65378035  1
  Al0+  Al85  1  0.68113983  0.42932596  0.01309634  1
  Al0+  Al86  1  0.42922726  0.31963055  0.65408218  1
  Al0+  Al87  1  0.93095674  0.82322880  0.31698743  1
  Al0+  Al88  1  0.17741834  0.92771034  0.34799714  1
  Al0+  Al89  1  0.32062999  0.07300298  0.68273541  1
  Al0+  Al90  1  0.17804766  0.42957003  0.01305474  1
  Al0+  Al91  1  0.17750597  0.92947912  0.01561995  1
  Al0+  Al92  1  0.67687557  0.42828303  0.34930301  1
  Al0+  Al93  1  0.06896447  0.17775540  0.65065745  1
  Al0+  Al94  1  0.32110721  0.07145760  0.35063763  1
  Al0+  Al95  1  0.17771987  0.43132100  0.34971180  1
  Si0+  Si96  1  0.42967613  0.82199326  0.98499968  1
  Si0+  Si97  1  0.82243972  0.07392034  0.34916668  1
  Si0+  Si98  1  0.92956824  0.82140836  0.98132283  1
  Si0+  Si99  1  0.32279887  0.56927017  0.67958526  1
  Si0+  Si100  1  0.32321751  0.57189983  0.35243009  1
  Si0+  Si101  1  0.92830584  0.32205773  0.31800957  1
  Si0+  Si102  1  0.17813463  0.43002804  0.67980662  1
  Si0+  Si103  1  0.92958982  0.81973585  0.65337826  1
  Si0+  Si104  1  0.42904387  0.82227090  0.31720256  1
  Si0+  Si105  1  0.57234688  0.17431715  0.65241054  1
  Si0+  Si106  1  0.81999611  0.57018122  0.34888754  1
  Si0+  Si107  1  0.57154705  0.67803627  0.98405818  1
  Si0+  Si108  1  0.82317999  0.57370225  0.01858467  1
  Si0+  Si109  1  0.43064859  0.32018870  0.98514605  1
  Si0+  Si110  1  0.07232301  0.67954338  0.98332281  1
  Si0+  Si111  1  0.57293101  0.17779853  0.98469189  1
  Si0+  Si112  1  0.67570498  0.42922022  0.68182521  1
  Si0+  Si113  1  0.82155791  0.07298542  0.01645407  1
  Si0+  Si114  1  0.42630483  0.82170125  0.65060689  1
  Si0+  Si115  1  0.92738993  0.32213337  0.98574447  1
  Si0+  Si116  1  0.06974090  0.18040691  0.31699127  1
  Si0+  Si117  1  0.07253203  0.67858201  0.65436675  1
  Si0+  Si118  1  0.67855012  0.92536319  0.68189643  1
  Si0+  Si119  1  0.07093261  0.18083307  0.98534276  1
  O2-  O120  1  0.25119108  -0.00061599  0.06440635  1
  O2-  O121  1  0.24885096  -0.00123961  0.39886380  1
  O2-  O122  1  0.24918217  -0.00062274  0.73094170  1
  O2-  O123  1  0.24849952  0.50242124  0.06338435  1
  O2-  O124  1  0.25156293  0.50639584  0.39726473  1
  O2-  O125  1  0.25142298  0.49866980  0.72198218  1
  O2-  O126  1  0.75385257  0.00443805  0.06068208  1
  O2-  O127  1  0.75409292  0.00406285  0.39201496  1
  O2-  O128  1  0.74022939  0.00041986  0.72637730  1
  O2-  O129  1  0.75546774  0.50376703  0.06101900  1
  O2-  O130  1  0.75035999  0.50408364  0.39508522  1
  O2-  O131  1  0.74840204  0.49339730  0.72707570  1
  O2-  O132  1  -0.00118924  0.25160821  0.27390851  1
  O2-  O133  1  -0.00328791  0.25039467  0.60071888  1
  O2-  O134  1  0.00109929  0.25402941  0.94383378  1
  O2-  O135  1  0.00814049  0.75616316  0.26689148  1
  O2-  O136  1  0.00614817  0.75406784  0.61312851  1
  O2-  O137  1  0.00299158  0.75218737  0.93937741  1
  O2-  O138  1  0.49901542  0.24718446  0.26508887  1
  O2-  O139  1  0.50142976  0.24124461  0.61012704  1
  O2-  O140  1  0.49999833  0.24720988  0.94229682  1
  O2-  O141  1  0.49815658  0.75521169  0.26997638  1
  O2-  O142  1  0.50030661  0.75897477  0.60625386  1
  O2-  O143  1  0.49993874  0.74893464  0.94239170  1
  O2-  O144  1  0.06797191  0.18045435  0.09052599  1
  O2-  O145  1  0.06723247  0.17958816  0.42173544  1
  O2-  O146  1  0.06891329  0.18142817  0.76511403  1
  O2-  O147  1  0.06925423  0.67737228  0.08759492  1
  O2-  O148  1  0.06624065  0.67541031  0.43180812  1
  O2-  O149  1  0.07145209  0.67726083  0.75981795  1
  O2-  O150  1  0.57593408  0.17865021  0.08898478  1
  O2-  O151  1  0.57385557  0.18011219  0.43185905  1
  O2-  O152  1  0.57428370  0.17678827  0.75868255  1
  O2-  O153  1  0.57264666  0.67878961  0.08872937  1
  O2-  O154  1  0.57173799  0.68098150  0.43089008  1
  O2-  O155  1  0.56940835  0.68086231  0.76768218  1
  O2-  O156  1  0.17708649  0.43251293  0.23668098  1
  O2-  O157  1  0.17558613  0.43307705  0.57514111  1
  O2-  O158  1  0.17929359  0.42965985  0.89867857  1
  O2-  O159  1  0.17844939  0.93225140  0.23453334  1
  O2-  O160  1  0.17885984  0.92409414  0.56812609  1
  O2-  O161  1  0.17795816  0.93098313  0.90197304  1
  O2-  O162  1  0.68077583  0.42892033  0.23576428  1
  O2-  O163  1  0.67523933  0.43282513  0.57678912  1
  O2-  O164  1  0.68076854  0.43057511  0.89963751  1
  O2-  O165  1  0.68354538  0.92747550  0.23406165  1
  O2-  O166  1  0.68286798  0.92225005  0.57679360  1
  O2-  O167  1  0.68351995  0.92905241  0.89864075  1
  O2-  O168  1  0.43164589  0.32132893  0.08932881  1
  O2-  O169  1  0.42856822  0.31872618  0.42821339  1
  O2-  O170  1  0.43124505  0.32335431  0.76817264  1
  O2-  O171  1  0.43171317  0.82244677  0.08966077  1
  O2-  O172  1  0.43020404  0.81853551  0.42294929  1
  O2-  O173  1  0.42614403  0.81801708  0.75660965  1
  O2-  O174  1  0.92484418  0.31926814  0.09083660  1
  O2-  O175  1  0.92937831  0.32220002  0.42273417  1
  O2-  O176  1  0.93100539  0.32445932  0.76589620  1
  O2-  O177  1  0.92744682  0.82071672  0.08573181  1
  O2-  O178  1  0.92853801  0.82076854  0.43105343  1
  O2-  O179  1  0.92690981  0.81709270  0.75893877  1
  O2-  O180  1  0.31916627  0.06989305  0.23688191  1
  O2-  O181  1  0.31990740  0.07201336  0.56999527  1
  O2-  O182  1  0.32040729  0.07340409  0.90218225  1
  O2-  O183  1  0.32338782  0.56964618  0.24677095  1
  O2-  O184  1  0.32269042  0.57075820  0.57516395  1
  O2-  O185  1  0.32354030  0.56835739  0.89970358  1
  O2-  O186  1  0.82283053  0.07527562  0.24328545  1
  O2-  O187  1  0.81901966  0.06866627  0.56689721  1
  O2-  O188  1  0.82026529  0.07338689  0.91069853  1
  O2-  O189  1  0.82000615  0.56683950  0.24300825  1
  O2-  O190  1  0.82049595  0.57260402  0.56761121  1
  O2-  O191  1  0.82315845  0.57374048  0.91258231  1
  O2-  O192  1  0.04084951  0.09031392  0.26680891  1
  O2-  O193  1  0.03676244  0.07936683  0.60008125  1
  O2-  O194  1  0.04118519  0.08991348  0.93676524  1
  O2-  O195  1  0.03587216  0.58271018  0.26202932  1
  O2-  O196  1  0.03962094  0.58876403  0.60693413  1
  O2-  O197  1  0.04216495  0.58792853  0.93470526  1
  O2-  O198  1  0.54594440  0.07665796  0.26854010  1
  O2-  O199  1  0.55088229  0.07848202  0.60913098  1
  O2-  O200  1  0.54919121  0.08464596  0.93771657  1
  O2-  O201  1  0.53860181  0.58384377  0.26387387  1
  O2-  O202  1  0.53838318  0.58721418  0.59792737  1
  O2-  O203  1  0.54360366  0.58577734  0.93706476  1
  O2-  O204  1  0.16056189  0.21070090  0.27022118  1
  O2-  O205  1  0.16560732  0.20716983  0.59646570  1
  O2-  O206  1  0.16333564  0.20812900  0.93885915  1
  O2-  O207  1  0.17530877  0.69490789  0.26848257  1
  O2-  O208  1  0.16594986  0.69919789  0.60716902  1
  O2-  O209  1  0.16588928  0.70398700  0.93691815  1
  O2-  O210  1  0.67049720  0.20687287  0.26475367  1
  O2-  O211  1  0.66526163  0.19963192  0.60558522  1
  O2-  O212  1  0.66440211  0.20890394  0.93648657  1
  O2-  O213  1  0.66751230  0.70834028  0.26193702  1
  O2-  O214  1  0.66884871  0.70975939  0.60047122  1
  O2-  O215  1  0.66399259  0.70687885  0.93709148  1
  O2-  O216  1  0.07871031  0.45591709  0.06520070  1
  O2-  O217  1  0.08054070  0.46289199  0.40281639  1
  O2-  O218  1  0.08790941  0.45968804  0.72920309  1
  O2-  O219  1  0.07831599  0.95898620  0.06590470  1
  O2-  O220  1  0.07739955  0.95680995  0.39720243  1
  O2-  O221  1  0.07866572  0.95284851  0.73361168  1
  O2-  O222  1  0.58627826  0.45994509  0.06842571  1
  O2-  O223  1  0.57943149  0.45869178  0.39989950  1
  O2-  O224  1  0.58413644  0.46185396  0.72890229  1
  O2-  O225  1  0.58543234  0.95582175  0.06705986  1
  O2-  O226  1  0.58505339  0.95390656  0.40422657  1
  O2-  O227  1  0.58212732  0.94207902  0.72542279  1
  O2-  O228  1  0.20587818  0.33240134  0.06674035  1
  O2-  O229  1  0.20686129  0.33500746  0.40369286  1
  O2-  O230  1  0.20441778  0.33736266  0.72516255  1
  O2-  O231  1  0.20150074  0.82962769  0.06556587  1
  O2-  O232  1  0.20259640  0.82682605  0.39708744  1
  O2-  O233  1  0.20716411  0.82757917  0.73467595  1
  O2-  O234  1  0.71279401  0.33355060  0.06812525  1
  O2-  O235  1  0.70948334  0.33260167  0.40280193  1
  O2-  O236  1  0.69449660  0.33387941  0.72669821  1
  O2-  O237  1  0.71385923  0.83259818  0.06512129  1
  O2-  O238  1  0.71530990  0.83089498  0.39930621  1
  O2-  O239  1  0.71214896  0.83532758  0.73078927  1
  O2-  O240  1  0.45585861  0.41794986  0.26216982  1
  O2-  O241  1  0.46087375  0.41411737  0.59690498  1
  O2-  O242  1  0.46152838  0.41187797  0.93773273  1
  O2-  O243  1  0.45403651  0.91673953  0.27418187  1
  O2-  O244  1  0.44531032  0.91769863  0.60765303  1
  O2-  O245  1  0.46075064  0.91263217  0.93618997  1
  O2-  O246  1  0.95567394  0.41319026  0.26947162  1
  O2-  O247  1  0.95599105  0.42199726  0.59932389  1
  O2-  O248  1  0.95071927  0.41662473  0.94089489  1
  O2-  O249  1  0.95190107  0.92299001  0.26221290  1
  O2-  O250  1  0.94979039  0.91327433  0.60767581  1
  O2-  O251  1  0.95404510  0.91513536  0.93487073  1
  O2-  O252  1  0.32669809  0.29346849  0.26349853  1
  O2-  O253  1  0.33213510  0.29376810  0.59958775  1
  O2-  O254  1  0.33743503  0.29427035  0.93850866  1
  O2-  O255  1  0.33615215  0.79586886  0.26990608  1
  O2-  O256  1  0.33543860  0.78923300  0.60322936  1
  O2-  O257  1  0.33749706  0.79502910  0.93708921  1
  O2-  O258  1  0.83679893  0.29303590  0.27047608  1
  O2-  O259  1  0.82618065  0.29807031  0.60198804  1
  O2-  O260  1  0.83697334  0.29230758  0.93602656  1
  O2-  O261  1  0.83625518  0.78744348  0.26035036  1
  O2-  O262  1  0.84054118  0.78580723  0.60493425  1
  O2-  O263  1  0.83898486  0.79004653  0.93224584  1
  O2-  O264  1  0.42170085  0.04478427  0.06666801  1
  O2-  O265  1  0.41941271  0.04505678  0.40396336  1
  O2-  O266  1  0.41989125  0.04670713  0.73694911  1
  O2-  O267  1  0.42016448  0.54252382  0.06817098  1
  O2-  O268  1  0.41553828  0.54202903  0.39822213  1
  O2-  O269  1  0.41435100  0.54018337  0.72715215  1
  O2-  O270  1  0.91528953  0.04796097  0.06130112  1
  O2-  O271  1  0.91574171  0.04786479  0.39468353  1
  O2-  O272  1  0.91197063  0.03832117  0.73782245  1
  O2-  O273  1  0.91682940  0.55021063  0.06427005  1
  O2-  O274  1  0.91275888  0.54329083  0.39497024  1
  O2-  O275  1  0.91680988  0.54095354  0.73850589  1
  O2-  O276  1  0.29396271  0.16954034  0.06896145  1
  O2-  O277  1  0.28999768  0.16983802  0.40043959  1
  O2-  O278  1  0.28949554  0.17181047  0.73458210  1
  O2-  O279  1  0.29990661  0.67067385  0.06640193  1
  O2-  O280  1  0.30376667  0.66691333  0.39766222  1
  O2-  O281  1  0.29588687  0.66018276  0.72958660  1
  O2-  O282  1  0.79760972  0.16651040  0.06251392  1
  O2-  O283  1  0.79691953  0.16638979  0.39669014  1
  O2-  O284  1  0.79108801  0.16933942  0.73598838  1
  O2-  O285  1  0.79670262  0.66674741  0.06336804  1
  O2-  O286  1  0.79580596  0.66483304  0.39213675  1
  O2-  O287  1  0.78846061  0.66470865  0.73812773  1
