# generated using pymatgen
data_Ca2Al2SiO7
_symmetry_space_group_name_H-M   'P 1'
_cell_length_a   15.46043010
_cell_length_b   15.46101077
_cell_length_c   15.28486858
_cell_angle_alpha   89.97940310
_cell_angle_beta   90.00120621
_cell_angle_gamma   89.97448309
_symmetry_Int_Tables_number   1
_chemical_formula_structural   Ca2Al2SiO7
_chemical_formula_sum   'Ca48 Al48 Si24 O168'
_cell_volume   3653.60078483
_cell_formula_units_Z   24
loop_
 _symmetry_equiv_pos_site_id
 _symmetry_equiv_pos_as_xyz
  1  'x, y, z'
loop_
 _atom_type_symbol
 _atom_type_oxidation_number
  Ca2+  2.0
  Al0+  0.0
  Si0+  0.0
  O2-  -2.0
loop_
 _atom_site_type_symbol
 _atom_site_label
 _atom_site_symmetry_multiplicity
 _atom_site_fract_x
 _atom_site_fract_y
 _atom_site_fract_z
 _atom_site_occupancy
  Ca2+  Ca0  1  0.16182975  0.08371346  0.17046452  1
  Ca2+  Ca1  1  0.17007241  0.08885956  0.50737607  1
  Ca2+  Ca2  1  0.16884786  0.08996341  0.83639079  1
  Ca2+  Ca3  1  0.17641153  0.58801504  0.17127046  1
  Ca2+  Ca4  1  0.16647512  0.58014046  0.50638468  1
  Ca2+  Ca5  1  0.16407853  0.57467898  0.84262310  1
  Ca2+  Ca6  1  0.67383703  0.08275884  0.17732073  1
  Ca2+  Ca7  1  0.67333812  0.08366558  0.51153065  1
  Ca2+  Ca8  1  0.66877013  0.07991441  0.83178791  1
  Ca2+  Ca9  1  0.66114172  0.58699339  0.17116322  1
  Ca2+  Ca10  1  0.67123607  0.58389727  0.50595816  1
  Ca2+  Ca11  1  0.67353094  0.59200058  0.83669335  1
  Ca2+  Ca12  1  0.09226971  0.32211217  0.16307867  1
  Ca2+  Ca13  1  0.08624609  0.32557386  0.50100105  1
  Ca2+  Ca14  1  0.09326485  0.32850014  0.82859423  1
  Ca2+  Ca15  1  0.08024619  0.82238092  0.15913497  1
  Ca2+  Ca16  1  0.07862561  0.82419222  0.49864860  1
  Ca2+  Ca17  1  0.07427650  0.82077902  0.82831064  1
  Ca2+  Ca18  1  0.57103789  0.33231955  0.16533736  1
  Ca2+  Ca19  1  0.57985820  0.32093406  0.49152630  1
  Ca2+  Ca20  1  0.57398245  0.32892202  0.82928427  1
  Ca2+  Ca21  1  0.57699792  0.82157804  0.15959313  1
  Ca2+  Ca22  1  0.58634399  0.83126349  0.49944602  1
  Ca2+  Ca23  1  0.58037789  0.83470610  0.83303489  1
  Ca2+  Ca24  1  0.33521114  0.42318058  0.16671131  1
  Ca2+  Ca25  1  0.33044315  0.41906799  0.50165995  1
  Ca2+  Ca26  1  0.32220632  0.41902848  0.84236251  1
  Ca2+  Ca27  1  0.33289004  0.91335273  0.16769968  1
  Ca2+  Ca28  1  0.33007674  0.92477394  0.50835794  1
  Ca2+  Ca29  1  0.33583708  0.92338411  0.83654495  1
  Ca2+  Ca30  1  0.82986326  0.41820107  0.16957055  1
  Ca2+  Ca31  1  0.83285379  0.42303387  0.50702604  1
  Ca2+  Ca32  1  0.83356495  0.42326315  0.83302405  1
  Ca2+  Ca33  1  0.83695848  0.91956743  0.17110291  1
  Ca2+  Ca34  1  0.82803986  0.92470991  0.51028956  1
  Ca2+  Ca35  1  0.83648233  0.91388820  0.83258413  1
  Ca2+  Ca36  1  0.41461456  0.18173248  0.16376774  1
  Ca2+  Ca37  1  0.42552240  0.16838183  0.49630576  1
  Ca2+  Ca38  1  0.41570498  0.17226179  0.82498769  1
  Ca2+  Ca39  1  0.42214982  0.66221346  0.15850341  1
  Ca2+  Ca40  1  0.42091369  0.66654508  0.49036676  1
  Ca2+  Ca41  1  0.41610315  0.66722901  0.83704044  1
  Ca2+  Ca42  1  0.92546815  0.16286748  0.16401169  1
  Ca2+  Ca43  1  0.92333235  0.15647202  0.49740957  1
  Ca2+  Ca44  1  0.92821848  0.16581141  0.82638854  1
  Ca2+  Ca45  1  0.92997774  0.67055675  0.15722189  1
  Ca2+  Ca46  1  0.92462833  0.66582203  0.50089384  1
  Ca2+  Ca47  1  0.92249845  0.67161384  0.82331744  1
  Al0+  Al48  1  0.00146649  0.00106823  -0.00663315  1
  Al0+  Al49  1  -0.00045037  -0.00066267  0.33481516  1
  Al0+  Al50  1  0.00010044  -0.00201285  0.66281100  1
  Al0+  Al51  1  -0.00170093  0.49538461  0.00513369  1
  Al0+  Al52  1  0.00087045  0.49924642  0.32935211  1
  Al0+  Al53  1  -0.00002822  0.49828798  0.67109270  1
  Al0+  Al54  1  0.50259250  -0.00086353  0.00213752  1
  Al0+  Al55  1  0.50024666  -0.00061530  0.33062528  1
  Al0+  Al56  1  0.49970170  0.00126588  0.67076810  1
  Al0+  Al57  1  0.50043958  0.49800373  -0.00696147  1
  Al0+  Al58  1  0.49944583  0.50012137  0.33266956  1
  Al0+  Al59  1  0.49814467  0.50065033  0.66624249  1
  Al0+  Al60  1  0.25189405  0.25071286  -0.00254058  1
  Al0+  Al61  1  0.24884748  0.25046453  0.32716170  1
  Al0+  Al62  1  0.24993998  0.25218858  0.66881383  1
  Al0+  Al63  1  0.25078880  0.75150861  -0.00429843  1
  Al0+  Al64  1  0.24926158  0.74998004  0.33667874  1
  Al0+  Al65  1  0.25160868  0.75073847  0.66300228  1
  Al0+  Al66  1  0.75167784  0.24989816  0.00227273  1
  Al0+  Al67  1  0.75153449  0.25049357  0.33493534  1
  Al0+  Al68  1  0.74975479  0.24995861  0.66911575  1
  Al0+  Al69  1  0.74935840  0.75202968  -0.00226673  1
  Al0+  Al70  1  0.74964052  0.75132039  0.33094943  1
  Al0+  Al71  1  0.74912038  0.75093938  0.67028473  1
  Al0+  Al72  1  0.07188709  0.67575345  0.65132392  1
  Al0+  Al73  1  0.67852431  0.92951849  0.68392484  1
  Al0+  Al74  1  0.07012917  0.18192567  0.98554083  1
  Al0+  Al75  1  0.82378946  0.07215560  0.68442578  1
  Al0+  Al76  1  0.31847500  0.07055882  0.67899364  1
  Al0+  Al77  1  0.92662327  0.81996870  0.64882516  1
  Al0+  Al78  1  0.92965029  0.82121333  0.98512686  1
  Al0+  Al79  1  0.07169163  0.67756896  0.31916439  1
  Al0+  Al80  1  0.32116970  0.57087344  0.34795522  1
  Al0+  Al81  1  0.57048711  0.17950301  0.65467233  1
  Al0+  Al82  1  0.57033861  0.67791479  0.98314483  1
  Al0+  Al83  1  0.18109780  0.43163936  0.67901455  1
  Al0+  Al84  1  0.42825583  0.82363048  0.98414285  1
  Al0+  Al85  1  0.82088291  0.07077481  0.34733753  1
  Al0+  Al86  1  0.06862819  0.17880514  0.32035619  1
  Al0+  Al87  1  0.43046893  0.31940298  0.98358803  1
  Al0+  Al88  1  0.81873075  0.56956874  0.67936246  1
  Al0+  Al89  1  0.07122465  0.17982615  0.65316414  1
  Al0+  Al90  1  0.57080160  0.68064051  0.32238472  1
  Al0+  Al91  1  0.57398154  0.17683461  0.31835673  1
  Al0+  Al92  1  0.07169695  0.67540046  0.98561677  1
  Al0+  Al93  1  0.42906000  0.32058187  0.31846757  1
  Al0+  Al94  1  0.32007623  0.57166325  0.01431900  1
  Al0+  Al95  1  0.17737649  0.42660629  0.01848660  1
  Si0+  Si96  1  0.17889162  0.93151055  0.01359287  1
  Si0+  Si97  1  0.17906924  0.92917919  0.34867441  1
  Si0+  Si98  1  0.67876551  0.92841713  0.01903659  1
  Si0+  Si99  1  0.92932501  0.82067284  0.31749175  1
  Si0+  Si100  1  0.57473011  0.17781397  0.98446978  1
  Si0+  Si101  1  0.57007127  0.67869744  0.65167396  1
  Si0+  Si102  1  0.17796831  0.92552833  0.68343854  1
  Si0+  Si103  1  0.32437304  0.57534355  0.68346838  1
  Si0+  Si104  1  0.67901789  0.43027640  0.34804516  1
  Si0+  Si105  1  0.82225470  0.57193634  0.34628726  1
  Si0+  Si106  1  0.67958971  0.42815972  0.01525624  1
  Si0+  Si107  1  0.92716866  0.32416443  0.31668076  1
  Si0+  Si108  1  0.32049897  0.07244293  0.34624802  1
  Si0+  Si109  1  0.67493178  0.42741216  0.68331727  1
  Si0+  Si110  1  0.42754513  0.32267922  0.64892601  1
  Si0+  Si111  1  0.92694278  0.32174826  0.65094040  1
  Si0+  Si112  1  0.67725739  0.92747686  0.34930383  1
  Si0+  Si113  1  0.32301736  0.07128524  0.01627265  1
  Si0+  Si114  1  0.92365903  0.32121991  0.98283163  1
  Si0+  Si115  1  0.42965193  0.82249391  0.65087625  1
  Si0+  Si116  1  0.17732978  0.42699932  0.35079687  1
  Si0+  Si117  1  0.81935408  0.57273600  0.01650017  1
  Si0+  Si118  1  0.42604283  0.82280682  0.31892428  1
  Si0+  Si119  1  0.82195466  0.06997050  0.01561705  1
  O2-  O120  1  0.25221327  -0.00022416  0.05841233  1
  O2-  O121  1  0.25089613  0.00050887  0.38932014  1
  O2-  O122  1  0.24247624  -0.00177408  0.72774453  1
  O2-  O123  1  0.24499968  0.50385443  0.06703080  1
  O2-  O124  1  0.24478913  0.49745691  0.39415767  1
  O2-  O125  1  0.25223757  0.50979028  0.72513156  1
  O2-  O126  1  0.75091405  -0.00049503  0.05935247  1
  O2-  O127  1  0.74113637  0.00072521  0.39265962  1
  O2-  O128  1  0.75271802  -0.00070479  0.73479091  1
  O2-  O129  1  0.74770529  0.50185952  0.05891126  1
  O2-  O130  1  0.75077921  0.50136091  0.38918363  1
  O2-  O131  1  0.74231590  0.49706424  0.72784227  1
  O2-  O132  1  -0.00570547  0.25348656  0.27345458  1
  O2-  O133  1  -0.00872371  0.24914850  0.60629380  1
  O2-  O134  1  -0.00211344  0.25877888  0.93962753  1
  O2-  O135  1  -0.00465902  0.75027377  0.27276759  1
  O2-  O136  1  0.00038528  0.74841562  0.60058134  1
  O2-  O137  1  -0.00418809  0.74351560  0.93627501  1
  O2-  O138  1  0.50018085  0.24675548  0.26856363  1
  O2-  O139  1  0.49926766  0.25662190  0.60619392  1
  O2-  O140  1  0.50336382  0.24212799  0.93873914  1
  O2-  O141  1  0.49466771  0.75363575  0.27611615  1
  O2-  O142  1  0.49805007  0.74852722  0.60912442  1
  O2-  O143  1  0.49793998  0.74971671  0.93364879  1
  O2-  O144  1  0.06693610  0.17836412  0.09902454  1
  O2-  O145  1  0.07023527  0.17990718  0.43311857  1
  O2-  O146  1  0.07310524  0.18406236  0.76597628  1
  O2-  O147  1  0.07128289  0.68060951  0.09980436  1
  O2-  O148  1  0.06992657  0.67776907  0.43195151  1
  O2-  O149  1  0.07029151  0.67558808  0.76451389  1
  O2-  O150  1  0.57575294  0.18092080  0.09011961  1
  O2-  O151  1  0.57256033  0.17817605  0.43201042  1
  O2-  O152  1  0.56730274  0.18129654  0.76791970  1
  O2-  O153  1  0.57080066  0.67962557  0.09721844  1
  O2-  O154  1  0.57217807  0.68218588  0.43577656  1
  O2-  O155  1  0.56880429  0.67737666  0.75617614  1
  O2-  O156  1  0.17750744  0.42581822  0.24571345  1
  O2-  O157  1  0.18359819  0.42975043  0.56546311  1
  O2-  O158  1  0.18112903  0.42517219  0.90489279  1
  O2-  O159  1  0.17895848  0.92903412  0.24323918  1
  O2-  O160  1  0.18299366  0.92405218  0.57725799  1
  O2-  O161  1  0.17833400  0.93538000  0.90893981  1
  O2-  O162  1  0.67975953  0.43087154  0.24264587  1
  O2-  O163  1  0.67481707  0.42943156  0.57733943  1
  O2-  O164  1  0.68325892  0.42500719  0.91046118  1
  O2-  O165  1  0.67995633  0.92511200  0.24369267  1
  O2-  O166  1  0.67716813  0.93040712  0.56977334  1
  O2-  O167  1  0.67570985  0.92964242  0.91459409  1
  O2-  O168  1  0.43219156  0.31943301  0.09669222  1
  O2-  O169  1  0.43030519  0.31898076  0.43221172  1
  O2-  O170  1  0.42846555  0.32175854  0.75448375  1
  O2-  O171  1  0.43218287  0.82694777  0.09802409  1
  O2-  O172  1  0.42635330  0.82424223  0.42474094  1
  O2-  O173  1  0.42938717  0.82306892  0.75547277  1
  O2-  O174  1  0.91602535  0.31647095  0.08831722  1
  O2-  O175  1  0.92720001  0.32866002  0.42192974  1
  O2-  O176  1  0.92761741  0.32322696  0.75642310  1
  O2-  O177  1  0.93235130  0.82170797  0.09958596  1
  O2-  O178  1  0.92943517  0.82001793  0.42255667  1
  O2-  O179  1  0.92807738  0.81641897  0.76224357  1
  O2-  O180  1  0.31914359  0.07135085  0.24097342  1
  O2-  O181  1  0.31894052  0.06893258  0.56515399  1
  O2-  O182  1  0.32285069  0.07135434  0.91119627  1
  O2-  O183  1  0.32251300  0.57208496  0.23539222  1
  O2-  O184  1  0.32825009  0.57362988  0.57762168  1
  O2-  O185  1  0.32016178  0.56875675  0.90073478  1
  O2-  O186  1  0.82288573  0.06656788  0.23350301  1
  O2-  O187  1  0.82066434  0.07170956  0.57054139  1
  O2-  O188  1  0.82061256  0.07157079  0.91126346  1
  O2-  O189  1  0.82110545  0.57077869  0.24109874  1
  O2-  O190  1  0.81690333  0.56737415  0.56542883  1
  O2-  O191  1  0.81852177  0.57127318  0.91151670  1
  O2-  O192  1  0.03793748  0.08178778  0.26630829  1
  O2-  O193  1  0.04837974  0.08087895  0.60035174  1
  O2-  O194  1  0.03841355  0.08714227  0.92998567  1
  O2-  O195  1  0.04302220  0.58111483  0.26456196  1
  O2-  O196  1  0.04001208  0.57757566  0.59940508  1
  O2-  O197  1  0.04560329  0.57365350  0.93984122  1
  O2-  O198  1  0.54960172  0.07709137  0.26627948  1
  O2-  O199  1  0.53671532  0.08378118  0.60101226  1
  O2-  O200  1  0.55304346  0.08246340  0.94226074  1
  O2-  O201  1  0.54280185  0.58377758  0.26871385  1
  O2-  O202  1  0.54423925  0.58596295  0.60375835  1
  O2-  O203  1  0.54718349  0.57949559  0.92912455  1
  O2-  O204  1  0.16453397  0.20768052  0.26415027  1
  O2-  O205  1  0.16653475  0.21617808  0.59899390  1
  O2-  O206  1  0.16792178  0.20897232  0.93341976  1
  O2-  O207  1  0.16769397  0.71286197  0.26737062  1
  O2-  O208  1  0.17125707  0.70451944  0.59901553  1
  O2-  O209  1  0.16838382  0.70619712  0.93285276  1
  O2-  O210  1  0.67221585  0.20778076  0.26643257  1
  O2-  O211  1  0.66814015  0.20871630  0.60174513  1
  O2-  O212  1  0.66725381  0.20708869  0.93863958  1
  O2-  O213  1  0.66677998  0.71058710  0.26575216  1
  O2-  O214  1  0.66141700  0.70725686  0.60459325  1
  O2-  O215  1  0.66830536  0.70935178  0.93200620  1
  O2-  O216  1  0.07458019  0.44154974  0.06903582  1
  O2-  O217  1  0.08241400  0.45148641  0.39535393  1
  O2-  O218  1  0.08362225  0.45514604  0.73437969  1
  O2-  O219  1  0.08833651  0.96319651  0.06250078  1
  O2-  O220  1  0.08823875  0.95788508  0.39681395  1
  O2-  O221  1  0.08258662  0.94591240  0.72570870  1
  O2-  O222  1  0.58702848  0.45462373  0.06101346  1
  O2-  O223  1  0.58848076  0.45835465  0.39690053  1
  O2-  O224  1  0.58076045  0.45254880  0.72863523  1
  O2-  O225  1  0.58783912  0.95649060  0.06896559  1
  O2-  O226  1  0.58090874  0.94636344  0.39323544  1
  O2-  O227  1  0.58164271  0.96121935  0.73831887  1
  O2-  O228  1  0.21381596  0.32925821  0.07027212  1
  O2-  O229  1  0.20556209  0.33311538  0.39589182  1
  O2-  O230  1  0.21580693  0.33751304  0.73520118  1
  O2-  O231  1  0.20505609  0.83919348  0.06122272  1
  O2-  O232  1  0.20706404  0.83884756  0.39884399  1
  O2-  O233  1  0.20900794  0.83374654  0.73016981  1
  O2-  O234  1  0.71060569  0.33800027  0.06571935  1
  O2-  O235  1  0.70735496  0.33908844  0.39662919  1
  O2-  O236  1  0.70116051  0.33524870  0.73112211  1
  O2-  O237  1  0.70660634  0.83635753  0.06672261  1
  O2-  O238  1  0.70698698  0.83520817  0.39711287  1
  O2-  O239  1  0.70289508  0.83031307  0.73678346  1
  O2-  O240  1  0.46171396  0.41724946  0.26522468  1
  O2-  O241  1  0.45049291  0.41771681  0.60391772  1
  O2-  O242  1  0.46369493  0.41281982  0.92664861  1
  O2-  O243  1  0.44960743  0.91592785  0.27097167  1
  O2-  O244  1  0.46009152  0.91319715  0.60301092  1
  O2-  O245  1  0.46093671  0.92170827  0.93165310  1
  O2-  O246  1  0.95246227  0.41607165  0.26672627  1
  O2-  O247  1  0.95674848  0.41335824  0.60316098  1
  O2-  O248  1  0.94225908  0.41761178  0.94098231  1
  O2-  O249  1  0.95867743  0.91289546  0.27088939  1
  O2-  O250  1  0.95427020  0.91838512  0.59580834  1
  O2-  O251  1  0.96190482  0.91699324  0.93064517  1
  O2-  O252  1  0.33194829  0.29196691  0.26346335  1
  O2-  O253  1  0.33597455  0.29316624  0.60244413  1
  O2-  O254  1  0.33528275  0.28723369  0.92916210  1
  O2-  O255  1  0.33233048  0.79835811  0.27351861  1
  O2-  O256  1  0.33789950  0.79812872  0.60124601  1
  O2-  O257  1  0.32948667  0.80144107  0.93037046  1
  O2-  O258  1  0.83321873  0.30026461  0.27063334  1
  O2-  O259  1  0.83124389  0.30274576  0.60611554  1
  O2-  O260  1  0.83293939  0.29101720  0.93322158  1
  O2-  O261  1  0.83498612  0.79847510  0.27121680  1
  O2-  O262  1  0.82753284  0.79031022  0.59767620  1
  O2-  O263  1  0.82909354  0.79990570  0.93560724  1
  O2-  O264  1  0.41519792  0.04469075  0.06416021  1
  O2-  O265  1  0.41351956  0.04560405  0.39262730  1
  O2-  O266  1  0.41291529  0.03820028  0.73529865  1
  O2-  O267  1  0.42013637  0.53839341  0.06328242  1
  O2-  O268  1  0.41775553  0.53894516  0.40271729  1
  O2-  O269  1  0.41712128  0.54760386  0.73055859  1
  O2-  O270  1  0.91441641  0.04047486  0.06159665  1
  O2-  O271  1  0.91620366  0.03617509  0.40183306  1
  O2-  O272  1  0.92398903  0.04432308  0.73401202  1
  O2-  O273  1  0.90988887  0.54330142  0.06599810  1
  O2-  O274  1  0.91377620  0.54248734  0.39350953  1
  O2-  O275  1  0.91308105  0.53622770  0.73547345  1
  O2-  O276  1  0.29308440  0.16234414  0.06319876  1
  O2-  O277  1  0.29109498  0.16385304  0.39309705  1
  O2-  O278  1  0.28942967  0.16696495  0.73360099  1
  O2-  O279  1  0.29827868  0.67374885  0.06466185  1
  O2-  O280  1  0.29285982  0.66844060  0.40261090  1
  O2-  O281  1  0.30380128  0.67108781  0.72641692  1
  O2-  O282  1  0.79436692  0.16188987  0.06415702  1
  O2-  O283  1  0.79763579  0.17009288  0.39981138  1
  O2-  O284  1  0.79566959  0.17144785  0.73650683  1
  O2-  O285  1  0.79205192  0.66497564  0.06358034  1
  O2-  O286  1  0.79413112  0.66401094  0.39283112  1
  O2-  O287  1  0.78751738  0.66465222  0.73473570  1
