# generated using pymatgen
data_Ca2Al2SiO7
_symmetry_space_group_name_H-M   'P 1'
_cell_length_a   15.46752557
_cell_length_b   15.47115395
_cell_length_c   15.29086536
_cell_angle_alpha   89.97712380
_cell_angle_beta   90.02000136
_cell_angle_gamma   89.99759944
_symmetry_Int_Tables_number   1
_chemical_formula_structural   Ca2Al2SiO7
_chemical_formula_sum   'Ca48 Al48 Si24 O168'
_cell_volume   3659.11073911
_cell_formula_units_Z   24
loop_
 _symmetry_equiv_pos_site_id
 _symmetry_equiv_pos_as_xyz
  1  'x, y, z'
loop_
 _atom_type_symbol
 _atom_type_oxidation_number
  Ca2+  2.0
  Al0+  0.0
  Si0+  0.0
  O2-  -2.0
loop_
 _atom_site_type_symbol
 _atom_site_label
 _atom_site_symmetry_multiplicity
 _atom_site_fract_x
 _atom_site_fract_y
 _atom_site_fract_z
 _atom_site_occupancy
  Ca2+  Ca0  1  0.16000828  0.07442438  0.17024757  1
  Ca2+  Ca1  1  0.16740523  0.07406667  0.50678016  1
  Ca2+  Ca2  1  0.17195636  0.07461662  0.84261389  1
  Ca2+  Ca3  1  0.16014180  0.57586206  0.17225377  1
  Ca2+  Ca4  1  0.16939740  0.57639026  0.51031919  1
  Ca2+  Ca5  1  0.16474863  0.58822945  0.83538973  1
  Ca2+  Ca6  1  0.67690658  0.09330532  0.17001369  1
  Ca2+  Ca7  1  0.67342310  0.08559369  0.50960573  1
  Ca2+  Ca8  1  0.67358909  0.08506091  0.83835023  1
  Ca2+  Ca9  1  0.66996711  0.59068349  0.16820213  1
  Ca2+  Ca10  1  0.66370420  0.58328946  0.50409318  1
  Ca2+  Ca11  1  0.67204446  0.58216750  0.84418332  1
  Ca2+  Ca12  1  0.08894003  0.32086740  0.16473333  1
  Ca2+  Ca13  1  0.08489225  0.32518225  0.49329752  1
  Ca2+  Ca14  1  0.08237428  0.32544540  0.83349582  1
  Ca2+  Ca15  1  0.08033202  0.83391851  0.15481099  1
  Ca2+  Ca16  1  0.08225887  0.83998920  0.49959683  1
  Ca2+  Ca17  1  0.07710562  0.83543889  0.82772659  1
  Ca2+  Ca18  1  0.58177045  0.32208207  0.16243689  1
  Ca2+  Ca19  1  0.57596354  0.32119224  0.50057331  1
  Ca2+  Ca20  1  0.57758613  0.31959268  0.82734097  1
  Ca2+  Ca21  1  0.58534184  0.82347758  0.16060443  1
  Ca2+  Ca22  1  0.58439166  0.83216549  0.49636918  1
  Ca2+  Ca23  1  0.58955494  0.82899630  0.82877160  1
  Ca2+  Ca24  1  0.32652711  0.41804259  0.17085513  1
  Ca2+  Ca25  1  0.33398389  0.42007745  0.50550026  1
  Ca2+  Ca26  1  0.34041123  0.42106460  0.83146041  1
  Ca2+  Ca27  1  0.32156170  0.92028472  0.16540111  1
  Ca2+  Ca28  1  0.32130669  0.91966524  0.50825065  1
  Ca2+  Ca29  1  0.32347188  0.92499198  0.83641325  1
  Ca2+  Ca30  1  0.83637413  0.42579095  0.16704977  1
  Ca2+  Ca31  1  0.83058496  0.41863343  0.50513621  1
  Ca2+  Ca32  1  0.83338845  0.42508523  0.84110522  1
  Ca2+  Ca33  1  0.83895061  0.92723124  0.16611229  1
  Ca2+  Ca34  1  0.82792526  0.92685182  0.50815481  1
  Ca2+  Ca35  1  0.83344334  0.91941439  0.83349317  1
  Ca2+  Ca36  1  0.42598567  0.16039733  0.15845839  1
  Ca2+  Ca37  1  0.42685665  0.15547880  0.49997464  1
  Ca2+  Ca38  1  0.42260840  0.16006343  0.82502995  1
  Ca2+  Ca39  1  0.42685970  0.66723268  0.16175564  1
  Ca2+  Ca40  1  0.41794150  0.66750281  0.49648683  1
  Ca2+  Ca41  1  0.41869459  0.66672218  0.82820548  1
  Ca2+  Ca42  1  0.92500340  0.15891250  0.16283349  1
  Ca2+  Ca43  1  0.91924695  0.15867613  0.49449727  1
  Ca2+  Ca44  1  0.92083102  0.15327438  0.83349116  1
  Ca2+  Ca45  1  0.92120086  0.67718032  0.15155297  1
  Ca2+  Ca46  1  0.92166268  0.67697729  0.50169938  1
  Ca2+  Ca47  1  0.92433531  0.67889961  0.83068723  1
  Al0+  Al48  1  -0.00207295  0.00038511  -0.00126568  1
  Al0+  Al49  1  -0.00138871  0.00059134  0.33772242  1
  Al0+  Al50  1  -0.00267079  -0.00123168  0.66747577  1
  Al0+  Al51  1  -0.00074184  0.50057313  0.00257817  1
  Al0+  Al52  1  -0.00040429  0.50072839  0.34061772  1
  Al0+  Al53  1  0.00078184  0.49959287  0.66339483  1
  Al0+  Al54  1  0.49975425  -0.00200293  -0.00005273  1
  Al0+  Al55  1  0.50004386  -0.00241420  0.32529530  1
  Al0+  Al56  1  0.50080745  -0.00476589  0.66722510  1
  Al0+  Al57  1  0.50025814  0.49847154  -0.00130965  1
  Al0+  Al58  1  0.50176212  0.50021766  0.32847977  1
  Al0+  Al59  1  0.49963976  0.49695631  0.66718728  1
  Al0+  Al60  1  0.25100637  0.25226786  -0.00116543  1
  Al0+  Al61  1  0.25037552  0.25049275  0.33422949  1
  Al0+  Al62  1  0.24932915  0.25314371  0.66611687  1
  Al0+  Al63  1  0.25253013  0.74865441  0.00211871  1
  Al0+  Al64  1  0.25039659  0.75014852  0.33553319  1
  Al0+  Al65  1  0.25187094  0.74620404  0.67020141  1
  Al0+  Al66  1  0.74794290  0.25174385  0.00103657  1
  Al0+  Al67  1  0.75006187  0.25477851  0.33400459  1
  Al0+  Al68  1  0.74979846  0.25162380  0.66800130  1
  Al0+  Al69  1  0.75096427  0.74937409  -0.00330526  1
  Al0+  Al70  1  0.75168320  0.75168257  0.33018827  1
  Al0+  Al71  1  0.75362804  0.75011532  0.66435872  1
  Al0+  Al72  1  0.06955423  0.17936578  0.32147105  1
  Al0+  Al73  1  0.57041836  0.17596986  0.65224046  1
  Al0+  Al74  1  0.57073463  0.17789258  0.98574198  1
  Al0+  Al75  1  0.07058761  0.17986945  0.98664586  1
  Al0+  Al76  1  0.67867850  0.92608948  0.68049854  1
  Al0+  Al77  1  0.81845823  0.07191297  0.01514252  1
  Al0+  Al78  1  0.17890668  0.42795377  0.34816049  1
  Al0+  Al79  1  0.17819019  0.92844142  0.68205456  1
  Al0+  Al80  1  0.17895808  0.92947005  0.34731836  1
  Al0+  Al81  1  0.56997055  0.67913336  0.98483938  1
  Al0+  Al82  1  0.07317986  0.67874207  0.64987111  1
  Al0+  Al83  1  0.81781216  0.07259523  0.34639677  1
  Al0+  Al84  1  0.81887661  0.07355533  0.68292760  1
  Al0+  Al85  1  0.32117335  0.07288930  0.67917783  1
  Al0+  Al86  1  0.17853614  0.92963271  0.01459616  1
  Al0+  Al87  1  0.32226170  0.07362542  0.01541323  1
  Al0+  Al88  1  0.57160258  0.17853006  0.31889583  1
  Al0+  Al89  1  0.92970478  0.82289356  0.98423550  1
  Al0+  Al90  1  0.82028732  0.57133667  0.01352975  1
  Al0+  Al91  1  0.92967847  0.82243309  0.64746235  1
  Al0+  Al92  1  0.32155797  0.56862579  0.68030126  1
  Al0+  Al93  1  0.57120337  0.68005679  0.31995853  1
  Al0+  Al94  1  0.42753623  0.32128692  0.65073014  1
  Al0+  Al95  1  0.07347088  0.67671952  0.98715698  1
  Si0+  Si96  1  0.67702036  0.42958492  0.01911012  1
  Si0+  Si97  1  0.42870348  0.32239506  0.31536878  1
  Si0+  Si98  1  0.57198316  0.67782822  0.65320834  1
  Si0+  Si99  1  0.93115637  0.82041310  0.31745993  1
  Si0+  Si100  1  0.42745041  0.32212719  0.98311042  1
  Si0+  Si101  1  0.06941127  0.17953766  0.65316284  1
  Si0+  Si102  1  0.92775224  0.32263439  0.98530791  1
  Si0+  Si103  1  0.42797993  0.82094084  0.98106465  1
  Si0+  Si104  1  0.92747430  0.32591782  0.31705754  1
  Si0+  Si105  1  0.82190868  0.56994625  0.68091509  1
  Si0+  Si106  1  0.82071968  0.57406455  0.35047324  1
  Si0+  Si107  1  0.67900627  0.43024340  0.68244107  1
  Si0+  Si108  1  0.42481201  0.82117183  0.31426349  1
  Si0+  Si109  1  0.92861434  0.32298087  0.65243862  1
  Si0+  Si110  1  0.67872728  0.43159536  0.34981257  1
  Si0+  Si111  1  0.32471024  0.07157452  0.34824436  1
  Si0+  Si112  1  0.32304794  0.57008640  0.34845351  1
  Si0+  Si113  1  0.67748740  0.92652880  0.01730352  1
  Si0+  Si114  1  0.07162404  0.67810166  0.32014950  1
  Si0+  Si115  1  0.17535633  0.42819735  0.68609539  1
  Si0+  Si116  1  0.17801490  0.43024498  0.01521809  1
  Si0+  Si117  1  0.32381424  0.57018763  0.01603575  1
  Si0+  Si118  1  0.42872217  0.81880476  0.65152464  1
  Si0+  Si119  1  0.67782333  0.92681727  0.34686252  1
  O2-  O120  1  0.24674360  0.00527740  0.06576882  1
  O2-  O121  1  0.25440799  0.00447473  0.39199847  1
  O2-  O122  1  0.24657675  0.00465786  0.73013273  1
  O2-  O123  1  0.24787849  0.50356971  0.05685594  1
  O2-  O124  1  0.25325754  0.50349501  0.39352492  1
  O2-  O125  1  0.24535518  0.49621433  0.72876165  1
  O2-  O126  1  0.74244721  -0.00165316  0.06226423  1
  O2-  O127  1  0.73809844  0.00240058  0.39113567  1
  O2-  O128  1  0.74477237  0.00281817  0.73110310  1
  O2-  O129  1  0.74473052  0.49908959  0.06389373  1
  O2-  O130  1  0.74898131  0.50358244  0.39274491  1
  O2-  O131  1  0.74977406  0.50115680  0.72443019  1
  O2-  O132  1  -0.00424318  0.25624589  0.27468903  1
  O2-  O133  1  -0.00374249  0.24896347  0.61072998  1
  O2-  O134  1  -0.00714943  0.25186705  0.93957491  1
  O2-  O135  1  0.00355439  0.75027356  0.27612417  1
  O2-  O136  1  0.00611913  0.75414215  0.59765558  1
  O2-  O137  1  0.00641881  0.75321961  0.93795360  1
  O2-  O138  1  0.49274705  0.24930305  0.27172681  1
  O2-  O139  1  0.49333997  0.24313106  0.60147316  1
  O2-  O140  1  0.49063096  0.24770577  0.94110476  1
  O2-  O141  1  0.49678679  0.75406589  0.27225274  1
  O2-  O142  1  0.50258580  0.74929690  0.60975065  1
  O2-  O143  1  0.49779330  0.75362433  0.93568454  1
  O2-  O144  1  0.06995265  0.18183147  0.10000787  1
  O2-  O145  1  0.06735976  0.18018612  0.43482265  1
  O2-  O146  1  0.06908039  0.18236562  0.75821084  1
  O2-  O147  1  0.06942305  0.67433250  0.10167460  1
  O2-  O148  1  0.06983761  0.67736293  0.42474816  1
  O2-  O149  1  0.06808143  0.67543555  0.76283603  1
  O2-  O150  1  0.57185313  0.18342320  0.09924825  1
  O2-  O151  1  0.57201739  0.18008578  0.43163136  1
  O2-  O152  1  0.57251617  0.18043544  0.76549250  1
  O2-  O153  1  0.56820683  0.67953367  0.09827834  1
  O2-  O154  1  0.57051552  0.67963371  0.43344030  1
  O2-  O155  1  0.57133333  0.67696609  0.75806018  1
  O2-  O156  1  0.17908972  0.43025883  0.23460474  1
  O2-  O157  1  0.17285082  0.42923392  0.58043685  1
  O2-  O158  1  0.17667923  0.42926563  0.91050359  1
  O2-  O159  1  0.17796699  0.92797489  0.23461947  1
  O2-  O160  1  0.18050237  0.93047589  0.56776367  1
  O2-  O161  1  0.18046579  0.92942265  0.90159730  1
  O2-  O162  1  0.67956325  0.43174763  0.24502982  1
  O2-  O163  1  0.67988087  0.43175543  0.57683989  1
  O2-  O164  1  0.67778690  0.43074578  0.91343219  1
  O2-  O165  1  0.68191168  0.92153512  0.24172361  1
  O2-  O166  1  0.68053262  0.92398186  0.56627295  1
  O2-  O167  1  0.67849051  0.92534783  0.91209370  1
  O2-  O168  1  0.42952132  0.32671868  0.08891380  1
  O2-  O169  1  0.43218572  0.32729211  0.42030625  1
  O2-  O170  1  0.43444809  0.32652291  0.76380386  1
  O2-  O171  1  0.42855789  0.81713576  0.08702333  1
  O2-  O172  1  0.42381085  0.81980434  0.41995740  1
  O2-  O173  1  0.42781638  0.81604537  0.75618949  1
  O2-  O174  1  0.93051454  0.32529419  0.09087833  1
  O2-  O175  1  0.92684076  0.32810177  0.42281908  1
  O2-  O176  1  0.93065957  0.32934991  0.75709441  1
  O2-  O177  1  0.92958453  0.82090325  0.09899154  1
  O2-  O178  1  0.92898286  0.81815167  0.42214018  1
  O2-  O179  1  0.92668144  0.81866122  0.76024915  1
  O2-  O180  1  0.32513109  0.07018367  0.24288391  1
  O2-  O181  1  0.31990772  0.06854466  0.56492341  1
  O2-  O182  1  0.32120873  0.07189328  0.90213807  1
  O2-  O183  1  0.32312373  0.56841002  0.24267665  1
  O2-  O184  1  0.32381713  0.56618054  0.56686678  1
  O2-  O185  1  0.32790945  0.56688877  0.91139560  1
  O2-  O186  1  0.81978358  0.07013152  0.23340846  1
  O2-  O187  1  0.81803327  0.07440567  0.56877438  1
  O2-  O188  1  0.81686066  0.07296403  0.90287127  1
  O2-  O189  1  0.82135914  0.57354831  0.24557640  1
  O2-  O190  1  0.81924793  0.56742138  0.57519274  1
  O2-  O191  1  0.81885216  0.56687597  0.90041294  1
  O2-  O192  1  0.03494685  0.08361869  0.26795598  1
  O2-  O193  1  0.04240926  0.08781603  0.60604439  1
  O2-  O194  1  0.03986675  0.08441974  0.93256635  1
  O2-  O195  1  0.04143515  0.58568535  0.27491445  1
  O2-  O196  1  0.03929972  0.58110748  0.59598148  1
  O2-  O197  1  0.04095954  0.57956607  0.93432468  1
  O2-  O198  1  0.54764207  0.08031717  0.26444039  1
  O2-  O199  1  0.54715355  0.07554790  0.60004586  1
  O2-  O200  1  0.54654405  0.07864559  0.93533401  1
  O2-  O201  1  0.54202468  0.58382126  0.26395403  1
  O2-  O202  1  0.54271802  0.58641843  0.60584655  1
  O2-  O203  1  0.53979468  0.58147399  0.93297986  1
  O2-  O204  1  0.16704057  0.20942146  0.26826089  1
  O2-  O205  1  0.16017072  0.20937577  0.60508365  1
  O2-  O206  1  0.16589366  0.21503916  0.93292488  1
  O2-  O207  1  0.16570540  0.70026011  0.27482610  1
  O2-  O208  1  0.17516452  0.69829653  0.60068302  1
  O2-  O209  1  0.17566614  0.69569110  0.93941999  1
  O2-  O210  1  0.66662799  0.21761735  0.26637438  1
  O2-  O211  1  0.66725551  0.21380627  0.60012678  1
  O2-  O212  1  0.66527418  0.21567684  0.93223495  1
  O2-  O213  1  0.66810897  0.71085600  0.26575064  1
  O2-  O214  1  0.66416572  0.70295954  0.60528536  1
  O2-  O215  1  0.66706545  0.70665582  0.93166226  1
  O2-  O216  1  0.08704976  0.45647859  0.06521327  1
  O2-  O217  1  0.08256789  0.45770615  0.40387066  1
  O2-  O218  1  0.08203835  0.45550419  0.73214923  1
  O2-  O219  1  0.07925293  0.95677831  0.06621110  1
  O2-  O220  1  0.08364569  0.96172488  0.40242235  1
  O2-  O221  1  0.07846507  0.95371387  0.73130338  1
  O2-  O222  1  0.58354663  0.45529923  0.06543917  1
  O2-  O223  1  0.58705968  0.46100696  0.39666280  1
  O2-  O224  1  0.58870507  0.45885526  0.73075718  1
  O2-  O225  1  0.58221730  0.94588848  0.06239544  1
  O2-  O226  1  0.57998485  0.94315336  0.38764209  1
  O2-  O227  1  0.57777899  0.94310810  0.73161694  1
  O2-  O228  1  0.20910069  0.34011727  0.06424979  1
  O2-  O229  1  0.20912955  0.33172264  0.40307517  1
  O2-  O230  1  0.19954721  0.33468508  0.73225679  1
  O2-  O231  1  0.21012214  0.83089277  0.06764052  1
  O2-  O232  1  0.20936473  0.83213762  0.40111332  1
  O2-  O233  1  0.20936603  0.83037128  0.73212059  1
  O2-  O234  1  0.70472725  0.33750351  0.06661494  1
  O2-  O235  1  0.70839127  0.34190722  0.39998923  1
  O2-  O236  1  0.70804762  0.33994027  0.73091820  1
  O2-  O237  1  0.70652297  0.83350170  0.06322917  1
  O2-  O238  1  0.70996664  0.83588628  0.39572990  1
  O2-  O239  1  0.71154796  0.82829845  0.73356678  1
  O2-  O240  1  0.45910227  0.41371551  0.26615737  1
  O2-  O241  1  0.46529311  0.41669894  0.59508416  1
  O2-  O242  1  0.45994125  0.41286338  0.93498661  1
  O2-  O243  1  0.44762441  0.91407461  0.26611720  1
  O2-  O244  1  0.45405908  0.90954536  0.60100102  1
  O2-  O245  1  0.45146846  0.91482646  0.93623400  1
  O2-  O246  1  0.95444117  0.42012638  0.27199048  1
  O2-  O247  1  0.95816386  0.41222053  0.60027162  1
  O2-  O248  1  0.95738911  0.41448148  0.93772411  1
  O2-  O249  1  0.95865481  0.91275202  0.27219661  1
  O2-  O250  1  0.95443193  0.92210945  0.59451111  1
  O2-  O251  1  0.95333121  0.92118456  0.93095840  1
  O2-  O252  1  0.33307792  0.30214481  0.27147978  1
  O2-  O253  1  0.32527997  0.30539603  0.60057015  1
  O2-  O254  1  0.33224526  0.30588484  0.93760141  1
  O2-  O255  1  0.33311618  0.79090738  0.26628558  1
  O2-  O256  1  0.33936830  0.78629861  0.60202844  1
  O2-  O257  1  0.33577633  0.79195844  0.93506491  1
  O2-  O258  1  0.83336517  0.30430834  0.27093059  1
  O2-  O259  1  0.83537645  0.29985987  0.60532830  1
  O2-  O260  1  0.83235635  0.30293289  0.94118887  1
  O2-  O261  1  0.84045898  0.79094316  0.26898790  1
  O2-  O262  1  0.83356448  0.78623995  0.59227081  1
  O2-  O263  1  0.83351515  0.78914686  0.93127031  1
  O2-  O264  1  0.41982512  0.04029433  0.06856883  1
  O2-  O265  1  0.41858674  0.04265376  0.39287302  1
  O2-  O266  1  0.41883336  0.04083239  0.73042683  1
  O2-  O267  1  0.41318760  0.53623777  0.06579957  1
  O2-  O268  1  0.41699900  0.54287762  0.39348026  1
  O2-  O269  1  0.41765957  0.53564122  0.73552377  1
  O2-  O270  1  0.91500596  0.03997264  0.06874925  1
  O2-  O271  1  0.91188641  0.03710817  0.40178453  1
  O2-  O272  1  0.91686609  0.04272130  0.73365112  1
  O2-  O273  1  0.91516092  0.53782318  0.07052645  1
  O2-  O274  1  0.91089837  0.54511668  0.40031643  1
  O2-  O275  1  0.91256221  0.53806878  0.72690359  1
  O2-  O276  1  0.30043965  0.17529491  0.06515524  1
  O2-  O277  1  0.30342424  0.16667727  0.39219608  1
  O2-  O278  1  0.29921555  0.17423361  0.72859482  1
  O2-  O279  1  0.30361902  0.66305315  0.06391827  1
  O2-  O280  1  0.30064580  0.66452424  0.39357361  1
  O2-  O281  1  0.29577581  0.66440015  0.73703840  1
  O2-  O282  1  0.78922059  0.17003899  0.06850136  1
  O2-  O283  1  0.79410965  0.17239907  0.39781571  1
  O2-  O284  1  0.79595146  0.17389415  0.73496894  1
  O2-  O285  1  0.78912550  0.66746360  0.06809283  1
  O2-  O286  1  0.79157566  0.66562729  0.39734882  1
  O2-  O287  1  0.79536898  0.66169605  0.72662332  1
