# generated using pymatgen
data_Ca2Al2SiO7
_symmetry_space_group_name_H-M   'P 1'
_cell_length_a   15.46308544
_cell_length_b   15.46211982
_cell_length_c   15.28763882
_cell_angle_alpha   89.98884017
_cell_angle_beta   90.00028451
_cell_angle_gamma   89.99339362
_symmetry_Int_Tables_number   1
_chemical_formula_structural   Ca2Al2SiO7
_chemical_formula_sum   'Ca48 Al48 Si24 O168'
_cell_volume   3655.15326840
_cell_formula_units_Z   24
loop_
 _symmetry_equiv_pos_site_id
 _symmetry_equiv_pos_as_xyz
  1  'x, y, z'
loop_
 _atom_type_symbol
 _atom_type_oxidation_number
  Ca2+  2.0
  Al0+  0.0
  Si0+  0.0
  O2-  -2.0
loop_
 _atom_site_type_symbol
 _atom_site_label
 _atom_site_symmetry_multiplicity
 _atom_site_fract_x
 _atom_site_fract_y
 _atom_site_fract_z
 _atom_site_occupancy
  Ca2+  Ca0  1  0.16971806  0.07904319  0.17123352  1
  Ca2+  Ca1  1  0.17277024  0.08278682  0.50988497  1
  Ca2+  Ca2  1  0.17252393  0.09228097  0.83241494  1
  Ca2+  Ca3  1  0.17708876  0.59083572  0.17127068  1
  Ca2+  Ca4  1  0.18069952  0.58811870  0.50229372  1
  Ca2+  Ca5  1  0.18068711  0.58529250  0.83980285  1
  Ca2+  Ca6  1  0.66089257  0.08550095  0.16657879  1
  Ca2+  Ca7  1  0.65537865  0.07419500  0.50430920  1
  Ca2+  Ca8  1  0.66583248  0.07377773  0.84492443  1
  Ca2+  Ca9  1  0.66016265  0.57475988  0.17325769  1
  Ca2+  Ca10  1  0.66696664  0.58255785  0.50454796  1
  Ca2+  Ca11  1  0.66812121  0.58151913  0.83870048  1
  Ca2+  Ca12  1  0.07834539  0.33567385  0.16375164  1
  Ca2+  Ca13  1  0.07837341  0.33451325  0.50353509  1
  Ca2+  Ca14  1  0.07373794  0.32907316  0.82211326  1
  Ca2+  Ca15  1  0.08162339  0.81986320  0.16304184  1
  Ca2+  Ca16  1  0.07876488  0.82626555  0.49206514  1
  Ca2+  Ca17  1  0.08164948  0.82798917  0.83374874  1
  Ca2+  Ca18  1  0.57899026  0.33715343  0.15995986  1
  Ca2+  Ca19  1  0.57306730  0.33169757  0.49110130  1
  Ca2+  Ca20  1  0.57727797  0.33458697  0.83455755  1
  Ca2+  Ca21  1  0.58199979  0.82197249  0.16444590  1
  Ca2+  Ca22  1  0.58185721  0.82274241  0.49563132  1
  Ca2+  Ca23  1  0.59474582  0.82466473  0.83082717  1
  Ca2+  Ca24  1  0.34161880  0.42548787  0.16873410  1
  Ca2+  Ca25  1  0.34331925  0.42527011  0.50318369  1
  Ca2+  Ca26  1  0.34459460  0.42438298  0.83569824  1
  Ca2+  Ca27  1  0.33778055  0.91442238  0.17276149  1
  Ca2+  Ca28  1  0.33966797  0.92266045  0.50516999  1
  Ca2+  Ca29  1  0.33476064  0.92536335  0.83496210  1
  Ca2+  Ca30  1  0.81585554  0.41934167  0.17340193  1
  Ca2+  Ca31  1  0.82752608  0.42584531  0.50251600  1
  Ca2+  Ca32  1  0.82853824  0.41724724  0.83665757  1
  Ca2+  Ca33  1  0.82678963  0.92102240  0.16332037  1
  Ca2+  Ca34  1  0.82359513  0.91649751  0.50754792  1
  Ca2+  Ca35  1  0.82094592  0.92222235  0.83893659  1
  Ca2+  Ca36  1  0.43140665  0.18032264  0.16234755  1
  Ca2+  Ca37  1  0.41657747  0.17697434  0.49394437  1
  Ca2+  Ca38  1  0.41756365  0.17831053  0.82639092  1
  Ca2+  Ca39  1  0.42470418  0.66131613  0.16379525  1
  Ca2+  Ca40  1  0.42588506  0.66550860  0.49301573  1
  Ca2+  Ca41  1  0.42926801  0.65937468  0.83002893  1
  Ca2+  Ca42  1  0.91398836  0.16563541  0.15941049  1
  Ca2+  Ca43  1  0.91963547  0.17128998  0.50058637  1
  Ca2+  Ca44  1  0.91818164  0.16975562  0.82606645  1
  Ca2+  Ca45  1  0.92886335  0.65177023  0.16585753  1
  Ca2+  Ca46  1  0.91841686  0.65864255  0.49384972  1
  Ca2+  Ca47  1  0.92207581  0.66020865  0.82719834  1
  Al0+  Al48  1  0.00070599  -0.00088757  0.00282019  1
  Al0+  Al49  1  -0.00039791  -0.00107409  0.33384431  1
  Al0+  Al50  1  -0.00066263  -0.00246519  0.66295963  1
  Al0+  Al51  1  0.00338575  0.49858732  -0.00697472  1
  Al0+  Al52  1  0.00029423  0.49763341  0.33218974  1
  Al0+  Al53  1  0.00043418  0.49937929  0.66520538  1
  Al0+  Al54  1  0.49932422  -0.00039703  0.00336115  1
  Al0+  Al55  1  0.49927794  0.00154139  0.32752199  1
  Al0+  Al56  1  0.49753165  -0.00190173  0.67897562  1
  Al0+  Al57  1  0.50049967  0.50254498  -0.00054246  1
  Al0+  Al58  1  0.49857512  0.50012473  0.33605392  1
  Al0+  Al59  1  0.50199945  0.49950661  0.66260586  1
  Al0+  Al60  1  0.24897351  0.25193379  -0.00120136  1
  Al0+  Al61  1  0.24906174  0.24958682  0.32897369  1
  Al0+  Al62  1  0.24933971  0.25017372  0.66251611  1
  Al0+  Al63  1  0.24945592  0.75085913  -0.00185127  1
  Al0+  Al64  1  0.24654392  0.75071338  0.33227887  1
  Al0+  Al65  1  0.25106806  0.75062182  0.67253764  1
  Al0+  Al66  1  0.74950536  0.25084388  0.00297185  1
  Al0+  Al67  1  0.75178834  0.24885206  0.33688021  1
  Al0+  Al68  1  0.74964884  0.24967547  0.66057956  1
  Al0+  Al69  1  0.75312069  0.75280053  0.00259019  1
  Al0+  Al70  1  0.75124691  0.75353682  0.33182289  1
  Al0+  Al71  1  0.75178281  0.74833665  0.67096686  1
  Al0+  Al72  1  0.82163791  0.56905455  0.68128692  1
  Al0+  Al73  1  0.42786124  0.82128683  0.32089904  1
  Al0+  Al74  1  0.31896675  0.57123383  0.34724532  1
  Al0+  Al75  1  0.82153044  0.57176410  0.34623853  1
  Al0+  Al76  1  0.42902320  0.32205848  0.98315905  1
  Al0+  Al77  1  0.92598373  0.32300004  0.64923305  1
  Al0+  Al78  1  0.43074477  0.32052040  0.65163180  1
  Al0+  Al79  1  0.31863706  0.07220276  0.68033638  1
  Al0+  Al80  1  0.67878388  0.92896823  0.67992597  1
  Al0+  Al81  1  0.67625041  0.92708764  0.01961643  1
  Al0+  Al82  1  0.42796625  0.32255722  0.31708236  1
  Al0+  Al83  1  0.57303314  0.17912154  0.31962616  1
  Al0+  Al84  1  0.32299599  0.57073151  0.68122463  1
  Al0+  Al85  1  0.07039365  0.17763411  0.65124451  1
  Al0+  Al86  1  0.68046896  0.43274012  0.01165272  1
  Al0+  Al87  1  0.06830146  0.67817542  0.32114028  1
  Al0+  Al88  1  0.57248376  0.17889476  0.98340827  1
  Al0+  Al89  1  0.82017066  0.07142018  0.01385386  1
  Al0+  Al90  1  0.07121911  0.67847574  0.98350315  1
  Al0+  Al91  1  0.57224680  0.67912361  0.31892720  1
  Al0+  Al92  1  0.57206567  0.68123710  0.98629593  1
  Al0+  Al93  1  0.57215969  0.68072403  0.65388775  1
  Al0+  Al94  1  0.67680048  0.42842821  0.35048514  1
  Al0+  Al95  1  0.31970607  0.57049927  0.01374099  1
  Si0+  Si96  1  0.93003183  0.31945199  0.31676175  1
  Si0+  Si97  1  0.93085620  0.82383620  0.98199578  1
  Si0+  Si98  1  0.42670575  0.82267793  0.65341952  1
  Si0+  Si99  1  0.82250374  0.07200227  0.68056609  1
  Si0+  Si100  1  0.57046677  0.17354834  0.65284479  1
  Si0+  Si101  1  0.67829166  0.93183008  0.34865814  1
  Si0+  Si102  1  0.07078890  0.17708038  0.98615097  1
  Si0+  Si103  1  0.31934649  0.07004225  0.34669405  1
  Si0+  Si104  1  0.42633768  0.82291078  0.98203328  1
  Si0+  Si105  1  0.92899194  0.31991124  0.98613998  1
  Si0+  Si106  1  0.17515697  0.92706434  0.68441884  1
  Si0+  Si107  1  0.67811422  0.42625761  0.68323083  1
  Si0+  Si108  1  0.32035503  0.07424912  0.01724029  1
  Si0+  Si109  1  0.17691372  0.42494544  0.35055595  1
  Si0+  Si110  1  0.18022956  0.93031438  0.01618732  1
  Si0+  Si111  1  0.07333890  0.67960183  0.65167668  1
  Si0+  Si112  1  0.17599906  0.42702510  0.01618579  1
  Si0+  Si113  1  0.82654612  0.57261533  0.01467841  1
  Si0+  Si114  1  0.92762332  0.82512636  0.31499642  1
  Si0+  Si115  1  0.92930453  0.81869457  0.65200448  1
  Si0+  Si116  1  0.17856142  0.42896945  0.68264999  1
  Si0+  Si117  1  0.17724560  0.92957533  0.34885850  1
  Si0+  Si118  1  0.82454078  0.07081131  0.35119222  1
  Si0+  Si119  1  0.06996884  0.17669903  0.31697553  1
  O2-  O120  1  0.25210657  -0.00017654  0.05940166  1
  O2-  O121  1  0.24981090  -0.00165835  0.39116422  1
  O2-  O122  1  0.24137265  -0.00111064  0.72735213  1
  O2-  O123  1  0.24484572  0.49510040  0.05980214  1
  O2-  O124  1  0.24679300  0.49276196  0.39366211  1
  O2-  O125  1  0.24817670  0.49562196  0.72788738  1
  O2-  O126  1  0.74539427  0.00419653  0.06687156  1
  O2-  O127  1  0.74951372  0.00326481  0.39173004  1
  O2-  O128  1  0.74921250  0.00915294  0.72462558  1
  O2-  O129  1  0.75364702  0.50940198  0.05864063  1
  O2-  O130  1  0.74548774  0.50551283  0.39846929  1
  O2-  O131  1  0.74923077  0.49265614  0.72763734  1
  O2-  O132  1  -0.00048574  0.24682406  0.27342854  1
  O2-  O133  1  -0.00230360  0.24864797  0.60092513  1
  O2-  O134  1  -0.00081502  0.24718463  0.94498664  1
  O2-  O135  1  -0.01016949  0.74918224  0.27338748  1
  O2-  O136  1  0.00146671  0.74934012  0.60908962  1
  O2-  O137  1  -0.00724431  0.74923311  0.93674006  1
  O2-  O138  1  0.50743608  0.25704883  0.26987850  1
  O2-  O139  1  0.50463510  0.24367457  0.60727631  1
  O2-  O140  1  0.49830497  0.24762641  0.93248037  1
  O2-  O141  1  0.49631469  0.74762981  0.26915365  1
  O2-  O142  1  0.49483863  0.75420314  0.60936423  1
  O2-  O143  1  0.49919845  0.75844035  0.93868423  1
  O2-  O144  1  0.07097934  0.17642894  0.09165548  1
  O2-  O145  1  0.06915972  0.17426922  0.42150517  1
  O2-  O146  1  0.06836139  0.17851260  0.76536913  1
  O2-  O147  1  0.07090702  0.68001900  0.09667124  1
  O2-  O148  1  0.06944594  0.68263440  0.43451001  1
  O2-  O149  1  0.07278141  0.68184157  0.75677692  1
  O2-  O150  1  0.57136177  0.18276616  0.09669006  1
  O2-  O151  1  0.56593770  0.17348922  0.43346360  1
  O2-  O152  1  0.56948132  0.17336967  0.75804534  1
  O2-  O153  1  0.56928009  0.67950886  0.09896176  1
  O2-  O154  1  0.57343042  0.68297487  0.43274942  1
  O2-  O155  1  0.57310465  0.68125188  0.76708018  1
  O2-  O156  1  0.17404486  0.42421212  0.24493031  1
  O2-  O157  1  0.17699370  0.43190736  0.57703372  1
  O2-  O158  1  0.17152864  0.42635643  0.91099708  1
  O2-  O159  1  0.17429725  0.93279526  0.24369818  1
  O2-  O160  1  0.17521193  0.92470794  0.57877742  1
  O2-  O161  1  0.17877148  0.93184689  0.91110851  1
  O2-  O162  1  0.67991514  0.42690909  0.23662936  1
  O2-  O163  1  0.67815010  0.42793622  0.57790237  1
  O2-  O164  1  0.68331414  0.43181699  0.89840664  1
  O2-  O165  1  0.67972065  0.93243044  0.24424034  1
  O2-  O166  1  0.67999375  0.92941846  0.56615341  1
  O2-  O167  1  0.68150605  0.92672634  0.90579144  1
  O2-  O168  1  0.42822755  0.32112896  0.09629411  1
  O2-  O169  1  0.42432122  0.31717981  0.43077373  1
  O2-  O170  1  0.43169519  0.32067813  0.76446070  1
  O2-  O171  1  0.42258951  0.82010986  0.08749405  1
  O2-  O172  1  0.43111393  0.82462583  0.43474147  1
  O2-  O173  1  0.42485318  0.82304065  0.75874918  1
  O2-  O174  1  0.93241160  0.32049089  0.09143822  1
  O2-  O175  1  0.93244126  0.31849665  0.42144481  1
  O2-  O176  1  0.92781732  0.32116213  0.76343537  1
  O2-  O177  1  0.93603575  0.82845937  0.08729290  1
  O2-  O178  1  0.93157563  0.83159198  0.42071165  1
  O2-  O179  1  0.93147082  0.81970181  0.75683345  1
  O2-  O180  1  0.31442982  0.06863945  0.24162424  1
  O2-  O181  1  0.31884416  0.06889782  0.56685915  1
  O2-  O182  1  0.31614842  0.07480979  0.91208840  1
  O2-  O183  1  0.31593727  0.57282952  0.23424591  1
  O2-  O184  1  0.32026004  0.57320914  0.56825348  1
  O2-  O185  1  0.31922998  0.56943402  0.90046714  1
  O2-  O186  1  0.83141338  0.06805865  0.24666235  1
  O2-  O187  1  0.82522266  0.06761669  0.57479305  1
  O2-  O188  1  0.82475121  0.06829643  0.90027387  1
  O2-  O189  1  0.82622378  0.56443815  0.23286773  1
  O2-  O190  1  0.82165107  0.57094945  0.56858255  1
  O2-  O191  1  0.82827679  0.56839272  0.90894113  1
  O2-  O192  1  0.04183549  0.08472892  0.26919383  1
  O2-  O193  1  0.04448367  0.07791154  0.59810164  1
  O2-  O194  1  0.04475576  0.08498858  0.93894943  1
  O2-  O195  1  0.04208076  0.58056654  0.26619395  1
  O2-  O196  1  0.04739676  0.58747363  0.60561308  1
  O2-  O197  1  0.04534018  0.58127320  0.92794441  1
  O2-  O198  1  0.53785741  0.08490320  0.26274236  1
  O2-  O199  1  0.54106545  0.07947606  0.60938611  1
  O2-  O200  1  0.54610847  0.07728361  0.93618508  1
  O2-  O201  1  0.54468017  0.57989888  0.26929579  1
  O2-  O202  1  0.54243629  0.58479897  0.59944920  1
  O2-  O203  1  0.53867997  0.58650476  0.93077891  1
  O2-  O204  1  0.16102702  0.20354259  0.26780161  1
  O2-  O205  1  0.16726640  0.20662950  0.59623440  1
  O2-  O206  1  0.16159847  0.20609779  0.93807467  1
  O2-  O207  1  0.16133671  0.71525082  0.26472272  1
  O2-  O208  1  0.16490328  0.71064661  0.60563823  1
  O2-  O209  1  0.16531345  0.71622329  0.92891260  1
  O2-  O210  1  0.67637306  0.19581997  0.27260103  1
  O2-  O211  1  0.66566889  0.19271061  0.60714087  1
  O2-  O212  1  0.67186277  0.20701072  0.93220880  1
  O2-  O213  1  0.67022061  0.71030404  0.26633941  1
  O2-  O214  1  0.66864064  0.71397282  0.60121072  1
  O2-  O215  1  0.67191010  0.70914732  0.93584970  1
  O2-  O216  1  0.08261654  0.45368967  0.06333721  1
  O2-  O217  1  0.08396590  0.45163015  0.39713841  1
  O2-  O218  1  0.08526054  0.45498739  0.72943074  1
  O2-  O219  1  0.09005742  0.96006232  0.06581515  1
  O2-  O220  1  0.08676679  0.96035275  0.39820991  1
  O2-  O221  1  0.08034061  0.94985592  0.72971791  1
  O2-  O222  1  0.58477111  0.46379645  0.06606904  1
  O2-  O223  1  0.57764651  0.45239451  0.40283375  1
  O2-  O224  1  0.58606272  0.45551718  0.72924226  1
  O2-  O225  1  0.57575701  0.94996512  0.07057910  1
  O2-  O226  1  0.58634928  0.96159746  0.39519413  1
  O2-  O227  1  0.58262730  0.95235315  0.73750880  1
  O2-  O228  1  0.19850852  0.33262494  0.06323905  1
  O2-  O229  1  0.19976607  0.32964456  0.39521758  1
  O2-  O230  1  0.20017157  0.33361588  0.72622505  1
  O2-  O231  1  0.20685727  0.83820775  0.06330734  1
  O2-  O232  1  0.20048504  0.83745785  0.39677006  1
  O2-  O233  1  0.20374127  0.83598805  0.73418577  1
  O2-  O234  1  0.71287433  0.33750809  0.06701967  1
  O2-  O235  1  0.70977226  0.33034030  0.40296519  1
  O2-  O236  1  0.70171497  0.33062530  0.72686000  1
  O2-  O237  1  0.71267942  0.83134777  0.07421087  1
  O2-  O238  1  0.70735081  0.84070146  0.39698946  1
  O2-  O239  1  0.71827439  0.83632160  0.73519829  1
  O2-  O240  1  0.45100277  0.42275622  0.26763084  1
  O2-  O241  1  0.46331717  0.41544992  0.59629820  1
  O2-  O242  1  0.46173306  0.41932885  0.93125341  1
  O2-  O243  1  0.45680049  0.91808947  0.26505124  1
  O2-  O244  1  0.45231543  0.91738641  0.60941465  1
  O2-  O245  1  0.44646644  0.91932186  0.93961193  1
  O2-  O246  1  0.96088543  0.40893809  0.26733072  1
  O2-  O247  1  0.96028541  0.41955167  0.59534483  1
  O2-  O248  1  0.95907803  0.40935484  0.93544371  1
  O2-  O249  1  0.96301356  0.91475300  0.26599402  1
  O2-  O250  1  0.95486942  0.91013735  0.60181552  1
  O2-  O251  1  0.96552622  0.91406417  0.93352485  1
  O2-  O252  1  0.33070982  0.28926913  0.26336618  1
  O2-  O253  1  0.33349717  0.29150855  0.59874147  1
  O2-  O254  1  0.32823686  0.29549394  0.93236168  1
  O2-  O255  1  0.32663136  0.80042482  0.27031665  1
  O2-  O256  1  0.33183019  0.79992607  0.60783916  1
  O2-  O257  1  0.33350188  0.79681676  0.93451606  1
  O2-  O258  1  0.83824861  0.29131018  0.27039912  1
  O2-  O259  1  0.82850322  0.29575911  0.59369730  1
  O2-  O260  1  0.83795890  0.29323957  0.93841353  1
  O2-  O261  1  0.83228048  0.80908284  0.27072523  1
  O2-  O262  1  0.83898686  0.78916049  0.60355936  1
  O2-  O263  1  0.83511986  0.80519133  0.93902337  1
  O2-  O264  1  0.41224376  0.04856438  0.06417904  1
  O2-  O265  1  0.41128577  0.04266319  0.39338679  1
  O2-  O266  1  0.41138585  0.04003590  0.74055349  1
  O2-  O267  1  0.41568659  0.53966185  0.06727294  1
  O2-  O268  1  0.41547642  0.54386064  0.40226691  1
  O2-  O269  1  0.41992051  0.53772730  0.73292458  1
  O2-  O270  1  0.91844536  0.03922843  0.06855750  1
  O2-  O271  1  0.91458392  0.03796892  0.40048495  1
  O2-  O272  1  0.91484126  0.04140946  0.72708589  1
  O2-  O273  1  0.91953242  0.54066120  0.05881409  1
  O2-  O274  1  0.91896776  0.53735874  0.39981550  1
  O2-  O275  1  0.91990530  0.54004902  0.73408940  1
  O2-  O276  1  0.28702082  0.16417776  0.06489394  1
  O2-  O277  1  0.28827195  0.16130136  0.39330234  1
  O2-  O278  1  0.28570575  0.16823735  0.73467729  1
  O2-  O279  1  0.28574099  0.66740017  0.06535450  1
  O2-  O280  1  0.28292206  0.66720782  0.40079220  1
  O2-  O281  1  0.29128019  0.66684694  0.73629294  1
  O2-  O282  1  0.79777660  0.17051758  0.06792197  1
  O2-  O283  1  0.80346794  0.16390432  0.39808620  1
  O2-  O284  1  0.80410336  0.16867765  0.72246482  1
  O2-  O285  1  0.81147061  0.66933590  0.05683251  1
  O2-  O286  1  0.80466262  0.67550611  0.39391059  1
  O2-  O287  1  0.79286903  0.66506305  0.73719243  1
