# generated using pymatgen
data_Ca2Al2SiO7
_symmetry_space_group_name_H-M   'P 1'
_cell_length_a   15.45717083
_cell_length_b   15.45626253
_cell_length_c   15.28296887
_cell_angle_alpha   90.00335447
_cell_angle_beta   89.99731762
_cell_angle_gamma   89.99478529
_symmetry_Int_Tables_number   1
_chemical_formula_structural   Ca2Al2SiO7
_chemical_formula_sum   'Ca48 Al48 Si24 O168'
_cell_volume   3651.25544553
_cell_formula_units_Z   24
loop_
 _symmetry_equiv_pos_site_id
 _symmetry_equiv_pos_as_xyz
  1  'x, y, z'
loop_
 _atom_type_symbol
 _atom_type_oxidation_number
  Ca2+  2.0
  Al0+  0.0
  Si0+  0.0
  O2-  -2.0
loop_
 _atom_site_type_symbol
 _atom_site_label
 _atom_site_symmetry_multiplicity
 _atom_site_fract_x
 _atom_site_fract_y
 _atom_site_fract_z
 _atom_site_occupancy
  Ca2+  Ca0  1  0.16240273  0.07213911  0.17438375  1
  Ca2+  Ca1  1  0.16286205  0.08097333  0.49903273  1
  Ca2+  Ca2  1  0.17021832  0.07536298  0.83982585  1
  Ca2+  Ca3  1  0.16514167  0.58394665  0.16849129  1
  Ca2+  Ca4  1  0.17400203  0.58458159  0.50840296  1
  Ca2+  Ca5  1  0.16860597  0.59399729  0.83545160  1
  Ca2+  Ca6  1  0.66708778  0.07750591  0.16969202  1
  Ca2+  Ca7  1  0.67182694  0.07625404  0.50666943  1
  Ca2+  Ca8  1  0.66607264  0.07785374  0.83578077  1
  Ca2+  Ca9  1  0.68095299  0.57906362  0.17004527  1
  Ca2+  Ca10  1  0.67076531  0.58379631  0.50405810  1
  Ca2+  Ca11  1  0.67303358  0.57818468  0.84186598  1
  Ca2+  Ca12  1  0.07253584  0.32582224  0.16508977  1
  Ca2+  Ca13  1  0.07272561  0.32464191  0.49225030  1
  Ca2+  Ca14  1  0.06877915  0.33401540  0.82826355  1
  Ca2+  Ca15  1  0.08395460  0.83097632  0.15886835  1
  Ca2+  Ca16  1  0.07882492  0.83301775  0.49855059  1
  Ca2+  Ca17  1  0.07812292  0.82655669  0.82906338  1
  Ca2+  Ca18  1  0.58505017  0.32905352  0.16081331  1
  Ca2+  Ca19  1  0.57939253  0.32610788  0.49689472  1
  Ca2+  Ca20  1  0.59728634  0.31992412  0.83162677  1
  Ca2+  Ca21  1  0.57393128  0.84627892  0.16213152  1
  Ca2+  Ca22  1  0.58636168  0.83237350  0.49648835  1
  Ca2+  Ca23  1  0.58329396  0.83356117  0.82721235  1
  Ca2+  Ca24  1  0.33365657  0.41631563  0.17434937  1
  Ca2+  Ca25  1  0.33350680  0.41921953  0.50733395  1
  Ca2+  Ca26  1  0.33275062  0.42635849  0.83524020  1
  Ca2+  Ca27  1  0.32535089  0.90895237  0.17071339  1
  Ca2+  Ca28  1  0.32834889  0.90885595  0.49747855  1
  Ca2+  Ca29  1  0.32918717  0.91301506  0.84164857  1
  Ca2+  Ca30  1  0.83976182  0.42194125  0.16574527  1
  Ca2+  Ca31  1  0.84302391  0.41938361  0.50108236  1
  Ca2+  Ca32  1  0.83332379  0.41962961  0.84282989  1
  Ca2+  Ca33  1  0.81872219  0.92104436  0.17825106  1
  Ca2+  Ca34  1  0.82855534  0.92868073  0.50928050  1
  Ca2+  Ca35  1  0.82308002  0.91459653  0.83506673  1
  Ca2+  Ca36  1  0.42250637  0.17134026  0.16238706  1
  Ca2+  Ca37  1  0.42359701  0.16823702  0.49433343  1
  Ca2+  Ca38  1  0.43175464  0.16452461  0.82990890  1
  Ca2+  Ca39  1  0.42025291  0.67924779  0.16267973  1
  Ca2+  Ca40  1  0.42455199  0.66716364  0.49782994  1
  Ca2+  Ca41  1  0.42313964  0.67161528  0.82698937  1
  Ca2+  Ca42  1  0.90983924  0.17217918  0.16690005  1
  Ca2+  Ca43  1  0.91088055  0.17249148  0.49301584  1
  Ca2+  Ca44  1  0.90446945  0.17831852  0.82798998  1
  Ca2+  Ca45  1  0.91942680  0.66219921  0.16029945  1
  Ca2+  Ca46  1  0.91629523  0.67277438  0.49908148  1
  Ca2+  Ca47  1  0.92448484  0.66894753  0.82650624  1
  Al0+  Al48  1  0.00088254  -0.00009830  0.00317444  1
  Al0+  Al49  1  -0.00073039  -0.00223919  0.33777613  1
  Al0+  Al50  1  -0.00024101  0.00209383  0.67067061  1
  Al0+  Al51  1  0.00330570  0.49974831  -0.00501796  1
  Al0+  Al52  1  0.00172916  0.49888028  0.33547635  1
  Al0+  Al53  1  0.00178547  0.49903286  0.65903908  1
  Al0+  Al54  1  0.49860598  0.00265384  -0.00498045  1
  Al0+  Al55  1  0.49706819  -0.00110733  0.33322963  1
  Al0+  Al56  1  0.49876886  0.00029508  0.66417404  1
  Al0+  Al57  1  0.49960166  0.50107140  0.00541010  1
  Al0+  Al58  1  0.50157319  0.50103511  0.32859525  1
  Al0+  Al59  1  0.49902408  0.50182595  0.66925872  1
  Al0+  Al60  1  0.25041515  0.25135402  -0.00144768  1
  Al0+  Al61  1  0.24914203  0.24840872  0.32635967  1
  Al0+  Al62  1  0.24801593  0.25075297  0.67147689  1
  Al0+  Al63  1  0.25067121  0.75075766  -0.00334884  1
  Al0+  Al64  1  0.25190543  0.74927753  0.33472730  1
  Al0+  Al65  1  0.25074915  0.74901788  0.66802092  1
  Al0+  Al66  1  0.74906639  0.25039748  -0.00273924  1
  Al0+  Al67  1  0.74841753  0.25196139  0.33138488  1
  Al0+  Al68  1  0.74875591  0.24990661  0.65811563  1
  Al0+  Al69  1  0.74918420  0.75074822  0.00995213  1
  Al0+  Al70  1  0.75101982  0.74635239  0.33995838  1
  Al0+  Al71  1  0.74969632  0.74997590  0.66287681  1
  Al0+  Al72  1  0.42902088  0.32228598  0.32106454  1
  Al0+  Al73  1  0.67494392  0.92877962  0.34973389  1
  Al0+  Al74  1  0.82085113  0.07382378  0.68333465  1
  Al0+  Al75  1  0.18052725  0.92927513  0.01305124  1
  Al0+  Al76  1  0.92835159  0.82280200  0.65207009  1
  Al0+  Al77  1  0.56931369  0.18150069  0.98628106  1
  Al0+  Al78  1  0.56963258  0.17822807  0.65062914  1
  Al0+  Al79  1  0.06950543  0.68048315  0.98730804  1
  Al0+  Al80  1  0.43086042  0.82014821  0.98539412  1
  Al0+  Al81  1  0.43034126  0.81892037  0.31994159  1
  Al0+  Al82  1  0.81958647  0.07202190  0.34816000  1
  Al0+  Al83  1  0.67826371  0.92808138  0.68268594  1
  Al0+  Al84  1  0.67908505  0.42711977  0.01475072  1
  Al0+  Al85  1  0.92854487  0.31954436  0.65150818  1
  Al0+  Al86  1  0.06974567  0.17503377  0.31760133  1
  Al0+  Al87  1  0.93152695  0.31831646  0.98555180  1
  Al0+  Al88  1  0.32114082  0.57097738  0.68135980  1
  Al0+  Al89  1  0.07241294  0.68020377  0.64914901  1
  Al0+  Al90  1  0.67745664  0.92972751  0.01377799  1
  Al0+  Al91  1  0.57123670  0.67805032  0.65448495  1
  Al0+  Al92  1  0.92791493  0.32212265  0.31560054  1
  Al0+  Al93  1  0.17908490  0.92695451  0.34805957  1
  Al0+  Al94  1  0.82362315  0.56805515  0.35018541  1
  Al0+  Al95  1  0.82424186  0.57088305  0.01265743  1
  Si0+  Si96  1  0.32145308  0.56982269  0.34724231  1
  Si0+  Si97  1  0.67572637  0.42935695  0.35145949  1
  Si0+  Si98  1  0.57037699  0.17788950  0.31619795  1
  Si0+  Si99  1  0.57346575  0.67743596  0.98574452  1
  Si0+  Si100  1  0.67858837  0.43018562  0.67929502  1
  Si0+  Si101  1  0.32011921  0.07314761  0.34950025  1
  Si0+  Si102  1  0.32060479  0.57180090  0.01712383  1
  Si0+  Si103  1  0.32099834  0.07306559  0.68162109  1
  Si0+  Si104  1  0.92821288  0.81941587  0.31885270  1
  Si0+  Si105  1  0.17719956  0.42828997  0.68451551  1
  Si0+  Si106  1  0.18006306  0.42855770  0.01564465  1
  Si0+  Si107  1  0.42775542  0.82217339  0.64951672  1
  Si0+  Si108  1  0.57511449  0.67744624  0.31421873  1
  Si0+  Si109  1  0.92487885  0.82414510  0.98705699  1
  Si0+  Si110  1  0.42570231  0.32579356  0.98171740  1
  Si0+  Si111  1  0.07392831  0.17543827  0.98222755  1
  Si0+  Si112  1  0.07193994  0.68010778  0.31911878  1
  Si0+  Si113  1  0.82289428  0.57023371  0.68032022  1
  Si0+  Si114  1  0.82160824  0.07263059  0.01594105  1
  Si0+  Si115  1  0.32171716  0.07373128  0.01655301  1
  Si0+  Si116  1  0.17965091  0.92892700  0.68253125  1
  Si0+  Si117  1  0.42647799  0.32175581  0.65366542  1
  Si0+  Si118  1  0.18090556  0.42724967  0.34763066  1
  Si0+  Si119  1  0.07500592  0.17789408  0.65191657  1
  O2-  O120  1  0.25129762  0.00727825  0.06088625  1
  O2-  O121  1  0.25136729  0.00466873  0.39442903  1
  O2-  O122  1  0.25083751  0.00087837  0.72333001  1
  O2-  O123  1  0.25331140  0.49703412  0.05935488  1
  O2-  O124  1  0.25507941  0.49496371  0.39004766  1
  O2-  O125  1  0.24450844  0.49842625  0.72903211  1
  O2-  O126  1  0.75673157  0.00013480  0.05954534  1
  O2-  O127  1  0.74739523  0.00049454  0.39861270  1
  O2-  O128  1  0.75083659  -0.00044613  0.73323057  1
  O2-  O129  1  0.75136689  0.49954985  0.06335625  1
  O2-  O130  1  0.74824169  0.49331926  0.39658237  1
  O2-  O131  1  0.75144436  0.49941308  0.72186856  1
  O2-  O132  1  -0.00444632  0.24474993  0.26730586  1
  O2-  O133  1  0.00258831  0.24234584  0.60843749  1
  O2-  O134  1  0.00358015  0.24141360  0.93719720  1
  O2-  O135  1  -0.00007234  0.74901239  0.27564045  1
  O2-  O136  1  0.00054654  0.75163760  0.59918616  1
  O2-  O137  1  -0.00801706  0.75329656  0.94306211  1
  O2-  O138  1  0.50299325  0.24863353  0.27274411  1
  O2-  O139  1  0.49179321  0.25188343  0.60722458  1
  O2-  O140  1  0.49666088  0.25950803  0.93869130  1
  O2-  O141  1  0.51068835  0.75107278  0.27168796  1
  O2-  O142  1  0.49949220  0.75586366  0.60738681  1
  O2-  O143  1  0.50843892  0.74845757  0.93948520  1
  O2-  O144  1  0.07602956  0.17686662  0.08736251  1
  O2-  O145  1  0.07391359  0.18011012  0.43134617  1
  O2-  O146  1  0.08086698  0.18150145  0.75732615  1
  O2-  O147  1  0.07144331  0.68061268  0.10096681  1
  O2-  O148  1  0.07372330  0.68149009  0.42383746  1
  O2-  O149  1  0.07188171  0.68230194  0.76287544  1
  O2-  O150  1  0.56602792  0.18169359  0.09939192  1
  O2-  O151  1  0.56751469  0.17870217  0.42187421  1
  O2-  O152  1  0.56925377  0.17964301  0.76374990  1
  O2-  O153  1  0.56951154  0.67597557  0.09110874  1
  O2-  O154  1  0.57106150  0.67287014  0.41990258  1
  O2-  O155  1  0.56897360  0.67561345  0.76764017  1
  O2-  O156  1  0.18083673  0.43066399  0.24225796  1
  O2-  O157  1  0.18105338  0.42554635  0.57889186  1
  O2-  O158  1  0.18145298  0.42853116  0.91065054  1
  O2-  O159  1  0.18238238  0.92353331  0.23504229  1
  O2-  O160  1  0.18125387  0.92841453  0.57736608  1
  O2-  O161  1  0.18305233  0.92978725  0.89956562  1
  O2-  O162  1  0.67219385  0.43275455  0.24624247  1
  O2-  O163  1  0.67573677  0.43248689  0.57422951  1
  O2-  O164  1  0.68099221  0.42806086  0.90043628  1
  O2-  O165  1  0.67466793  0.93245556  0.23568404  1
  O2-  O166  1  0.67762872  0.93001485  0.56949375  1
  O2-  O167  1  0.67726694  0.92902544  0.90100551  1
  O2-  O168  1  0.42262659  0.32359109  0.08733440  1
  O2-  O169  1  0.42978187  0.32196306  0.43451490  1
  O2-  O170  1  0.42596634  0.32083729  0.75901200  1
  O2-  O171  1  0.42872610  0.81780945  0.09852900  1
  O2-  O172  1  0.42626190  0.81265386  0.43277116  1
  O2-  O173  1  0.42577352  0.82103907  0.75527793  1
  O2-  O174  1  0.93394008  0.31866676  0.09813408  1
  O2-  O175  1  0.93328518  0.32352872  0.42898756  1
  O2-  O176  1  0.92930948  0.32176891  0.76492096  1
  O2-  O177  1  0.92746143  0.82485649  0.09284304  1
  O2-  O178  1  0.93014476  0.81818465  0.42369354  1
  O2-  O179  1  0.92951985  0.81974074  0.76626994  1
  O2-  O180  1  0.32075501  0.07363010  0.24408032  1
  O2-  O181  1  0.31962499  0.07665397  0.57676331  1
  O2-  O182  1  0.32041922  0.07321717  0.91043930  1
  O2-  O183  1  0.31816999  0.57057724  0.24193897  1
  O2-  O184  1  0.32168741  0.56738575  0.56777719  1
  O2-  O185  1  0.32035400  0.57138531  0.91206519  1
  O2-  O186  1  0.81784325  0.06946050  0.23393734  1
  O2-  O187  1  0.81881174  0.07445346  0.57003447  1
  O2-  O188  1  0.81981677  0.07377662  0.91052181  1
  O2-  O189  1  0.82516296  0.56814821  0.23719520  1
  O2-  O190  1  0.82241458  0.56802291  0.57515979  1
  O2-  O191  1  0.82396754  0.56999441  0.89857349  1
  O2-  O192  1  0.04538684  0.07437019  0.26731909  1
  O2-  O193  1  0.05535558  0.08223310  0.60899063  1
  O2-  O194  1  0.05206327  0.08015256  0.93773587  1
  O2-  O195  1  0.04610837  0.58693733  0.27348845  1
  O2-  O196  1  0.04800782  0.58100427  0.59678673  1
  O2-  O197  1  0.04503979  0.58378735  0.93058689  1
  O2-  O198  1  0.54110234  0.08543894  0.27038007  1
  O2-  O199  1  0.53639294  0.08301307  0.59581069  1
  O2-  O200  1  0.53466605  0.08805097  0.92860696  1
  O2-  O201  1  0.54357225  0.58684451  0.26538069  1
  O2-  O202  1  0.53504310  0.58339240  0.59849377  1
  O2-  O203  1  0.54438778  0.58416063  0.93984685  1
  O2-  O204  1  0.16696019  0.20536839  0.26234738  1
  O2-  O205  1  0.16712240  0.20754770  0.60343159  1
  O2-  O206  1  0.16761477  0.20322111  0.93602193  1
  O2-  O207  1  0.16360951  0.70808595  0.27140334  1
  O2-  O208  1  0.17187170  0.70853771  0.59794794  1
  O2-  O209  1  0.16468461  0.71404579  0.93210692  1
  O2-  O210  1  0.66342838  0.20306629  0.26984440  1
  O2-  O211  1  0.66226350  0.21299578  0.59329455  1
  O2-  O212  1  0.66534521  0.21066751  0.93039922  1
  O2-  O213  1  0.67135772  0.69690915  0.27194467  1
  O2-  O214  1  0.66744729  0.70380352  0.59819006  1
  O2-  O215  1  0.66935216  0.69925729  0.94327100  1
  O2-  O216  1  0.09027382  0.46006028  0.06351578  1
  O2-  O217  1  0.09166093  0.45822089  0.39716422  1
  O2-  O218  1  0.08307957  0.45444197  0.72883125  1
  O2-  O219  1  0.08271288  0.95542396  0.06793619  1
  O2-  O220  1  0.08280173  0.95420886  0.40343391  1
  O2-  O221  1  0.08861418  0.95565757  0.73154176  1
  O2-  O222  1  0.57934060  0.45258848  0.06771359  1
  O2-  O223  1  0.58321620  0.45972583  0.39872208  1
  O2-  O224  1  0.58786904  0.45782721  0.72872839  1
  O2-  O225  1  0.58106527  0.96657698  0.06502958  1
  O2-  O226  1  0.57528663  0.95492338  0.40138950  1
  O2-  O227  1  0.57754621  0.95644302  0.73225738  1
  O2-  O228  1  0.20567296  0.33573295  0.06313614  1
  O2-  O229  1  0.20728873  0.33448440  0.39358123  1
  O2-  O230  1  0.20313120  0.33592929  0.73416692  1
  O2-  O231  1  0.21527079  0.83354588  0.06671773  1
  O2-  O232  1  0.21576844  0.83236271  0.40354470  1
  O2-  O233  1  0.20950366  0.83783142  0.72993402  1
  O2-  O234  1  0.70732197  0.32907634  0.06794077  1
  O2-  O235  1  0.69527064  0.33337971  0.39440746  1
  O2-  O236  1  0.70678865  0.33749602  0.72354692  1
  O2-  O237  1  0.70107629  0.83302897  0.07124454  1
  O2-  O238  1  0.70111516  0.82823561  0.39813948  1
  O2-  O239  1  0.70592246  0.82786799  0.73376147  1
  O2-  O240  1  0.45736546  0.41883193  0.26489298  1
  O2-  O241  1  0.45404107  0.41466359  0.60777373  1
  O2-  O242  1  0.44779257  0.42187178  0.93942482  1
  O2-  O243  1  0.45212865  0.91825153  0.26653761  1
  O2-  O244  1  0.44725999  0.91684758  0.60360087  1
  O2-  O245  1  0.45515554  0.91814762  0.93180964  1
  O2-  O246  1  0.96562091  0.41879499  0.26395550  1
  O2-  O247  1  0.96296347  0.41394761  0.59582121  1
  O2-  O248  1  0.96635045  0.41323761  0.93053021  1
  O2-  O249  1  0.95486859  0.91121569  0.27214611  1
  O2-  O250  1  0.95821972  0.92236690  0.60190346  1
  O2-  O251  1  0.95269979  0.91692387  0.94009267  1
  O2-  O252  1  0.33345477  0.29285128  0.26430703  1
  O2-  O253  1  0.33118450  0.29872223  0.60912486  1
  O2-  O254  1  0.33237282  0.29959868  0.93431304  1
  O2-  O255  1  0.33574852  0.78101697  0.26476042  1
  O2-  O256  1  0.33555985  0.79221346  0.60343316  1
  O2-  O257  1  0.33651868  0.78495163  0.92989171  1
  O2-  O258  1  0.82661791  0.30093438  0.26528485  1
  O2-  O259  1  0.83283465  0.29282182  0.59483466  1
  O2-  O260  1  0.83396011  0.29071871  0.93219747  1
  O2-  O261  1  0.83604940  0.78971589  0.27305181  1
  O2-  O262  1  0.83158443  0.79341716  0.59742680  1
  O2-  O263  1  0.82996418  0.80015163  0.94342693  1
  O2-  O264  1  0.41447558  0.04706632  0.06220775  1
  O2-  O265  1  0.41263928  0.04630185  0.39695660  1
  O2-  O266  1  0.41236886  0.04486138  0.72912962  1
  O2-  O267  1  0.41268677  0.54825608  0.06624759  1
  O2-  O268  1  0.41528284  0.54536680  0.39230612  1
  O2-  O269  1  0.41566717  0.53777041  0.73880518  1
  O2-  O270  1  0.91741174  0.05327930  0.06023266  1
  O2-  O271  1  0.91789870  0.04409569  0.40106595  1
  O2-  O272  1  0.92195483  0.05298206  0.73537111  1
  O2-  O273  1  0.92294279  0.53973015  0.06454528  1
  O2-  O274  1  0.92045888  0.53770042  0.40475662  1
  O2-  O275  1  0.91594502  0.54167428  0.72497969  1
  O2-  O276  1  0.29944224  0.16930852  0.06099640  1
  O2-  O277  1  0.29472604  0.16711925  0.39592667  1
  O2-  O278  1  0.29328096  0.16383650  0.73237499  1
  O2-  O279  1  0.28749876  0.66178580  0.06418024  1
  O2-  O280  1  0.28922790  0.65858885  0.39694569  1
  O2-  O281  1  0.29141544  0.66762243  0.73646285  1
  O2-  O282  1  0.79107245  0.16441219  0.06229562  1
  O2-  O283  1  0.79301822  0.17267264  0.39774043  1
  O2-  O284  1  0.78672182  0.17272291  0.73293873  1
  O2-  O285  1  0.79823469  0.66818741  0.06957491  1
  O2-  O286  1  0.79270374  0.66364517  0.40588997  1
  O2-  O287  1  0.79590868  0.66228966  0.72617579  1
