# generated using pymatgen
data_Ca2Al2SiO7
_symmetry_space_group_name_H-M   'P 1'
_cell_length_a   15.47134836
_cell_length_b   15.47526455
_cell_length_c   15.29616269
_cell_angle_alpha   89.98653491
_cell_angle_beta   90.00340672
_cell_angle_gamma   89.97508948
_symmetry_Int_Tables_number   1
_chemical_formula_structural   Ca2Al2SiO7
_chemical_formula_sum   'Ca48 Al48 Si24 O168'
_cell_volume   3662.25590171
_cell_formula_units_Z   24
loop_
 _symmetry_equiv_pos_site_id
 _symmetry_equiv_pos_as_xyz
  1  'x, y, z'
loop_
 _atom_type_symbol
 _atom_type_oxidation_number
  Ca2+  2.0
  Al0+  0.0
  Si0+  0.0
  O2-  -2.0
loop_
 _atom_site_type_symbol
 _atom_site_label
 _atom_site_symmetry_multiplicity
 _atom_site_fract_x
 _atom_site_fract_y
 _atom_site_fract_z
 _atom_site_occupancy
  Ca2+  Ca0  1  0.17079693  0.09447305  0.17568572  1
  Ca2+  Ca1  1  0.16920049  0.09432723  0.50157904  1
  Ca2+  Ca2  1  0.16233725  0.08857522  0.83762516  1
  Ca2+  Ca3  1  0.16866445  0.57481155  0.17906563  1
  Ca2+  Ca4  1  0.16494755  0.57278322  0.50868953  1
  Ca2+  Ca5  1  0.16592518  0.57524179  0.82848598  1
  Ca2+  Ca6  1  0.66720405  0.09011540  0.16946895  1
  Ca2+  Ca7  1  0.65911419  0.07951047  0.50792184  1
  Ca2+  Ca8  1  0.66772244  0.08690028  0.83612903  1
  Ca2+  Ca9  1  0.67393577  0.57752299  0.17551539  1
  Ca2+  Ca10  1  0.67893473  0.57802044  0.51144865  1
  Ca2+  Ca11  1  0.66479405  0.57557698  0.82654604  1
  Ca2+  Ca12  1  0.08193229  0.32774809  0.17169406  1
  Ca2+  Ca13  1  0.07818013  0.33763454  0.49536353  1
  Ca2+  Ca14  1  0.07896634  0.32365565  0.82258660  1
  Ca2+  Ca15  1  0.07828962  0.82995514  0.16999246  1
  Ca2+  Ca16  1  0.07790470  0.81789437  0.49509467  1
  Ca2+  Ca17  1  0.07962552  0.82590179  0.82388867  1
  Ca2+  Ca18  1  0.57265842  0.32463016  0.16053906  1
  Ca2+  Ca19  1  0.57432294  0.33558015  0.49650313  1
  Ca2+  Ca20  1  0.57874301  0.32758898  0.82100900  1
  Ca2+  Ca21  1  0.58264709  0.83185277  0.16698244  1
  Ca2+  Ca22  1  0.58877112  0.82871135  0.50207791  1
  Ca2+  Ca23  1  0.58578396  0.82818687  0.82323637  1
  Ca2+  Ca24  1  0.32807995  0.40514910  0.17305358  1
  Ca2+  Ca25  1  0.32370888  0.41120511  0.50695037  1
  Ca2+  Ca26  1  0.33405007  0.41132055  0.82964857  1
  Ca2+  Ca27  1  0.32844164  0.92755410  0.17731268  1
  Ca2+  Ca28  1  0.33419712  0.92745470  0.50276482  1
  Ca2+  Ca29  1  0.33026020  0.92079319  0.83497255  1
  Ca2+  Ca30  1  0.83574932  0.42064921  0.17686546  1
  Ca2+  Ca31  1  0.83663026  0.42124502  0.50816628  1
  Ca2+  Ca32  1  0.83272788  0.41374818  0.82674250  1
  Ca2+  Ca33  1  0.83628816  0.92382780  0.17120176  1
  Ca2+  Ca34  1  0.83179349  0.91837918  0.50513156  1
  Ca2+  Ca35  1  0.82681857  0.92465728  0.83544857  1
  Ca2+  Ca36  1  0.42133721  0.17339378  0.16627154  1
  Ca2+  Ca37  1  0.42408556  0.17682021  0.49499092  1
  Ca2+  Ca38  1  0.42637713  0.17906001  0.82755913  1
  Ca2+  Ca39  1  0.41651562  0.66940738  0.16320706  1
  Ca2+  Ca40  1  0.42351911  0.65515467  0.50381154  1
  Ca2+  Ca41  1  0.42002894  0.66760628  0.82089889  1
  Ca2+  Ca42  1  0.92458216  0.16760590  0.16165665  1
  Ca2+  Ca43  1  0.92586054  0.18159234  0.49663460  1
  Ca2+  Ca44  1  0.92352514  0.16714795  0.82627390  1
  Ca2+  Ca45  1  0.91919022  0.66573213  0.17347929  1
  Ca2+  Ca46  1  0.92197720  0.66194278  0.49237773  1
  Ca2+  Ca47  1  0.91966691  0.66618115  0.82220239  1
  Al0+  Al48  1  -0.00232908  -0.00289881  0.00054125  1
  Al0+  Al49  1  0.00004102  -0.00319617  0.32935220  1
  Al0+  Al50  1  0.00077026  -0.00108243  0.66336883  1
  Al0+  Al51  1  0.00140106  0.50003786  0.00200145  1
  Al0+  Al52  1  0.00157714  0.50044047  0.33147892  1
  Al0+  Al53  1  0.00234258  0.49996444  0.67101653  1
  Al0+  Al54  1  0.49777215  -0.00126824  -0.00123886  1
  Al0+  Al55  1  0.49933337  -0.00080444  0.33411321  1
  Al0+  Al56  1  0.49868375  -0.00113195  0.67095961  1
  Al0+  Al57  1  0.49904732  0.50284023  -0.00061172  1
  Al0+  Al58  1  0.49994525  0.49995034  0.32665952  1
  Al0+  Al59  1  0.50108679  0.50227263  0.66528342  1
  Al0+  Al60  1  0.24902662  0.25024617  -0.00634943  1
  Al0+  Al61  1  0.25113475  0.25066914  0.33709349  1
  Al0+  Al62  1  0.25320287  0.24878625  0.66806155  1
  Al0+  Al63  1  0.24892041  0.74923316  0.00112123  1
  Al0+  Al64  1  0.25146849  0.75063116  0.33098025  1
  Al0+  Al65  1  0.24893025  0.75292534  0.66639813  1
  Al0+  Al66  1  0.75043923  0.25063024  0.00313418  1
  Al0+  Al67  1  0.74994485  0.24937261  0.32875893  1
  Al0+  Al68  1  0.75267998  0.24818872  0.66346166  1
  Al0+  Al69  1  0.74999257  0.75026415  0.00199689  1
  Al0+  Al70  1  0.75032731  0.75059407  0.33184329  1
  Al0+  Al71  1  0.74842611  0.75248703  0.67165016  1
  Al0+  Al72  1  0.57098384  0.17536672  0.31809131  1
  Al0+  Al73  1  0.43121542  0.32330814  0.64998659  1
  Al0+  Al74  1  0.32052783  0.57263307  0.68085486  1
  Al0+  Al75  1  0.92815979  0.32277130  0.31788530  1
  Al0+  Al76  1  0.57230533  0.17693667  0.65224783  1
  Al0+  Al77  1  0.92669777  0.82006534  0.31790834  1
  Al0+  Al78  1  0.67958528  0.42682887  0.67941370  1
  Al0+  Al79  1  0.93023412  0.32159075  0.65278138  1
  Al0+  Al80  1  0.82299692  0.57151905  0.68165872  1
  Al0+  Al81  1  0.42889459  0.32254978  0.98281154  1
  Al0+  Al82  1  0.67799275  0.93072539  0.68046296  1
  Al0+  Al83  1  0.57275263  0.17834293  0.98383421  1
  Al0+  Al84  1  0.81905537  0.56975783  0.34607064  1
  Al0+  Al85  1  0.07283254  0.67783557  0.31800871  1
  Al0+  Al86  1  0.31949935  0.07018806  0.34782227  1
  Al0+  Al87  1  0.07103988  0.67948920  0.65505984  1
  Al0+  Al88  1  0.57138071  0.68057588  0.65312110  1
  Al0+  Al89  1  0.06802074  0.17845825  0.98696833  1
  Al0+  Al90  1  0.07275337  0.17648721  0.65176647  1
  Al0+  Al91  1  0.07053685  0.17956478  0.31974471  1
  Al0+  Al92  1  0.42926940  0.32176951  0.31802412  1
  Al0+  Al93  1  0.82004171  0.07097148  0.01418070  1
  Al0+  Al94  1  0.18200887  0.43077933  0.34638036  1
  Al0+  Al95  1  0.17982908  0.42638380  0.68425361  1
  Si0+  Si96  1  0.31795023  0.07008399  0.01465628  1
  Si0+  Si97  1  0.67683249  0.92685829  0.01858759  1
  Si0+  Si98  1  0.82349076  0.07158930  0.34839327  1
  Si0+  Si99  1  0.17806493  0.92636659  0.01593652  1
  Si0+  Si100  1  0.57116006  0.67976826  0.31787931  1
  Si0+  Si101  1  0.92768787  0.32491638  0.98369623  1
  Si0+  Si102  1  0.18021239  0.42904321  0.01624418  1
  Si0+  Si103  1  0.17837415  0.93033915  0.68188733  1
  Si0+  Si104  1  0.82412762  0.07047362  0.68142160  1
  Si0+  Si105  1  0.32145207  0.07038461  0.68476558  1
  Si0+  Si106  1  0.82166283  0.57185904  0.01632102  1
  Si0+  Si107  1  0.57128784  0.68127516  0.98515692  1
  Si0+  Si108  1  0.42663112  0.82269023  0.64949245  1
  Si0+  Si109  1  0.92804383  0.81932892  0.98349735  1
  Si0+  Si110  1  0.17687685  0.92536736  0.35164880  1
  Si0+  Si111  1  0.67727320  0.43071057  0.01512527  1
  Si0+  Si112  1  0.42983846  0.82209225  0.31856528  1
  Si0+  Si113  1  0.07094588  0.67894737  0.98435756  1
  Si0+  Si114  1  0.67931750  0.93018328  0.34794811  1
  Si0+  Si115  1  0.32500887  0.57598089  0.34874329  1
  Si0+  Si116  1  0.32059557  0.57310952  0.01586316  1
  Si0+  Si117  1  0.67648292  0.42674599  0.34762295  1
  Si0+  Si118  1  0.92694821  0.82112948  0.65174032  1
  Si0+  Si119  1  0.42659877  0.81992532  0.98546353  1
  O2-  O120  1  0.24512862  0.00083120  0.05806128  1
  O2-  O121  1  0.24142377  -0.00188377  0.39493543  1
  O2-  O122  1  0.24496550  0.00412589  0.72639897  1
  O2-  O123  1  0.25339507  0.49905639  0.05780297  1
  O2-  O124  1  0.25604506  0.50776006  0.39036724  1
  O2-  O125  1  0.25285242  0.49868466  0.73424371  1
  O2-  O126  1  0.74100400  -0.00038860  0.06209414  1
  O2-  O127  1  0.74844135  0.00316640  0.38929192  1
  O2-  O128  1  0.75062038  0.00691585  0.72655762  1
  O2-  O129  1  0.75222311  0.49864714  0.05727965  1
  O2-  O130  1  0.74803910  0.49207089  0.39153061  1
  O2-  O131  1  0.75209577  0.49810895  0.73179787  1
  O2-  O132  1  -0.00424887  0.24678080  0.26714488  1
  O2-  O133  1  0.00595376  0.25324372  0.60356606  1
  O2-  O134  1  -0.00790561  0.25162735  0.94112058  1
  O2-  O135  1  0.00050995  0.74975073  0.26735341  1
  O2-  O136  1  -0.01001498  0.74729580  0.60910319  1
  O2-  O137  1  -0.00196127  0.74759094  0.94146413  1
  O2-  O138  1  0.50250609  0.25074364  0.26877021  1
  O2-  O139  1  0.50603917  0.25324932  0.60185133  1
  O2-  O140  1  0.50499760  0.25417576  0.93451324  1
  O2-  O141  1  0.49689630  0.74762971  0.27527345  1
  O2-  O142  1  0.49374135  0.75242096  0.60588513  1
  O2-  O143  1  0.49980683  0.75197895  0.94341436  1
  O2-  O144  1  0.07019111  0.17986812  0.09955210  1
  O2-  O145  1  0.06944833  0.18136505  0.43240164  1
  O2-  O146  1  0.06698757  0.17344594  0.76587331  1
  O2-  O147  1  0.07214308  0.68046902  0.08902750  1
  O2-  O148  1  0.07254762  0.67960611  0.43108786  1
  O2-  O149  1  0.07109084  0.68465434  0.76912608  1
  O2-  O150  1  0.56894106  0.17793747  0.09719700  1
  O2-  O151  1  0.56737829  0.17085453  0.43074993  1
  O2-  O152  1  0.56857161  0.17604778  0.76595988  1
  O2-  O153  1  0.57042580  0.68262334  0.09077976  1
  O2-  O154  1  0.57221901  0.68135071  0.42223503  1
  O2-  O155  1  0.57037200  0.68418674  0.76681934  1
  O2-  O156  1  0.18381323  0.43104428  0.23213967  1
  O2-  O157  1  0.17909247  0.42853702  0.57104161  1
  O2-  O158  1  0.17763208  0.43129860  0.91190179  1
  O2-  O159  1  0.18124624  0.92205145  0.24552050  1
  O2-  O160  1  0.18021637  0.92808911  0.57748000  1
  O2-  O161  1  0.18089436  0.92254258  0.91085375  1
  O2-  O162  1  0.67501416  0.43230084  0.24129553  1
  O2-  O163  1  0.67904508  0.43087037  0.56613621  1
  O2-  O164  1  0.67561737  0.43350999  0.91061737  1
  O2-  O165  1  0.67843539  0.92814148  0.24257556  1
  O2-  O166  1  0.67913316  0.92954540  0.56713128  1
  O2-  O167  1  0.67913648  0.92142963  0.91369983  1
  O2-  O168  1  0.42769303  0.31967978  0.09622249  1
  O2-  O169  1  0.43065967  0.32359596  0.43069091  1
  O2-  O170  1  0.43173424  0.31986625  0.76377749  1
  O2-  O171  1  0.42556099  0.81825500  0.09074928  1
  O2-  O172  1  0.43163535  0.82500606  0.42286458  1
  O2-  O173  1  0.42656963  0.82283697  0.75579363  1
  O2-  O174  1  0.93051789  0.32843920  0.08900660  1
  O2-  O175  1  0.92890847  0.32394733  0.43062860  1
  O2-  O176  1  0.92956397  0.31730091  0.76710371  1
  O2-  O177  1  0.92804404  0.81891378  0.08814089  1
  O2-  O178  1  0.92469625  0.81889496  0.43110575  1
  O2-  O179  1  0.93073673  0.82368595  0.75800752  1
  O2-  O180  1  0.31915304  0.06656366  0.23384796  1
  O2-  O181  1  0.32429612  0.06620796  0.58003065  1
  O2-  O182  1  0.31731261  0.06558967  0.90973337  1
  O2-  O183  1  0.32440904  0.57876413  0.24245907  1
  O2-  O184  1  0.31727744  0.57529114  0.56763275  1
  O2-  O185  1  0.31902569  0.58019420  0.91189140  1
  O2-  O186  1  0.82358962  0.06813617  0.24303503  1
  O2-  O187  1  0.82784105  0.06538087  0.57620430  1
  O2-  O188  1  0.82267076  0.06520046  0.90143251  1
  O2-  O189  1  0.81475831  0.57059779  0.23187236  1
  O2-  O190  1  0.82109811  0.57387061  0.56833483  1
  O2-  O191  1  0.82236581  0.57561253  0.91204855  1
  O2-  O192  1  0.04927337  0.07824891  0.26895962  1
  O2-  O193  1  0.04336784  0.07879203  0.59794746  1
  O2-  O194  1  0.04092383  0.07905149  0.93576995  1
  O2-  O195  1  0.04238182  0.58233407  0.26140222  1
  O2-  O196  1  0.04702064  0.58133074  0.60446073  1
  O2-  O197  1  0.04432439  0.58623500  0.93897558  1
  O2-  O198  1  0.53936163  0.07766743  0.26380363  1
  O2-  O199  1  0.53721627  0.07897401  0.60246296  1
  O2-  O200  1  0.54290038  0.07818333  0.93436527  1
  O2-  O201  1  0.54624495  0.58895850  0.26687327  1
  O2-  O202  1  0.54348093  0.58545160  0.59680327  1
  O2-  O203  1  0.54377555  0.59000342  0.93837614  1
  O2-  O204  1  0.16824095  0.21200040  0.26787670  1
  O2-  O205  1  0.17473602  0.19694847  0.60623652  1
  O2-  O206  1  0.16371498  0.20884895  0.93194705  1
  O2-  O207  1  0.17155300  0.70730314  0.26409977  1
  O2-  O208  1  0.16385465  0.71859388  0.60074018  1
  O2-  O209  1  0.16209768  0.71012927  0.93775361  1
  O2-  O210  1  0.67061460  0.19937759  0.26626634  1
  O2-  O211  1  0.67401831  0.19334209  0.60348808  1
  O2-  O212  1  0.67422440  0.20195090  0.93563689  1
  O2-  O213  1  0.65973060  0.71302492  0.26745437  1
  O2-  O214  1  0.66653504  0.71665616  0.59986283  1
  O2-  O215  1  0.66311790  0.71009174  0.93918739  1
  O2-  O216  1  0.08922848  0.45961286  0.06459162  1
  O2-  O217  1  0.08542464  0.46231112  0.39848373  1
  O2-  O218  1  0.08337389  0.45719563  0.74023681  1
  O2-  O219  1  0.08430097  0.94820493  0.06104386  1
  O2-  O220  1  0.08080630  0.94422415  0.39400727  1
  O2-  O221  1  0.08541591  0.95431116  0.73011288  1
  O2-  O222  1  0.58730990  0.46415629  0.06415306  1
  O2-  O223  1  0.58355944  0.45758503  0.39167474  1
  O2-  O224  1  0.58318899  0.46068192  0.73404577  1
  O2-  O225  1  0.57996593  0.94624010  0.06169507  1
  O2-  O226  1  0.58695819  0.95427989  0.39543553  1
  O2-  O227  1  0.58064180  0.95575838  0.73682322  1
  O2-  O228  1  0.20839932  0.33629379  0.06150734  1
  O2-  O229  1  0.21255606  0.33594326  0.40183618  1
  O2-  O230  1  0.20901055  0.32768986  0.73762904  1
  O2-  O231  1  0.21082032  0.83660260  0.06543266  1
  O2-  O232  1  0.20918437  0.83380887  0.39820753  1
  O2-  O233  1  0.20994533  0.84131801  0.73352899  1
  O2-  O234  1  0.70049978  0.33800360  0.06236798  1
  O2-  O235  1  0.69592856  0.33092966  0.39005038  1
  O2-  O236  1  0.70791121  0.32787268  0.73265505  1
  O2-  O237  1  0.70702072  0.83475254  0.06724057  1
  O2-  O238  1  0.70859839  0.83860371  0.39474405  1
  O2-  O239  1  0.71019847  0.83671981  0.73896396  1
  O2-  O240  1  0.45403302  0.42070894  0.26177884  1
  O2-  O241  1  0.45472434  0.42277883  0.59879043  1
  O2-  O242  1  0.45147768  0.42481234  0.93538014  1
  O2-  O243  1  0.46223568  0.91020477  0.26678086  1
  O2-  O244  1  0.45627936  0.91461059  0.60373994  1
  O2-  O245  1  0.45027171  0.91227660  0.93793676  1
  O2-  O246  1  0.96078845  0.41879255  0.26254625  1
  O2-  O247  1  0.95583781  0.42163421  0.60379498  1
  O2-  O248  1  0.95767771  0.41733811  0.93722201  1
  O2-  O249  1  0.95662933  0.91663565  0.26144428  1
  O2-  O250  1  0.95831178  0.91133684  0.60323413  1
  O2-  O251  1  0.95708495  0.90968540  0.93487833  1
  O2-  O252  1  0.33255728  0.28794701  0.26581135  1
  O2-  O253  1  0.33348853  0.29024113  0.60023817  1
  O2-  O254  1  0.33218305  0.29036606  0.92955202  1
  O2-  O255  1  0.33793826  0.79812243  0.26896714  1
  O2-  O256  1  0.33268196  0.80166015  0.60366469  1
  O2-  O257  1  0.33548944  0.79025979  0.93745671  1
  O2-  O258  1  0.82843497  0.29971467  0.26498663  1
  O2-  O259  1  0.83363125  0.29250678  0.59770176  1
  O2-  O260  1  0.83181192  0.30428796  0.94172625  1
  O2-  O261  1  0.82958881  0.79047309  0.26133965  1
  O2-  O262  1  0.83132709  0.80265464  0.60911699  1
  O2-  O263  1  0.83523872  0.79214424  0.93757323  1
  O2-  O264  1  0.40915853  0.03907174  0.06198264  1
  O2-  O265  1  0.41368156  0.03114942  0.40124098  1
  O2-  O266  1  0.40876745  0.03422096  0.73588969  1
  O2-  O267  1  0.41470320  0.55192417  0.06270028  1
  O2-  O268  1  0.42018088  0.55057042  0.39110974  1
  O2-  O269  1  0.42112543  0.55017825  0.73224827  1
  O2-  O270  1  0.91470339  0.03301657  0.06934872  1
  O2-  O271  1  0.91354716  0.03835697  0.39543644  1
  O2-  O272  1  0.91514522  0.03721745  0.73022809  1
  O2-  O273  1  0.91459586  0.54564042  0.06327657  1
  O2-  O274  1  0.91790176  0.54437692  0.39554443  1
  O2-  O275  1  0.92061742  0.54557590  0.73743091  1
  O2-  O276  1  0.29015246  0.16271402  0.05974743  1
  O2-  O277  1  0.29175537  0.16576471  0.40306446  1
  O2-  O278  1  0.29904307  0.16229753  0.73330637  1
  O2-  O279  1  0.28961991  0.66367936  0.06623312  1
  O2-  O280  1  0.30393742  0.67085298  0.39368988  1
  O2-  O281  1  0.29093995  0.67228208  0.73394445  1
  O2-  O282  1  0.79674337  0.16941771  0.06880742  1
  O2-  O283  1  0.79991946  0.16532266  0.39290416  1
  O2-  O284  1  0.80422169  0.16474691  0.72713243  1
  O2-  O285  1  0.79073296  0.66290058  0.06458805  1
  O2-  O286  1  0.78519067  0.66619034  0.39795350  1
  O2-  O287  1  0.79221328  0.66951113  0.73549779  1
