# generated using pymatgen
data_Ca2Al2SiO7
_symmetry_space_group_name_H-M   'P 1'
_cell_length_a   15.45687672
_cell_length_b   15.45705798
_cell_length_c   15.28263405
_cell_angle_alpha   89.99825124
_cell_angle_beta   89.99094053
_cell_angle_gamma   89.99229290
_symmetry_Int_Tables_number   1
_chemical_formula_structural   Ca2Al2SiO7
_chemical_formula_sum   'Ca48 Al48 Si24 O168'
_cell_volume   3651.29383126
_cell_formula_units_Z   24
loop_
 _symmetry_equiv_pos_site_id
 _symmetry_equiv_pos_as_xyz
  1  'x, y, z'
loop_
 _atom_type_symbol
 _atom_type_oxidation_number
  Ca2+  2.0
  Al0+  0.0
  Si0+  0.0
  O2-  -2.0
loop_
 _atom_site_type_symbol
 _atom_site_label
 _atom_site_symmetry_multiplicity
 _atom_site_fract_x
 _atom_site_fract_y
 _atom_site_fract_z
 _atom_site_occupancy
  Ca2+  Ca0  1  0.17349894  0.08523082  0.17040167  1
  Ca2+  Ca1  1  0.17126384  0.08989260  0.50018584  1
  Ca2+  Ca2  1  0.17379180  0.07545086  0.84128667  1
  Ca2+  Ca3  1  0.18178320  0.58196202  0.17134000  1
  Ca2+  Ca4  1  0.16896834  0.57899612  0.50939682  1
  Ca2+  Ca5  1  0.16835629  0.58050786  0.83409070  1
  Ca2+  Ca6  1  0.67247314  0.07626945  0.18088198  1
  Ca2+  Ca7  1  0.66895221  0.07931508  0.50912188  1
  Ca2+  Ca8  1  0.66668638  0.08270423  0.82808142  1
  Ca2+  Ca9  1  0.66528751  0.57989974  0.17385533  1
  Ca2+  Ca10  1  0.66814198  0.58704238  0.50764520  1
  Ca2+  Ca11  1  0.67222557  0.59111504  0.83018793  1
  Ca2+  Ca12  1  0.07906315  0.32563191  0.16421509  1
  Ca2+  Ca13  1  0.07874840  0.33221189  0.50008218  1
  Ca2+  Ca14  1  0.07651128  0.33744062  0.82559934  1
  Ca2+  Ca15  1  0.07819465  0.83845252  0.15874720  1
  Ca2+  Ca16  1  0.07729419  0.83203064  0.50189783  1
  Ca2+  Ca17  1  0.07678055  0.83152432  0.82578824  1
  Ca2+  Ca18  1  0.57895401  0.32254133  0.16239284  1
  Ca2+  Ca19  1  0.58431475  0.31946607  0.49997804  1
  Ca2+  Ca20  1  0.56931886  0.32719259  0.82509401  1
  Ca2+  Ca21  1  0.58732233  0.82941663  0.16946135  1
  Ca2+  Ca22  1  0.58952306  0.82912068  0.50082062  1
  Ca2+  Ca23  1  0.57575868  0.83081121  0.81983772  1
  Ca2+  Ca24  1  0.34409606  0.42536786  0.16890342  1
  Ca2+  Ca25  1  0.32895698  0.41858560  0.50707538  1
  Ca2+  Ca26  1  0.33238056  0.41697877  0.83747088  1
  Ca2+  Ca27  1  0.32640535  0.92720961  0.17002545  1
  Ca2+  Ca28  1  0.34040268  0.92198457  0.50357456  1
  Ca2+  Ca29  1  0.32979014  0.91861601  0.84093038  1
  Ca2+  Ca30  1  0.83444087  0.41521784  0.16717305  1
  Ca2+  Ca31  1  0.83418905  0.42204435  0.51277711  1
  Ca2+  Ca32  1  0.83886630  0.42002720  0.83294440  1
  Ca2+  Ca33  1  0.83006461  0.92095349  0.17571200  1
  Ca2+  Ca34  1  0.82378801  0.92610110  0.50893369  1
  Ca2+  Ca35  1  0.83252262  0.91471646  0.83187329  1
  Ca2+  Ca36  1  0.41809561  0.16293335  0.16280726  1
  Ca2+  Ca37  1  0.42655104  0.16603004  0.49568918  1
  Ca2+  Ca38  1  0.41581812  0.17320898  0.82523548  1
  Ca2+  Ca39  1  0.41982651  0.66002590  0.16501357  1
  Ca2+  Ca40  1  0.42515334  0.67110336  0.49583958  1
  Ca2+  Ca41  1  0.41947450  0.67157294  0.82412696  1
  Ca2+  Ca42  1  0.92144550  0.16444298  0.16393440  1
  Ca2+  Ca43  1  0.91539922  0.16572249  0.49571207  1
  Ca2+  Ca44  1  0.91403479  0.17669644  0.82534188  1
  Ca2+  Ca45  1  0.92035989  0.67679994  0.15853273  1
  Ca2+  Ca46  1  0.91674436  0.66852075  0.50436070  1
  Ca2+  Ca47  1  0.92083394  0.67719045  0.82099988  1
  Al0+  Al48  1  -0.00173237  -0.00016912  -0.00178061  1
  Al0+  Al49  1  -0.00002466  0.00147401  0.33230047  1
  Al0+  Al50  1  0.00061351  0.00097705  0.66726098  1
  Al0+  Al51  1  0.00078029  0.50056616  0.00042508  1
  Al0+  Al52  1  0.00081414  0.50177617  0.32966230  1
  Al0+  Al53  1  0.00074958  0.49948621  0.66784443  1
  Al0+  Al54  1  0.50260664  -0.00305915  0.00477668  1
  Al0+  Al55  1  0.49816444  -0.00216323  0.33487749  1
  Al0+  Al56  1  0.50079712  0.00077081  0.66580757  1
  Al0+  Al57  1  0.50264044  0.49644254  -0.00102223  1
  Al0+  Al58  1  0.50098134  0.50190161  0.33541674  1
  Al0+  Al59  1  0.49912533  0.49997691  0.66029967  1
  Al0+  Al60  1  0.25016527  0.25060984  0.00063554  1
  Al0+  Al61  1  0.24678296  0.25120607  0.33197007  1
  Al0+  Al62  1  0.24786103  0.25215861  0.66924804  1
  Al0+  Al63  1  0.25120571  0.74847785  0.01008314  1
  Al0+  Al64  1  0.25029124  0.74941837  0.33681989  1
  Al0+  Al65  1  0.25025402  0.75044127  0.65868854  1
  Al0+  Al66  1  0.75009339  0.24976137  -0.00334631  1
  Al0+  Al67  1  0.74823916  0.25178366  0.33089802  1
  Al0+  Al68  1  0.74960651  0.25132713  0.66477429  1
  Al0+  Al69  1  0.75188817  0.74937691  -0.00219144  1
  Al0+  Al70  1  0.74954490  0.74924937  0.33078422  1
  Al0+  Al71  1  0.75000517  0.75125839  0.66859864  1
  Al0+  Al72  1  0.32301926  0.56827419  0.01271447  1
  Al0+  Al73  1  0.67865850  0.92978587  0.68443865  1
  Al0+  Al74  1  0.32252101  0.57069672  0.35023111  1
  Al0+  Al75  1  0.17981568  0.42966566  0.68102948  1
  Al0+  Al76  1  0.81999346  0.57027632  0.68049507  1
  Al0+  Al77  1  0.42738167  0.82272898  0.65226124  1
  Al0+  Al78  1  0.57145432  0.67921756  0.65282809  1
  Al0+  Al79  1  0.92975008  0.32043265  0.65346000  1
  Al0+  Al80  1  0.92931682  0.82141514  0.98546759  1
  Al0+  Al81  1  0.31903745  0.07179733  0.34821049  1
  Al0+  Al82  1  0.92845539  0.82373375  0.64998066  1
  Al0+  Al83  1  0.42439789  0.32166359  0.65028330  1
  Al0+  Al84  1  0.57047463  0.68007375  0.31749582  1
  Al0+  Al85  1  0.07065789  0.67828243  0.65182604  1
  Al0+  Al86  1  0.57034533  0.17677239  0.31856739  1
  Al0+  Al87  1  0.32253176  0.07233490  0.01434871  1
  Al0+  Al88  1  0.17708086  0.92894845  0.01445435  1
  Al0+  Al89  1  0.82278547  0.07320511  0.68382200  1
  Al0+  Al90  1  0.06985869  0.17972758  0.31903350  1
  Al0+  Al91  1  0.92945812  0.32056662  0.98551289  1
  Al0+  Al92  1  0.82158275  0.07290499  0.34765814  1
  Al0+  Al93  1  0.56962499  0.17986015  0.65236482  1
  Al0+  Al94  1  0.67900816  0.92717511  0.34897596  1
  Al0+  Al95  1  0.42959498  0.31990938  0.98707560  1
  Si0+  Si96  1  0.32267425  0.57284858  0.68189844  1
  Si0+  Si97  1  0.07282630  0.67742570  0.31601866  1
  Si0+  Si98  1  0.68032305  0.92596615  0.01653341  1
  Si0+  Si99  1  0.82203974  0.57012446  0.34578962  1
  Si0+  Si100  1  0.68081872  0.42874414  0.01467668  1
  Si0+  Si101  1  0.81863555  0.07283029  0.01469535  1
  Si0+  Si102  1  0.17935220  0.92737988  0.67968924  1
  Si0+  Si103  1  0.57123910  0.67740876  0.98564984  1
  Si0+  Si104  1  0.92685692  0.32506382  0.31632150  1
  Si0+  Si105  1  0.07458644  0.67902765  0.98543690  1
  Si0+  Si106  1  0.57195887  0.17473188  0.98406178  1
  Si0+  Si107  1  0.17634579  0.43000826  0.34989162  1
  Si0+  Si108  1  0.42823257  0.32092394  0.31736084  1
  Si0+  Si109  1  0.42987343  0.81977231  0.98907412  1
  Si0+  Si110  1  0.93098154  0.81892172  0.31860991  1
  Si0+  Si111  1  0.32032834  0.07101404  0.68041272  1
  Si0+  Si112  1  0.17533755  0.42806760  0.01883051  1
  Si0+  Si113  1  0.67940397  0.42954608  0.34781121  1
  Si0+  Si114  1  0.07222196  0.17723838  0.65163644  1
  Si0+  Si115  1  0.42486371  0.82166234  0.31291566  1
  Si0+  Si116  1  0.67586588  0.42750455  0.68402715  1
  Si0+  Si117  1  0.82139283  0.57174583  0.01559439  1
  Si0+  Si118  1  0.17647756  0.92780816  0.35183924  1
  Si0+  Si119  1  0.07227158  0.17791018  0.98218054  1
  O2-  O120  1  0.24733476  0.00299776  0.06409915  1
  O2-  O121  1  0.24619600  -0.00462153  0.39592915  1
  O2-  O122  1  0.25136261  -0.00251131  0.72184467  1
  O2-  O123  1  0.24867737  0.49302670  0.06141695  1
  O2-  O124  1  0.24593717  0.49724448  0.39421191  1
  O2-  O125  1  0.25611447  0.50304441  0.72766457  1
  O2-  O126  1  0.74965078  -0.00034358  0.05710791  1
  O2-  O127  1  0.74568032  0.00504840  0.39697186  1
  O2-  O128  1  0.75232595  0.00012842  0.73542220  1
  O2-  O129  1  0.75254343  0.49908114  0.05858421  1
  O2-  O130  1  0.75473446  0.49655683  0.38810547  1
  O2-  O131  1  0.74330946  0.49772731  0.72878877  1
  O2-  O132  1  -0.00811078  0.25230189  0.27323432  1
  O2-  O133  1  -0.00026931  0.24187068  0.60734851  1
  O2-  O134  1  0.00587222  0.24858463  0.93804492  1
  O2-  O135  1  0.00403597  0.75063864  0.27413404  1
  O2-  O136  1  -0.00071460  0.75020980  0.60014349  1
  O2-  O137  1  0.00739524  0.74895949  0.94157147  1
  O2-  O138  1  0.49306129  0.24909487  0.27132231  1
  O2-  O139  1  0.49703538  0.25064337  0.60109170  1
  O2-  O140  1  0.49710379  0.23789502  0.94211171  1
  O2-  O141  1  0.49469422  0.75290930  0.26905960  1
  O2-  O142  1  0.49979892  0.75106096  0.60277709  1
  O2-  O143  1  0.49938375  0.74799613  0.94560990  1
  O2-  O144  1  0.06972232  0.17822506  0.08810259  1
  O2-  O145  1  0.07069807  0.18252709  0.43180871  1
  O2-  O146  1  0.07440177  0.17849336  0.75729941  1
  O2-  O147  1  0.07108379  0.67861781  0.09163042  1
  O2-  O148  1  0.06999915  0.67367255  0.42035165  1
  O2-  O149  1  0.07207132  0.68096239  0.76594437  1
  O2-  O150  1  0.57497376  0.17717406  0.08989027  1
  O2-  O151  1  0.57203083  0.18022249  0.43074610  1
  O2-  O152  1  0.56608122  0.18035492  0.76654654  1
  O2-  O153  1  0.57265748  0.67733896  0.09096545  1
  O2-  O154  1  0.57222861  0.67961144  0.42939272  1
  O2-  O155  1  0.56820304  0.67982370  0.76749216  1
  O2-  O156  1  0.17362547  0.43256521  0.24408011  1
  O2-  O157  1  0.17957201  0.42993273  0.56776490  1
  O2-  O158  1  0.17213232  0.43115087  0.91362813  1
  O2-  O159  1  0.17615871  0.92817206  0.24601991  1
  O2-  O160  1  0.17838603  0.92913337  0.57468217  1
  O2-  O161  1  0.18030795  0.92767879  0.90062188  1
  O2-  O162  1  0.67938011  0.43055052  0.24187343  1
  O2-  O163  1  0.67884513  0.42719301  0.57814105  1
  O2-  O164  1  0.67990180  0.43031943  0.91030177  1
  O2-  O165  1  0.68504819  0.92558770  0.23408910  1
  O2-  O166  1  0.67932647  0.93083333  0.57123215  1
  O2-  O167  1  0.67833946  0.92358629  0.91226933  1
  O2-  O168  1  0.43653382  0.32414795  0.10013982  1
  O2-  O169  1  0.42992514  0.31991474  0.42244753  1
  O2-  O170  1  0.42476033  0.31895246  0.76447950  1
  O2-  O171  1  0.43238972  0.82028351  0.09390454  1
  O2-  O172  1  0.42241461  0.81977483  0.41795829  1
  O2-  O173  1  0.42483989  0.82093897  0.76711790  1
  O2-  O174  1  0.92888221  0.31863216  0.09899251  1
  O2-  O175  1  0.92917069  0.33096066  0.42120885  1
  O2-  O176  1  0.93280308  0.32142437  0.76675953  1
  O2-  O177  1  0.92717735  0.81831488  0.09943923  1
  O2-  O178  1  0.93131505  0.81627065  0.42290534  1
  O2-  O179  1  0.93246420  0.82203797  0.76389402  1
  O2-  O180  1  0.31702007  0.07104055  0.23499994  1
  O2-  O181  1  0.31838147  0.07222706  0.57530882  1
  O2-  O182  1  0.32248118  0.06889657  0.90043781  1
  O2-  O183  1  0.32269122  0.56739437  0.23634472  1
  O2-  O184  1  0.32018112  0.57171151  0.57647024  1
  O2-  O185  1  0.32309327  0.56942252  0.90007202  1
  O2-  O186  1  0.82257157  0.06909931  0.23287772  1
  O2-  O187  1  0.82214120  0.07304710  0.57047468  1
  O2-  O188  1  0.81688147  0.07550259  0.91031688  1
  O2-  O189  1  0.82170100  0.56931459  0.23992159  1
  O2-  O190  1  0.82019762  0.56737127  0.56676993  1
  O2-  O191  1  0.82019314  0.57334604  0.91114449  1
  O2-  O192  1  0.04132538  0.08263875  0.26322784  1
  O2-  O193  1  0.05270668  0.08294774  0.60520236  1
  O2-  O194  1  0.04547173  0.08478304  0.93650570  1
  O2-  O195  1  0.04266215  0.58757989  0.26494178  1
  O2-  O196  1  0.03989196  0.58125457  0.59844908  1
  O2-  O197  1  0.04770262  0.58556780  0.94045279  1
  O2-  O198  1  0.54221407  0.07870295  0.26569980  1
  O2-  O199  1  0.54206885  0.08231362  0.59936601  1
  O2-  O200  1  0.55304230  0.07825188  0.94151070  1
  O2-  O201  1  0.53972151  0.58239893  0.26324787  1
  O2-  O202  1  0.54680331  0.58090964  0.59851579  1
  O2-  O203  1  0.54562619  0.58549278  0.93882477  1
  O2-  O204  1  0.16417360  0.21451541  0.26141319  1
  O2-  O205  1  0.16335319  0.20851788  0.60428992  1
  O2-  O206  1  0.16734780  0.19998393  0.93811235  1
  O2-  O207  1  0.16601050  0.70358700  0.27047714  1
  O2-  O208  1  0.16753185  0.70590380  0.59611026  1
  O2-  O209  1  0.16990226  0.70177498  0.94244125  1
  O2-  O210  1  0.66595460  0.21153671  0.26255926  1
  O2-  O211  1  0.66692438  0.21039830  0.59916391  1
  O2-  O212  1  0.66247054  0.20746060  0.93658235  1
  O2-  O213  1  0.66734190  0.71010823  0.26086559  1
  O2-  O214  1  0.67015051  0.70628406  0.60109773  1
  O2-  O215  1  0.66305832  0.70621137  0.93933768  1
  O2-  O216  1  0.08361289  0.45748303  0.06822786  1
  O2-  O217  1  0.08282588  0.45832076  0.39548857  1
  O2-  O218  1  0.08510815  0.46309196  0.73701591  1
  O2-  O219  1  0.07739021  0.95647740  0.06676609  1
  O2-  O220  1  0.08354509  0.95537892  0.39722822  1
  O2-  O221  1  0.08872616  0.95577930  0.72899718  1
  O2-  O222  1  0.59110083  0.45838860  0.06526067  1
  O2-  O223  1  0.59023815  0.46132591  0.39622560  1
  O2-  O224  1  0.58076666  0.45231618  0.72800805  1
  O2-  O225  1  0.58867082  0.95031519  0.06632126  1
  O2-  O226  1  0.57716982  0.94568904  0.39635513  1
  O2-  O227  1  0.57992453  0.96055449  0.73799567  1
  O2-  O228  1  0.19644905  0.33251989  0.06225142  1
  O2-  O229  1  0.19965726  0.33595678  0.39472614  1
  O2-  O230  1  0.20745493  0.33321586  0.73827817  1
  O2-  O231  1  0.20532101  0.83197874  0.07122003  1
  O2-  O232  1  0.19910875  0.83298130  0.39630442  1
  O2-  O233  1  0.20644435  0.83496280  0.72634559  1
  O2-  O234  1  0.70940031  0.33674459  0.06273072  1
  O2-  O235  1  0.70327187  0.33709064  0.39486880  1
  O2-  O236  1  0.70288034  0.33535935  0.73146376  1
  O2-  O237  1  0.71156168  0.83466362  0.06425544  1
  O2-  O238  1  0.71313472  0.82974147  0.39991878  1
  O2-  O239  1  0.70499811  0.83082499  0.73759531  1
  O2-  O240  1  0.46052328  0.41352449  0.27250493  1
  O2-  O241  1  0.45007963  0.42019937  0.59804842  1
  O2-  O242  1  0.46766948  0.41321285  0.93062834  1
  O2-  O243  1  0.45008551  0.91527018  0.26703646  1
  O2-  O244  1  0.45543427  0.92067592  0.60002018  1
  O2-  O245  1  0.45863211  0.91108041  0.94092103  1
  O2-  O246  1  0.95691122  0.41681397  0.26633303  1
  O2-  O247  1  0.96459089  0.41481221  0.59873770  1
  O2-  O248  1  0.95719640  0.41984948  0.93504220  1
  O2-  O249  1  0.95735708  0.91133146  0.27116833  1
  O2-  O250  1  0.95989659  0.92127954  0.59746574  1
  O2-  O251  1  0.95461827  0.91917804  0.93201258  1
  O2-  O252  1  0.33260862  0.30177790  0.27267125  1
  O2-  O253  1  0.32581800  0.29331092  0.59878900  1
  O2-  O254  1  0.32948117  0.29875467  0.93584376  1
  O2-  O255  1  0.33085777  0.79450757  0.26731169  1
  O2-  O256  1  0.33078488  0.79690171  0.59519951  1
  O2-  O257  1  0.33664697  0.79270790  0.94448827  1
  O2-  O258  1  0.83191345  0.30470370  0.27065881  1
  O2-  O259  1  0.83182188  0.29685222  0.59993290  1
  O2-  O260  1  0.83282931  0.29029641  0.93155859  1
  O2-  O261  1  0.84098250  0.78752854  0.26904737  1
  O2-  O262  1  0.83032443  0.79433054  0.59970997  1
  O2-  O263  1  0.83452710  0.78565536  0.93107269  1
  O2-  O264  1  0.42046351  0.04080399  0.06799834  1
  O2-  O265  1  0.41572619  0.04141233  0.40124367  1
  O2-  O266  1  0.41213189  0.04581717  0.72796327  1
  O2-  O267  1  0.41996473  0.53535208  0.06702630  1
  O2-  O268  1  0.41904932  0.54025302  0.40327730  1
  O2-  O269  1  0.41756685  0.54953304  0.72651067  1
  O2-  O270  1  0.91170602  0.04625387  0.06029558  1
  O2-  O271  1  0.91964121  0.04287058  0.39932760  1
  O2-  O272  1  0.92289407  0.04739635  0.73580240  1
  O2-  O273  1  0.91397321  0.54600869  0.06360003  1
  O2-  O274  1  0.91530144  0.54574860  0.39175941  1
  O2-  O275  1  0.91520563  0.53711000  0.73552990  1
  O2-  O276  1  0.29735388  0.17204296  0.06702984  1
  O2-  O277  1  0.28565130  0.16858187  0.40014493  1
  O2-  O278  1  0.28909072  0.16128157  0.72904427  1
  O2-  O279  1  0.29371230  0.66299348  0.07202557  1
  O2-  O280  1  0.29250336  0.66794468  0.40202240  1
  O2-  O281  1  0.29511443  0.66707352  0.72634672  1
  O2-  O282  1  0.78996986  0.16404280  0.06364152  1
  O2-  O283  1  0.79957835  0.17510148  0.39475265  1
  O2-  O284  1  0.79164989  0.17215757  0.73549094  1
  O2-  O285  1  0.79078870  0.66237858  0.06479570  1
  O2-  O286  1  0.79180721  0.66075935  0.39210566  1
  O2-  O287  1  0.79078954  0.66649561  0.73626309  1
