# generated using pymatgen
data_Ca2Al2SiO7
_symmetry_space_group_name_H-M   'P 1'
_cell_length_a   15.45511379
_cell_length_b   15.45437921
_cell_length_c   15.28160376
_cell_angle_alpha   89.99956428
_cell_angle_beta   89.98868844
_cell_angle_gamma   90.00549049
_symmetry_Int_Tables_number   1
_chemical_formula_structural   Ca2Al2SiO7
_chemical_formula_sum   'Ca48 Al48 Si24 O168'
_cell_volume   3649.99857966
_cell_formula_units_Z   24
loop_
 _symmetry_equiv_pos_site_id
 _symmetry_equiv_pos_as_xyz
  1  'x, y, z'
loop_
 _atom_type_symbol
 _atom_type_oxidation_number
  Ca2+  2.0
  Al0+  0.0
  Si0+  0.0
  O2-  -2.0
loop_
 _atom_site_type_symbol
 _atom_site_label
 _atom_site_symmetry_multiplicity
 _atom_site_fract_x
 _atom_site_fract_y
 _atom_site_fract_z
 _atom_site_occupancy
  Ca2+  Ca0  1  0.16631325  0.08369765  0.16573774  1
  Ca2+  Ca1  1  0.18191292  0.08668766  0.50500259  1
  Ca2+  Ca2  1  0.16949369  0.08096869  0.83946951  1
  Ca2+  Ca3  1  0.16926691  0.57687881  0.16282892  1
  Ca2+  Ca4  1  0.17281776  0.58003163  0.50789747  1
  Ca2+  Ca5  1  0.17962394  0.57763029  0.84065950  1
  Ca2+  Ca6  1  0.67888050  0.09213617  0.17109261  1
  Ca2+  Ca7  1  0.66690293  0.08530490  0.50596912  1
  Ca2+  Ca8  1  0.66615779  0.07860515  0.83302206  1
  Ca2+  Ca9  1  0.67420304  0.57397352  0.16867220  1
  Ca2+  Ca10  1  0.66664061  0.57071303  0.51140318  1
  Ca2+  Ca11  1  0.67076466  0.58248237  0.83279133  1
  Ca2+  Ca12  1  0.07381199  0.32787301  0.15424464  1
  Ca2+  Ca13  1  0.07404337  0.33375583  0.49463436  1
  Ca2+  Ca14  1  0.08208353  0.33506545  0.83637457  1
  Ca2+  Ca15  1  0.07933397  0.83470998  0.15569918  1
  Ca2+  Ca16  1  0.07754880  0.83152966  0.50164882  1
  Ca2+  Ca17  1  0.07210382  0.84003505  0.83135353  1
  Ca2+  Ca18  1  0.58205299  0.32993357  0.16455688  1
  Ca2+  Ca19  1  0.58500704  0.32841756  0.49845505  1
  Ca2+  Ca20  1  0.57438584  0.33118736  0.82398032  1
  Ca2+  Ca21  1  0.58105974  0.83072577  0.16285067  1
  Ca2+  Ca22  1  0.58382233  0.83172083  0.50661038  1
  Ca2+  Ca23  1  0.58045656  0.82658675  0.81883989  1
  Ca2+  Ca24  1  0.33063626  0.41133276  0.16089362  1
  Ca2+  Ca25  1  0.33459240  0.41982488  0.51074169  1
  Ca2+  Ca26  1  0.33855934  0.42243904  0.84040700  1
  Ca2+  Ca27  1  0.32373859  0.92294961  0.17200568  1
  Ca2+  Ca28  1  0.34076861  0.92714897  0.50772550  1
  Ca2+  Ca29  1  0.33389883  0.92230379  0.83628981  1
  Ca2+  Ca30  1  0.83484073  0.41436385  0.17293811  1
  Ca2+  Ca31  1  0.82154170  0.41549187  0.50639236  1
  Ca2+  Ca32  1  0.82925324  0.42542198  0.83862637  1
  Ca2+  Ca33  1  0.84025711  0.93035892  0.16613217  1
  Ca2+  Ca34  1  0.82751369  0.92316358  0.50850692  1
  Ca2+  Ca35  1  0.83020143  0.91580940  0.83931212  1
  Ca2+  Ca36  1  0.42257704  0.16762915  0.16263555  1
  Ca2+  Ca37  1  0.42794547  0.16197413  0.49903742  1
  Ca2+  Ca38  1  0.41770503  0.17741179  0.82249437  1
  Ca2+  Ca39  1  0.41817576  0.66333860  0.16003665  1
  Ca2+  Ca40  1  0.42089928  0.66557810  0.50459578  1
  Ca2+  Ca41  1  0.41886267  0.66776532  0.82194230  1
  Ca2+  Ca42  1  0.91468185  0.17458460  0.15698416  1
  Ca2+  Ca43  1  0.91341258  0.17235507  0.49165582  1
  Ca2+  Ca44  1  0.92113934  0.16523453  0.83704336  1
  Ca2+  Ca45  1  0.91670162  0.67284055  0.15552186  1
  Ca2+  Ca46  1  0.90457427  0.67290781  0.50376245  1
  Ca2+  Ca47  1  0.90888442  0.67355377  0.82700883  1
  Al0+  Al48  1  -0.00039209  0.00005074  -0.00005710  1
  Al0+  Al49  1  0.00041989  -0.00073552  0.33915216  1
  Al0+  Al50  1  0.00107354  0.00052131  0.65878302  1
  Al0+  Al51  1  0.00149925  0.50124958  0.00310099  1
  Al0+  Al52  1  0.00103187  0.50301777  0.33030278  1
  Al0+  Al53  1  0.00010980  0.50043485  0.66879645  1
  Al0+  Al54  1  0.50049502  -0.00183413  0.00140716  1
  Al0+  Al55  1  0.49984243  -0.00087948  0.32939551  1
  Al0+  Al56  1  0.50079260  0.00115865  0.67012896  1
  Al0+  Al57  1  0.50230216  0.49996964  0.00146329  1
  Al0+  Al58  1  0.50011289  0.50022662  0.33498344  1
  Al0+  Al59  1  0.49921950  0.49960964  0.66648472  1
  Al0+  Al60  1  0.25133434  0.25061472  -0.00322386  1
  Al0+  Al61  1  0.24958877  0.25010457  0.33824447  1
  Al0+  Al62  1  0.24882016  0.24916253  0.66637421  1
  Al0+  Al63  1  0.25041588  0.75113522  0.00837388  1
  Al0+  Al64  1  0.24902045  0.74939360  0.33312927  1
  Al0+  Al65  1  0.24682614  0.75036967  0.66540165  1
  Al0+  Al66  1  0.74978894  0.24902367  -0.00291644  1
  Al0+  Al67  1  0.74900918  0.25065117  0.33350203  1
  Al0+  Al68  1  0.75100944  0.25022387  0.66992043  1
  Al0+  Al69  1  0.74866942  0.74862350  0.00234110  1
  Al0+  Al70  1  0.74907869  0.75059870  0.32967914  1
  Al0+  Al71  1  0.74921847  0.75199747  0.66276530  1
  Al0+  Al72  1  0.82020765  0.07065224  0.34702510  1
  Al0+  Al73  1  0.57232103  0.17937840  0.65245211  1
  Al0+  Al74  1  0.92961576  0.32029566  0.32105441  1
  Al0+  Al75  1  0.32143417  0.07033577  0.68168534  1
  Al0+  Al76  1  0.32116528  0.07033213  0.34691436  1
  Al0+  Al77  1  0.82116941  0.57161476  0.01402633  1
  Al0+  Al78  1  0.07099226  0.17865056  0.98505225  1
  Al0+  Al79  1  0.81899500  0.06966195  0.01185202  1
  Al0+  Al80  1  0.31969807  0.57094575  0.67861035  1
  Al0+  Al81  1  0.17971638  0.42707830  0.01532441  1
  Al0+  Al82  1  0.68037623  0.93137966  0.67935903  1
  Al0+  Al83  1  0.92825051  0.82168313  0.65171820  1
  Al0+  Al84  1  0.56976044  0.17855742  0.31829194  1
  Al0+  Al85  1  0.82080847  0.57122094  0.68063087  1
  Al0+  Al86  1  0.42593275  0.82184962  0.65313983  1
  Al0+  Al87  1  0.42750030  0.32154536  0.65059501  1
  Al0+  Al88  1  0.67787015  0.42654821  0.68377413  1
  Al0+  Al89  1  0.67982568  0.42997174  0.34693019  1
  Al0+  Al90  1  0.57123269  0.67837744  0.65119550  1
  Al0+  Al91  1  0.92703260  0.32416772  0.98286837  1
  Al0+  Al92  1  0.92957158  0.81946994  0.98711055  1
  Al0+  Al93  1  0.17920460  0.93102254  0.01233782  1
  Al0+  Al94  1  0.32388290  0.57100228  0.01600012  1
  Al0+  Al95  1  0.43174607  0.31976034  0.98724281  1
  Si0+  Si96  1  0.42738358  0.82121045  0.98695575  1
  Si0+  Si97  1  0.07319114  0.68047779  0.31576788  1
  Si0+  Si98  1  0.67637730  0.92634716  0.01804974  1
  Si0+  Si99  1  0.17605564  0.92893344  0.68226269  1
  Si0+  Si100  1  0.67760344  0.92563071  0.34948027  1
  Si0+  Si101  1  0.32383032  0.07273608  0.01652187  1
  Si0+  Si102  1  0.17650155  0.42670478  0.68284287  1
  Si0+  Si103  1  0.57290211  0.17501055  0.98250008  1
  Si0+  Si104  1  0.93047297  0.32228514  0.65221892  1
  Si0+  Si105  1  0.57010223  0.67730881  0.31643543  1
  Si0+  Si106  1  0.42614834  0.32391738  0.31654253  1
  Si0+  Si107  1  0.07065986  0.67648680  0.65002536  1
  Si0+  Si108  1  0.42821581  0.82005659  0.31677884  1
  Si0+  Si109  1  0.07452898  0.67837593  0.98337396  1
  Si0+  Si110  1  0.17814365  0.92564178  0.35297228  1
  Si0+  Si111  1  0.67954207  0.42774655  0.01700823  1
  Si0+  Si112  1  0.82569543  0.07276232  0.68373198  1
  Si0+  Si113  1  0.32041316  0.57161047  0.34949584  1
  Si0+  Si114  1  0.17773875  0.43018674  0.34839302  1
  Si0+  Si115  1  0.07076151  0.17814567  0.64895779  1
  Si0+  Si116  1  0.82343455  0.57408689  0.34925003  1
  Si0+  Si117  1  0.56984769  0.68016267  0.98595121  1
  Si0+  Si118  1  0.92901460  0.82119917  0.31720755  1
  Si0+  Si119  1  0.07360323  0.17775074  0.31816028  1
  O2-  O120  1  0.25402330  0.00494417  0.06063978  1
  O2-  O121  1  0.24614982  -0.00429823  0.39488434  1
  O2-  O122  1  0.24790508  -0.00643798  0.72679987  1
  O2-  O123  1  0.25228803  0.49870111  0.06663195  1
  O2-  O124  1  0.25176925  0.49799716  0.39090135  1
  O2-  O125  1  0.24892839  0.49252765  0.72445939  1
  O2-  O126  1  0.74278123  -0.00266154  0.06145692  1
  O2-  O127  1  0.74572348  -0.00472197  0.39257775  1
  O2-  O128  1  0.75645455  0.00425108  0.72660031  1
  O2-  O129  1  0.75386458  0.49062083  0.06190611  1
  O2-  O130  1  0.75601716  0.50438154  0.39217559  1
  O2-  O131  1  0.74920777  0.50024197  0.73198387  1
  O2-  O132  1  0.00324790  0.24435400  0.27435742  1
  O2-  O133  1  -0.00074637  0.24952605  0.60847768  1
  O2-  O134  1  0.00100390  0.25275017  0.93430792  1
  O2-  O135  1  0.00036432  0.75051233  0.27493240  1
  O2-  O136  1  0.00020404  0.74354996  0.60502970  1
  O2-  O137  1  0.00265287  0.74355993  0.93919506  1
  O2-  O138  1  0.49330850  0.25311118  0.27334224  1
  O2-  O139  1  0.50095835  0.25127016  0.60035085  1
  O2-  O140  1  0.50296795  0.24255737  0.94005657  1
  O2-  O141  1  0.49910082  0.74876728  0.27406754  1
  O2-  O142  1  0.49680638  0.74921171  0.60141419  1
  O2-  O143  1  0.49770089  0.75032254  0.94501049  1
  O2-  O144  1  0.06869718  0.17828805  0.09926390  1
  O2-  O145  1  0.07463698  0.18099523  0.42399584  1
  O2-  O146  1  0.07051519  0.17501793  0.75365020  1
  O2-  O147  1  0.07403911  0.68176998  0.08980948  1
  O2-  O148  1  0.07683139  0.68046851  0.42064550  1
  O2-  O149  1  0.07251645  0.67670254  0.75502884  1
  O2-  O150  1  0.57251316  0.17486383  0.08857935  1
  O2-  O151  1  0.56943947  0.17738915  0.43066556  1
  O2-  O152  1  0.56989466  0.17927395  0.76607731  1
  O2-  O153  1  0.56942147  0.68156609  0.09193571  1
  O2-  O154  1  0.57003843  0.67650561  0.42080430  1
  O2-  O155  1  0.57115075  0.68110346  0.76511386  1
  O2-  O156  1  0.17708587  0.43103987  0.24380274  1
  O2-  O157  1  0.17326390  0.42936040  0.57641562  1
  O2-  O158  1  0.18164769  0.42985887  0.90194669  1
  O2-  O159  1  0.17803870  0.92355178  0.24729626  1
  O2-  O160  1  0.17414322  0.93213349  0.57637481  1
  O2-  O161  1  0.18133836  0.93087473  0.89951450  1
  O2-  O162  1  0.67911351  0.43282552  0.23359655  1
  O2-  O163  1  0.68140447  0.42542441  0.56965417  1
  O2-  O164  1  0.67697839  0.43175034  0.91207340  1
  O2-  O165  1  0.67925030  0.92171770  0.24380724  1
  O2-  O166  1  0.68260528  0.93234428  0.56582308  1
  O2-  O167  1  0.67502131  0.92467187  0.91283747  1
  O2-  O168  1  0.43419710  0.31778215  0.10114335  1
  O2-  O169  1  0.42566894  0.32662626  0.42155265  1
  O2-  O170  1  0.42681360  0.32010067  0.76425246  1
  O2-  O171  1  0.42987185  0.82178468  0.09271234  1
  O2-  O172  1  0.42725691  0.81947262  0.42135331  1
  O2-  O173  1  0.42680005  0.81988672  0.76716348  1
  O2-  O174  1  0.92682761  0.32092469  0.09702513  1
  O2-  O175  1  0.93219428  0.32035412  0.43469397  1
  O2-  O176  1  0.93314806  0.32370745  0.75679131  1
  O2-  O177  1  0.93203868  0.81934940  0.10099224  1
  O2-  O178  1  0.92884666  0.81937956  0.42223647  1
  O2-  O179  1  0.93052396  0.82389238  0.76456114  1
  O2-  O180  1  0.31950292  0.06793241  0.23360961  1
  O2-  O181  1  0.31972921  0.06971145  0.56812739  1
  O2-  O182  1  0.32587734  0.06969619  0.91128445  1
  O2-  O183  1  0.31946733  0.57393036  0.24464913  1
  O2-  O184  1  0.31544436  0.57079132  0.56459604  1
  O2-  O185  1  0.32392758  0.57273091  0.90283938  1
  O2-  O186  1  0.82164484  0.06899200  0.23387513  1
  O2-  O187  1  0.82647346  0.07209974  0.57762304  1
  O2-  O188  1  0.81860325  0.06616025  0.89903038  1
  O2-  O189  1  0.82248584  0.57593678  0.24355161  1
  O2-  O190  1  0.82120728  0.56720643  0.56632878  1
  O2-  O191  1  0.81512215  0.57642778  0.90179684  1
  O2-  O192  1  0.05123901  0.08109207  0.27679825  1
  O2-  O193  1  0.04424014  0.08810951  0.59716894  1
  O2-  O194  1  0.03909035  0.08195231  0.93074449  1
  O2-  O195  1  0.04665045  0.58879788  0.26742660  1
  O2-  O196  1  0.04722702  0.58248274  0.60223588  1
  O2-  O197  1  0.05478667  0.58318985  0.94016503  1
  O2-  O198  1  0.54075478  0.08157728  0.26233453  1
  O2-  O199  1  0.54244280  0.08124456  0.59997293  1
  O2-  O200  1  0.54863777  0.07961657  0.93894136  1
  O2-  O201  1  0.54010002  0.58671576  0.26733363  1
  O2-  O202  1  0.54204764  0.58081918  0.59741398  1
  O2-  O203  1  0.54414555  0.58810560  0.93951748  1
  O2-  O204  1  0.16695519  0.20456466  0.27207969  1
  O2-  O205  1  0.16172291  0.20743908  0.60059362  1
  O2-  O206  1  0.17040186  0.20323462  0.93265711  1
  O2-  O207  1  0.16413503  0.70946443  0.26644147  1
  O2-  O208  1  0.16179850  0.70546953  0.59960641  1
  O2-  O209  1  0.16825025  0.70776981  0.93992109  1
  O2-  O210  1  0.66522827  0.21271099  0.26401741  1
  O2-  O211  1  0.67308219  0.20494702  0.60130178  1
  O2-  O212  1  0.66587241  0.19926517  0.93618913  1
  O2-  O213  1  0.66193614  0.70592926  0.26784133  1
  O2-  O214  1  0.66721059  0.70985811  0.59490561  1
  O2-  O215  1  0.66055203  0.70972382  0.93873262  1
  O2-  O216  1  0.08232463  0.45666933  0.07038043  1
  O2-  O217  1  0.08757850  0.46325078  0.39710292  1
  O2-  O218  1  0.08527632  0.45598350  0.73089648  1
  O2-  O219  1  0.08389507  0.96184324  0.06896670  1
  O2-  O220  1  0.08423533  0.94886697  0.39934383  1
  O2-  O221  1  0.08374909  0.96053794  0.72778589  1
  O2-  O222  1  0.58949776  0.46063555  0.06652909  1
  O2-  O223  1  0.58321003  0.46207721  0.40046214  1
  O2-  O224  1  0.57914017  0.45499768  0.73426952  1
  O2-  O225  1  0.58197214  0.94957827  0.06530274  1
  O2-  O226  1  0.58262767  0.94918650  0.39211748  1
  O2-  O227  1  0.58529254  0.96063337  0.73659934  1
  O2-  O228  1  0.20902200  0.32871710  0.06908686  1
  O2-  O229  1  0.20042059  0.33758697  0.39664967  1
  O2-  O230  1  0.19670255  0.33171269  0.72670851  1
  O2-  O231  1  0.20943422  0.83638273  0.07166179  1
  O2-  O232  1  0.20524338  0.83208254  0.39871621  1
  O2-  O233  1  0.19406386  0.83323058  0.72579623  1
  O2-  O234  1  0.69841992  0.33141971  0.06001188  1
  O2-  O235  1  0.71054308  0.33430594  0.40121254  1
  O2-  O236  1  0.70780027  0.32929700  0.73787265  1
  O2-  O237  1  0.70307044  0.83393265  0.06602924  1
  O2-  O238  1  0.70488828  0.83220837  0.39586887  1
  O2-  O239  1  0.71003127  0.83434456  0.73232254  1
  O2-  O240  1  0.45349405  0.41733575  0.26995276  1
  O2-  O241  1  0.45305188  0.42057545  0.59824976  1
  O2-  O242  1  0.46425740  0.41680636  0.93510474  1
  O2-  O243  1  0.45597849  0.91033582  0.26639938  1
  O2-  O244  1  0.45905594  0.91907922  0.60110559  1
  O2-  O245  1  0.45431468  0.91349265  0.93991373  1
  O2-  O246  1  0.96000713  0.41830524  0.26857092  1
  O2-  O247  1  0.96045213  0.41301557  0.60303246  1
  O2-  O248  1  0.95534726  0.42409736  0.93317384  1
  O2-  O249  1  0.95829115  0.91406488  0.27235319  1
  O2-  O250  1  0.96292064  0.91582761  0.59353165  1
  O2-  O251  1  0.96202551  0.91460094  0.93296205  1
  O2-  O252  1  0.33091366  0.29877097  0.27288836  1
  O2-  O253  1  0.32742031  0.29433443  0.59891221  1
  O2-  O254  1  0.33462937  0.29426488  0.93315082  1
  O2-  O255  1  0.33580529  0.79119093  0.26987528  1
  O2-  O256  1  0.32660167  0.79683521  0.59921181  1
  O2-  O257  1  0.33453260  0.79547625  0.94218859  1
  O2-  O258  1  0.83334187  0.29084296  0.26705480  1
  O2-  O259  1  0.83818321  0.29477397  0.60606293  1
  O2-  O260  1  0.82903702  0.29421146  0.93039232  1
  O2-  O261  1  0.83691847  0.79476535  0.26928784  1
  O2-  O262  1  0.83318259  0.79259953  0.59419542  1
  O2-  O263  1  0.83102372  0.79014357  0.93639882  1
  O2-  O264  1  0.41672122  0.04417719  0.06408689  1
  O2-  O265  1  0.41766922  0.03594126  0.39873672  1
  O2-  O266  1  0.41665589  0.04120577  0.73746852  1
  O2-  O267  1  0.42200750  0.54187526  0.07044296  1
  O2-  O268  1  0.41318964  0.54661599  0.39542709  1
  O2-  O269  1  0.41701043  0.54541114  0.73173356  1
  O2-  O270  1  0.91416612  0.03692110  0.06745033  1
  O2-  O271  1  0.91712394  0.04145235  0.40257013  1
  O2-  O272  1  0.91981662  0.04458545  0.72652754  1
  O2-  O273  1  0.92060158  0.55108603  0.06665649  1
  O2-  O274  1  0.91903995  0.55326566  0.39307247  1
  O2-  O275  1  0.91989568  0.54484171  0.73317652  1
  O2-  O276  1  0.29954920  0.16624653  0.06192680  1
  O2-  O277  1  0.29160536  0.16683508  0.40234479  1
  O2-  O278  1  0.28654571  0.16622618  0.73427215  1
  O2-  O279  1  0.29480438  0.66841352  0.07201864  1
  O2-  O280  1  0.28930163  0.66270219  0.39654949  1
  O2-  O281  1  0.28640240  0.66730928  0.73189907  1
  O2-  O282  1  0.78932106  0.16711248  0.06619904  1
  O2-  O283  1  0.78934848  0.16664159  0.40087507  1
  O2-  O284  1  0.80287655  0.16631338  0.72973100  1
  O2-  O285  1  0.78413816  0.66543224  0.07184894  1
  O2-  O286  1  0.79481389  0.66795511  0.39361893  1
  O2-  O287  1  0.79390819  0.67131614  0.72921002  1
