# generated using pymatgen
data_Ca2Al2SiO7
_symmetry_space_group_name_H-M   'P 1'
_cell_length_a   15.46484618
_cell_length_b   15.46821170
_cell_length_c   15.28960542
_cell_angle_alpha   90.01208760
_cell_angle_beta   89.99384113
_cell_angle_gamma   90.02829891
_symmetry_Int_Tables_number   1
_chemical_formula_structural   Ca2Al2SiO7
_chemical_formula_sum   'Ca48 Al48 Si24 O168'
_cell_volume   3657.47970260
_cell_formula_units_Z   24
loop_
 _symmetry_equiv_pos_site_id
 _symmetry_equiv_pos_as_xyz
  1  'x, y, z'
loop_
 _atom_type_symbol
 _atom_type_oxidation_number
  Ca2+  2.0
  Al0+  0.0
  Si0+  0.0
  O2-  -2.0
loop_
 _atom_site_type_symbol
 _atom_site_label
 _atom_site_symmetry_multiplicity
 _atom_site_fract_x
 _atom_site_fract_y
 _atom_site_fract_z
 _atom_site_occupancy
  Ca2+  Ca0  1  0.16475412  0.06851610  0.16975206  1
  Ca2+  Ca1  1  0.17337493  0.07235456  0.50729226  1
  Ca2+  Ca2  1  0.16857119  0.07144774  0.83244760  1
  Ca2+  Ca3  1  0.17724322  0.58603021  0.17028354  1
  Ca2+  Ca4  1  0.18062687  0.58352971  0.49969781  1
  Ca2+  Ca5  1  0.17768733  0.59419266  0.83867998  1
  Ca2+  Ca6  1  0.66762942  0.07494266  0.17073889  1
  Ca2+  Ca7  1  0.66797246  0.06709432  0.50668082  1
  Ca2+  Ca8  1  0.67002614  0.07650285  0.83143020  1
  Ca2+  Ca9  1  0.67751535  0.58800592  0.16795245  1
  Ca2+  Ca10  1  0.66600132  0.58775987  0.50495170  1
  Ca2+  Ca11  1  0.66648966  0.57649723  0.83882944  1
  Ca2+  Ca12  1  0.08192814  0.33516679  0.15951399  1
  Ca2+  Ca13  1  0.08634273  0.33217158  0.49231801  1
  Ca2+  Ca14  1  0.07349444  0.33669756  0.83007839  1
  Ca2+  Ca15  1  0.08106910  0.82787070  0.15438658  1
  Ca2+  Ca16  1  0.07954691  0.84267683  0.49997425  1
  Ca2+  Ca17  1  0.07793540  0.83529962  0.83337636  1
  Ca2+  Ca18  1  0.58049567  0.33371383  0.15716643  1
  Ca2+  Ca19  1  0.58708190  0.33198617  0.50064218  1
  Ca2+  Ca20  1  0.58153408  0.34234081  0.83032922  1
  Ca2+  Ca21  1  0.57307268  0.82906916  0.16666119  1
  Ca2+  Ca22  1  0.58198017  0.82642979  0.49118175  1
  Ca2+  Ca23  1  0.57863204  0.82611383  0.82502162  1
  Ca2+  Ca24  1  0.33420091  0.42930820  0.16982224  1
  Ca2+  Ca25  1  0.33496838  0.42936804  0.50290421  1
  Ca2+  Ca26  1  0.33682193  0.42987701  0.84065796  1
  Ca2+  Ca27  1  0.32418089  0.90424202  0.17064829  1
  Ca2+  Ca28  1  0.32423981  0.91136991  0.50526315  1
  Ca2+  Ca29  1  0.32333905  0.91171677  0.84077715  1
  Ca2+  Ca30  1  0.83762417  0.42866303  0.16681240  1
  Ca2+  Ca31  1  0.82650035  0.42797969  0.50380897  1
  Ca2+  Ca32  1  0.82229353  0.42056834  0.84405871  1
  Ca2+  Ca33  1  0.82609756  0.90826696  0.17093961  1
  Ca2+  Ca34  1  0.82225578  0.91581375  0.50995140  1
  Ca2+  Ca35  1  0.83420760  0.91166980  0.83331951  1
  Ca2+  Ca36  1  0.41800858  0.17553252  0.15887942  1
  Ca2+  Ca37  1  0.41309788  0.16582887  0.49756066  1
  Ca2+  Ca38  1  0.41176820  0.17423845  0.83072118  1
  Ca2+  Ca39  1  0.41205220  0.67271779  0.16350922  1
  Ca2+  Ca40  1  0.42652117  0.66580982  0.49424624  1
  Ca2+  Ca41  1  0.41734152  0.66699364  0.82956123  1
  Ca2+  Ca42  1  0.91903984  0.17565370  0.15718967  1
  Ca2+  Ca43  1  0.91258856  0.16552160  0.49969082  1
  Ca2+  Ca44  1  0.91206369  0.16978391  0.82882079  1
  Ca2+  Ca45  1  0.92354947  0.66521791  0.15557933  1
  Ca2+  Ca46  1  0.91361297  0.67357710  0.49610121  1
  Ca2+  Ca47  1  0.91987224  0.67281169  0.83218650  1
  Al0+  Al48  1  0.00026385  0.00028641  0.00118055  1
  Al0+  Al49  1  0.00070502  0.00278815  0.33492671  1
  Al0+  Al50  1  0.00046714  0.00234884  0.66800982  1
  Al0+  Al51  1  0.00096716  0.49870100  -0.00868336  1
  Al0+  Al52  1  -0.00181942  0.50079058  0.34223914  1
  Al0+  Al53  1  0.00026032  0.50066826  0.66149792  1
  Al0+  Al54  1  0.49976944  0.00064293  -0.00380846  1
  Al0+  Al55  1  0.50016806  0.00062693  0.33152662  1
  Al0+  Al56  1  0.49964606  0.00322091  0.67307392  1
  Al0+  Al57  1  0.49961559  0.49888835  0.00588325  1
  Al0+  Al58  1  0.50306260  0.49818431  0.33185472  1
  Al0+  Al59  1  0.49916750  0.50101015  0.66843052  1
  Al0+  Al60  1  0.25233855  0.24812683  -0.00618300  1
  Al0+  Al61  1  0.24813935  0.24813024  0.33225203  1
  Al0+  Al62  1  0.24761571  0.25064034  0.66782292  1
  Al0+  Al63  1  0.24977415  0.75014506  0.00094427  1
  Al0+  Al64  1  0.24852280  0.74899700  0.34111005  1
  Al0+  Al65  1  0.24885598  0.74885190  0.67294999  1
  Al0+  Al66  1  0.74980709  0.24705436  -0.00038315  1
  Al0+  Al67  1  0.75113963  0.25171651  0.33031937  1
  Al0+  Al68  1  0.74794445  0.25089078  0.67045537  1
  Al0+  Al69  1  0.74943457  0.74944208  0.00058528  1
  Al0+  Al70  1  0.74937189  0.75040855  0.33704948  1
  Al0+  Al71  1  0.75105170  0.74974006  0.66338063  1
  Al0+  Al72  1  0.31979471  0.56880297  0.68141676  1
  Al0+  Al73  1  0.18016089  0.93092051  0.01521685  1
  Al0+  Al74  1  0.43067445  0.32156904  0.98586688  1
  Al0+  Al75  1  0.17810212  0.92816837  0.34742593  1
  Al0+  Al76  1  0.56912702  0.67940872  0.65459819  1
  Al0+  Al77  1  0.17995974  0.92894881  0.68380095  1
  Al0+  Al78  1  0.32202124  0.07436108  0.68248974  1
  Al0+  Al79  1  0.93191668  0.82139420  0.65155628  1
  Al0+  Al80  1  0.92958264  0.32025322  0.98541443  1
  Al0+  Al81  1  0.57367840  0.67672242  0.31626907  1
  Al0+  Al82  1  0.17868141  0.42782000  0.34608894  1
  Al0+  Al83  1  0.82001776  0.07062065  0.68120238  1
  Al0+  Al84  1  0.82253199  0.57120454  0.01300987  1
  Al0+  Al85  1  0.07207160  0.67792266  0.98592067  1
  Al0+  Al86  1  0.68030353  0.43177772  0.67916496  1
  Al0+  Al87  1  0.92666339  0.82189411  0.98649299  1
  Al0+  Al88  1  0.82000052  0.57152919  0.34817247  1
  Al0+  Al89  1  0.42899209  0.82062887  0.98609510  1
  Al0+  Al90  1  0.67902778  0.42749336  0.01674360  1
  Al0+  Al91  1  0.42725495  0.82030238  0.32033417  1
  Al0+  Al92  1  0.67838492  0.92534833  0.68320066  1
  Al0+  Al93  1  0.32407619  0.57085695  0.34927052  1
  Al0+  Al94  1  0.67860662  0.93043515  0.34537208  1
  Al0+  Al95  1  0.31980190  0.57084085  0.01438620  1
  Si0+  Si96  1  0.06986103  0.18175143  0.64950428  1
  Si0+  Si97  1  0.57234191  0.17937621  0.31854710  1
  Si0+  Si98  1  0.67710573  0.92828139  0.01534976  1
  Si0+  Si99  1  0.93002070  0.82317977  0.32023322  1
  Si0+  Si100  1  0.42699118  0.82412796  0.65268164  1
  Si0+  Si101  1  0.67912402  0.42468916  0.34981067  1
  Si0+  Si102  1  0.07237773  0.17666706  0.98137545  1
  Si0+  Si103  1  0.82161144  0.07424749  0.34759199  1
  Si0+  Si104  1  0.92971203  0.32194628  0.31871240  1
  Si0+  Si105  1  0.17834910  0.42448570  0.01223162  1
  Si0+  Si106  1  0.57194820  0.17936850  0.65064754  1
  Si0+  Si107  1  0.42785121  0.31950982  0.31924497  1
  Si0+  Si108  1  0.42886730  0.32074225  0.65100707  1
  Si0+  Si109  1  0.07105071  0.17894121  0.31675221  1
  Si0+  Si110  1  0.07429417  0.67683200  0.64598054  1
  Si0+  Si111  1  0.32378514  0.07257287  0.01790524  1
  Si0+  Si112  1  0.82480581  0.57314297  0.68336532  1
  Si0+  Si113  1  0.32151988  0.07235744  0.34702134  1
  Si0+  Si114  1  0.57278522  0.17676243  0.98079648  1
  Si0+  Si115  1  0.57159530  0.67819275  0.98448768  1
  Si0+  Si116  1  0.17611149  0.42756596  0.68337478  1
  Si0+  Si117  1  0.06873623  0.67871848  0.32126695  1
  Si0+  Si118  1  0.92599695  0.32157975  0.64891494  1
  Si0+  Si119  1  0.82100553  0.06995797  0.01587167  1
  O2-  O120  1  0.25670476  0.00358035  0.06335914  1
  O2-  O121  1  0.25810493  -0.00089977  0.39096050  1
  O2-  O122  1  0.25777393  -0.00410812  0.73249001  1
  O2-  O123  1  0.24458425  0.49428230  0.05765833  1
  O2-  O124  1  0.25319738  0.49587165  0.39728631  1
  O2-  O125  1  0.24156163  0.49768777  0.72827157  1
  O2-  O126  1  0.75210996  -0.00349081  0.05722441  1
  O2-  O127  1  0.75475346  0.00442652  0.39093376  1
  O2-  O128  1  0.75266315  -0.00437376  0.73307659  1
  O2-  O129  1  0.75222163  0.49850461  0.06582282  1
  O2-  O130  1  0.74123220  0.49950787  0.39275843  1
  O2-  O131  1  0.75591473  0.50453653  0.72613448  1
  O2-  O132  1  0.00143615  0.25181498  0.27566252  1
  O2-  O133  1  -0.00123101  0.25266562  0.60577151  1
  O2-  O134  1  0.00574593  0.24749893  0.93727660  1
  O2-  O135  1  0.00142996  0.75306973  0.27806252  1
  O2-  O136  1  0.00562206  0.74622123  0.60243761  1
  O2-  O137  1  -0.00245035  0.74851495  0.93759184  1
  O2-  O138  1  0.50134477  0.25055796  0.27709839  1
  O2-  O139  1  0.49700563  0.24686062  0.60784347  1
  O2-  O140  1  0.50677348  0.24868042  0.93795248  1
  O2-  O141  1  0.49675935  0.74567424  0.26912093  1
  O2-  O142  1  0.49857200  0.75885606  0.60821846  1
  O2-  O143  1  0.50391446  0.74696939  0.93938487  1
  O2-  O144  1  0.07020659  0.17665124  0.08757620  1
  O2-  O145  1  0.07071943  0.17827609  0.42169227  1
  O2-  O146  1  0.06988964  0.18470342  0.75431721  1
  O2-  O147  1  0.07245625  0.67920654  0.10047219  1
  O2-  O148  1  0.06632971  0.67873984  0.42623455  1
  O2-  O149  1  0.07299552  0.67377551  0.75108602  1
  O2-  O150  1  0.57103432  0.17454054  0.08709507  1
  O2-  O151  1  0.57383515  0.18017013  0.42354376  1
  O2-  O152  1  0.57535976  0.18193085  0.75515017  1
  O2-  O153  1  0.57330488  0.68122587  0.08996516  1
  O2-  O154  1  0.57323676  0.67952945  0.43016928  1
  O2-  O155  1  0.56622533  0.67671675  0.76767960  1
  O2-  O156  1  0.17806214  0.42744099  0.23253239  1
  O2-  O157  1  0.17867220  0.42536116  0.57770225  1
  O2-  O158  1  0.18098405  0.42251811  0.90677428  1
  O2-  O159  1  0.17403161  0.93069881  0.23461315  1
  O2-  O160  1  0.17987168  0.93266594  0.56969151  1
  O2-  O161  1  0.17935129  0.93372727  0.90282754  1
  O2-  O162  1  0.68379274  0.41618526  0.24526562  1
  O2-  O163  1  0.68176828  0.43049084  0.56571976  1
  O2-  O164  1  0.67946221  0.42973324  0.90300500  1
  O2-  O165  1  0.67988648  0.93298360  0.23179692  1
  O2-  O166  1  0.67814474  0.92861464  0.56931178  1
  O2-  O167  1  0.67590581  0.92986083  0.91077786  1
  O2-  O168  1  0.43020666  0.31796818  0.09951678  1
  O2-  O169  1  0.42726640  0.31703425  0.42459010  1
  O2-  O170  1  0.43082330  0.32092585  0.75579562  1
  O2-  O171  1  0.42954173  0.82047656  0.09921594  1
  O2-  O172  1  0.42908627  0.82318270  0.43394048  1
  O2-  O173  1  0.42752904  0.82079827  0.75834073  1
  O2-  O174  1  0.93172855  0.31820955  0.09920850  1
  O2-  O175  1  0.92752005  0.31843002  0.42380560  1
  O2-  O176  1  0.92680658  0.32078322  0.75374943  1
  O2-  O177  1  0.92811556  0.82243342  0.10093822  1
  O2-  O178  1  0.93118677  0.82413615  0.42527029  1
  O2-  O179  1  0.93282683  0.81981217  0.76418423  1
  O2-  O180  1  0.31824516  0.07789775  0.24178756  1
  O2-  O181  1  0.31776348  0.07828036  0.56846034  1
  O2-  O182  1  0.32247262  0.07325294  0.91275576  1
  O2-  O183  1  0.32084702  0.57041314  0.23579618  1
  O2-  O184  1  0.32140309  0.56599298  0.56845236  1
  O2-  O185  1  0.32061104  0.56932038  0.90131960  1
  O2-  O186  1  0.82081737  0.07643548  0.24188306  1
  O2-  O187  1  0.81608136  0.07220068  0.56710727  1
  O2-  O188  1  0.81975844  0.07229159  0.91129542  1
  O2-  O189  1  0.82567105  0.56874478  0.23561397  1
  O2-  O190  1  0.82499646  0.57047597  0.57731891  1
  O2-  O191  1  0.81994559  0.57054440  0.89959892  1
  O2-  O192  1  0.04004022  0.08865303  0.26730787  1
  O2-  O193  1  0.04196720  0.09063189  0.60113028  1
  O2-  O194  1  0.04189393  0.08528348  0.93491538  1
  O2-  O195  1  0.03740459  0.58722404  0.27530094  1
  O2-  O196  1  0.04941680  0.58278342  0.59859867  1
  O2-  O197  1  0.05001595  0.57975588  0.92965467  1
  O2-  O198  1  0.54508738  0.08887011  0.26838341  1
  O2-  O199  1  0.54680855  0.08643178  0.60329812  1
  O2-  O200  1  0.54430213  0.08532970  0.93249351  1
  O2-  O201  1  0.55474569  0.57449411  0.26691364  1
  O2-  O202  1  0.53437701  0.58412005  0.59893719  1
  O2-  O203  1  0.54467431  0.58391418  0.94175707  1
  O2-  O204  1  0.16252453  0.20417222  0.26714900  1
  O2-  O205  1  0.16110366  0.21087752  0.60041154  1
  O2-  O206  1  0.16685529  0.19792547  0.93596761  1
  O2-  O207  1  0.16236484  0.70312540  0.27666679  1
  O2-  O208  1  0.16884928  0.70304871  0.60203041  1
  O2-  O209  1  0.16788238  0.71184003  0.93205787  1
  O2-  O210  1  0.66395161  0.20725709  0.26945511  1
  O2-  O211  1  0.66143441  0.21274228  0.60097830  1
  O2-  O212  1  0.66745851  0.19795127  0.93606785  1
  O2-  O213  1  0.67123946  0.71128983  0.26435892  1
  O2-  O214  1  0.66757581  0.70408162  0.60112522  1
  O2-  O215  1  0.66487606  0.70311711  0.93781013  1
  O2-  O216  1  0.08297243  0.44647989  0.05514801  1
  O2-  O217  1  0.08208515  0.45579388  0.40286318  1
  O2-  O218  1  0.07988859  0.44995455  0.72535486  1
  O2-  O219  1  0.08375739  0.96402740  0.06957775  1
  O2-  O220  1  0.08354666  0.96623419  0.40201936  1
  O2-  O221  1  0.08412825  0.96575370  0.73522758  1
  O2-  O222  1  0.58152831  0.45484245  0.07080805  1
  O2-  O223  1  0.58297997  0.44156824  0.39325008  1
  O2-  O224  1  0.58416190  0.46201146  0.73302077  1
  O2-  O225  1  0.58704715  0.96215436  0.06300831  1
  O2-  O226  1  0.58333255  0.96448508  0.39984494  1
  O2-  O227  1  0.58118989  0.95670408  0.73614545  1
  O2-  O228  1  0.20416832  0.33030922  0.05807199  1
  O2-  O229  1  0.20362803  0.32737816  0.39796474  1
  O2-  O230  1  0.20088567  0.33468826  0.72982484  1
  O2-  O231  1  0.21062392  0.83445145  0.06857658  1
  O2-  O232  1  0.20292999  0.83229416  0.40432459  1
  O2-  O233  1  0.20082403  0.82914279  0.73567951  1
  O2-  O234  1  0.70411568  0.32613621  0.06568715  1
  O2-  O235  1  0.71135223  0.33368622  0.39935515  1
  O2-  O236  1  0.70884196  0.33555570  0.73382244  1
  O2-  O237  1  0.70263209  0.83648300  0.06326377  1
  O2-  O238  1  0.70922923  0.83557084  0.40069838  1
  O2-  O239  1  0.70671277  0.82675753  0.73457029  1
  O2-  O240  1  0.45365198  0.41135891  0.27194221  1
  O2-  O241  1  0.46134444  0.41031378  0.60246361  1
  O2-  O242  1  0.46112884  0.41863784  0.93290883  1
  O2-  O243  1  0.45592033  0.91946762  0.26667393  1
  O2-  O244  1  0.44687975  0.92103778  0.61078867  1
  O2-  O245  1  0.45725593  0.91814419  0.93278582  1
  O2-  O246  1  0.95802295  0.41449877  0.27397288  1
  O2-  O247  1  0.95217129  0.41398429  0.60098047  1
  O2-  O248  1  0.95745284  0.41464274  0.92643930  1
  O2-  O249  1  0.95473807  0.91667494  0.27401019  1
  O2-  O250  1  0.96170634  0.91959125  0.59843430  1
  O2-  O251  1  0.95609810  0.92066445  0.93503714  1
  O2-  O252  1  0.33731277  0.28870295  0.27089535  1
  O2-  O253  1  0.33556491  0.29493163  0.60492399  1
  O2-  O254  1  0.33533717  0.28995241  0.92900647  1
  O2-  O255  1  0.32662647  0.79194171  0.27038262  1
  O2-  O256  1  0.33301686  0.79552781  0.60877142  1
  O2-  O257  1  0.33330613  0.78863312  0.93292724  1
  O2-  O258  1  0.83925008  0.29281955  0.26889695  1
  O2-  O259  1  0.83489186  0.29051136  0.60186021  1
  O2-  O260  1  0.83343365  0.28539695  0.93287206  1
  O2-  O261  1  0.83767904  0.79530001  0.27510307  1
  O2-  O262  1  0.83495173  0.79116477  0.59676619  1
  O2-  O263  1  0.82749952  0.79621452  0.93381458  1
  O2-  O264  1  0.41900533  0.05026082  0.06224776  1
  O2-  O265  1  0.41744684  0.05436805  0.39083531  1
  O2-  O266  1  0.42353042  0.06034543  0.73304191  1
  O2-  O267  1  0.41461885  0.53891133  0.07017367  1
  O2-  O268  1  0.42331298  0.54069063  0.40011738  1
  O2-  O269  1  0.41373112  0.53320836  0.73618547  1
  O2-  O270  1  0.91367171  0.04719576  0.06384624  1
  O2-  O271  1  0.91567582  0.05186532  0.39359660  1
  O2-  O272  1  0.92010236  0.05001088  0.73233283  1
  O2-  O273  1  0.92255779  0.54078775  0.06286259  1
  O2-  O274  1  0.91246550  0.53669840  0.40757556  1
  O2-  O275  1  0.91927968  0.54684015  0.72649742  1
  O2-  O276  1  0.29682243  0.16678233  0.06295395  1
  O2-  O277  1  0.29059611  0.16308032  0.39629234  1
  O2-  O278  1  0.28590751  0.17042073  0.73641452  1
  O2-  O279  1  0.28678716  0.66576010  0.06935665  1
  O2-  O280  1  0.29220743  0.66622998  0.40534631  1
  O2-  O281  1  0.29222391  0.66540413  0.73589704  1
  O2-  O282  1  0.79046069  0.15989751  0.06605419  1
  O2-  O283  1  0.79516430  0.16765144  0.39381164  1
  O2-  O284  1  0.78774809  0.16750686  0.73513800  1
  O2-  O285  1  0.79390371  0.66946992  0.06762727  1
  O2-  O286  1  0.79199903  0.66799795  0.40310923  1
  O2-  O287  1  0.80080573  0.66695992  0.72679330  1
