# generated using pymatgen
data_Ca2Al2SiO7
_symmetry_space_group_name_H-M   'P 1'
_cell_length_a   15.45802200
_cell_length_b   15.45722474
_cell_length_c   15.28333161
_cell_angle_alpha   89.99584356
_cell_angle_beta   89.98778774
_cell_angle_gamma   90.00501217
_symmetry_Int_Tables_number   1
_chemical_formula_structural   Ca2Al2SiO7
_chemical_formula_sum   'Ca48 Al48 Si24 O168'
_cell_volume   3651.77041746
_cell_formula_units_Z   24
loop_
 _symmetry_equiv_pos_site_id
 _symmetry_equiv_pos_as_xyz
  1  'x, y, z'
loop_
 _atom_type_symbol
 _atom_type_oxidation_number
  Ca2+  2.0
  Al0+  0.0
  Si0+  0.0
  O2-  -2.0
loop_
 _atom_site_type_symbol
 _atom_site_label
 _atom_site_symmetry_multiplicity
 _atom_site_fract_x
 _atom_site_fract_y
 _atom_site_fract_z
 _atom_site_occupancy
  Ca2+  Ca0  1  0.17697439  0.07717260  0.17226697  1
  Ca2+  Ca1  1  0.17289316  0.07572604  0.50367088  1
  Ca2+  Ca2  1  0.17434260  0.08673237  0.83480353  1
  Ca2+  Ca3  1  0.17480777  0.58208151  0.16793100  1
  Ca2+  Ca4  1  0.16874247  0.58217505  0.50671144  1
  Ca2+  Ca5  1  0.16597897  0.57491827  0.83820202  1
  Ca2+  Ca6  1  0.67614225  0.08302137  0.16714886  1
  Ca2+  Ca7  1  0.66944755  0.07884956  0.50381234  1
  Ca2+  Ca8  1  0.67362366  0.07776247  0.84093608  1
  Ca2+  Ca9  1  0.66308161  0.57924379  0.16739634  1
  Ca2+  Ca10  1  0.66905337  0.58690550  0.49991758  1
  Ca2+  Ca11  1  0.67585733  0.58260389  0.84201350  1
  Ca2+  Ca12  1  0.07887665  0.33343382  0.15783370  1
  Ca2+  Ca13  1  0.09275067  0.32787487  0.50297532  1
  Ca2+  Ca14  1  0.08504610  0.33378921  0.82744305  1
  Ca2+  Ca15  1  0.07802379  0.83760298  0.16457817  1
  Ca2+  Ca16  1  0.07485802  0.83418259  0.49573180  1
  Ca2+  Ca17  1  0.07326614  0.82364046  0.82613316  1
  Ca2+  Ca18  1  0.58675123  0.33807894  0.16112035  1
  Ca2+  Ca19  1  0.57777649  0.33614075  0.49611369  1
  Ca2+  Ca20  1  0.57719929  0.33497955  0.83186009  1
  Ca2+  Ca21  1  0.57669230  0.81908180  0.16349070  1
  Ca2+  Ca22  1  0.57131346  0.82750192  0.49363294  1
  Ca2+  Ca23  1  0.57888458  0.82561979  0.83076093  1
  Ca2+  Ca24  1  0.33171213  0.42901063  0.16565261  1
  Ca2+  Ca25  1  0.33216548  0.42493839  0.50637162  1
  Ca2+  Ca26  1  0.32170651  0.41621922  0.83856697  1
  Ca2+  Ca27  1  0.33102584  0.92437388  0.17835015  1
  Ca2+  Ca28  1  0.33901199  0.92238755  0.50499547  1
  Ca2+  Ca29  1  0.33832716  0.92642660  0.83714054  1
  Ca2+  Ca30  1  0.82500988  0.41982602  0.16731571  1
  Ca2+  Ca31  1  0.82474708  0.42448077  0.50704272  1
  Ca2+  Ca32  1  0.83282786  0.42965043  0.84387401  1
  Ca2+  Ca33  1  0.84235680  0.91853717  0.16828958  1
  Ca2+  Ca34  1  0.83430941  0.90681428  0.50322565  1
  Ca2+  Ca35  1  0.83985717  0.91800771  0.83934141  1
  Ca2+  Ca36  1  0.41443804  0.16382220  0.16279241  1
  Ca2+  Ca37  1  0.40523752  0.17202650  0.50029732  1
  Ca2+  Ca38  1  0.40984424  0.17146379  0.82482247  1
  Ca2+  Ca39  1  0.42192842  0.65772877  0.16315533  1
  Ca2+  Ca40  1  0.41578111  0.67649638  0.48812305  1
  Ca2+  Ca41  1  0.42170969  0.66358986  0.83047977  1
  Ca2+  Ca42  1  0.91740017  0.17294743  0.15488403  1
  Ca2+  Ca43  1  0.92885334  0.16441574  0.49748799  1
  Ca2+  Ca44  1  0.92074798  0.17429686  0.83116334  1
  Ca2+  Ca45  1  0.91221900  0.67801021  0.15818298  1
  Ca2+  Ca46  1  0.92110349  0.66988465  0.50021520  1
  Ca2+  Ca47  1  0.91464778  0.67021520  0.82548618  1
  Al0+  Al48  1  0.00132190  0.00107442  -0.00146204  1
  Al0+  Al49  1  0.00302156  0.00198068  0.33232093  1
  Al0+  Al50  1  0.00095940  0.00130969  0.66002535  1
  Al0+  Al51  1  -0.00163338  0.50062000  0.00581687  1
  Al0+  Al52  1  -0.00142885  0.49927562  0.33298122  1
  Al0+  Al53  1  -0.00158892  0.50037850  0.66930686  1
  Al0+  Al54  1  0.50181891  -0.00005202  0.00452287  1
  Al0+  Al55  1  0.50328079  0.00218948  0.33322649  1
  Al0+  Al56  1  0.50271823  -0.00017701  0.66859590  1
  Al0+  Al57  1  0.49977304  0.49847402  -0.00147406  1
  Al0+  Al58  1  0.49918191  0.49808715  0.33900315  1
  Al0+  Al59  1  0.50067863  0.49835466  0.66205026  1
  Al0+  Al60  1  0.25007691  0.24891560  0.00921415  1
  Al0+  Al61  1  0.25025212  0.24932852  0.33251901  1
  Al0+  Al62  1  0.25036993  0.25055810  0.66507245  1
  Al0+  Al63  1  0.24940727  0.75163670  0.00147112  1
  Al0+  Al64  1  0.24655027  0.75131688  0.33674731  1
  Al0+  Al65  1  0.24947181  0.75143859  0.66129794  1
  Al0+  Al66  1  0.75095952  0.24828329  0.00038579  1
  Al0+  Al67  1  0.74942122  0.25121662  0.33993330  1
  Al0+  Al68  1  0.74925472  0.24902550  0.66698959  1
  Al0+  Al69  1  0.74692322  0.75052063  -0.00554382  1
  Al0+  Al70  1  0.75020739  0.75054552  0.32508056  1
  Al0+  Al71  1  0.74819300  0.75026122  0.66735359  1
  Al0+  Al72  1  0.32110599  0.57203274  0.01174273  1
  Al0+  Al73  1  0.92821980  0.82057758  0.65120565  1
  Al0+  Al74  1  0.56818671  0.67730497  0.31748771  1
  Al0+  Al75  1  0.31928986  0.56996187  0.34782347  1
  Al0+  Al76  1  0.32225778  0.06999300  0.01387244  1
  Al0+  Al77  1  0.42963913  0.31968664  0.65341537  1
  Al0+  Al78  1  0.81790010  0.57052737  0.67946897  1
  Al0+  Al79  1  0.07109678  0.67565842  0.65217352  1
  Al0+  Al80  1  0.42975940  0.82221167  0.65499479  1
  Al0+  Al81  1  0.67971300  0.42877944  0.01287756  1
  Al0+  Al82  1  0.92812642  0.32216312  0.98707623  1
  Al0+  Al83  1  0.67966076  0.42932737  0.34959750  1
  Al0+  Al84  1  0.93120098  0.82019040  0.31758347  1
  Al0+  Al85  1  0.32399391  0.07066719  0.35105193  1
  Al0+  Al86  1  0.17761469  0.92929197  0.35012983  1
  Al0+  Al87  1  0.31990582  0.06837515  0.68078003  1
  Al0+  Al88  1  0.56765329  0.67713447  0.98397132  1
  Al0+  Al89  1  0.18127927  0.43054399  0.67886982  1
  Al0+  Al90  1  0.07110702  0.18127466  0.65296816  1
  Al0+  Al91  1  0.17671380  0.42799745  0.01592140  1
  Al0+  Al92  1  0.92999074  0.82120377  0.98545750  1
  Al0+  Al93  1  0.82182308  0.06865276  0.01159854  1
  Al0+  Al94  1  0.82073771  0.57497392  0.01632266  1
  Al0+  Al95  1  0.42624200  0.82344404  0.31782780  1
  Si0+  Si96  1  0.57393611  0.17732251  0.65007792  1
  Si0+  Si97  1  0.82381643  0.07192887  0.68084903  1
  Si0+  Si98  1  0.07106223  0.18108706  0.31606078  1
  Si0+  Si99  1  0.42882177  0.31794176  0.98666346  1
  Si0+  Si100  1  0.32383675  0.57532659  0.68138876  1
  Si0+  Si101  1  0.92672249  0.31988064  0.31979868  1
  Si0+  Si102  1  0.17543776  0.42773364  0.35031987  1
  Si0+  Si103  1  0.57076681  0.67789336  0.64982809  1
  Si0+  Si104  1  0.42696498  0.82444573  0.98431901  1
  Si0+  Si105  1  0.92572164  0.32258428  0.64962427  1
  Si0+  Si106  1  0.68200244  0.92861926  0.34710609  1
  Si0+  Si107  1  0.17797100  0.92835706  0.01484592  1
  Si0+  Si108  1  0.67753159  0.92731829  0.01835499  1
  Si0+  Si109  1  0.68042276  0.93027799  0.68201856  1
  Si0+  Si110  1  0.82205702  0.57421851  0.34985094  1
  Si0+  Si111  1  0.07388998  0.67755278  0.98469498  1
  Si0+  Si112  1  0.07318775  0.18019184  0.98375863  1
  Si0+  Si113  1  0.57206014  0.17677055  0.98551153  1
  Si0+  Si114  1  0.17532301  0.92700321  0.68451168  1
  Si0+  Si115  1  0.42944733  0.31928689  0.31701662  1
  Si0+  Si116  1  0.07201539  0.67434497  0.31489457  1
  Si0+  Si117  1  0.57474021  0.18009967  0.31770031  1
  Si0+  Si118  1  0.82164307  0.07193691  0.34900376  1
  Si0+  Si119  1  0.67610596  0.42542977  0.68460189  1
  O2-  O120  1  0.25113204  -0.00768642  0.05912680  1
  O2-  O121  1  0.25656861  -0.00582399  0.40026253  1
  O2-  O122  1  0.24776234  -0.00797590  0.72913761  1
  O2-  O123  1  0.24671012  0.50312025  0.06311132  1
  O2-  O124  1  0.24144191  0.49834680  0.39450795  1
  O2-  O125  1  0.25338639  0.50820801  0.72503202  1
  O2-  O126  1  0.75097209  -0.00796384  0.06145826  1
  O2-  O127  1  0.75461354  -0.00242952  0.39146174  1
  O2-  O128  1  0.75461385  -0.00087378  0.72274117  1
  O2-  O129  1  0.74994640  0.50099568  0.06518273  1
  O2-  O130  1  0.75295293  0.50589273  0.39458756  1
  O2-  O131  1  0.74481557  0.49415633  0.72662949  1
  O2-  O132  1  0.00063881  0.25314513  0.27562446  1
  O2-  O133  1  -0.00545990  0.25429135  0.60453444  1
  O2-  O134  1  0.00683771  0.25141028  0.94000809  1
  O2-  O135  1  0.00399633  0.74405772  0.27076788  1
  O2-  O136  1  0.00136251  0.75008389  0.60157675  1
  O2-  O137  1  0.00119434  0.74259541  0.94058976  1
  O2-  O138  1  0.50048903  0.24754717  0.27544448  1
  O2-  O139  1  0.50633976  0.24664855  0.60572660  1
  O2-  O140  1  0.49831408  0.24503742  0.94393621  1
  O2-  O141  1  0.49245522  0.74610123  0.26749177  1
  O2-  O142  1  0.49611964  0.74050212  0.60719482  1
  O2-  O143  1  0.49081538  0.75146757  0.93948154  1
  O2-  O144  1  0.07093099  0.17943835  0.08969577  1
  O2-  O145  1  0.07050989  0.18131412  0.42128727  1
  O2-  O146  1  0.06987798  0.18229082  0.76606301  1
  O2-  O147  1  0.07666633  0.68155572  0.09021493  1
  O2-  O148  1  0.06816776  0.67042336  0.42021552  1
  O2-  O149  1  0.06901497  0.67549108  0.76600809  1
  O2-  O150  1  0.57304197  0.17657367  0.09076771  1
  O2-  O151  1  0.57966610  0.18137182  0.42262488  1
  O2-  O152  1  0.57600175  0.17676882  0.75571386  1
  O2-  O153  1  0.56654083  0.67689505  0.09673804  1
  O2-  O154  1  0.56989066  0.68154179  0.43149093  1
  O2-  O155  1  0.57181384  0.67943123  0.75546026  1
  O2-  O156  1  0.17540068  0.42678479  0.24500945  1
  O2-  O157  1  0.18484358  0.42962115  0.56555996  1
  O2-  O158  1  0.18032379  0.42470735  0.90225345  1
  O2-  O159  1  0.17374736  0.93679448  0.23633628  1
  O2-  O160  1  0.17340237  0.93070527  0.57933095  1
  O2-  O161  1  0.17714762  0.92982223  0.90929577  1
  O2-  O162  1  0.68287444  0.42446273  0.23714788  1
  O2-  O163  1  0.67730741  0.42397691  0.57883747  1
  O2-  O164  1  0.67925346  0.42914251  0.89925786  1
  O2-  O165  1  0.68278737  0.93201601  0.24234739  1
  O2-  O166  1  0.67956817  0.93193112  0.57660646  1
  O2-  O167  1  0.67415510  0.93178517  0.91241130  1
  O2-  O168  1  0.43046089  0.31682375  0.09196351  1
  O2-  O169  1  0.42961859  0.31797307  0.42223195  1
  O2-  O170  1  0.42986861  0.31755594  0.76689736  1
  O2-  O171  1  0.43015028  0.82802203  0.08936892  1
  O2-  O172  1  0.43282319  0.82422880  0.43167095  1
  O2-  O173  1  0.43519771  0.82539111  0.76812461  1
  O2-  O174  1  0.92681272  0.31644119  0.10075915  1
  O2-  O175  1  0.92585386  0.31665679  0.42491124  1
  O2-  O176  1  0.92422932  0.31968096  0.75503412  1
  O2-  O177  1  0.93416888  0.82371228  0.09862942  1
  O2-  O178  1  0.92965913  0.81919904  0.43039044  1
  O2-  O179  1  0.92856925  0.82090811  0.76466663  1
  O2-  O180  1  0.32083840  0.07263474  0.23728436  1
  O2-  O181  1  0.31946017  0.06816685  0.56826507  1
  O2-  O182  1  0.32145068  0.07199917  0.90058146  1
  O2-  O183  1  0.32048561  0.56516738  0.23481849  1
  O2-  O184  1  0.32448177  0.57260053  0.57573775  1
  O2-  O185  1  0.32140688  0.56903628  0.89800354  1
  O2-  O186  1  0.81974816  0.07457858  0.24394736  1
  O2-  O187  1  0.82111362  0.07404014  0.57542249  1
  O2-  O188  1  0.81946523  0.06876958  0.89829727  1
  O2-  O189  1  0.82323119  0.57260711  0.24475678  1
  O2-  O190  1  0.81488477  0.57026312  0.56583692  1
  O2-  O191  1  0.81895709  0.57422384  0.90245932  1
  O2-  O192  1  0.04113198  0.09087922  0.26768641  1
  O2-  O193  1  0.03976339  0.08654146  0.59526100  1
  O2-  O194  1  0.04580553  0.08789867  0.93656311  1
  O2-  O195  1  0.04680324  0.58027461  0.26817406  1
  O2-  O196  1  0.03965783  0.57850771  0.59747413  1
  O2-  O197  1  0.05218264  0.58160686  0.94285696  1
  O2-  O198  1  0.55164916  0.08760164  0.26963949  1
  O2-  O199  1  0.54879781  0.08396814  0.60383892  1
  O2-  O200  1  0.54708191  0.08383885  0.93837338  1
  O2-  O201  1  0.54151022  0.57647701  0.26849215  1
  O2-  O202  1  0.55436772  0.58187656  0.60532904  1
  O2-  O203  1  0.53770750  0.58076176  0.92818494  1
  O2-  O204  1  0.16293597  0.20833130  0.26819378  1
  O2-  O205  1  0.16519487  0.21490168  0.59652576  1
  O2-  O206  1  0.16820201  0.20504976  0.94020450  1
  O2-  O207  1  0.16604510  0.69933485  0.27031785  1
  O2-  O208  1  0.17050291  0.69995494  0.59951728  1
  O2-  O209  1  0.16608605  0.70574400  0.93583780  1
  O2-  O210  1  0.66579373  0.21150426  0.26986025  1
  O2-  O211  1  0.66788096  0.20108883  0.60219820  1
  O2-  O212  1  0.66233640  0.20565341  0.93594628  1
  O2-  O213  1  0.66537678  0.70861171  0.26363592  1
  O2-  O214  1  0.66102051  0.71170029  0.60238184  1
  O2-  O215  1  0.66213858  0.71174684  0.92777907  1
  O2-  O216  1  0.07841189  0.45220366  0.07020134  1
  O2-  O217  1  0.08001357  0.44818476  0.39579144  1
  O2-  O218  1  0.08257560  0.45522321  0.73158511  1
  O2-  O219  1  0.08718584  0.96040132  0.06289243  1
  O2-  O220  1  0.08228395  0.96804982  0.40493851  1
  O2-  O221  1  0.08272871  0.95828703  0.72998484  1
  O2-  O222  1  0.58084214  0.45531142  0.06536825  1
  O2-  O223  1  0.58312062  0.45683118  0.40472457  1
  O2-  O224  1  0.58136104  0.45017183  0.72845082  1
  O2-  O225  1  0.58749681  0.95840323  0.06814538  1
  O2-  O226  1  0.59214196  0.95988000  0.39653325  1
  O2-  O227  1  0.59207692  0.96229912  0.73347664  1
  O2-  O228  1  0.20819651  0.33197991  0.07250044  1
  O2-  O229  1  0.20481034  0.33432732  0.39459184  1
  O2-  O230  1  0.21566811  0.33551053  0.73360480  1
  O2-  O231  1  0.19710546  0.83404490  0.06178178  1
  O2-  O232  1  0.19139983  0.82747835  0.40002926  1
  O2-  O233  1  0.19680987  0.83130878  0.72773366  1
  O2-  O234  1  0.70752480  0.32994198  0.06568867  1
  O2-  O235  1  0.71264686  0.33420108  0.40704339  1
  O2-  O236  1  0.69946434  0.33040069  0.72927443  1
  O2-  O237  1  0.69863832  0.83249670  0.06119277  1
  O2-  O238  1  0.70944922  0.83650123  0.39396398  1
  O2-  O239  1  0.70518369  0.83835312  0.73010984  1
  O2-  O240  1  0.45949068  0.41047871  0.27101749  1
  O2-  O241  1  0.45902221  0.41584899  0.59647290  1
  O2-  O242  1  0.45725200  0.40795080  0.93704470  1
  O2-  O243  1  0.46112662  0.92132867  0.26648335  1
  O2-  O244  1  0.46960148  0.91586327  0.60031476  1
  O2-  O245  1  0.45984287  0.91655685  0.93756143  1
  O2-  O246  1  0.94973111  0.41338572  0.27363329  1
  O2-  O247  1  0.95002280  0.41600834  0.60418107  1
  O2-  O248  1  0.95412642  0.42111506  0.93587098  1
  O2-  O249  1  0.96242653  0.91891128  0.26652412  1
  O2-  O250  1  0.95314438  0.91991544  0.59806750  1
  O2-  O251  1  0.96273546  0.91790753  0.93154726  1
  O2-  O252  1  0.33750059  0.29208344  0.26923020  1
  O2-  O253  1  0.33574410  0.28621638  0.59682131  1
  O2-  O254  1  0.33617325  0.28886676  0.94154753  1
  O2-  O255  1  0.32350186  0.80404340  0.27131153  1
  O2-  O256  1  0.33096900  0.80236415  0.60148885  1
  O2-  O257  1  0.33100060  0.80622761  0.94030369  1
  O2-  O258  1  0.83622864  0.28705275  0.27309027  1
  O2-  O259  1  0.83184199  0.29565752  0.60336682  1
  O2-  O260  1  0.83414089  0.28516304  0.93137590  1
  O2-  O261  1  0.83426733  0.79371092  0.26200836  1
  O2-  O262  1  0.82875820  0.79170573  0.59969642  1
  O2-  O263  1  0.83081296  0.79768099  0.93335346  1
  O2-  O264  1  0.42018526  0.04414743  0.06789146  1
  O2-  O265  1  0.42629591  0.05126093  0.40042220  1
  O2-  O266  1  0.41903674  0.04160804  0.73326510  1
  O2-  O267  1  0.41648554  0.53619008  0.06579118  1
  O2-  O268  1  0.41343766  0.53540642  0.40418226  1
  O2-  O269  1  0.41822052  0.54697112  0.72491976  1
  O2-  O270  1  0.91920439  0.04223916  0.06647783  1
  O2-  O271  1  0.91498456  0.04762339  0.39399117  1
  O2-  O272  1  0.91636496  0.04637866  0.72683388  1
  O2-  O273  1  0.91917078  0.55050278  0.06987846  1
  O2-  O274  1  0.91523914  0.54624545  0.39630403  1
  O2-  O275  1  0.91418340  0.54137693  0.73407945  1
  O2-  O276  1  0.29041928  0.16379880  0.07197534  1
  O2-  O277  1  0.28922113  0.16903926  0.40100930  1
  O2-  O278  1  0.28594618  0.16469255  0.73308054  1
  O2-  O279  1  0.29827719  0.67205639  0.06448216  1
  O2-  O280  1  0.29288126  0.66818630  0.39998053  1
  O2-  O281  1  0.30296414  0.67059813  0.72566286  1
  O2-  O282  1  0.78674363  0.16258590  0.06805718  1
  O2-  O283  1  0.78955871  0.16054887  0.39993287  1
  O2-  O284  1  0.79411793  0.16320142  0.72892364  1
  O2-  O285  1  0.78904122  0.67349136  0.06654076  1
  O2-  O286  1  0.79493535  0.66833297  0.39389672  1
  O2-  O287  1  0.78537967  0.66667081  0.73368443  1
