# generated using pymatgen
data_Ca2Al2SiO7
_symmetry_space_group_name_H-M   'P 1'
_cell_length_a   15.47312841
_cell_length_b   15.46824916
_cell_length_c   15.29287773
_cell_angle_alpha   89.98024468
_cell_angle_beta   89.99431113
_cell_angle_gamma   89.98532982
_symmetry_Int_Tables_number   1
_chemical_formula_structural   Ca2Al2SiO7
_chemical_formula_sum   'Ca48 Al48 Si24 O168'
_cell_volume   3660.23073095
_cell_formula_units_Z   24
loop_
 _symmetry_equiv_pos_site_id
 _symmetry_equiv_pos_as_xyz
  1  'x, y, z'
loop_
 _atom_type_symbol
 _atom_type_oxidation_number
  Ca2+  2.0
  Al0+  0.0
  Si0+  0.0
  O2-  -2.0
loop_
 _atom_site_type_symbol
 _atom_site_label
 _atom_site_symmetry_multiplicity
 _atom_site_fract_x
 _atom_site_fract_y
 _atom_site_fract_z
 _atom_site_occupancy
  Ca2+  Ca0  1  0.17835546  0.08329211  0.17471915  1
  Ca2+  Ca1  1  0.17370199  0.08633082  0.50641986  1
  Ca2+  Ca2  1  0.17525646  0.08501408  0.83555521  1
  Ca2+  Ca3  1  0.16537561  0.57719475  0.16843311  1
  Ca2+  Ca4  1  0.16087507  0.57633102  0.50860204  1
  Ca2+  Ca5  1  0.16795787  0.57828237  0.83712906  1
  Ca2+  Ca6  1  0.66537937  0.07488466  0.16749813  1
  Ca2+  Ca7  1  0.67321489  0.08319387  0.51251792  1
  Ca2+  Ca8  1  0.67063146  0.08165410  0.83414173  1
  Ca2+  Ca9  1  0.66548790  0.58640812  0.17286018  1
  Ca2+  Ca10  1  0.67212746  0.58832754  0.50634443  1
  Ca2+  Ca11  1  0.67719351  0.58971772  0.83435340  1
  Ca2+  Ca12  1  0.09671970  0.33068191  0.16615076  1
  Ca2+  Ca13  1  0.09137692  0.32651017  0.50032127  1
  Ca2+  Ca14  1  0.08560066  0.33181105  0.82357840  1
  Ca2+  Ca15  1  0.09017651  0.81885994  0.16249308  1
  Ca2+  Ca16  1  0.08281084  0.82009438  0.49898316  1
  Ca2+  Ca17  1  0.08315342  0.82021950  0.82454507  1
  Ca2+  Ca18  1  0.57119687  0.33043947  0.15764997  1
  Ca2+  Ca19  1  0.58415822  0.32473258  0.50075387  1
  Ca2+  Ca20  1  0.57372757  0.32695650  0.82751184  1
  Ca2+  Ca21  1  0.57493348  0.83120987  0.16426024  1
  Ca2+  Ca22  1  0.57133770  0.82787751  0.49637656  1
  Ca2+  Ca23  1  0.57395894  0.83990876  0.83133006  1
  Ca2+  Ca24  1  0.32539081  0.42004058  0.16753225  1
  Ca2+  Ca25  1  0.32082976  0.42690859  0.50871331  1
  Ca2+  Ca26  1  0.32356717  0.42621221  0.83983611  1
  Ca2+  Ca27  1  0.34509750  0.92578884  0.16815106  1
  Ca2+  Ca28  1  0.33954931  0.92240293  0.50479132  1
  Ca2+  Ca29  1  0.34317629  0.92539403  0.83530955  1
  Ca2+  Ca30  1  0.82973482  0.41769871  0.16973445  1
  Ca2+  Ca31  1  0.83244318  0.41907152  0.51075042  1
  Ca2+  Ca32  1  0.83928319  0.41939488  0.82910871  1
  Ca2+  Ca33  1  0.82446190  0.91060313  0.16902133  1
  Ca2+  Ca34  1  0.83195190  0.91824332  0.51233666  1
  Ca2+  Ca35  1  0.83126659  0.91796501  0.83578985  1
  Ca2+  Ca36  1  0.40672183  0.17138930  0.15977835  1
  Ca2+  Ca37  1  0.41551904  0.16123603  0.49980957  1
  Ca2+  Ca38  1  0.41371300  0.16918356  0.82761645  1
  Ca2+  Ca39  1  0.41331251  0.67714962  0.15837983  1
  Ca2+  Ca40  1  0.41074267  0.67814075  0.49576293  1
  Ca2+  Ca41  1  0.40621359  0.67587381  0.82744478  1
  Ca2+  Ca42  1  0.92719253  0.16792962  0.16529784  1
  Ca2+  Ca43  1  0.92934801  0.16648889  0.50200986  1
  Ca2+  Ca44  1  0.92413122  0.17271989  0.81816398  1
  Ca2+  Ca45  1  0.93075527  0.66307355  0.16302842  1
  Ca2+  Ca46  1  0.92573232  0.66221883  0.50320535  1
  Ca2+  Ca47  1  0.92697357  0.66788387  0.82367418  1
  Al0+  Al48  1  0.00056372  0.00090253  0.00183804  1
  Al0+  Al49  1  0.00024975  0.00168660  0.32715817  1
  Al0+  Al50  1  -0.00034909  0.00031961  0.66533053  1
  Al0+  Al51  1  -0.00043084  0.49844114  0.00108040  1
  Al0+  Al52  1  -0.00289432  0.49955175  0.33287944  1
  Al0+  Al53  1  -0.00355473  0.49907564  0.66835209  1
  Al0+  Al54  1  0.50416065  -0.00083127  0.00571426  1
  Al0+  Al55  1  0.50308807  -0.00017376  0.33492493  1
  Al0+  Al56  1  0.50046596  -0.00031423  0.66214145  1
  Al0+  Al57  1  0.50085344  0.50033795  -0.00207019  1
  Al0+  Al58  1  0.50039985  0.49778894  0.33277649  1
  Al0+  Al59  1  0.49957008  0.49943460  0.66975896  1
  Al0+  Al60  1  0.25096497  0.25083962  0.00074031  1
  Al0+  Al61  1  0.25028816  0.24997889  0.33838066  1
  Al0+  Al62  1  0.25139775  0.25072414  0.66969956  1
  Al0+  Al63  1  0.25043759  0.75077654  -0.00693241  1
  Al0+  Al64  1  0.24886081  0.75291546  0.32328018  1
  Al0+  Al65  1  0.24950542  0.75133435  0.65889185  1
  Al0+  Al66  1  0.75158692  0.25038339  0.00232216  1
  Al0+  Al67  1  0.75045157  0.25000681  0.33164835  1
  Al0+  Al68  1  0.74921408  0.24829923  0.66468538  1
  Al0+  Al69  1  0.75037906  0.75073707  0.00699842  1
  Al0+  Al70  1  0.74824300  0.74998758  0.33258292  1
  Al0+  Al71  1  0.74789542  0.74967573  0.66988578  1
  Al0+  Al72  1  0.68164724  0.92962423  0.01538759  1
  Al0+  Al73  1  0.42800331  0.32126124  0.98547996  1
  Al0+  Al74  1  0.42933108  0.82238295  0.31580394  1
  Al0+  Al75  1  0.42931170  0.82025422  0.65279112  1
  Al0+  Al76  1  0.07483071  0.17891265  0.65280308  1
  Al0+  Al77  1  0.92846586  0.32079258  0.65177512  1
  Al0+  Al78  1  0.43153739  0.82154375  0.98417533  1
  Al0+  Al79  1  0.32195714  0.57477052  0.67983441  1
  Al0+  Al80  1  0.57070109  0.67743572  0.31915763  1
  Al0+  Al81  1  0.32142283  0.06852725  0.68027069  1
  Al0+  Al82  1  0.32231690  0.57415437  0.01517073  1
  Al0+  Al83  1  0.32005108  0.06897703  0.01251084  1
  Al0+  Al84  1  0.81840001  0.57080878  0.68064855  1
  Al0+  Al85  1  0.32093952  0.06878284  0.34840241  1
  Al0+  Al86  1  0.17877422  0.43147823  0.34872095  1
  Al0+  Al87  1  0.17817463  0.43027682  0.68167849  1
  Al0+  Al88  1  0.06908806  0.67746545  0.31815204  1
  Al0+  Al89  1  0.07001681  0.67853530  0.98459649  1
  Al0+  Al90  1  0.07017076  0.67856040  0.65173135  1
  Al0+  Al91  1  0.17840840  0.43026365  0.01616794  1
  Al0+  Al92  1  0.92585791  0.82165226  0.65437745  1
  Al0+  Al93  1  0.07238777  0.18061746  0.31806055  1
  Al0+  Al94  1  0.56866968  0.17963423  0.65437339  1
  Al0+  Al95  1  0.82273355  0.07083920  0.67953536  1
  Si0+  Si96  1  0.42964698  0.31852598  0.31981158  1
  Si0+  Si97  1  0.17672535  0.92734974  0.68144603  1
  Si0+  Si98  1  0.57215891  0.67578440  0.65286800  1
  Si0+  Si99  1  0.92641041  0.82206733  0.98543111  1
  Si0+  Si100  1  0.57463238  0.67752522  0.98264758  1
  Si0+  Si101  1  0.92657008  0.32122689  0.31501170  1
  Si0+  Si102  1  0.81809174  0.57007279  0.34813212  1
  Si0+  Si103  1  0.68160935  0.92933347  0.35159850  1
  Si0+  Si104  1  0.67724450  0.42640989  0.34836157  1
  Si0+  Si105  1  0.57408059  0.17955765  0.31725890  1
  Si0+  Si106  1  0.17499317  0.92699774  0.34912555  1
  Si0+  Si107  1  0.07148723  0.17951591  0.98579286  1
  Si0+  Si108  1  0.42762667  0.32369344  0.64860699  1
  Si0+  Si109  1  0.92723697  0.82316046  0.31640563  1
  Si0+  Si110  1  0.17549928  0.92795921  0.01586016  1
  Si0+  Si111  1  0.32241833  0.57433606  0.34722330  1
  Si0+  Si112  1  0.67831534  0.92873109  0.68313613  1
  Si0+  Si113  1  0.92700057  0.31960681  0.98527056  1
  Si0+  Si114  1  0.67683711  0.42519827  0.68441529  1
  Si0+  Si115  1  0.82018976  0.56986157  0.01688960  1
  Si0+  Si116  1  0.57369097  0.17866285  0.98484595  1
  Si0+  Si117  1  0.82414648  0.07425520  0.01906121  1
  Si0+  Si118  1  0.82175287  0.07201187  0.34828800  1
  Si0+  Si119  1  0.67888455  0.42774854  0.01506012  1
  O2-  O120  1  0.24556415  -0.00496827  0.06082458  1
  O2-  O121  1  0.24650064  -0.00714380  0.39317660  1
  O2-  O122  1  0.24485728  -0.00377291  0.72693262  1
  O2-  O123  1  0.24996495  0.50294912  0.06616537  1
  O2-  O124  1  0.24959939  0.51104559  0.39265524  1
  O2-  O125  1  0.24944504  0.50363829  0.73002207  1
  O2-  O126  1  0.75799228  0.00313212  0.06333417  1
  O2-  O127  1  0.75415478  -0.00101939  0.39231799  1
  O2-  O128  1  0.75091788  -0.00631135  0.72664555  1
  O2-  O129  1  0.74687749  0.50090331  0.05904202  1
  O2-  O130  1  0.74508748  0.50040791  0.38943316  1
  O2-  O131  1  0.74299208  0.49661087  0.72830769  1
  O2-  O132  1  -0.00143770  0.25643792  0.27026299  1
  O2-  O133  1  0.00335873  0.25192406  0.60235237  1
  O2-  O134  1  -0.00194244  0.24847124  0.94508228  1
  O2-  O135  1  -0.00302433  0.75590961  0.27179879  1
  O2-  O136  1  -0.00243094  0.75110493  0.60240731  1
  O2-  O137  1  -0.00296057  0.75677484  0.94105151  1
  O2-  O138  1  0.50038332  0.24733097  0.27571167  1
  O2-  O139  1  0.49530655  0.25377173  0.60424505  1
  O2-  O140  1  0.50301452  0.24501174  0.94128974  1
  O2-  O141  1  0.49593476  0.74437911  0.26680211  1
  O2-  O142  1  0.49880157  0.73902144  0.60896452  1
  O2-  O143  1  0.50305996  0.74250446  0.93845369  1
  O2-  O144  1  0.07044077  0.18016045  0.09121669  1
  O2-  O145  1  0.07131516  0.17979610  0.43022559  1
  O2-  O146  1  0.07316139  0.17922021  0.76692271  1
  O2-  O147  1  0.06637852  0.67761979  0.09825415  1
  O2-  O148  1  0.06542268  0.67559544  0.43048907  1
  O2-  O149  1  0.06877647  0.67942165  0.76520951  1
  O2-  O150  1  0.57624266  0.18198356  0.09098272  1
  O2-  O151  1  0.57842433  0.18168328  0.42195319  1
  O2-  O152  1  0.56834160  0.18059188  0.76755035  1
  O2-  O153  1  0.57686056  0.67918437  0.08825298  1
  O2-  O154  1  0.57457572  0.68065882  0.43242029  1
  O2-  O155  1  0.57652877  0.67861496  0.75817936  1
  O2-  O156  1  0.18235226  0.43018464  0.23573870  1
  O2-  O157  1  0.18045878  0.43059780  0.56765118  1
  O2-  O158  1  0.17630018  0.42948587  0.90346666  1
  O2-  O159  1  0.17259547  0.92963997  0.24336756  1
  O2-  O160  1  0.17767659  0.92741847  0.57572215  1
  O2-  O161  1  0.17051859  0.93241817  0.91076154  1
  O2-  O162  1  0.67947255  0.42340691  0.24303729  1
  O2-  O163  1  0.67753896  0.42507102  0.57837861  1
  O2-  O164  1  0.68191603  0.42454349  0.91068166  1
  O2-  O165  1  0.68246921  0.93036579  0.24630731  1
  O2-  O166  1  0.67835544  0.93011290  0.57729278  1
  O2-  O167  1  0.68274844  0.93133109  0.90262053  1
  O2-  O168  1  0.43017914  0.31892175  0.09950798  1
  O2-  O169  1  0.43356755  0.31852382  0.42452911  1
  O2-  O170  1  0.42997688  0.32280622  0.75418300  1
  O2-  O171  1  0.43542685  0.82337932  0.09699045  1
  O2-  O172  1  0.43284071  0.82373172  0.42930184  1
  O2-  O173  1  0.43397408  0.82422314  0.76566389  1
  O2-  O174  1  0.92197000  0.31806067  0.09050608  1
  O2-  O175  1  0.92051729  0.31907648  0.41947590  1
  O2-  O176  1  0.92773680  0.31803467  0.76600660  1
  O2-  O177  1  0.92512409  0.81896542  0.09134895  1
  O2-  O178  1  0.92558814  0.82326110  0.42143327  1
  O2-  O179  1  0.92619066  0.81907429  0.76823924  1
  O2-  O180  1  0.32063694  0.07019551  0.23495113  1
  O2-  O181  1  0.32263429  0.06591992  0.56714441  1
  O2-  O182  1  0.31965433  0.06907993  0.89968305  1
  O2-  O183  1  0.32466426  0.57022455  0.24186186  1
  O2-  O184  1  0.32301048  0.57272244  0.56564594  1
  O2-  O185  1  0.32074970  0.57266950  0.90214327  1
  O2-  O186  1  0.81810049  0.07251553  0.24287578  1
  O2-  O187  1  0.81887300  0.07065572  0.56595311  1
  O2-  O188  1  0.82360648  0.07671203  0.91404440  1
  O2-  O189  1  0.81738074  0.56794072  0.24251676  1
  O2-  O190  1  0.81522251  0.57072584  0.56721532  1
  O2-  O191  1  0.81945905  0.57008495  0.91221980  1
  O2-  O192  1  0.03995725  0.08536183  0.26094031  1
  O2-  O193  1  0.04532114  0.08118231  0.59967464  1
  O2-  O194  1  0.04587185  0.08634271  0.94016419  1
  O2-  O195  1  0.03219382  0.58274749  0.26331104  1
  O2-  O196  1  0.03645040  0.58155894  0.60030158  1
  O2-  O197  1  0.03365228  0.58254516  0.93363538  1
  O2-  O198  1  0.54979069  0.08618874  0.27231479  1
  O2-  O199  1  0.53981096  0.08466170  0.59670327  1
  O2-  O200  1  0.55199763  0.08375848  0.94237063  1
  O2-  O201  1  0.55199289  0.57500558  0.26919949  1
  O2-  O202  1  0.55519533  0.57945117  0.60879686  1
  O2-  O203  1  0.55789422  0.58165476  0.93863305  1
  O2-  O204  1  0.16955204  0.21268048  0.26535580  1
  O2-  O205  1  0.17311343  0.20756363  0.59938549  1
  O2-  O206  1  0.16221322  0.20843019  0.93876446  1
  O2-  O207  1  0.16520029  0.70604503  0.26198201  1
  O2-  O208  1  0.16643445  0.70718739  0.59512175  1
  O2-  O209  1  0.16576326  0.70793674  0.93007209  1
  O2-  O210  1  0.66385380  0.21026090  0.26682591  1
  O2-  O211  1  0.66388198  0.21129159  0.59786010  1
  O2-  O212  1  0.66697576  0.20733438  0.93931975  1
  O2-  O213  1  0.66820305  0.70958525  0.26446479  1
  O2-  O214  1  0.66304640  0.70698982  0.60437797  1
  O2-  O215  1  0.66850564  0.70787379  0.93888170  1
  O2-  O216  1  0.07858891  0.45563284  0.06970223  1
  O2-  O217  1  0.07868509  0.45680730  0.39816743  1
  O2-  O218  1  0.07849630  0.45458003  0.73278994  1
  O2-  O219  1  0.08233381  0.95250776  0.06515679  1
  O2-  O220  1  0.08115140  0.95459383  0.39363104  1
  O2-  O221  1  0.08312461  0.95051508  0.72827649  1
  O2-  O222  1  0.58695639  0.45305462  0.06314616  1
  O2-  O223  1  0.58470281  0.44854387  0.39658588  1
  O2-  O224  1  0.58257367  0.44707927  0.73018103  1
  O2-  O225  1  0.58867318  0.96344570  0.07454594  1
  O2-  O226  1  0.59112771  0.95945520  0.39904613  1
  O2-  O227  1  0.58745942  0.96179428  0.72931173  1
  O2-  O228  1  0.21078116  0.33238261  0.06867235  1
  O2-  O229  1  0.21381758  0.33640960  0.40236451  1
  O2-  O230  1  0.20809087  0.33239539  0.73457074  1
  O2-  O231  1  0.20122137  0.83348446  0.05854431  1
  O2-  O232  1  0.19791532  0.83125331  0.39196777  1
  O2-  O233  1  0.20339619  0.83384498  0.72615759  1
  O2-  O234  1  0.70984142  0.33755978  0.06582137  1
  O2-  O235  1  0.70920996  0.33570613  0.39624814  1
  O2-  O236  1  0.70551298  0.33330585  0.73149132  1
  O2-  O237  1  0.71188248  0.83398460  0.07370394  1
  O2-  O238  1  0.70792929  0.83676783  0.39796267  1
  O2-  O239  1  0.69872462  0.83483115  0.73026964  1
  O2-  O240  1  0.45800776  0.40970522  0.27111344  1
  O2-  O241  1  0.45526463  0.41672599  0.60202285  1
  O2-  O242  1  0.46178978  0.41668627  0.93151933  1
  O2-  O243  1  0.46780083  0.91916088  0.26437594  1
  O2-  O244  1  0.46734566  0.91302222  0.59626418  1
  O2-  O245  1  0.46961843  0.91786626  0.93332936  1
  O2-  O246  1  0.94719890  0.41604553  0.26962846  1
  O2-  O247  1  0.94935994  0.42079385  0.60030806  1
  O2-  O248  1  0.95309545  0.41211029  0.93977678  1
  O2-  O249  1  0.94815400  0.91719703  0.26862944  1
  O2-  O250  1  0.95014370  0.92060889  0.60154372  1
  O2-  O251  1  0.94685598  0.91876242  0.94351074  1
  O2-  O252  1  0.33879759  0.28907996  0.27268492  1
  O2-  O253  1  0.33480475  0.29740792  0.60317975  1
  O2-  O254  1  0.33271022  0.28899119  0.93113300  1
  O2-  O255  1  0.32908711  0.80449494  0.26260424  1
  O2-  O256  1  0.33306775  0.79622761  0.59535701  1
  O2-  O257  1  0.33334159  0.79837469  0.93060595  1
  O2-  O258  1  0.83450332  0.29114613  0.26543748  1
  O2-  O259  1  0.83061452  0.29098735  0.59853819  1
  O2-  O260  1  0.83542413  0.29233750  0.93700166  1
  O2-  O261  1  0.83409630  0.79419188  0.27047662  1
  O2-  O262  1  0.82666684  0.79356254  0.60199636  1
  O2-  O263  1  0.83299395  0.79450674  0.94081449  1
  O2-  O264  1  0.41771718  0.04150587  0.06674526  1
  O2-  O265  1  0.42007727  0.04096828  0.39980238  1
  O2-  O266  1  0.41831601  0.03571862  0.73285314  1
  O2-  O267  1  0.42291305  0.54656353  0.06555373  1
  O2-  O268  1  0.41503457  0.54428526  0.39362525  1
  O2-  O269  1  0.42120156  0.54832410  0.73288667  1
  O2-  O270  1  0.91844241  0.05080123  0.06544117  1
  O2-  O271  1  0.91580948  0.04802405  0.39168987  1
  O2-  O272  1  0.91952460  0.04435441  0.73498371  1
  O2-  O273  1  0.90947093  0.53705494  0.06597978  1
  O2-  O274  1  0.90845659  0.54053181  0.39579252  1
  O2-  O275  1  0.91267512  0.53895613  0.73752095  1
  O2-  O276  1  0.28812043  0.16514546  0.06663086  1
  O2-  O277  1  0.29064084  0.16502367  0.40248717  1
  O2-  O278  1  0.29526400  0.16659803  0.73296710  1
  O2-  O279  1  0.29398123  0.67407841  0.06519369  1
  O2-  O280  1  0.30122103  0.67166224  0.38661242  1
  O2-  O281  1  0.29487577  0.67487662  0.72888970  1
  O2-  O282  1  0.79508740  0.16639726  0.06749763  1
  O2-  O283  1  0.79037601  0.16325181  0.39426795  1
  O2-  O284  1  0.78690561  0.16560050  0.73425420  1
  O2-  O285  1  0.79486375  0.66140135  0.06620683  1
  O2-  O286  1  0.79109287  0.66239967  0.39442750  1
  O2-  O287  1  0.78653814  0.66621841  0.73766692  1
