# generated using pymatgen
data_Ca2Al2SiO7
_symmetry_space_group_name_H-M   'P 1'
_cell_length_a   15.45548047
_cell_length_b   15.45516510
_cell_length_c   15.28146864
_cell_angle_alpha   89.99228819
_cell_angle_beta   89.98978495
_cell_angle_gamma   90.00773565
_symmetry_Int_Tables_number   1
_chemical_formula_structural   Ca2Al2SiO7
_chemical_formula_sum   'Ca48 Al48 Si24 O168'
_cell_volume   3650.23847930
_cell_formula_units_Z   24
loop_
 _symmetry_equiv_pos_site_id
 _symmetry_equiv_pos_as_xyz
  1  'x, y, z'
loop_
 _atom_type_symbol
 _atom_type_oxidation_number
  Ca2+  2.0
  Al0+  0.0
  Si0+  0.0
  O2-  -2.0
loop_
 _atom_site_type_symbol
 _atom_site_label
 _atom_site_symmetry_multiplicity
 _atom_site_fract_x
 _atom_site_fract_y
 _atom_site_fract_z
 _atom_site_occupancy
  Ca2+  Ca0  1  0.17075787  0.08276889  0.17326328  1
  Ca2+  Ca1  1  0.17967458  0.08689146  0.50492843  1
  Ca2+  Ca2  1  0.16829247  0.08949971  0.83338713  1
  Ca2+  Ca3  1  0.17117660  0.57704589  0.18007146  1
  Ca2+  Ca4  1  0.17311769  0.58417211  0.49853916  1
  Ca2+  Ca5  1  0.17385439  0.58474866  0.83388319  1
  Ca2+  Ca6  1  0.67602036  0.07734930  0.16996106  1
  Ca2+  Ca7  1  0.67734415  0.08867304  0.50600777  1
  Ca2+  Ca8  1  0.67530103  0.08269867  0.83661687  1
  Ca2+  Ca9  1  0.67289241  0.58574364  0.17219632  1
  Ca2+  Ca10  1  0.66487814  0.57069893  0.50104954  1
  Ca2+  Ca11  1  0.66814670  0.57821559  0.83973622  1
  Ca2+  Ca12  1  0.08527116  0.32832670  0.16169960  1
  Ca2+  Ca13  1  0.08237887  0.33144180  0.49820532  1
  Ca2+  Ca14  1  0.07295754  0.32108278  0.82526277  1
  Ca2+  Ca15  1  0.07793758  0.82720941  0.17158240  1
  Ca2+  Ca16  1  0.07819415  0.82632326  0.49019901  1
  Ca2+  Ca17  1  0.08066228  0.83270428  0.82955818  1
  Ca2+  Ca18  1  0.57900826  0.34008767  0.17091257  1
  Ca2+  Ca19  1  0.58377216  0.33219307  0.49653080  1
  Ca2+  Ca20  1  0.58803386  0.32675192  0.82374573  1
  Ca2+  Ca21  1  0.57475756  0.83202544  0.15797254  1
  Ca2+  Ca22  1  0.57070052  0.83442693  0.49423704  1
  Ca2+  Ca23  1  0.57960472  0.83387715  0.83262336  1
  Ca2+  Ca24  1  0.32797836  0.42145599  0.18217092  1
  Ca2+  Ca25  1  0.33353352  0.42509024  0.49947390  1
  Ca2+  Ca26  1  0.33553848  0.42372315  0.83283664  1
  Ca2+  Ca27  1  0.33701687  0.91829001  0.17267145  1
  Ca2+  Ca28  1  0.33915525  0.92254500  0.50504647  1
  Ca2+  Ca29  1  0.34064214  0.91908474  0.83230657  1
  Ca2+  Ca30  1  0.82729301  0.42922077  0.17632373  1
  Ca2+  Ca31  1  0.82449422  0.41437803  0.50411392  1
  Ca2+  Ca32  1  0.83043957  0.41572232  0.83355975  1
  Ca2+  Ca33  1  0.83139877  0.92268270  0.17209195  1
  Ca2+  Ca34  1  0.83959480  0.92617832  0.50215109  1
  Ca2+  Ca35  1  0.82745533  0.92840775  0.84301703  1
  Ca2+  Ca36  1  0.41188801  0.17301311  0.16783981  1
  Ca2+  Ca37  1  0.42261034  0.16483240  0.49263722  1
  Ca2+  Ca38  1  0.42542507  0.16650062  0.82270793  1
  Ca2+  Ca39  1  0.42082084  0.67402313  0.16091508  1
  Ca2+  Ca40  1  0.40785442  0.67412552  0.49301149  1
  Ca2+  Ca41  1  0.42118098  0.67622158  0.82750989  1
  Ca2+  Ca42  1  0.91956183  0.16292046  0.16138740  1
  Ca2+  Ca43  1  0.91589096  0.16815525  0.49904986  1
  Ca2+  Ca44  1  0.92140111  0.16394603  0.82294766  1
  Ca2+  Ca45  1  0.91431536  0.66338263  0.16619362  1
  Ca2+  Ca46  1  0.92082312  0.67141252  0.48582029  1
  Ca2+  Ca47  1  0.91314339  0.66570209  0.83173433  1
  Al0+  Al48  1  0.00376012  -0.00098901  -0.00057990  1
  Al0+  Al49  1  0.00029322  -0.00116643  0.33313674  1
  Al0+  Al50  1  0.00257675  -0.00051676  0.66628351  1
  Al0+  Al51  1  0.00024035  0.49837834  0.00133008  1
  Al0+  Al52  1  0.00023639  0.49787085  0.33615743  1
  Al0+  Al53  1  0.00011734  0.49931801  0.66382533  1
  Al0+  Al54  1  0.49936585  0.00289843  0.00060479  1
  Al0+  Al55  1  0.50207214  0.00038958  0.33004407  1
  Al0+  Al56  1  0.50044370  -0.00010373  0.66223261  1
  Al0+  Al57  1  0.49872533  0.50201187  -0.00374068  1
  Al0+  Al58  1  0.49918475  0.49946763  0.33615468  1
  Al0+  Al59  1  0.50093607  0.50003169  0.67708783  1
  Al0+  Al60  1  0.24869015  0.25050003  -0.00648966  1
  Al0+  Al61  1  0.25137205  0.24912039  0.33728572  1
  Al0+  Al62  1  0.24971295  0.25120500  0.66919104  1
  Al0+  Al63  1  0.24960114  0.75192889  -0.00344192  1
  Al0+  Al64  1  0.24727167  0.75059468  0.32636175  1
  Al0+  Al65  1  0.25003023  0.75060105  0.66840882  1
  Al0+  Al66  1  0.74915354  0.25208555  0.00574939  1
  Al0+  Al67  1  0.75098035  0.24808000  0.33673606  1
  Al0+  Al68  1  0.75041592  0.25016413  0.66784630  1
  Al0+  Al69  1  0.74880596  0.74942323  0.00213418  1
  Al0+  Al70  1  0.74837441  0.75217760  0.33419518  1
  Al0+  Al71  1  0.74849232  0.74887854  0.66441110  1
  Al0+  Al72  1  0.42820428  0.82320939  0.98249742  1
  Al0+  Al73  1  0.42844889  0.82217109  0.31843743  1
  Al0+  Al74  1  0.43052481  0.81868908  0.65119693  1
  Al0+  Al75  1  0.68078268  0.42946264  0.68219075  1
  Al0+  Al76  1  0.57036388  0.17949044  0.65339225  1
  Al0+  Al77  1  0.82150796  0.06890808  0.68039871  1
  Al0+  Al78  1  0.67736620  0.92988419  0.01501941  1
  Al0+  Al79  1  0.82377837  0.07195600  0.01516915  1
  Al0+  Al80  1  0.06905304  0.67597938  0.31749652  1
  Al0+  Al81  1  0.32030286  0.57337528  0.34578030  1
  Al0+  Al82  1  0.32251221  0.07190357  0.68045817  1
  Al0+  Al83  1  0.32186750  0.06929902  0.34523500  1
  Al0+  Al84  1  0.67867093  0.42911985  0.34864035  1
  Al0+  Al85  1  0.82118413  0.56936646  0.01299483  1
  Al0+  Al86  1  0.92871463  0.32054677  0.64996783  1
  Al0+  Al87  1  0.07267591  0.17706259  0.64827509  1
  Al0+  Al88  1  0.17788580  0.42591476  0.34884978  1
  Al0+  Al89  1  0.07025664  0.17801776  0.98622886  1
  Al0+  Al90  1  0.42964765  0.31988891  0.32207233  1
  Al0+  Al91  1  0.57273356  0.67867644  0.98348434  1
  Al0+  Al92  1  0.31953093  0.57215559  0.68232862  1
  Al0+  Al93  1  0.82109990  0.57369941  0.34943902  1
  Al0+  Al94  1  0.92674480  0.82207539  0.31744132  1
  Al0+  Al95  1  0.82231918  0.06867741  0.34841902  1
  Si0+  Si96  1  0.67451355  0.42770920  0.01801339  1
  Si0+  Si97  1  0.92956335  0.82038938  0.98496120  1
  Si0+  Si98  1  0.17915838  0.92679650  0.01639572  1
  Si0+  Si99  1  0.57118505  0.18173752  0.98662466  1
  Si0+  Si100  1  0.67679210  0.92835277  0.35127501  1
  Si0+  Si101  1  0.92697776  0.31955436  0.31718201  1
  Si0+  Si102  1  0.92763142  0.32227471  0.98555637  1
  Si0+  Si103  1  0.31948374  0.07259089  0.01386837  1
  Si0+  Si104  1  0.07099761  0.67939763  0.65325721  1
  Si0+  Si105  1  0.17829539  0.92840036  0.34899835  1
  Si0+  Si106  1  0.07146846  0.17995757  0.31893078  1
  Si0+  Si107  1  0.42733633  0.32166665  0.98420135  1
  Si0+  Si108  1  0.07037169  0.67696604  0.98406696  1
  Si0+  Si109  1  0.67757627  0.92618786  0.68184343  1
  Si0+  Si110  1  0.17569011  0.42829168  0.68636878  1
  Si0+  Si111  1  0.32005313  0.57247440  0.01472549  1
  Si0+  Si112  1  0.57439484  0.17819268  0.31407730  1
  Si0+  Si113  1  0.82349533  0.57372207  0.68249795  1
  Si0+  Si114  1  0.42816259  0.32439334  0.65164964  1
  Si0+  Si115  1  0.57063077  0.67725789  0.31814599  1
  Si0+  Si116  1  0.57249976  0.67512887  0.64875797  1
  Si0+  Si117  1  0.18167417  0.42947694  0.01311717  1
  Si0+  Si118  1  0.17968510  0.92833825  0.68410808  1
  Si0+  Si119  1  0.92782067  0.82030528  0.65436608  1
  O2-  O120  1  0.25081375  -0.00103206  0.05583199  1
  O2-  O121  1  0.25081753  -0.00767498  0.39348615  1
  O2-  O122  1  0.24643656  -0.00097919  0.72867201  1
  O2-  O123  1  0.25097285  0.50042388  0.05737231  1
  O2-  O124  1  0.24808660  0.50131781  0.39596588  1
  O2-  O125  1  0.24583568  0.49618613  0.73044905  1
  O2-  O126  1  0.75239403  -0.00077633  0.06486189  1
  O2-  O127  1  0.74830952  -0.00616275  0.39574776  1
  O2-  O128  1  0.74858412  -0.00769139  0.72647025  1
  O2-  O129  1  0.74342421  0.49758632  0.05922902  1
  O2-  O130  1  0.75072489  0.50064457  0.39952900  1
  O2-  O131  1  0.75519248  0.50531384  0.72758858  1
  O2-  O132  1  0.00023265  0.25014797  0.27517999  1
  O2-  O133  1  0.00094135  0.24912342  0.59863002  1
  O2-  O134  1  -0.01093113  0.24677356  0.94162930  1
  O2-  O135  1  -0.00705030  0.74425022  0.26713551  1
  O2-  O136  1  -0.00488543  0.74564140  0.61295125  1
  O2-  O137  1  -0.00188586  0.74671628  0.94122646  1
  O2-  O138  1  0.50460532  0.24710246  0.27123095  1
  O2-  O139  1  0.49300836  0.25220253  0.60783940  1
  O2-  O140  1  0.50244889  0.25474630  0.94337222  1
  O2-  O141  1  0.50179484  0.74572545  0.27329099  1
  O2-  O142  1  0.50359757  0.74292310  0.60385137  1
  O2-  O143  1  0.50127629  0.75169393  0.93353241  1
  O2-  O144  1  0.07558167  0.18204897  0.09954073  1
  O2-  O145  1  0.07152318  0.18011481  0.42348321  1
  O2-  O146  1  0.07004061  0.17806312  0.76238672  1
  O2-  O147  1  0.07165973  0.67629417  0.08828926  1
  O2-  O148  1  0.07110923  0.68128483  0.43153134  1
  O2-  O149  1  0.07131847  0.68094105  0.75923449  1
  O2-  O150  1  0.56931251  0.18189574  0.09151655  1
  O2-  O151  1  0.57430310  0.17723327  0.41956844  1
  O2-  O152  1  0.56997619  0.18063814  0.76748335  1
  O2-  O153  1  0.56835950  0.67583606  0.09702587  1
  O2-  O154  1  0.56980281  0.67833123  0.42383690  1
  O2-  O155  1  0.57366692  0.67719700  0.75433847  1
  O2-  O156  1  0.18099153  0.42393114  0.23404451  1
  O2-  O157  1  0.17479654  0.42956539  0.58135536  1
  O2-  O158  1  0.18317750  0.43131185  0.90811966  1
  O2-  O159  1  0.17670529  0.93180773  0.24291097  1
  O2-  O160  1  0.18006750  0.92524703  0.57894098  1
  O2-  O161  1  0.17651329  0.92451175  0.91141307  1
  O2-  O162  1  0.68011607  0.43028721  0.23456108  1
  O2-  O163  1  0.67941054  0.43055491  0.56974552  1
  O2-  O164  1  0.67557912  0.42501305  0.91246448  1
  O2-  O165  1  0.67559709  0.93154997  0.24568343  1
  O2-  O166  1  0.67919141  0.92543123  0.57640310  1
  O2-  O167  1  0.67904463  0.93336129  0.90092021  1
  O2-  O168  1  0.42344585  0.32059368  0.08913682  1
  O2-  O169  1  0.43008162  0.31818653  0.43473048  1
  O2-  O170  1  0.43104386  0.32327663  0.75829292  1
  O2-  O171  1  0.42662371  0.82081104  0.09597672  1
  O2-  O172  1  0.42968457  0.82283091  0.43164313  1
  O2-  O173  1  0.43187725  0.81893104  0.76414144  1
  O2-  O174  1  0.93232926  0.32541559  0.09101705  1
  O2-  O175  1  0.92511108  0.31728030  0.42181530  1
  O2-  O176  1  0.93015559  0.32060914  0.76437438  1
  O2-  O177  1  0.93265512  0.82133157  0.08939110  1
  O2-  O178  1  0.93260818  0.82415384  0.43156773  1
  O2-  O179  1  0.92891863  0.81963204  0.76001090  1
  O2-  O180  1  0.31740078  0.07106828  0.23135698  1
  O2-  O181  1  0.32319678  0.06896092  0.56759562  1
  O2-  O182  1  0.31882985  0.07379856  0.90881892  1
  O2-  O183  1  0.31984294  0.57067960  0.23145094  1
  O2-  O184  1  0.31650622  0.57377308  0.56985873  1
  O2-  O185  1  0.31753681  0.57130853  0.90939929  1
  O2-  O186  1  0.82243296  0.06889858  0.23524401  1
  O2-  O187  1  0.82140520  0.06706744  0.56742048  1
  O2-  O188  1  0.82259067  0.07107385  0.90142629  1
  O2-  O189  1  0.81896061  0.57081108  0.23538431  1
  O2-  O190  1  0.82323924  0.57594140  0.57767715  1
  O2-  O191  1  0.82411009  0.56560503  0.89966450  1
  O2-  O192  1  0.04398324  0.08782872  0.27160283  1
  O2-  O193  1  0.04737281  0.07706339  0.59741870  1
  O2-  O194  1  0.04836243  0.07899681  0.93259918  1
  O2-  O195  1  0.04637335  0.57524127  0.26577780  1
  O2-  O196  1  0.04978565  0.58621504  0.60697460  1
  O2-  O197  1  0.04397440  0.58469631  0.93593539  1
  O2-  O198  1  0.54758774  0.08569254  0.26656440  1
  O2-  O199  1  0.54226161  0.08365775  0.59733141  1
  O2-  O200  1  0.54112915  0.09143464  0.93805652  1
  O2-  O201  1  0.54621246  0.58369612  0.27164776  1
  O2-  O202  1  0.54587275  0.58030009  0.60715130  1
  O2-  O203  1  0.54245293  0.58049629  0.92891429  1
  O2-  O204  1  0.16314761  0.20809408  0.27110352  1
  O2-  O205  1  0.17262818  0.20678560  0.59921121  1
  O2-  O206  1  0.16385357  0.21471922  0.92859329  1
  O2-  O207  1  0.16421444  0.70951546  0.25987663  1
  O2-  O208  1  0.16031077  0.71284324  0.60557752  1
  O2-  O209  1  0.16083373  0.70831035  0.93520339  1
  O2-  O210  1  0.66763724  0.20526165  0.26769121  1
  O2-  O211  1  0.66570133  0.21255087  0.59998827  1
  O2-  O212  1  0.66422007  0.20814417  0.93999263  1
  O2-  O213  1  0.66420440  0.70345899  0.27234531  1
  O2-  O214  1  0.66642856  0.69926134  0.60203502  1
  O2-  O215  1  0.67228390  0.70426428  0.93049917  1
  O2-  O216  1  0.08937887  0.45504501  0.06025771  1
  O2-  O217  1  0.07924955  0.45009733  0.40170969  1
  O2-  O218  1  0.08281813  0.45689753  0.73342560  1
  O2-  O219  1  0.08859834  0.95491072  0.06548978  1
  O2-  O220  1  0.08684091  0.95708710  0.39689105  1
  O2-  O221  1  0.08596766  0.95251291  0.73174027  1
  O2-  O222  1  0.57943743  0.45320261  0.06156276  1
  O2-  O223  1  0.58063039  0.45609015  0.40242026  1
  O2-  O224  1  0.58542234  0.45789268  0.74052237  1
  O2-  O225  1  0.57982665  0.96207807  0.06855385  1
  O2-  O226  1  0.58468332  0.95805185  0.39794639  1
  O2-  O227  1  0.58525077  0.95525213  0.72759666  1
  O2-  O228  1  0.21084879  0.33728317  0.05927331  1
  O2-  O229  1  0.20996567  0.33036645  0.40405018  1
  O2-  O230  1  0.20078157  0.33486788  0.73344482  1
  O2-  O231  1  0.20716098  0.83524275  0.06457028  1
  O2-  O232  1  0.19900769  0.83308174  0.39208572  1
  O2-  O233  1  0.20642705  0.83615306  0.73338120  1
  O2-  O234  1  0.69850872  0.33514869  0.06659775  1
  O2-  O235  1  0.70712624  0.33027707  0.39997785  1
  O2-  O236  1  0.71366420  0.33423154  0.73795251  1
  O2-  O237  1  0.70197859  0.83035651  0.06622599  1
  O2-  O238  1  0.69633305  0.83376432  0.39686427  1
  O2-  O239  1  0.70059617  0.83126008  0.72759166  1
  O2-  O240  1  0.45887577  0.41681782  0.26620428  1
  O2-  O241  1  0.45782698  0.41776350  0.60839172  1
  O2-  O242  1  0.45050870  0.41493748  0.93740952  1
  O2-  O243  1  0.46167034  0.91800739  0.26319620  1
  O2-  O244  1  0.46194607  0.91463975  0.59697272  1
  O2-  O245  1  0.45537140  0.92373126  0.93252929  1
  O2-  O246  1  0.95336592  0.41204137  0.27081257  1
  O2-  O247  1  0.95586081  0.42004750  0.59786658  1
  O2-  O248  1  0.96088861  0.41234202  0.93582095  1
  O2-  O249  1  0.96338972  0.91777789  0.26248509  1
  O2-  O250  1  0.96014978  0.90992740  0.60623224  1
  O2-  O251  1  0.96226501  0.91023885  0.93589228  1
  O2-  O252  1  0.33393132  0.28608797  0.26593201  1
  O2-  O253  1  0.33195203  0.30560637  0.61026319  1
  O2-  O254  1  0.33832670  0.29048431  0.93306781  1
  O2-  O255  1  0.33097649  0.79631258  0.26421248  1
  O2-  O256  1  0.33197494  0.78914688  0.60041483  1
  O2-  O257  1  0.32928455  0.79415839  0.92944318  1
  O2-  O258  1  0.83639108  0.28929115  0.26837969  1
  O2-  O259  1  0.83100339  0.29072918  0.59817586  1
  O2-  O260  1  0.83043644  0.30475621  0.94371159  1
  O2-  O261  1  0.82560689  0.80148893  0.26705910  1
  O2-  O262  1  0.83504424  0.79759861  0.60657367  1
  O2-  O263  1  0.83721143  0.79510072  0.93807688  1
  O2-  O264  1  0.41175590  0.04938322  0.06175314  1
  O2-  O265  1  0.42044076  0.04250941  0.39632203  1
  O2-  O266  1  0.41894212  0.03835785  0.73411386  1
  O2-  O267  1  0.41300682  0.54613566  0.05946014  1
  O2-  O268  1  0.41739552  0.54545827  0.40010013  1
  O2-  O269  1  0.41482843  0.54167416  0.73939777  1
  O2-  O270  1  0.92353739  0.04309150  0.06533529  1
  O2-  O271  1  0.91898709  0.03780716  0.40207573  1
  O2-  O272  1  0.91909547  0.03798787  0.73300826  1
  O2-  O273  1  0.91770972  0.53708066  0.06759642  1
  O2-  O274  1  0.92061894  0.54744981  0.39944292  1
  O2-  O275  1  0.91797696  0.54909876  0.72825273  1
  O2-  O276  1  0.28768779  0.16430213  0.06004721  1
  O2-  O277  1  0.28936499  0.16328547  0.40133604  1
  O2-  O278  1  0.29506505  0.16963892  0.73524830  1
  O2-  O279  1  0.29068316  0.66466266  0.05953293  1
  O2-  O280  1  0.28879202  0.67183640  0.39692502  1
  O2-  O281  1  0.28452355  0.66699356  0.73834693  1
  O2-  O282  1  0.79606412  0.17090417  0.06783988  1
  O2-  O283  1  0.79078660  0.16449941  0.40220959  1
  O2-  O284  1  0.78934617  0.16465218  0.73412274  1
  O2-  O285  1  0.79512994  0.66716520  0.06594141  1
  O2-  O286  1  0.79533655  0.67353288  0.40056247  1
  O2-  O287  1  0.79747699  0.66767492  0.72940042  1
