# generated using pymatgen
data_Ca2Al2SiO7
_symmetry_space_group_name_H-M   'P 1'
_cell_length_a   15.45627468
_cell_length_b   15.45647207
_cell_length_c   15.28287833
_cell_angle_alpha   89.98667118
_cell_angle_beta   90.00176585
_cell_angle_gamma   90.01238111
_symmetry_Int_Tables_number   1
_chemical_formula_structural   Ca2Al2SiO7
_chemical_formula_sum   'Ca48 Al48 Si24 O168'
_cell_volume   3651.07146787
_cell_formula_units_Z   24
loop_
 _symmetry_equiv_pos_site_id
 _symmetry_equiv_pos_as_xyz
  1  'x, y, z'
loop_
 _atom_type_symbol
 _atom_type_oxidation_number
  Ca2+  2.0
  Al0+  0.0
  Si0+  0.0
  O2-  -2.0
loop_
 _atom_site_type_symbol
 _atom_site_label
 _atom_site_symmetry_multiplicity
 _atom_site_fract_x
 _atom_site_fract_y
 _atom_site_fract_z
 _atom_site_occupancy
  Ca2+  Ca0  1  0.17336388  0.08050244  0.17415551  1
  Ca2+  Ca1  1  0.16300508  0.07384764  0.50762264  1
  Ca2+  Ca2  1  0.18184151  0.08192963  0.83742331  1
  Ca2+  Ca3  1  0.16728119  0.58235088  0.16148950  1
  Ca2+  Ca4  1  0.17211654  0.58197221  0.51016387  1
  Ca2+  Ca5  1  0.17398356  0.58352544  0.84044417  1
  Ca2+  Ca6  1  0.66194773  0.07495405  0.17248736  1
  Ca2+  Ca7  1  0.67284131  0.09241218  0.50182076  1
  Ca2+  Ca8  1  0.66560438  0.08483092  0.83818402  1
  Ca2+  Ca9  1  0.67205066  0.59041870  0.16684689  1
  Ca2+  Ca10  1  0.67500881  0.57215848  0.51310533  1
  Ca2+  Ca11  1  0.67294008  0.58227121  0.83986716  1
  Ca2+  Ca12  1  0.08002130  0.33235923  0.16472492  1
  Ca2+  Ca13  1  0.07447054  0.32296137  0.48981498  1
  Ca2+  Ca14  1  0.08458984  0.33752279  0.83124875  1
  Ca2+  Ca15  1  0.08271825  0.83070519  0.16103118  1
  Ca2+  Ca16  1  0.08886536  0.83289646  0.49924679  1
  Ca2+  Ca17  1  0.08926229  0.82186790  0.82684206  1
  Ca2+  Ca18  1  0.58443987  0.31822225  0.16195289  1
  Ca2+  Ca19  1  0.58310790  0.32557197  0.50128025  1
  Ca2+  Ca20  1  0.57948002  0.32504944  0.82273847  1
  Ca2+  Ca21  1  0.58117041  0.83519035  0.15297838  1
  Ca2+  Ca22  1  0.58333073  0.83453940  0.49637967  1
  Ca2+  Ca23  1  0.58115254  0.83199913  0.83863917  1
  Ca2+  Ca24  1  0.33144649  0.42164251  0.16301959  1
  Ca2+  Ca25  1  0.33529662  0.42032320  0.51003056  1
  Ca2+  Ca26  1  0.33351155  0.42510835  0.83927439  1
  Ca2+  Ca27  1  0.33290528  0.91854528  0.16619822  1
  Ca2+  Ca28  1  0.32184941  0.92439471  0.50664988  1
  Ca2+  Ca29  1  0.33675648  0.92446614  0.83557797  1
  Ca2+  Ca30  1  0.83728540  0.42128591  0.16695636  1
  Ca2+  Ca31  1  0.82916195  0.41518739  0.50774669  1
  Ca2+  Ca32  1  0.82694407  0.42486198  0.83367022  1
  Ca2+  Ca33  1  0.81815993  0.91937960  0.17368671  1
  Ca2+  Ca34  1  0.82841650  0.92991183  0.50216732  1
  Ca2+  Ca35  1  0.82696635  0.92275711  0.83650933  1
  Ca2+  Ca36  1  0.42642159  0.15867790  0.15880838  1
  Ca2+  Ca37  1  0.42343515  0.16550070  0.50139895  1
  Ca2+  Ca38  1  0.42397197  0.16557493  0.82559331  1
  Ca2+  Ca39  1  0.42337549  0.67616113  0.15280997  1
  Ca2+  Ca40  1  0.41576272  0.66631679  0.49855455  1
  Ca2+  Ca41  1  0.41117434  0.66932925  0.83032294  1
  Ca2+  Ca42  1  0.91754724  0.16646397  0.16996648  1
  Ca2+  Ca43  1  0.91485345  0.16766502  0.48919617  1
  Ca2+  Ca44  1  0.91658014  0.16644526  0.82624582  1
  Ca2+  Ca45  1  0.92088626  0.66869793  0.15477450  1
  Ca2+  Ca46  1  0.92213329  0.66382336  0.50112050  1
  Ca2+  Ca47  1  0.92522860  0.65841495  0.82912688  1
  Al0+  Al48  1  0.00033780  0.00210375  -0.00177231  1
  Al0+  Al49  1  -0.00059072  -0.00213809  0.33454687  1
  Al0+  Al50  1  -0.00280399  -0.00378371  0.67576612  1
  Al0+  Al51  1  -0.00125871  0.49974089  0.00355492  1
  Al0+  Al52  1  0.00233888  0.49963037  0.33040998  1
  Al0+  Al53  1  0.00024383  0.50031810  0.66253125  1
  Al0+  Al54  1  0.50061115  -0.00037527  -0.00192989  1
  Al0+  Al55  1  0.49704757  -0.00176531  0.33475624  1
  Al0+  Al56  1  0.50032155  -0.00157151  0.66226590  1
  Al0+  Al57  1  0.50131455  0.49861683  0.00357036  1
  Al0+  Al58  1  0.50107631  0.50115632  0.33188026  1
  Al0+  Al59  1  0.49968952  0.49888834  0.67008413  1
  Al0+  Al60  1  0.24982940  0.24960722  0.00971354  1
  Al0+  Al61  1  0.25053565  0.25272304  0.33025766  1
  Al0+  Al62  1  0.24974229  0.24865374  0.66408497  1
  Al0+  Al63  1  0.24970800  0.75089040  -0.00387907  1
  Al0+  Al64  1  0.25176047  0.75039457  0.33571474  1
  Al0+  Al65  1  0.24919810  0.74837963  0.66655487  1
  Al0+  Al66  1  0.75245436  0.25134502  -0.00418395  1
  Al0+  Al67  1  0.74838390  0.25240639  0.32562605  1
  Al0+  Al68  1  0.75017940  0.24975497  0.67179745  1
  Al0+  Al69  1  0.74969506  0.75194262  0.00318213  1
  Al0+  Al70  1  0.75169301  0.74931006  0.33977829  1
  Al0+  Al71  1  0.75226986  0.75157609  0.66767356  1
  Al0+  Al72  1  0.06846738  0.67982698  0.98643729  1
  Al0+  Al73  1  0.81767393  0.07187765  0.34570272  1
  Al0+  Al74  1  0.57071053  0.17974108  0.98542383  1
  Al0+  Al75  1  0.07176313  0.17546759  0.31848195  1
  Al0+  Al76  1  0.07038519  0.67971119  0.65117949  1
  Al0+  Al77  1  0.57309576  0.67717458  0.98539155  1
  Al0+  Al78  1  0.82277230  0.57193836  0.68098135  1
  Al0+  Al79  1  0.17809825  0.92772775  0.68401280  1
  Al0+  Al80  1  0.67885378  0.42828991  0.68226372  1
  Al0+  Al81  1  0.81919759  0.07110625  0.68079951  1
  Al0+  Al82  1  0.68136176  0.93298859  0.01194407  1
  Al0+  Al83  1  0.32143359  0.07155732  0.68028574  1
  Al0+  Al84  1  0.17951648  0.92893663  0.34588678  1
  Al0+  Al85  1  0.32104269  0.56961169  0.67925395  1
  Al0+  Al86  1  0.42711118  0.32244239  0.65269864  1
  Al0+  Al87  1  0.56760508  0.17939553  0.31858337  1
  Al0+  Al88  1  0.32309195  0.57379851  0.01610121  1
  Al0+  Al89  1  0.17815940  0.42924540  0.01628997  1
  Al0+  Al90  1  0.32144130  0.06945690  0.01435078  1
  Al0+  Al91  1  0.57198362  0.17778676  0.65028801  1
  Al0+  Al92  1  0.42870160  0.82082095  0.98323177  1
  Al0+  Al93  1  0.67531723  0.92716136  0.35004351  1
  Al0+  Al94  1  0.92825352  0.32200205  0.31658926  1
  Al0+  Al95  1  0.81862484  0.57014533  0.01431561  1
  Si0+  Si96  1  0.67830491  0.42544195  0.01862083  1
  Si0+  Si97  1  0.42608535  0.32129179  0.98535207  1
  Si0+  Si98  1  0.93109184  0.32110571  0.98203437  1
  Si0+  Si99  1  0.82496340  0.07547966  0.01783040  1
  Si0+  Si100  1  0.17731144  0.42672142  0.67911396  1
  Si0+  Si101  1  0.32063122  0.56976686  0.34809041  1
  Si0+  Si102  1  0.42892139  0.81942118  0.64885918  1
  Si0+  Si103  1  0.67876222  0.43105436  0.34668937  1
  Si0+  Si104  1  0.67634267  0.92651485  0.68398353  1
  Si0+  Si105  1  0.92646735  0.82360774  0.64768382  1
  Si0+  Si106  1  0.07297964  0.17879042  0.98422954  1
  Si0+  Si107  1  0.92788321  0.81931191  0.31883433  1
  Si0+  Si108  1  0.07010461  0.17592307  0.65485802  1
  Si0+  Si109  1  0.92704964  0.82433734  0.98345830  1
  Si0+  Si110  1  0.32170124  0.07447284  0.35013975  1
  Si0+  Si111  1  0.07265897  0.67991004  0.31779319  1
  Si0+  Si112  1  0.57244504  0.67889038  0.32098608  1
  Si0+  Si113  1  0.42760902  0.32642654  0.31408089  1
  Si0+  Si114  1  0.17641397  0.92852488  0.01598868  1
  Si0+  Si115  1  0.93051650  0.31951084  0.65309727  1
  Si0+  Si116  1  0.17829659  0.42945231  0.35009577  1
  Si0+  Si117  1  0.82400930  0.57086494  0.34919991  1
  Si0+  Si118  1  0.42887028  0.81836458  0.31963949  1
  Si0+  Si119  1  0.57333646  0.67867636  0.65215169  1
  O2-  O120  1  0.24482595  -0.00353245  0.06123026  1
  O2-  O121  1  0.24689623  0.01086234  0.39213626  1
  O2-  O122  1  0.24960177  0.00054896  0.73231856  1
  O2-  O123  1  0.25085211  0.50156298  0.06618787  1
  O2-  O124  1  0.25186240  0.49757857  0.39200504  1
  O2-  O125  1  0.24867957  0.49192310  0.72333918  1
  O2-  O126  1  0.75576353  0.00718333  0.06027927  1
  O2-  O127  1  0.74359984  0.00337887  0.39848431  1
  O2-  O128  1  0.74198428  -0.00115116  0.72646077  1
  O2-  O129  1  0.74149652  0.49920764  0.06386494  1
  O2-  O130  1  0.75260979  0.49954555  0.38947276  1
  O2-  O131  1  0.74689256  0.50483770  0.73090394  1
  O2-  O132  1  -0.00009208  0.24817855  0.26802145  1
  O2-  O133  1  -0.00048762  0.24662881  0.61125520  1
  O2-  O134  1  0.00141530  0.24879432  0.94075190  1
  O2-  O135  1  -0.00034779  0.74885875  0.27601053  1
  O2-  O136  1  -0.00424754  0.75452630  0.60370491  1
  O2-  O137  1  -0.00367316  0.75660167  0.93899871  1
  O2-  O138  1  0.49015768  0.25169368  0.27121380  1
  O2-  O139  1  0.49837783  0.24976209  0.60188429  1
  O2-  O140  1  0.49693905  0.25588710  0.94029033  1
  O2-  O141  1  0.50658469  0.75413089  0.27884707  1
  O2-  O142  1  0.50186882  0.74874726  0.60763288  1
  O2-  O143  1  0.49591901  0.74295459  0.93420217  1
  O2-  O144  1  0.07108227  0.17695637  0.08914167  1
  O2-  O145  1  0.07007591  0.17781209  0.43279258  1
  O2-  O146  1  0.06991630  0.17964723  0.76014673  1
  O2-  O147  1  0.06655951  0.68208987  0.10055733  1
  O2-  O148  1  0.07259083  0.67911753  0.42285968  1
  O2-  O149  1  0.06945514  0.67793006  0.76379058  1
  O2-  O150  1  0.56974650  0.17932542  0.09898101  1
  O2-  O151  1  0.56905742  0.18338373  0.43121871  1
  O2-  O152  1  0.57141243  0.17894521  0.76373533  1
  O2-  O153  1  0.57448789  0.68310835  0.09995557  1
  O2-  O154  1  0.56910852  0.67544342  0.42633126  1
  O2-  O155  1  0.57415365  0.68053174  0.75651154  1
  O2-  O156  1  0.17617076  0.43218965  0.24549399  1
  O2-  O157  1  0.17602178  0.42947923  0.57311750  1
  O2-  O158  1  0.17787879  0.42915814  0.90247296  1
  O2-  O159  1  0.18432324  0.92360531  0.23301836  1
  O2-  O160  1  0.17918073  0.92967183  0.56972898  1
  O2-  O161  1  0.17463502  0.93142902  0.91094137  1
  O2-  O162  1  0.67664899  0.43503590  0.24186110  1
  O2-  O163  1  0.68235845  0.42835182  0.56754960  1
  O2-  O164  1  0.68255076  0.42319079  0.91347299  1
  O2-  O165  1  0.67704108  0.92410487  0.23667353  1
  O2-  O166  1  0.67874777  0.92361351  0.57833374  1
  O2-  O167  1  0.68294597  0.93391725  0.89893285  1
  O2-  O168  1  0.42749396  0.31905709  0.09145959  1
  O2-  O169  1  0.42988167  0.33227472  0.41924851  1
  O2-  O170  1  0.42715318  0.32294709  0.76604296  1
  O2-  O171  1  0.43097040  0.82172991  0.09776254  1
  O2-  O172  1  0.42563675  0.81378680  0.42489004  1
  O2-  O173  1  0.42861991  0.81984019  0.75336837  1
  O2-  O174  1  0.93070859  0.32108098  0.08706537  1
  O2-  O175  1  0.93021615  0.32450782  0.43063724  1
  O2-  O176  1  0.93312271  0.32076880  0.75832843  1
  O2-  O177  1  0.92861881  0.82341863  0.08971189  1
  O2-  O178  1  0.92665451  0.81691690  0.42369083  1
  O2-  O179  1  0.92504461  0.82440621  0.75297394  1
  O2-  O180  1  0.32386796  0.07004090  0.24447924  1
  O2-  O181  1  0.31902920  0.06981968  0.56631899  1
  O2-  O182  1  0.32038878  0.07065656  0.90164162  1
  O2-  O183  1  0.31984697  0.57079399  0.24365740  1
  O2-  O184  1  0.31916957  0.57040623  0.56502627  1
  O2-  O185  1  0.32044911  0.57208054  0.90274197  1
  O2-  O186  1  0.81725826  0.06778229  0.23224430  1
  O2-  O187  1  0.82154970  0.07232410  0.56781832  1
  O2-  O188  1  0.82621276  0.07454845  0.91213312  1
  O2-  O189  1  0.82319346  0.57358693  0.24414264  1
  O2-  O190  1  0.82258380  0.56785406  0.56650233  1
  O2-  O191  1  0.82072922  0.56652175  0.90188182  1
  O2-  O192  1  0.04502512  0.07647072  0.26540308  1
  O2-  O193  1  0.04115976  0.08280351  0.61139502  1
  O2-  O194  1  0.04632102  0.08721408  0.93526282  1
  O2-  O195  1  0.04660166  0.58774802  0.27074633  1
  O2-  O196  1  0.03882443  0.58352619  0.59419009  1
  O2-  O197  1  0.03500532  0.58309565  0.93493882  1
  O2-  O198  1  0.53747054  0.08052323  0.26749279  1
  O2-  O199  1  0.54603667  0.07867332  0.59641318  1
  O2-  O200  1  0.53871992  0.08453755  0.93152751  1
  O2-  O201  1  0.54189649  0.58933376  0.27077040  1
  O2-  O202  1  0.54570851  0.58649774  0.60499834  1
  O2-  O203  1  0.55428690  0.57431550  0.93847496  1
  O2-  O204  1  0.17077053  0.20533540  0.26637680  1
  O2-  O205  1  0.16106775  0.20139213  0.60489512  1
  O2-  O206  1  0.16520238  0.20865319  0.93932521  1
  O2-  O207  1  0.16432112  0.71013180  0.27159421  1
  O2-  O208  1  0.16690971  0.71060031  0.59551593  1
  O2-  O209  1  0.16547664  0.70749492  0.93277796  1
  O2-  O210  1  0.66233573  0.21228034  0.26238345  1
  O2-  O211  1  0.67076319  0.21134612  0.59977718  1
  O2-  O212  1  0.66909780  0.20865012  0.93341237  1
  O2-  O213  1  0.66736555  0.70148197  0.27737172  1
  O2-  O214  1  0.66537478  0.70657726  0.60360584  1
  O2-  O215  1  0.66999208  0.71162003  0.93267048  1
  O2-  O216  1  0.08113992  0.46003003  0.07116037  1
  O2-  O217  1  0.08737655  0.45997859  0.39825743  1
  O2-  O218  1  0.08502355  0.45530443  0.72548777  1
  O2-  O219  1  0.08241156  0.95484601  0.06236156  1
  O2-  O220  1  0.08098407  0.95141899  0.39969712  1
  O2-  O221  1  0.07929115  0.95022484  0.73717009  1
  O2-  O222  1  0.58291616  0.44219446  0.06388560  1
  O2-  O223  1  0.58836732  0.46220563  0.39575946  1
  O2-  O224  1  0.58033737  0.45304838  0.73435092  1
  O2-  O225  1  0.58531881  0.96336752  0.06654452  1
  O2-  O226  1  0.57451133  0.94895391  0.40049864  1
  O2-  O227  1  0.58114482  0.94783901  0.72687527  1
  O2-  O228  1  0.20525640  0.33216637  0.07334678  1
  O2-  O229  1  0.20234441  0.33589409  0.39599190  1
  O2-  O230  1  0.19695380  0.33176408  0.72396682  1
  O2-  O231  1  0.20077505  0.83446458  0.06088633  1
  O2-  O232  1  0.21674354  0.83460678  0.40227728  1
  O2-  O233  1  0.20942361  0.82972183  0.73383218  1
  O2-  O234  1  0.71296045  0.33440642  0.06565307  1
  O2-  O235  1  0.70517516  0.33865187  0.39220501  1
  O2-  O236  1  0.71224054  0.33354458  0.73782374  1
  O2-  O237  1  0.71132022  0.83714746  0.06854750  1
  O2-  O238  1  0.70817521  0.82998805  0.40466070  1
  O2-  O239  1  0.70583966  0.83472676  0.73124893  1
  O2-  O240  1  0.45982513  0.41768062  0.26552370  1
  O2-  O241  1  0.45637039  0.42131086  0.59840962  1
  O2-  O242  1  0.44784971  0.41699366  0.94260536  1
  O2-  O243  1  0.44828951  0.91243583  0.27380436  1
  O2-  O244  1  0.45598597  0.91020377  0.59870354  1
  O2-  O245  1  0.46459880  0.91589798  0.92892574  1
  O2-  O246  1  0.96163148  0.41963856  0.26266414  1
  O2-  O247  1  0.95859495  0.40984797  0.60257969  1
  O2-  O248  1  0.96115500  0.41208206  0.93508129  1
  O2-  O249  1  0.95419218  0.91044684  0.27039638  1
  O2-  O250  1  0.95421212  0.91715225  0.60187721  1
  O2-  O251  1  0.95062658  0.91897386  0.93783253  1
  O2-  O252  1  0.33127603  0.30872704  0.27083602  1
  O2-  O253  1  0.32831365  0.29551810  0.59695261  1
  O2-  O254  1  0.33159852  0.29500248  0.94234663  1
  O2-  O255  1  0.34029978  0.78348004  0.26987109  1
  O2-  O256  1  0.33832794  0.78808889  0.60065376  1
  O2-  O257  1  0.32893555  0.79894700  0.93066795  1
  O2-  O258  1  0.83017330  0.29867213  0.26098657  1
  O2-  O259  1  0.83815645  0.29246108  0.60719264  1
  O2-  O260  1  0.83985710  0.29444208  0.93301073  1
  O2-  O261  1  0.83629747  0.78873652  0.27122220  1
  O2-  O262  1  0.83332210  0.79803201  0.59950917  1
  O2-  O263  1  0.83392363  0.79842706  0.93834621  1
  O2-  O264  1  0.41632810  0.03483405  0.06855792  1
  O2-  O265  1  0.41166035  0.04187682  0.39872818  1
  O2-  O266  1  0.42038448  0.04069956  0.73005406  1
  O2-  O267  1  0.42192235  0.54599527  0.07046211  1
  O2-  O268  1  0.41401408  0.54396812  0.39441600  1
  O2-  O269  1  0.41787955  0.54484920  0.73381813  1
  O2-  O270  1  0.91929547  0.05019258  0.06288220  1
  O2-  O271  1  0.91595225  0.04143704  0.39815641  1
  O2-  O272  1  0.91307272  0.03836585  0.73920768  1
  O2-  O273  1  0.91296315  0.53573857  0.07071545  1
  O2-  O274  1  0.91674998  0.54293242  0.39463286  1
  O2-  O275  1  0.92000619  0.53800906  0.73236190  1
  O2-  O276  1  0.29170475  0.16433589  0.07191680  1
  O2-  O277  1  0.30426863  0.17180272  0.39138689  1
  O2-  O278  1  0.29299324  0.17010907  0.73292580  1
  O2-  O279  1  0.29295208  0.67276373  0.06781200  1
  O2-  O280  1  0.29092720  0.66036016  0.39695329  1
  O2-  O281  1  0.28745445  0.66453314  0.73244177  1
  O2-  O282  1  0.80127140  0.17037833  0.06107232  1
  O2-  O283  1  0.79243373  0.17337446  0.39482843  1
  O2-  O284  1  0.79291242  0.16712303  0.73738460  1
  O2-  O285  1  0.79180773  0.66774509  0.06927820  1
  O2-  O286  1  0.79700772  0.66138341  0.39915321  1
  O2-  O287  1  0.80057238  0.67242618  0.73093724  1
