# generated using pymatgen
data_Ca2Al2SiO7
_symmetry_space_group_name_H-M   'P 1'
_cell_length_a   15.45436155
_cell_length_b   15.45372174
_cell_length_c   15.28115850
_cell_angle_alpha   90.00463939
_cell_angle_beta   90.00701527
_cell_angle_gamma   89.99534361
_symmetry_Int_Tables_number   1
_chemical_formula_structural   Ca2Al2SiO7
_chemical_formula_sum   'Ca48 Al48 Si24 O168'
_cell_volume   3649.55934805
_cell_formula_units_Z   24
loop_
 _symmetry_equiv_pos_site_id
 _symmetry_equiv_pos_as_xyz
  1  'x, y, z'
loop_
 _atom_type_symbol
 _atom_type_oxidation_number
  Ca2+  2.0
  Al0+  0.0
  Si0+  0.0
  O2-  -2.0
loop_
 _atom_site_type_symbol
 _atom_site_label
 _atom_site_symmetry_multiplicity
 _atom_site_fract_x
 _atom_site_fract_y
 _atom_site_fract_z
 _atom_site_occupancy
  Ca2+  Ca0  1  0.18354088  0.07809235  0.17479414  1
  Ca2+  Ca1  1  0.17130292  0.08401510  0.50124627  1
  Ca2+  Ca2  1  0.17374455  0.08519110  0.84146912  1
  Ca2+  Ca3  1  0.16846374  0.58143156  0.16545025  1
  Ca2+  Ca4  1  0.16842286  0.57591671  0.50961017  1
  Ca2+  Ca5  1  0.16147576  0.57356183  0.83858419  1
  Ca2+  Ca6  1  0.66316850  0.08374353  0.17158518  1
  Ca2+  Ca7  1  0.65597553  0.07405848  0.50099942  1
  Ca2+  Ca8  1  0.66592986  0.08034444  0.83997021  1
  Ca2+  Ca9  1  0.65845237  0.57972987  0.17504444  1
  Ca2+  Ca10  1  0.66677425  0.57267404  0.50649773  1
  Ca2+  Ca11  1  0.66518902  0.58048750  0.83363091  1
  Ca2+  Ca12  1  0.07688003  0.33691251  0.16343967  1
  Ca2+  Ca13  1  0.08018961  0.33086513  0.49964525  1
  Ca2+  Ca14  1  0.08786936  0.33027615  0.82481160  1
  Ca2+  Ca15  1  0.08771215  0.83082669  0.16220858  1
  Ca2+  Ca16  1  0.08479343  0.82831915  0.49584383  1
  Ca2+  Ca17  1  0.08558032  0.81809674  0.82637236  1
  Ca2+  Ca18  1  0.57346624  0.32538046  0.16210884  1
  Ca2+  Ca19  1  0.57784733  0.33463682  0.48910543  1
  Ca2+  Ca20  1  0.57387478  0.32960315  0.82863630  1
  Ca2+  Ca21  1  0.58579622  0.82464385  0.16094143  1
  Ca2+  Ca22  1  0.58526822  0.83179277  0.49576924  1
  Ca2+  Ca23  1  0.57353580  0.83691352  0.82986986  1
  Ca2+  Ca24  1  0.33182256  0.40829971  0.16811359  1
  Ca2+  Ca25  1  0.33523525  0.41556952  0.50765092  1
  Ca2+  Ca26  1  0.32410967  0.40615294  0.83773060  1
  Ca2+  Ca27  1  0.33923183  0.92654299  0.17098478  1
  Ca2+  Ca28  1  0.33632160  0.92398344  0.50158747  1
  Ca2+  Ca29  1  0.33927297  0.92032041  0.84083432  1
  Ca2+  Ca30  1  0.82471610  0.41754806  0.17551864  1
  Ca2+  Ca31  1  0.82093677  0.41515313  0.50485052  1
  Ca2+  Ca32  1  0.82755589  0.42021829  0.83201239  1
  Ca2+  Ca33  1  0.82859532  0.92606754  0.17181916  1
  Ca2+  Ca34  1  0.81865035  0.91501113  0.50509449  1
  Ca2+  Ca35  1  0.82710609  0.92268615  0.83733622  1
  Ca2+  Ca36  1  0.42259756  0.16688397  0.16265900  1
  Ca2+  Ca37  1  0.42015355  0.17929447  0.49253872  1
  Ca2+  Ca38  1  0.41566195  0.17313811  0.83318921  1
  Ca2+  Ca39  1  0.42904321  0.67320424  0.15987271  1
  Ca2+  Ca40  1  0.42263100  0.67357324  0.49542626  1
  Ca2+  Ca41  1  0.41863155  0.67892373  0.83121766  1
  Ca2+  Ca42  1  0.91111512  0.17310590  0.16324996  1
  Ca2+  Ca43  1  0.92318037  0.17109100  0.49502684  1
  Ca2+  Ca44  1  0.92363686  0.16415529  0.82839597  1
  Ca2+  Ca45  1  0.92322853  0.67099330  0.15980360  1
  Ca2+  Ca46  1  0.91960711  0.65729467  0.50196742  1
  Ca2+  Ca47  1  0.92558078  0.65878292  0.82815735  1
  Al0+  Al48  1  -0.00224867  0.00088193  0.00546780  1
  Al0+  Al49  1  0.00141166  -0.00145439  0.33634013  1
  Al0+  Al50  1  0.00125434  -0.00191550  0.66107615  1
  Al0+  Al51  1  -0.00155475  0.49951777  0.00202098  1
  Al0+  Al52  1  0.00121458  0.50002366  0.32845701  1
  Al0+  Al53  1  0.00005668  0.49831889  0.66864243  1
  Al0+  Al54  1  0.50115113  0.00004109  -0.00104371  1
  Al0+  Al55  1  0.49947425  0.00153079  0.34002616  1
  Al0+  Al56  1  0.49896548  0.00097026  0.66781391  1
  Al0+  Al57  1  0.49755332  0.50024762  -0.00808443  1
  Al0+  Al58  1  0.49850913  0.50126918  0.33008968  1
  Al0+  Al59  1  0.49877801  0.50216623  0.66924121  1
  Al0+  Al60  1  0.24761109  0.24844460  0.00910434  1
  Al0+  Al61  1  0.24790209  0.24970865  0.33453771  1
  Al0+  Al62  1  0.25105487  0.24942575  0.66113069  1
  Al0+  Al63  1  0.24926504  0.74655387  -0.00767807  1
  Al0+  Al64  1  0.25040944  0.74879244  0.33602880  1
  Al0+  Al65  1  0.25010672  0.75084244  0.65629608  1
  Al0+  Al66  1  0.74967128  0.25134790  -0.00101918  1
  Al0+  Al67  1  0.75117035  0.25151710  0.33097701  1
  Al0+  Al68  1  0.75042984  0.24865915  0.67090389  1
  Al0+  Al69  1  0.75197125  0.74933823  -0.00385524  1
  Al0+  Al70  1  0.75396832  0.75092773  0.33252461  1
  Al0+  Al71  1  0.75060948  0.75120966  0.67743008  1
  Al0+  Al72  1  0.68076582  0.92872948  0.34566090  1
  Al0+  Al73  1  0.67761396  0.93100179  0.68288393  1
  Al0+  Al74  1  0.43077386  0.32159139  0.65319833  1
  Al0+  Al75  1  0.42677653  0.32272510  0.31778210  1
  Al0+  Al76  1  0.32191810  0.07269436  0.35216424  1
  Al0+  Al77  1  0.57423510  0.67695071  0.98263125  1
  Al0+  Al78  1  0.57102228  0.17771669  0.31972956  1
  Al0+  Al79  1  0.67477592  0.42630637  0.68330882  1
  Al0+  Al80  1  0.07195712  0.17746754  0.65355652  1
  Al0+  Al81  1  0.57286671  0.68097190  0.32307772  1
  Al0+  Al82  1  0.17861141  0.42916058  0.01576021  1
  Al0+  Al83  1  0.42987515  0.82307659  0.64974792  1
  Al0+  Al84  1  0.32154095  0.06943173  0.01344652  1
  Al0+  Al85  1  0.67827904  0.43046969  0.34402239  1
  Al0+  Al86  1  0.82122664  0.07281575  0.01427764  1
  Al0+  Al87  1  0.93053476  0.32065581  0.31996969  1
  Al0+  Al88  1  0.42503449  0.31903351  0.98439565  1
  Al0+  Al89  1  0.43023321  0.82131096  0.98719648  1
  Al0+  Al90  1  0.18275355  0.42914513  0.67848549  1
  Al0+  Al91  1  0.82053230  0.56955624  0.68227490  1
  Al0+  Al92  1  0.17921885  0.92699592  0.34975603  1
  Al0+  Al93  1  0.06912674  0.67907565  0.98618975  1
  Al0+  Al94  1  0.06912711  0.67699185  0.65098524  1
  Al0+  Al95  1  0.57261967  0.17942783  0.98384951  1
  Si0+  Si96  1  0.17773067  0.92705427  0.68152503  1
  Si0+  Si97  1  0.42778783  0.82157684  0.31843187  1
  Si0+  Si98  1  0.92872076  0.82478818  0.98275266  1
  Si0+  Si99  1  0.06868472  0.17935353  0.98884692  1
  Si0+  Si100  1  0.82093461  0.57073160  0.01670577  1
  Si0+  Si101  1  0.92979148  0.82181387  0.31795083  1
  Si0+  Si102  1  0.82520796  0.07097699  0.68181050  1
  Si0+  Si103  1  0.82446280  0.57227405  0.34779708  1
  Si0+  Si104  1  0.92737926  0.82166147  0.64938056  1
  Si0+  Si105  1  0.17678110  0.43060362  0.34856051  1
  Si0+  Si106  1  0.67711496  0.43114406  0.01503462  1
  Si0+  Si107  1  0.07116880  0.17586667  0.31434079  1
  Si0+  Si108  1  0.32195791  0.57317799  0.01620197  1
  Si0+  Si109  1  0.32080334  0.57050732  0.34793734  1
  Si0+  Si110  1  0.17776724  0.92500027  0.01288979  1
  Si0+  Si111  1  0.57363326  0.17907036  0.65082162  1
  Si0+  Si112  1  0.92849831  0.32170544  0.98369950  1
  Si0+  Si113  1  0.32154736  0.57611482  0.68341289  1
  Si0+  Si114  1  0.92704559  0.32083564  0.65103992  1
  Si0+  Si115  1  0.67928394  0.92818082  0.01706687  1
  Si0+  Si116  1  0.07227150  0.67904310  0.31738650  1
  Si0+  Si117  1  0.82286949  0.07379882  0.35105329  1
  Si0+  Si118  1  0.57371885  0.68022161  0.65048285  1
  Si0+  Si119  1  0.31781379  0.06975010  0.68261940  1
  O2-  O120  1  0.24932687  -0.01001181  0.05728069  1
  O2-  O121  1  0.24950465  -0.00050457  0.40115262  1
  O2-  O122  1  0.24780041  -0.00251038  0.72566050  1
  O2-  O123  1  0.25616442  0.50166298  0.06177062  1
  O2-  O124  1  0.25210156  0.49677897  0.39014830  1
  O2-  O125  1  0.25544986  0.50459777  0.72739223  1
  O2-  O126  1  0.74630341  -0.00133943  0.06121362  1
  O2-  O127  1  0.75200162  0.00690959  0.39423873  1
  O2-  O128  1  0.75312850  0.00658718  0.72682009  1
  O2-  O129  1  0.74416964  0.50634048  0.05847878  1
  O2-  O130  1  0.75329639  0.50583678  0.39024291  1
  O2-  O131  1  0.74653592  0.49968998  0.73274276  1
  O2-  O132  1  0.00210553  0.24419645  0.27016237  1
  O2-  O133  1  -0.00572830  0.24992615  0.60808671  1
  O2-  O134  1  -0.00104685  0.24960790  0.94298775  1
  O2-  O135  1  0.00325899  0.75253991  0.27619465  1
  O2-  O136  1  -0.00639269  0.75087311  0.60390506  1
  O2-  O137  1  -0.00248704  0.75633096  0.93876667  1
  O2-  O138  1  0.49793647  0.24881761  0.26992505  1
  O2-  O139  1  0.51250458  0.25451162  0.60720247  1
  O2-  O140  1  0.49885431  0.24940332  0.93378269  1
  O2-  O141  1  0.50146567  0.75825554  0.27499095  1
  O2-  O142  1  0.50535686  0.74828341  0.60454548  1
  O2-  O143  1  0.50340811  0.75137927  0.93524493  1
  O2-  O144  1  0.06572731  0.18064477  0.09359669  1
  O2-  O145  1  0.06985974  0.17729961  0.42024638  1
  O2-  O146  1  0.07177885  0.17798996  0.76741196  1
  O2-  O147  1  0.06746025  0.68047286  0.09990908  1
  O2-  O148  1  0.07016532  0.67621438  0.42224259  1
  O2-  O149  1  0.06858558  0.67749943  0.76406420  1
  O2-  O150  1  0.57389774  0.18090275  0.09715410  1
  O2-  O151  1  0.57077274  0.17983984  0.43364625  1
  O2-  O152  1  0.57109694  0.17709883  0.75631952  1
  O2-  O153  1  0.57427008  0.67872744  0.09688646  1
  O2-  O154  1  0.57112920  0.68069000  0.43609123  1
  O2-  O155  1  0.57124308  0.68203874  0.75582363  1
  O2-  O156  1  0.17343153  0.43487844  0.24354412  1
  O2-  O157  1  0.18286073  0.43051042  0.56498623  1
  O2-  O158  1  0.17626889  0.42855840  0.90262521  1
  O2-  O159  1  0.18034148  0.92581662  0.23566361  1
  O2-  O160  1  0.17791933  0.92826613  0.57674269  1
  O2-  O161  1  0.17498641  0.92804698  0.90708557  1
  O2-  O162  1  0.67989778  0.43297468  0.23065877  1
  O2-  O163  1  0.67645254  0.42684452  0.56927331  1
  O2-  O164  1  0.68146453  0.43037069  0.91012959  1
  O2-  O165  1  0.68544143  0.92545392  0.23286843  1
  O2-  O166  1  0.67920972  0.93046214  0.56946485  1
  O2-  O167  1  0.68125750  0.92945554  0.91139983  1
  O2-  O168  1  0.42682613  0.31766635  0.09767633  1
  O2-  O169  1  0.42891647  0.32462781  0.43162189  1
  O2-  O170  1  0.42535618  0.31502849  0.76575024  1
  O2-  O171  1  0.43114952  0.82007582  0.10106632  1
  O2-  O172  1  0.42650604  0.81719265  0.42411005  1
  O2-  O173  1  0.42927550  0.82369136  0.76268393  1
  O2-  O174  1  0.92878773  0.32280785  0.08892098  1
  O2-  O175  1  0.93342383  0.32110891  0.43302278  1
  O2-  O176  1  0.92800781  0.32018448  0.75700218  1
  O2-  O177  1  0.92879070  0.82355386  0.08879330  1
  O2-  O178  1  0.92746286  0.82014164  0.42273916  1
  O2-  O179  1  0.93232211  0.82515074  0.75483085  1
  O2-  O180  1  0.32134836  0.07021175  0.23831934  1
  O2-  O181  1  0.31653813  0.06924095  0.57789978  1
  O2-  O182  1  0.31668257  0.07095918  0.89989816  1
  O2-  O183  1  0.31779803  0.57472282  0.24308366  1
  O2-  O184  1  0.31974725  0.57544739  0.57712262  1
  O2-  O185  1  0.31783828  0.57621372  0.91094810  1
  O2-  O186  1  0.82472569  0.07094360  0.24533500  1
  O2-  O187  1  0.82718714  0.06939563  0.57633095  1
  O2-  O188  1  0.82546554  0.06919917  0.90119638  1
  O2-  O189  1  0.82709155  0.57187763  0.24197276  1
  O2-  O190  1  0.82004869  0.56728373  0.56814147  1
  O2-  O191  1  0.82530102  0.56658770  0.91216675  1
  O2-  O192  1  0.04738473  0.08096903  0.27030413  1
  O2-  O193  1  0.04349445  0.08120363  0.59711151  1
  O2-  O194  1  0.04159584  0.08682139  0.94153951  1
  O2-  O195  1  0.04233073  0.58921626  0.26733450  1
  O2-  O196  1  0.03770306  0.58017764  0.59703966  1
  O2-  O197  1  0.03310349  0.58322249  0.93387524  1
  O2-  O198  1  0.54368404  0.07780427  0.26838834  1
  O2-  O199  1  0.53987097  0.08814018  0.60458578  1
  O2-  O200  1  0.54679843  0.08000504  0.93277196  1
  O2-  O201  1  0.53719995  0.58762394  0.26635467  1
  O2-  O202  1  0.54814236  0.58582331  0.60593599  1
  O2-  O203  1  0.54453941  0.58043152  0.92781399  1
  O2-  O204  1  0.16426154  0.20329861  0.26930037  1
  O2-  O205  1  0.16479644  0.21241397  0.59587538  1
  O2-  O206  1  0.16048150  0.20698584  0.94246350  1
  O2-  O207  1  0.16467446  0.70569105  0.27036654  1
  O2-  O208  1  0.16415680  0.70843203  0.59461886  1
  O2-  O209  1  0.16501748  0.70398958  0.92888271  1
  O2-  O210  1  0.67043235  0.20379886  0.26807289  1
  O2-  O211  1  0.67098263  0.19440368  0.60831257  1
  O2-  O212  1  0.67084905  0.20904856  0.93016145  1
  O2-  O213  1  0.67101782  0.70727522  0.26877935  1
  O2-  O214  1  0.66878627  0.70626756  0.60827730  1
  O2-  O215  1  0.67450985  0.70115801  0.93137897  1
  O2-  O216  1  0.08251967  0.46415465  0.07011092  1
  O2-  O217  1  0.08710840  0.46448737  0.39697166  1
  O2-  O218  1  0.08517912  0.45670469  0.73194332  1
  O2-  O219  1  0.08528528  0.95224726  0.06113120  1
  O2-  O220  1  0.07955511  0.95255646  0.40289384  1
  O2-  O221  1  0.08478256  0.95277710  0.72766335  1
  O2-  O222  1  0.58276358  0.45549917  0.05877626  1
  O2-  O223  1  0.58193904  0.46247693  0.39773279  1
  O2-  O224  1  0.57681205  0.45554108  0.73692957  1
  O2-  O225  1  0.58548116  0.95113782  0.06266227  1
  O2-  O226  1  0.58390197  0.95463379  0.40122389  1
  O2-  O227  1  0.58163651  0.96395553  0.73695028  1
  O2-  O228  1  0.20482186  0.33316628  0.07303858  1
  O2-  O229  1  0.19630763  0.33599064  0.39288905  1
  O2-  O230  1  0.21387255  0.33181720  0.73162594  1
  O2-  O231  1  0.19914371  0.82918453  0.05607405  1
  O2-  O232  1  0.20596302  0.82763967  0.40261223  1
  O2-  O233  1  0.20579409  0.83382924  0.72576068  1
  O2-  O234  1  0.71034177  0.34091403  0.06191530  1
  O2-  O235  1  0.71147992  0.33475448  0.39834989  1
  O2-  O236  1  0.70525448  0.32822179  0.73685380  1
  O2-  O237  1  0.70811873  0.83390318  0.06098360  1
  O2-  O238  1  0.71720717  0.83383293  0.40127099  1
  O2-  O239  1  0.70858842  0.83642371  0.73980632  1
  O2-  O240  1  0.45401008  0.42082819  0.26395922  1
  O2-  O241  1  0.45226305  0.42259483  0.60311086  1
  O2-  O242  1  0.44746458  0.41880316  0.93238189  1
  O2-  O243  1  0.44849296  0.91775236  0.27802581  1
  O2-  O244  1  0.46153552  0.92001640  0.59707620  1
  O2-  O245  1  0.45768198  0.91895718  0.93244343  1
  O2-  O246  1  0.96392176  0.41589837  0.26281475  1
  O2-  O247  1  0.95562349  0.41266258  0.60437615  1
  O2-  O248  1  0.95831140  0.41265917  0.93669728  1
  O2-  O249  1  0.95627430  0.91424051  0.27046497  1
  O2-  O250  1  0.95435682  0.91309426  0.59941207  1
  O2-  O251  1  0.95321813  0.91906951  0.93774411  1
  O2-  O252  1  0.32578453  0.29700496  0.26876429  1
  O2-  O253  1  0.33739428  0.28509261  0.59641362  1
  O2-  O254  1  0.32535973  0.28654711  0.93539930  1
  O2-  O255  1  0.33583789  0.79052758  0.27186523  1
  O2-  O256  1  0.33439254  0.79300800  0.59331334  1
  O2-  O257  1  0.33231099  0.79299138  0.93192072  1
  O2-  O258  1  0.83445529  0.29290927  0.26345913  1
  O2-  O259  1  0.83283353  0.29600641  0.60521769  1
  O2-  O260  1  0.83745693  0.29461279  0.93551683  1
  O2-  O261  1  0.84101870  0.79180520  0.26591848  1
  O2-  O262  1  0.83184415  0.79688560  0.60724301  1
  O2-  O263  1  0.83591889  0.79916046  0.93587089  1
  O2-  O264  1  0.41879571  0.04032651  0.06713291  1
  O2-  O265  1  0.41901706  0.04540296  0.40782386  1
  O2-  O266  1  0.40987585  0.04285028  0.72943344  1
  O2-  O267  1  0.41762561  0.55114127  0.05983229  1
  O2-  O268  1  0.41234574  0.54482192  0.39649892  1
  O2-  O269  1  0.41623019  0.55643773  0.72846853  1
  O2-  O270  1  0.91629505  0.04144975  0.07289634  1
  O2-  O271  1  0.91607881  0.04570205  0.39688948  1
  O2-  O272  1  0.91794075  0.04061632  0.72846450  1
  O2-  O273  1  0.90981926  0.53777204  0.06731835  1
  O2-  O274  1  0.91759359  0.54323459  0.39371712  1
  O2-  O275  1  0.91762278  0.53693744  0.73661323  1
  O2-  O276  1  0.28512558  0.16145429  0.07194161  1
  O2-  O277  1  0.28897938  0.17075721  0.40457422  1
  O2-  O278  1  0.28639436  0.16068744  0.72889527  1
  O2-  O279  1  0.29101083  0.66510997  0.06416295  1
  O2-  O280  1  0.29063786  0.66039992  0.39826312  1
  O2-  O281  1  0.29189673  0.66967656  0.72697767  1
  O2-  O282  1  0.79284558  0.17084083  0.06713180  1
  O2-  O283  1  0.80186744  0.16865134  0.39551802  1
  O2-  O284  1  0.80592541  0.16577981  0.72798325  1
  O2-  O285  1  0.80156045  0.66646945  0.06095311  1
  O2-  O286  1  0.80396678  0.66677242  0.39339968  1
  O2-  O287  1  0.79897600  0.66856907  0.73738203  1
