# generated using pymatgen
data_Ca2Al2SiO7
_symmetry_space_group_name_H-M   'P 1'
_cell_length_a   15.45938772
_cell_length_b   15.45970171
_cell_length_c   15.28489562
_cell_angle_alpha   90.00357899
_cell_angle_beta   90.01289536
_cell_angle_gamma   89.98152174
_symmetry_Int_Tables_number   1
_chemical_formula_structural   Ca2Al2SiO7
_chemical_formula_sum   'Ca48 Al48 Si24 O168'
_cell_volume   3653.05189924
_cell_formula_units_Z   24
loop_
 _symmetry_equiv_pos_site_id
 _symmetry_equiv_pos_as_xyz
  1  'x, y, z'
loop_
 _atom_type_symbol
 _atom_type_oxidation_number
  Ca2+  2.0
  Al0+  0.0
  Si0+  0.0
  O2-  -2.0
loop_
 _atom_site_type_symbol
 _atom_site_label
 _atom_site_symmetry_multiplicity
 _atom_site_fract_x
 _atom_site_fract_y
 _atom_site_fract_z
 _atom_site_occupancy
  Ca2+  Ca0  1  0.16088129  0.07199494  0.16972807  1
  Ca2+  Ca1  1  0.16728662  0.06870104  0.50595190  1
  Ca2+  Ca2  1  0.16126819  0.07059226  0.84329393  1
  Ca2+  Ca3  1  0.16871568  0.58150799  0.17694400  1
  Ca2+  Ca4  1  0.16733605  0.58768078  0.49621576  1
  Ca2+  Ca5  1  0.16372977  0.58802102  0.83839813  1
  Ca2+  Ca6  1  0.66996469  0.09436591  0.16829784  1
  Ca2+  Ca7  1  0.66439342  0.08539541  0.50292546  1
  Ca2+  Ca8  1  0.67022503  0.08830910  0.84128789  1
  Ca2+  Ca9  1  0.66793831  0.57079377  0.17368632  1
  Ca2+  Ca10  1  0.65781548  0.57935583  0.50367573  1
  Ca2+  Ca11  1  0.67467838  0.58172797  0.84562478  1
  Ca2+  Ca12  1  0.07444545  0.33492790  0.15886394  1
  Ca2+  Ca13  1  0.07662034  0.33683520  0.48919514  1
  Ca2+  Ca14  1  0.07682293  0.32862940  0.83502833  1
  Ca2+  Ca15  1  0.09366828  0.82343859  0.16213401  1
  Ca2+  Ca16  1  0.08821658  0.82769994  0.49708872  1
  Ca2+  Ca17  1  0.08125703  0.82749180  0.82917876  1
  Ca2+  Ca18  1  0.58572044  0.33002163  0.16011035  1
  Ca2+  Ca19  1  0.58889041  0.32298024  0.49240545  1
  Ca2+  Ca20  1  0.58766014  0.32707876  0.83760829  1
  Ca2+  Ca21  1  0.56938265  0.82841250  0.16405658  1
  Ca2+  Ca22  1  0.57875989  0.81903008  0.48915699  1
  Ca2+  Ca23  1  0.57702909  0.83084442  0.82805671  1
  Ca2+  Ca24  1  0.32938888  0.42141014  0.17635011  1
  Ca2+  Ca25  1  0.33012040  0.42301893  0.49818579  1
  Ca2+  Ca26  1  0.33445236  0.41824468  0.84024883  1
  Ca2+  Ca27  1  0.32706857  0.90989170  0.17104116  1
  Ca2+  Ca28  1  0.32414948  0.90590156  0.49912362  1
  Ca2+  Ca29  1  0.32268978  0.91191508  0.84064877  1
  Ca2+  Ca30  1  0.82916533  0.41419635  0.16786740  1
  Ca2+  Ca31  1  0.83031464  0.41689149  0.49668596  1
  Ca2+  Ca32  1  0.82814090  0.42328635  0.84749979  1
  Ca2+  Ca33  1  0.83411983  0.92654684  0.16737568  1
  Ca2+  Ca34  1  0.83378613  0.91573478  0.50617025  1
  Ca2+  Ca35  1  0.83351026  0.92013461  0.84045136  1
  Ca2+  Ca36  1  0.42742895  0.17362284  0.15725069  1
  Ca2+  Ca37  1  0.42804260  0.16423592  0.49440965  1
  Ca2+  Ca38  1  0.42592822  0.17220568  0.83321941  1
  Ca2+  Ca39  1  0.40993214  0.67397255  0.16663523  1
  Ca2+  Ca40  1  0.42248039  0.66853370  0.49068025  1
  Ca2+  Ca41  1  0.42247014  0.67216041  0.83232064  1
  Ca2+  Ca42  1  0.91908847  0.17730697  0.15837670  1
  Ca2+  Ca43  1  0.91884866  0.17482492  0.49225874  1
  Ca2+  Ca44  1  0.91530640  0.16695783  0.84017027  1
  Ca2+  Ca45  1  0.92944806  0.65993375  0.16117581  1
  Ca2+  Ca46  1  0.92741037  0.67288110  0.49669165  1
  Ca2+  Ca47  1  0.92575636  0.66749079  0.82815109  1
  Al0+  Al48  1  -0.00116293  -0.00187024  0.00754326  1
  Al0+  Al49  1  -0.00051284  0.00112904  0.34023789  1
  Al0+  Al50  1  -0.00094617  0.00163633  0.66859960  1
  Al0+  Al51  1  0.00120180  0.49996536  -0.00591813  1
  Al0+  Al52  1  -0.00273652  0.50111668  0.33045335  1
  Al0+  Al53  1  -0.00026160  0.50016139  0.66333447  1
  Al0+  Al54  1  0.49765610  -0.00070493  -0.00898289  1
  Al0+  Al55  1  0.50213346  -0.00091465  0.32577575  1
  Al0+  Al56  1  0.49921597  0.00198968  0.66364433  1
  Al0+  Al57  1  0.49980991  0.50096699  0.00093145  1
  Al0+  Al58  1  0.50121870  0.49743390  0.34075781  1
  Al0+  Al59  1  0.49759047  0.49810957  0.66661762  1
  Al0+  Al60  1  0.25082072  0.24797471  -0.00800925  1
  Al0+  Al61  1  0.25050435  0.24695188  0.33985721  1
  Al0+  Al62  1  0.24980985  0.25087767  0.66751139  1
  Al0+  Al63  1  0.25012083  0.74949056  -0.00558598  1
  Al0+  Al64  1  0.24940220  0.74985368  0.33554294  1
  Al0+  Al65  1  0.25006294  0.74849366  0.66947134  1
  Al0+  Al66  1  0.75084969  0.25030350  -0.00028817  1
  Al0+  Al67  1  0.75258794  0.25166055  0.33160711  1
  Al0+  Al68  1  0.74938760  0.25063589  0.66359224  1
  Al0+  Al69  1  0.75186973  0.75084621  0.00858477  1
  Al0+  Al70  1  0.75120160  0.75122410  0.32852848  1
  Al0+  Al71  1  0.75071022  0.74978733  0.66119771  1
  Al0+  Al72  1  0.92963084  0.32090053  0.98338884  1
  Al0+  Al73  1  0.92933027  0.82364986  0.65282756  1
  Al0+  Al74  1  0.42874970  0.81978766  0.98420401  1
  Al0+  Al75  1  0.68110452  0.42928483  0.34915078  1
  Al0+  Al76  1  0.81860748  0.06945617  0.01445658  1
  Al0+  Al77  1  0.18034213  0.92960989  0.68335459  1
  Al0+  Al78  1  0.67884988  0.43083605  0.01496717  1
  Al0+  Al79  1  0.17571248  0.42724309  0.34637230  1
  Al0+  Al80  1  0.07008223  0.67987518  0.98673507  1
  Al0+  Al81  1  0.57335426  0.67397978  0.31666454  1
  Al0+  Al82  1  0.18085570  0.92881736  0.01475346  1
  Al0+  Al83  1  0.32048748  0.57064990  0.34877903  1
  Al0+  Al84  1  0.42762490  0.32473128  0.98626828  1
  Al0+  Al85  1  0.57086440  0.67845071  0.65566471  1
  Al0+  Al86  1  0.17996833  0.93024984  0.34814948  1
  Al0+  Al87  1  0.57039041  0.18147043  0.65149660  1
  Al0+  Al88  1  0.93169618  0.32054710  0.31912059  1
  Al0+  Al89  1  0.42891975  0.81864284  0.31873705  1
  Al0+  Al90  1  0.06850690  0.68266774  0.31909008  1
  Al0+  Al91  1  0.57101995  0.18009766  0.31873772  1
  Al0+  Al92  1  0.07215667  0.67856581  0.64912018  1
  Al0+  Al93  1  0.57189695  0.17982112  0.98457705  1
  Al0+  Al94  1  0.82523208  0.57305478  0.01552924  1
  Al0+  Al95  1  0.07119319  0.17520807  0.98654674  1
  Si0+  Si96  1  0.82069216  0.57059401  0.67988800  1
  Si0+  Si97  1  0.57370115  0.67907189  0.98606995  1
  Si0+  Si98  1  0.42843231  0.82172419  0.65034905  1
  Si0+  Si99  1  0.42566090  0.32087102  0.31974248  1
  Si0+  Si100  1  0.67864031  0.92839587  0.34800192  1
  Si0+  Si101  1  0.32084600  0.56910158  0.68449604  1
  Si0+  Si102  1  0.81914966  0.07300867  0.68141466  1
  Si0+  Si103  1  0.32627685  0.07130283  0.34953395  1
  Si0+  Si104  1  0.92650575  0.82292722  0.98654543  1
  Si0+  Si105  1  0.07174846  0.17907905  0.65164722  1
  Si0+  Si106  1  0.17661630  0.42817685  0.68358756  1
  Si0+  Si107  1  0.82197640  0.57503476  0.35214462  1
  Si0+  Si108  1  0.92974851  0.32035193  0.65072477  1
  Si0+  Si109  1  0.92711932  0.82656813  0.31481782  1
  Si0+  Si110  1  0.32002533  0.57062233  0.01298724  1
  Si0+  Si111  1  0.67325371  0.92683018  0.01704576  1
  Si0+  Si112  1  0.32322400  0.07454287  0.68537702  1
  Si0+  Si113  1  0.32310648  0.07297039  0.01563258  1
  Si0+  Si114  1  0.67913628  0.42815838  0.68185013  1
  Si0+  Si115  1  0.07351724  0.17584414  0.31992595  1
  Si0+  Si116  1  0.42505275  0.32236741  0.64705943  1
  Si0+  Si117  1  0.67875606  0.92820230  0.67895901  1
  Si0+  Si118  1  0.81908208  0.07096317  0.35043492  1
  Si0+  Si119  1  0.17997712  0.42660968  0.01107751  1
  O2-  O120  1  0.25381744  0.00583566  0.06113716  1
  O2-  O121  1  0.25570454  0.00469156  0.39464622  1
  O2-  O122  1  0.25500075  0.00533305  0.72944322  1
  O2-  O123  1  0.25315131  0.49496726  0.05317730  1
  O2-  O124  1  0.24778406  0.49818262  0.39879156  1
  O2-  O125  1  0.24762683  0.49934514  0.72587814  1
  O2-  O126  1  0.74021893  -0.00219846  0.06082750  1
  O2-  O127  1  0.74982192  -0.00152510  0.39290327  1
  O2-  O128  1  0.74923422  -0.00027362  0.72199884  1
  O2-  O129  1  0.75088779  0.50310084  0.06466314  1
  O2-  O130  1  0.74915447  0.51039963  0.39714806  1
  O2-  O131  1  0.74675375  0.50274212  0.72274390  1
  O2-  O132  1  0.01308465  0.25140990  0.27618806  1
  O2-  O133  1  0.00289061  0.25160966  0.60819678  1
  O2-  O134  1  0.00099081  0.24775348  0.93362062  1
  O2-  O135  1  -0.00494376  0.75776656  0.27092757  1
  O2-  O136  1  0.00315228  0.75470681  0.60130317  1
  O2-  O137  1  -0.00879345  0.75121654  0.94195556  1
  O2-  O138  1  0.49432270  0.25326743  0.27465681  1
  O2-  O139  1  0.49413509  0.25388546  0.60380539  1
  O2-  O140  1  0.50025896  0.25313060  0.93590871  1
  O2-  O141  1  0.49854327  0.74399942  0.26857318  1
  O2-  O142  1  0.49899848  0.75497218  0.60739922  1
  O2-  O143  1  0.50908207  0.75003931  0.93912340  1
  O2-  O144  1  0.07013464  0.17726584  0.10016097  1
  O2-  O145  1  0.06794654  0.17335527  0.42616092  1
  O2-  O146  1  0.06970843  0.17913974  0.75639004  1
  O2-  O147  1  0.07390631  0.68020561  0.09958171  1
  O2-  O148  1  0.06784620  0.68419246  0.43212464  1
  O2-  O149  1  0.06898132  0.67673757  0.76262753  1
  O2-  O150  1  0.57042682  0.18119975  0.09798805  1
  O2-  O151  1  0.57115698  0.18004215  0.43240066  1
  O2-  O152  1  0.57330969  0.18352042  0.76373921  1
  O2-  O153  1  0.57005544  0.67864475  0.09103273  1
  O2-  O154  1  0.57204321  0.67831924  0.43099841  1
  O2-  O155  1  0.57049093  0.68075191  0.76899257  1
  O2-  O156  1  0.17746927  0.42751692  0.23251722  1
  O2-  O157  1  0.17626267  0.42608664  0.57883042  1
  O2-  O158  1  0.18007689  0.42926671  0.90543026  1
  O2-  O159  1  0.17918156  0.93082328  0.23538383  1
  O2-  O160  1  0.18230384  0.93047515  0.57007879  1
  O2-  O161  1  0.18111821  0.92819897  0.90138302  1
  O2-  O162  1  0.68423992  0.42563501  0.23692932  1
  O2-  O163  1  0.68205705  0.42604582  0.57675423  1
  O2-  O164  1  0.67986881  0.43380870  0.90019603  1
  O2-  O165  1  0.67958669  0.92968752  0.24326570  1
  O2-  O166  1  0.67974808  0.92947229  0.57380258  1
  O2-  O167  1  0.67584877  0.92424957  0.91084067  1
  O2-  O168  1  0.42532254  0.32391278  0.09971730  1
  O2-  O169  1  0.42620706  0.31809072  0.42564150  1
  O2-  O170  1  0.42451331  0.32320841  0.75231179  1
  O2-  O171  1  0.42620380  0.81677753  0.09669948  1
  O2-  O172  1  0.43188602  0.81923501  0.43285475  1
  O2-  O173  1  0.42951293  0.82030880  0.75607538  1
  O2-  O174  1  0.93175458  0.32057885  0.09664632  1
  O2-  O175  1  0.92993423  0.31661321  0.43337054  1
  O2-  O176  1  0.92879576  0.32009776  0.75527911  1
  O2-  O177  1  0.92858532  0.82525064  0.09188273  1
  O2-  O178  1  0.92698742  0.82696738  0.42058095  1
  O2-  O179  1  0.92706195  0.82232298  0.76639953  1
  O2-  O180  1  0.32587217  0.07279884  0.24436046  1
  O2-  O181  1  0.32227786  0.07578519  0.57969885  1
  O2-  O182  1  0.32273486  0.07058903  0.90987252  1
  O2-  O183  1  0.31787125  0.57017136  0.23474735  1
  O2-  O184  1  0.32292059  0.56809171  0.57992806  1
  O2-  O185  1  0.31939995  0.57131898  0.90738328  1
  O2-  O186  1  0.81953817  0.07064990  0.24569018  1
  O2-  O187  1  0.81791463  0.07567814  0.57614734  1
  O2-  O188  1  0.81822882  0.06647755  0.90052631  1
  O2-  O189  1  0.82397008  0.57229816  0.24706737  1
  O2-  O190  1  0.82186836  0.56789411  0.57495317  1
  O2-  O191  1  0.82269393  0.57311380  0.90066633  1
  O2-  O192  1  0.03931811  0.08525547  0.27338797  1
  O2-  O193  1  0.04125802  0.08859700  0.60364245  1
  O2-  O194  1  0.03710382  0.07755690  0.93481247  1
  O2-  O195  1  0.03806662  0.58579286  0.26623488  1
  O2-  O196  1  0.04081087  0.58058079  0.59647851  1
  O2-  O197  1  0.04299609  0.58392776  0.92964891  1
  O2-  O198  1  0.54561104  0.08329293  0.26397244  1
  O2-  O199  1  0.54239981  0.08332330  0.59758392  1
  O2-  O200  1  0.54459629  0.08186984  0.92957159  1
  O2-  O201  1  0.54877372  0.57252039  0.27022482  1
  O2-  O202  1  0.53850679  0.58159944  0.60314181  1
  O2-  O203  1  0.54521311  0.58725567  0.93824360  1
  O2-  O204  1  0.17092764  0.19039410  0.27934030  1
  O2-  O205  1  0.16478866  0.20408120  0.60566218  1
  O2-  O206  1  0.16884151  0.19976449  0.93039930  1
  O2-  O207  1  0.16574503  0.71192504  0.26710178  1
  O2-  O208  1  0.17256648  0.70466000  0.59997237  1
  O2-  O209  1  0.16392217  0.71350352  0.92944128  1
  O2-  O210  1  0.66734078  0.21323569  0.26750799  1
  O2-  O211  1  0.66650587  0.21385584  0.59604328  1
  O2-  O212  1  0.66961858  0.20853751  0.93084360  1
  O2-  O213  1  0.67138799  0.70450112  0.26495469  1
  O2-  O214  1  0.66680821  0.70572319  0.59951527  1
  O2-  O215  1  0.66984089  0.70204487  0.94351374  1
  O2-  O216  1  0.08891767  0.45677472  0.05726377  1
  O2-  O217  1  0.07735057  0.45754562  0.39930745  1
  O2-  O218  1  0.08412049  0.45628007  0.73000903  1
  O2-  O219  1  0.08449265  0.95652012  0.07018928  1
  O2-  O220  1  0.08389485  0.96203537  0.40471126  1
  O2-  O221  1  0.08243745  0.96187736  0.73462195  1
  O2-  O222  1  0.57993099  0.45807177  0.06799648  1
  O2-  O223  1  0.58344660  0.45094167  0.40607343  1
  O2-  O224  1  0.58462504  0.45026882  0.72589380  1
  O2-  O225  1  0.57788951  0.95091755  0.05916224  1
  O2-  O226  1  0.58703799  0.95717198  0.39538946  1
  O2-  O227  1  0.58573372  0.95489710  0.72509623  1
  O2-  O228  1  0.20337924  0.33292687  0.05602113  1
  O2-  O229  1  0.20093501  0.32787420  0.40168141  1
  O2-  O230  1  0.20425114  0.33596597  0.73105616  1
  O2-  O231  1  0.21712819  0.83237098  0.06571185  1
  O2-  O232  1  0.21190853  0.83491174  0.40337736  1
  O2-  O233  1  0.21071718  0.83197636  0.73605286  1
  O2-  O234  1  0.70721191  0.33198884  0.06531696  1
  O2-  O235  1  0.72057471  0.33472718  0.40431685  1
  O2-  O236  1  0.71221569  0.33780897  0.72906281  1
  O2-  O237  1  0.69959550  0.83524014  0.06671766  1
  O2-  O238  1  0.70624567  0.83605296  0.39549604  1
  O2-  O239  1  0.70656395  0.83653599  0.72692932  1
  O2-  O240  1  0.44978715  0.41551060  0.27727865  1
  O2-  O241  1  0.45071905  0.41602690  0.60174324  1
  O2-  O242  1  0.45556641  0.42304313  0.93123158  1
  O2-  O243  1  0.45922836  0.91532666  0.26378186  1
  O2-  O244  1  0.44922812  0.91676541  0.60580573  1
  O2-  O245  1  0.45366824  0.91615400  0.92712855  1
  O2-  O246  1  0.95467929  0.41820245  0.26559115  1
  O2-  O247  1  0.95621476  0.41194266  0.60257887  1
  O2-  O248  1  0.96046526  0.41704716  0.92725095  1
  O2-  O249  1  0.95332006  0.92152189  0.27213202  1
  O2-  O250  1  0.95228414  0.92435508  0.60094880  1
  O2-  O251  1  0.95545372  0.91475560  0.93931761  1
  O2-  O252  1  0.33114455  0.29641882  0.27469072  1
  O2-  O253  1  0.33071713  0.29771957  0.60143551  1
  O2-  O254  1  0.33141717  0.29572023  0.92820941  1
  O2-  O255  1  0.33041442  0.79089826  0.26673079  1
  O2-  O256  1  0.33583071  0.79167508  0.60583398  1
  O2-  O257  1  0.33647456  0.78189295  0.92675502  1
  O2-  O258  1  0.83894420  0.28209760  0.26479176  1
  O2-  O259  1  0.83933131  0.28926111  0.60235351  1
  O2-  O260  1  0.83215180  0.29140888  0.92997427  1
  O2-  O261  1  0.83310846  0.80482730  0.26873750  1
  O2-  O262  1  0.83233208  0.79402186  0.59694561  1
  O2-  O263  1  0.83025612  0.80323181  0.94238352  1
  O2-  O264  1  0.41737574  0.04634045  0.05975135  1
  O2-  O265  1  0.41990662  0.04275464  0.39520740  1
  O2-  O266  1  0.41815437  0.04965279  0.72978456  1
  O2-  O267  1  0.41254337  0.54847296  0.06062969  1
  O2-  O268  1  0.41791254  0.54212357  0.40475039  1
  O2-  O269  1  0.41164845  0.53866115  0.73389117  1
  O2-  O270  1  0.91255011  0.03667972  0.07246671  1
  O2-  O271  1  0.91055818  0.04515410  0.40068681  1
  O2-  O272  1  0.91143943  0.04858408  0.72901102  1
  O2-  O273  1  0.92342919  0.54022377  0.06604794  1
  O2-  O274  1  0.91307205  0.54308574  0.40013760  1
  O2-  O275  1  0.91194598  0.53956333  0.72724152  1
  O2-  O276  1  0.30001587  0.16805827  0.05982823  1
  O2-  O277  1  0.30443525  0.16441796  0.39941250  1
  O2-  O278  1  0.29830005  0.16896861  0.73066912  1
  O2-  O279  1  0.28670700  0.66040933  0.05981624  1
  O2-  O280  1  0.29081440  0.66773872  0.40365828  1
  O2-  O281  1  0.29522605  0.66127317  0.73240343  1
  O2-  O282  1  0.79071581  0.16667772  0.06789292  1
  O2-  O283  1  0.78932191  0.16167974  0.39872969  1
  O2-  O284  1  0.78802213  0.16387990  0.72917170  1
  O2-  O285  1  0.80419166  0.67250029  0.06946473  1
  O2-  O286  1  0.80219849  0.67164143  0.39517588  1
  O2-  O287  1  0.79541513  0.66375125  0.72580889  1
