# generated using pymatgen
data_Ca2Al2SiO7
_symmetry_space_group_name_H-M   'P 1'
_cell_length_a   15.45457933
_cell_length_b   15.45520627
_cell_length_c   15.28047193
_cell_angle_alpha   89.99888357
_cell_angle_beta   90.01649937
_cell_angle_gamma   89.98641515
_symmetry_Int_Tables_number   1
_chemical_formula_structural   Ca2Al2SiO7
_chemical_formula_sum   'Ca48 Al48 Si24 O168'
_cell_volume   3649.79717643
_cell_formula_units_Z   24
loop_
 _symmetry_equiv_pos_site_id
 _symmetry_equiv_pos_as_xyz
  1  'x, y, z'
loop_
 _atom_type_symbol
 _atom_type_oxidation_number
  Ca2+  2.0
  Al0+  0.0
  Si0+  0.0
  O2-  -2.0
loop_
 _atom_site_type_symbol
 _atom_site_label
 _atom_site_symmetry_multiplicity
 _atom_site_fract_x
 _atom_site_fract_y
 _atom_site_fract_z
 _atom_site_occupancy
  Ca2+  Ca0  1  0.16903032  0.09301587  0.16752956  1
  Ca2+  Ca1  1  0.16196989  0.08018340  0.50889262  1
  Ca2+  Ca2  1  0.16989817  0.08244486  0.83924532  1
  Ca2+  Ca3  1  0.17105942  0.58797107  0.17355872  1
  Ca2+  Ca4  1  0.16801513  0.58251794  0.50722599  1
  Ca2+  Ca5  1  0.16134057  0.57908394  0.83425521  1
  Ca2+  Ca6  1  0.66742900  0.07607061  0.16837315  1
  Ca2+  Ca7  1  0.66693146  0.07600575  0.50721671  1
  Ca2+  Ca8  1  0.66383803  0.07761443  0.84322802  1
  Ca2+  Ca9  1  0.66593869  0.57965307  0.17562845  1
  Ca2+  Ca10  1  0.66930646  0.56978425  0.50464976  1
  Ca2+  Ca11  1  0.66206142  0.57838927  0.83590521  1
  Ca2+  Ca12  1  0.07766722  0.32494493  0.16530900  1
  Ca2+  Ca13  1  0.08517229  0.32349218  0.49444748  1
  Ca2+  Ca14  1  0.08611142  0.32109878  0.82532671  1
  Ca2+  Ca15  1  0.07905766  0.82379164  0.16519431  1
  Ca2+  Ca16  1  0.08229128  0.82546465  0.49259672  1
  Ca2+  Ca17  1  0.09020113  0.82346220  0.82477502  1
  Ca2+  Ca18  1  0.57816154  0.33341895  0.16243941  1
  Ca2+  Ca19  1  0.57960593  0.33596546  0.49637456  1
  Ca2+  Ca20  1  0.57980099  0.31952689  0.82252555  1
  Ca2+  Ca21  1  0.58936946  0.83064003  0.16025406  1
  Ca2+  Ca22  1  0.57921062  0.84139912  0.49890705  1
  Ca2+  Ca23  1  0.58197705  0.83674540  0.82805990  1
  Ca2+  Ca24  1  0.33394482  0.42415539  0.17724120  1
  Ca2+  Ca25  1  0.33397380  0.42004206  0.50470017  1
  Ca2+  Ca26  1  0.32722784  0.40739579  0.83061779  1
  Ca2+  Ca27  1  0.33415326  0.92729591  0.16771978  1
  Ca2+  Ca28  1  0.32619945  0.91784577  0.50999680  1
  Ca2+  Ca29  1  0.33111288  0.92008489  0.83388778  1
  Ca2+  Ca30  1  0.82700081  0.41406649  0.17503127  1
  Ca2+  Ca31  1  0.82558364  0.40735827  0.50261686  1
  Ca2+  Ca32  1  0.82741796  0.41488060  0.83348501  1
  Ca2+  Ca33  1  0.82687595  0.91761442  0.17128339  1
  Ca2+  Ca34  1  0.82458366  0.91029049  0.50377263  1
  Ca2+  Ca35  1  0.82184861  0.92459294  0.84114271  1
  Ca2+  Ca36  1  0.42001885  0.17241225  0.16052787  1
  Ca2+  Ca37  1  0.42039548  0.18095702  0.50008931  1
  Ca2+  Ca38  1  0.42632747  0.16316661  0.82726599  1
  Ca2+  Ca39  1  0.42278599  0.66666757  0.16248127  1
  Ca2+  Ca40  1  0.41223988  0.67247644  0.49821307  1
  Ca2+  Ca41  1  0.42324458  0.67545239  0.82919760  1
  Ca2+  Ca42  1  0.92171207  0.16643027  0.16403301  1
  Ca2+  Ca43  1  0.92871234  0.16926758  0.49360837  1
  Ca2+  Ca44  1  0.92462963  0.15819570  0.83203332  1
  Ca2+  Ca45  1  0.92338164  0.67022712  0.16350868  1
  Ca2+  Ca46  1  0.92856845  0.67065750  0.49313378  1
  Ca2+  Ca47  1  0.92666366  0.66874915  0.82868210  1
  Al0+  Al48  1  -0.00182197  -0.00082364  0.00061366  1
  Al0+  Al49  1  0.00075465  -0.00172843  0.32484802  1
  Al0+  Al50  1  -0.00082085  -0.00283459  0.66782403  1
  Al0+  Al51  1  -0.00186026  0.50014017  -0.00302048  1
  Al0+  Al52  1  0.00121091  0.49805720  0.32566370  1
  Al0+  Al53  1  0.00110104  0.50026751  0.66736464  1
  Al0+  Al54  1  0.49642450  0.00113537  0.00656967  1
  Al0+  Al55  1  0.49887507  0.00134179  0.33824603  1
  Al0+  Al56  1  0.49990152  -0.00040387  0.66112966  1
  Al0+  Al57  1  0.49709782  0.50222466  -0.00557955  1
  Al0+  Al58  1  0.49895134  0.50138110  0.33934646  1
  Al0+  Al59  1  0.50072880  0.50138002  0.67043073  1
  Al0+  Al60  1  0.24632198  0.25150350  0.00223272  1
  Al0+  Al61  1  0.25383556  0.25251188  0.32594367  1
  Al0+  Al62  1  0.25174458  0.25119632  0.66273444  1
  Al0+  Al63  1  0.25006682  0.74882661  -0.00319992  1
  Al0+  Al64  1  0.25261213  0.75244529  0.33218361  1
  Al0+  Al65  1  0.25242451  0.75015096  0.66376145  1
  Al0+  Al66  1  0.74817903  0.24998540  0.00083951  1
  Al0+  Al67  1  0.75038761  0.24662948  0.33517925  1
  Al0+  Al68  1  0.75174805  0.24872316  0.66924220  1
  Al0+  Al69  1  0.75032682  0.74678880  -0.00196952  1
  Al0+  Al70  1  0.74965726  0.74915549  0.33669681  1
  Al0+  Al71  1  0.75072015  0.74905551  0.67215746  1
  Al0+  Al72  1  0.07104830  0.67879201  0.65240272  1
  Al0+  Al73  1  0.68018170  0.42791960  0.34564456  1
  Al0+  Al74  1  0.17825111  0.92788893  0.67854272  1
  Al0+  Al75  1  0.07267849  0.17815043  0.31748967  1
  Al0+  Al76  1  0.43302375  0.32347596  0.31870177  1
  Al0+  Al77  1  0.43150222  0.82010409  0.65291638  1
  Al0+  Al78  1  0.67811127  0.92785554  0.01565467  1
  Al0+  Al79  1  0.82198374  0.07276258  0.01739334  1
  Al0+  Al80  1  0.06978171  0.17953512  0.98428625  1
  Al0+  Al81  1  0.57417932  0.17770680  0.65088422  1
  Al0+  Al82  1  0.92596932  0.81939926  0.31767261  1
  Al0+  Al83  1  0.07080978  0.17747777  0.65504948  1
  Al0+  Al84  1  0.57201303  0.67862556  0.98713367  1
  Al0+  Al85  1  0.67972296  0.92847205  0.34927615  1
  Al0+  Al86  1  0.07116900  0.67978624  0.98384731  1
  Al0+  Al87  1  0.43021742  0.32239897  0.65196083  1
  Al0+  Al88  1  0.92596462  0.32013466  0.31876856  1
  Al0+  Al89  1  0.67862811  0.42782016  0.68254994  1
  Al0+  Al90  1  0.56893943  0.17979725  0.98914759  1
  Al0+  Al91  1  0.31994848  0.57282340  0.34754315  1
  Al0+  Al92  1  0.31792752  0.07196610  0.01335386  1
  Al0+  Al93  1  0.17963489  0.42903949  0.67919307  1
  Al0+  Al94  1  0.67772584  0.93013677  0.68121146  1
  Al0+  Al95  1  0.07387148  0.67868043  0.31805962  1
  Si0+  Si96  1  0.82484275  0.07040372  0.35152100  1
  Si0+  Si97  1  0.42655938  0.32398380  0.98350115  1
  Si0+  Si98  1  0.32009344  0.57118906  0.01413539  1
  Si0+  Si99  1  0.32207195  0.57369080  0.68628718  1
  Si0+  Si100  1  0.92903476  0.32265084  0.65196042  1
  Si0+  Si101  1  0.31989485  0.07214932  0.68087916  1
  Si0+  Si102  1  0.18027861  0.93124650  0.34631430  1
  Si0+  Si103  1  0.17710265  0.43027915  0.01605231  1
  Si0+  Si104  1  0.42861212  0.82277479  0.98498265  1
  Si0+  Si105  1  0.92715301  0.82142253  0.98115388  1
  Si0+  Si106  1  0.92622161  0.32252716  0.98167967  1
  Si0+  Si107  1  0.17831744  0.42792191  0.34832687  1
  Si0+  Si108  1  0.17785284  0.92476119  0.01687565  1
  Si0+  Si109  1  0.92684266  0.82070113  0.65141815  1
  Si0+  Si110  1  0.82298322  0.07164978  0.68321809  1
  Si0+  Si111  1  0.42932950  0.82414987  0.31747565  1
  Si0+  Si112  1  0.82243331  0.57134482  0.68483143  1
  Si0+  Si113  1  0.32084387  0.07417064  0.35008125  1
  Si0+  Si114  1  0.82148848  0.56901115  0.01540041  1
  Si0+  Si115  1  0.57460700  0.67783040  0.64892392  1
  Si0+  Si116  1  0.67669504  0.43066330  0.01388661  1
  Si0+  Si117  1  0.56858327  0.68046956  0.32247088  1
  Si0+  Si118  1  0.57106507  0.17621403  0.31662715  1
  Si0+  Si119  1  0.82442625  0.57135610  0.34930431  1
  O2-  O120  1  0.24157311  -0.00162917  0.06126194  1
  O2-  O121  1  0.24553341  0.00687058  0.39026434  1
  O2-  O122  1  0.24891918  0.00601061  0.72579867  1
  O2-  O123  1  0.24881848  0.50121789  0.05750550  1
  O2-  O124  1  0.24162491  0.50141320  0.39290940  1
  O2-  O125  1  0.25451266  0.50287845  0.72922447  1
  O2-  O126  1  0.75011729  -0.00050619  0.06636024  1
  O2-  O127  1  0.75635515  0.00138167  0.39594166  1
  O2-  O128  1  0.74941685  0.00752781  0.72692126  1
  O2-  O129  1  0.74787145  0.50061488  0.05771640  1
  O2-  O130  1  0.76071447  0.49722807  0.39242157  1
  O2-  O131  1  0.75288541  0.50323385  0.72950214  1
  O2-  O132  1  -0.00171956  0.24864343  0.26864950  1
  O2-  O133  1  -0.00191721  0.25393861  0.60865763  1
  O2-  O134  1  -0.00769125  0.25135590  0.93753141  1
  O2-  O135  1  -0.00189655  0.74680333  0.26805871  1
  O2-  O136  1  -0.00201650  0.75486870  0.60671478  1
  O2-  O137  1  0.00052846  0.75772365  0.93652252  1
  O2-  O138  1  0.50760877  0.24945593  0.27154748  1
  O2-  O139  1  0.50649557  0.25471342  0.60207407  1
  O2-  O140  1  0.49441373  0.25405473  0.94125449  1
  O2-  O141  1  0.50245217  0.75470801  0.27704621  1
  O2-  O142  1  0.50783801  0.74782885  0.60418183  1
  O2-  O143  1  0.50209722  0.75835808  0.94206557  1
  O2-  O144  1  0.07232131  0.18533012  0.09681415  1
  O2-  O145  1  0.07276832  0.17831709  0.43148970  1
  O2-  O146  1  0.07024104  0.17795873  0.76826407  1
  O2-  O147  1  0.07105775  0.67963281  0.09668920  1
  O2-  O148  1  0.07444046  0.68157152  0.43166014  1
  O2-  O149  1  0.06899842  0.67927899  0.76578384  1
  O2-  O150  1  0.56733126  0.18315141  0.10236633  1
  O2-  O151  1  0.56765022  0.17502383  0.42195106  1
  O2-  O152  1  0.57049673  0.17599260  0.76495708  1
  O2-  O153  1  0.56823460  0.67422881  0.10072853  1
  O2-  O154  1  0.56642344  0.68039390  0.42726014  1
  O2-  O155  1  0.57212885  0.67855784  0.75483397  1
  O2-  O156  1  0.18232268  0.42777114  0.24226493  1
  O2-  O157  1  0.17914613  0.43010858  0.56634169  1
  O2-  O158  1  0.17814236  0.42953682  0.91087176  1
  O2-  O159  1  0.18497600  0.92884839  0.24117652  1
  O2-  O160  1  0.17944289  0.92825203  0.56498155  1
  O2-  O161  1  0.18236403  0.92219738  0.91127707  1
  O2-  O162  1  0.67749226  0.43350309  0.23195615  1
  O2-  O163  1  0.68083600  0.42995202  0.56930136  1
  O2-  O164  1  0.67821825  0.43215544  0.90899738  1
  O2-  O165  1  0.67787702  0.92831396  0.23640497  1
  O2-  O166  1  0.68100277  0.92936797  0.56797704  1
  O2-  O167  1  0.67818749  0.92966006  0.90199839  1
  O2-  O168  1  0.42954277  0.32782517  0.08934050  1
  O2-  O169  1  0.43240080  0.32314151  0.43129252  1
  O2-  O170  1  0.42901710  0.31758523  0.76590788  1
  O2-  O171  1  0.42581785  0.81949255  0.09091426  1
  O2-  O172  1  0.42771943  0.82390442  0.42237267  1
  O2-  O173  1  0.43120742  0.81917543  0.76625104  1
  O2-  O174  1  0.92825028  0.32566230  0.08708420  1
  O2-  O175  1  0.92685311  0.31794217  0.43250695  1
  O2-  O176  1  0.92982677  0.32290215  0.75775846  1
  O2-  O177  1  0.92611287  0.81675835  0.08671183  1
  O2-  O178  1  0.92732274  0.81764636  0.43161151  1
  O2-  O179  1  0.92619500  0.81860880  0.75694340  1
  O2-  O180  1  0.32309544  0.07168453  0.24470357  1
  O2-  O181  1  0.31791051  0.07054453  0.57495408  1
  O2-  O182  1  0.31885770  0.07013957  0.90027921  1
  O2-  O183  1  0.32231790  0.57180711  0.23364239  1
  O2-  O184  1  0.32044706  0.57497550  0.58056031  1
  O2-  O185  1  0.32077104  0.57187323  0.90952744  1
  O2-  O186  1  0.82258208  0.07060593  0.24608921  1
  O2-  O187  1  0.82556088  0.06984944  0.57768634  1
  O2-  O188  1  0.82125030  0.07087629  0.90359919  1
  O2-  O189  1  0.81957342  0.57398513  0.24338371  1
  O2-  O190  1  0.82193689  0.57209740  0.57929917  1
  O2-  O191  1  0.82349423  0.56693884  0.91050148  1
  O2-  O192  1  0.04861593  0.07974526  0.26302161  1
  O2-  O193  1  0.03956914  0.08056528  0.60159749  1
  O2-  O194  1  0.04459437  0.07945342  0.93412301  1
  O2-  O195  1  0.05193862  0.57902658  0.26530651  1
  O2-  O196  1  0.03928975  0.58253378  0.59877923  1
  O2-  O197  1  0.03642860  0.58368829  0.93088246  1
  O2-  O198  1  0.53797120  0.08481155  0.26998799  1
  O2-  O199  1  0.54202163  0.08197783  0.59578909  1
  O2-  O200  1  0.53609327  0.08265490  0.93748879  1
  O2-  O201  1  0.53666090  0.59076411  0.27363607  1
  O2-  O202  1  0.54723318  0.58440822  0.60427813  1
  O2-  O203  1  0.53519792  0.58575253  0.92871027  1
  O2-  O204  1  0.17002979  0.20981509  0.26390842  1
  O2-  O205  1  0.16697327  0.20717064  0.60065582  1
  O2-  O206  1  0.16584807  0.21439539  0.93088243  1
  O2-  O207  1  0.17076836  0.71369532  0.26451731  1
  O2-  O208  1  0.16805520  0.70830009  0.60020831  1
  O2-  O209  1  0.16905091  0.70689406  0.93005541  1
  O2-  O210  1  0.66715851  0.19486983  0.27446308  1
  O2-  O211  1  0.67488436  0.20168967  0.60111179  1
  O2-  O212  1  0.66541270  0.20945035  0.93455970  1
  O2-  O213  1  0.66178093  0.70339807  0.27562405  1
  O2-  O214  1  0.66995822  0.70011609  0.60593452  1
  O2-  O215  1  0.67006127  0.70051640  0.93229554  1
  O2-  O216  1  0.08483550  0.45916175  0.06177301  1
  O2-  O217  1  0.08160202  0.44575909  0.39062849  1
  O2-  O218  1  0.08351911  0.45956077  0.73524044  1
  O2-  O219  1  0.08180927  0.94419530  0.05916996  1
  O2-  O220  1  0.08579751  0.95283842  0.39094008  1
  O2-  O221  1  0.08062274  0.95218174  0.73348780  1
  O2-  O222  1  0.58378076  0.46024967  0.05872522  1
  O2-  O223  1  0.58729940  0.46588041  0.40193154  1
  O2-  O224  1  0.58259778  0.45923418  0.73776658  1
  O2-  O225  1  0.57905948  0.95410546  0.06865696  1
  O2-  O226  1  0.58256804  0.96115315  0.40237441  1
  O2-  O227  1  0.57896970  0.95781748  0.73229080  1
  O2-  O228  1  0.20459814  0.33968588  0.06542284  1
  O2-  O229  1  0.21063168  0.33567570  0.39346723  1
  O2-  O230  1  0.21261756  0.33261975  0.73424988  1
  O2-  O231  1  0.20943133  0.83296399  0.06441349  1
  O2-  O232  1  0.21362318  0.84165703  0.39502850  1
  O2-  O233  1  0.21538159  0.83336184  0.73289644  1
  O2-  O234  1  0.70274390  0.33898172  0.06177268  1
  O2-  O235  1  0.70515518  0.32940063  0.39911930  1
  O2-  O236  1  0.71056426  0.33141107  0.73703630  1
  O2-  O237  1  0.70663102  0.82694661  0.06492427  1
  O2-  O238  1  0.70737350  0.83078201  0.40377837  1
  O2-  O239  1  0.70788052  0.83272896  0.73484350  1
  O2-  O240  1  0.46388846  0.42086744  0.26554447  1
  O2-  O241  1  0.45432446  0.42372746  0.60330041  1
  O2-  O242  1  0.45072862  0.41657092  0.93513916  1
  O2-  O243  1  0.45589411  0.91682761  0.27122885  1
  O2-  O244  1  0.45843122  0.91570713  0.59539509  1
  O2-  O245  1  0.44932413  0.91763977  0.94075638  1
  O2-  O246  1  0.95090729  0.41849040  0.26306480  1
  O2-  O247  1  0.95234354  0.41634921  0.60591814  1
  O2-  O248  1  0.95402254  0.41492646  0.93405901  1
  O2-  O249  1  0.95494189  0.91604425  0.26238930  1
  O2-  O250  1  0.94887037  0.91460361  0.60532847  1
  O2-  O251  1  0.94664123  0.91701424  0.93776316  1
  O2-  O252  1  0.33801664  0.29335943  0.26139595  1
  O2-  O253  1  0.33408776  0.29153638  0.59569896  1
  O2-  O254  1  0.33163461  0.29869398  0.94136249  1
  O2-  O255  1  0.33968841  0.79480464  0.26744603  1
  O2-  O256  1  0.33682419  0.78687844  0.59605182  1
  O2-  O257  1  0.33773289  0.79154175  0.93647009  1
  O2-  O258  1  0.82721443  0.29192436  0.26507204  1
  O2-  O259  1  0.83558280  0.29660972  0.60672926  1
  O2-  O260  1  0.83102150  0.30037012  0.93766289  1
  O2-  O261  1  0.82745229  0.78950624  0.26503315  1
  O2-  O262  1  0.83414978  0.79096239  0.60524249  1
  O2-  O263  1  0.83594595  0.78966120  0.93380220  1
  O2-  O264  1  0.41141200  0.03982085  0.07320149  1
  O2-  O265  1  0.40996458  0.04196192  0.39954990  1
  O2-  O266  1  0.41265878  0.04140741  0.72540128  1
  O2-  O267  1  0.41202084  0.54246189  0.06216101  1
  O2-  O268  1  0.41393494  0.54003994  0.40480535  1
  O2-  O269  1  0.41668349  0.55157556  0.73193607  1
  O2-  O270  1  0.92119335  0.04472885  0.06993292  1
  O2-  O271  1  0.92021634  0.04501816  0.39431113  1
  O2-  O272  1  0.91386719  0.04006861  0.73227672  1
  O2-  O273  1  0.91234413  0.53937053  0.06440543  1
  O2-  O274  1  0.92094061  0.55068981  0.39122464  1
  O2-  O275  1  0.91525245  0.54411564  0.73207070  1
  O2-  O276  1  0.28778634  0.16895232  0.06864743  1
  O2-  O277  1  0.29715661  0.16836919  0.39394471  1
  O2-  O278  1  0.29780308  0.16603185  0.72690416  1
  O2-  O279  1  0.29336527  0.66338261  0.06206724  1
  O2-  O280  1  0.29324344  0.67134995  0.40047642  1
  O2-  O281  1  0.29409069  0.66620601  0.73290536  1
  O2-  O282  1  0.79356638  0.17212973  0.06921950  1
  O2-  O283  1  0.79947496  0.16343261  0.39897117  1
  O2-  O284  1  0.80475523  0.16653864  0.72952097  1
  O2-  O285  1  0.79541798  0.66105342  0.06276056  1
  O2-  O286  1  0.79326099  0.66155127  0.39889786  1
  O2-  O287  1  0.79730135  0.66387219  0.73398062  1
