# generated using pymatgen
data_Ca2Al2SiO7
_symmetry_space_group_name_H-M   'P 1'
_cell_length_a   15.45573257
_cell_length_b   15.45613399
_cell_length_c   15.28177715
_cell_angle_alpha   90.00009506
_cell_angle_beta   90.00917876
_cell_angle_gamma   89.99430441
_symmetry_Int_Tables_number   1
_chemical_formula_structural   Ca2Al2SiO7
_chemical_formula_sum   'Ca48 Al48 Si24 O168'
_cell_volume   3650.60061780
_cell_formula_units_Z   24
loop_
 _symmetry_equiv_pos_site_id
 _symmetry_equiv_pos_as_xyz
  1  'x, y, z'
loop_
 _atom_type_symbol
 _atom_type_oxidation_number
  Ca2+  2.0
  Al0+  0.0
  Si0+  0.0
  O2-  -2.0
loop_
 _atom_site_type_symbol
 _atom_site_label
 _atom_site_symmetry_multiplicity
 _atom_site_fract_x
 _atom_site_fract_y
 _atom_site_fract_z
 _atom_site_occupancy
  Ca2+  Ca0  1  0.16406337  0.08094707  0.17456797  1
  Ca2+  Ca1  1  0.16911692  0.07824591  0.50441686  1
  Ca2+  Ca2  1  0.16987230  0.08261622  0.83449736  1
  Ca2+  Ca3  1  0.17757191  0.56877390  0.17759508  1
  Ca2+  Ca4  1  0.17233017  0.57535086  0.50573863  1
  Ca2+  Ca5  1  0.15775978  0.57251352  0.83649402  1
  Ca2+  Ca6  1  0.66779179  0.09257734  0.16731909  1
  Ca2+  Ca7  1  0.66280626  0.07708122  0.50909918  1
  Ca2+  Ca8  1  0.67221434  0.07952231  0.84123924  1
  Ca2+  Ca9  1  0.66800465  0.58951863  0.17421034  1
  Ca2+  Ca10  1  0.66835554  0.58344988  0.50595982  1
  Ca2+  Ca11  1  0.66071651  0.58270974  0.83231751  1
  Ca2+  Ca12  1  0.09303452  0.32430372  0.16303671  1
  Ca2+  Ca13  1  0.08508452  0.33347477  0.49636470  1
  Ca2+  Ca14  1  0.08186098  0.33250196  0.82777998  1
  Ca2+  Ca15  1  0.08547622  0.83279303  0.16391289  1
  Ca2+  Ca16  1  0.08437987  0.83659187  0.50012416  1
  Ca2+  Ca17  1  0.07806550  0.82822354  0.81999907  1
  Ca2+  Ca18  1  0.56962459  0.33017186  0.16186014  1
  Ca2+  Ca19  1  0.57782594  0.32892333  0.49116345  1
  Ca2+  Ca20  1  0.57998611  0.33123186  0.82921792  1
  Ca2+  Ca21  1  0.57438565  0.82182922  0.15920998  1
  Ca2+  Ca22  1  0.58655860  0.82476242  0.49742333  1
  Ca2+  Ca23  1  0.58381846  0.82538080  0.82731830  1
  Ca2+  Ca24  1  0.33011298  0.41105913  0.17199857  1
  Ca2+  Ca25  1  0.32730034  0.41533150  0.50055501  1
  Ca2+  Ca26  1  0.32237850  0.41440119  0.83886652  1
  Ca2+  Ca27  1  0.32991945  0.91496793  0.17197145  1
  Ca2+  Ca28  1  0.32397531  0.92503861  0.50881068  1
  Ca2+  Ca29  1  0.33279048  0.91901495  0.83383026  1
  Ca2+  Ca30  1  0.82849033  0.42554971  0.17366077  1
  Ca2+  Ca31  1  0.82901384  0.42038672  0.50758775  1
  Ca2+  Ca32  1  0.82817244  0.41138917  0.83240942  1
  Ca2+  Ca33  1  0.83193642  0.92545932  0.16856489  1
  Ca2+  Ca34  1  0.82839411  0.91724218  0.50828826  1
  Ca2+  Ca35  1  0.82941123  0.91587138  0.83551996  1
  Ca2+  Ca36  1  0.42361063  0.17641989  0.16192238  1
  Ca2+  Ca37  1  0.41881386  0.16975605  0.49264064  1
  Ca2+  Ca38  1  0.41473154  0.17022948  0.83296976  1
  Ca2+  Ca39  1  0.42226036  0.66512844  0.16184375  1
  Ca2+  Ca40  1  0.42690242  0.65897525  0.49456814  1
  Ca2+  Ca41  1  0.42455884  0.67116772  0.83093632  1
  Ca2+  Ca42  1  0.92813382  0.16396730  0.16086512  1
  Ca2+  Ca43  1  0.92137132  0.17580731  0.49649605  1
  Ca2+  Ca44  1  0.92046882  0.16841549  0.83089929  1
  Ca2+  Ca45  1  0.91569977  0.66601391  0.16625831  1
  Ca2+  Ca46  1  0.92124054  0.66875892  0.50130328  1
  Ca2+  Ca47  1  0.92337510  0.67298361  0.82108430  1
  Al0+  Al48  1  -0.00118814  0.00047232  -0.00036257  1
  Al0+  Al49  1  -0.00248323  0.00065964  0.33435851  1
  Al0+  Al50  1  0.00091879  0.00117448  0.66544684  1
  Al0+  Al51  1  -0.00085059  0.49808774  0.00739423  1
  Al0+  Al52  1  -0.00135807  0.50233938  0.34021965  1
  Al0+  Al53  1  -0.00060945  0.50065935  0.66258740  1
  Al0+  Al54  1  0.49895279  -0.00098630  -0.00400617  1
  Al0+  Al55  1  0.50097696  -0.00180900  0.32918435  1
  Al0+  Al56  1  0.50099940  -0.00016183  0.67609151  1
  Al0+  Al57  1  0.49874296  0.50006508  -0.00785900  1
  Al0+  Al58  1  0.50068043  0.49896839  0.32761680  1
  Al0+  Al59  1  0.49983829  0.49925708  0.66707315  1
  Al0+  Al60  1  0.24935145  0.24657298  -0.00389909  1
  Al0+  Al61  1  0.24943673  0.24795324  0.33039148  1
  Al0+  Al62  1  0.25080707  0.25148239  0.67387177  1
  Al0+  Al63  1  0.24981228  0.74815963  -0.00393540  1
  Al0+  Al64  1  0.24897587  0.74877327  0.34195144  1
  Al0+  Al65  1  0.25184883  0.75051153  0.66643762  1
  Al0+  Al66  1  0.75109253  0.25084017  0.00451849  1
  Al0+  Al67  1  0.75302145  0.25100557  0.33049701  1
  Al0+  Al68  1  0.75024192  0.25112370  0.66575702  1
  Al0+  Al69  1  0.74980195  0.75064357  -0.00174287  1
  Al0+  Al70  1  0.75116557  0.75186878  0.33258758  1
  Al0+  Al71  1  0.75095094  0.75066280  0.66371245  1
  Al0+  Al72  1  0.42784636  0.32015281  0.98127036  1
  Al0+  Al73  1  0.32422352  0.57040268  0.34835466  1
  Al0+  Al74  1  0.17702052  0.92897437  0.34634106  1
  Al0+  Al75  1  0.92984301  0.82317951  0.65063654  1
  Al0+  Al76  1  0.42877364  0.32003911  0.31933928  1
  Al0+  Al77  1  0.17893028  0.42724964  0.01501679  1
  Al0+  Al78  1  0.42562214  0.82113591  0.98403873  1
  Al0+  Al79  1  0.07407330  0.67825852  0.65022981  1
  Al0+  Al80  1  0.06981549  0.17769293  0.98500553  1
  Al0+  Al81  1  0.82046937  0.07081683  0.01452594  1
  Al0+  Al82  1  0.81973317  0.57389089  0.34904170  1
  Al0+  Al83  1  0.57391627  0.17540946  0.31973414  1
  Al0+  Al84  1  0.67807397  0.42850591  0.67942024  1
  Al0+  Al85  1  0.56878111  0.67939976  0.65085299  1
  Al0+  Al86  1  0.06795560  0.17967785  0.32119091  1
  Al0+  Al87  1  0.57294585  0.67930391  0.98265922  1
  Al0+  Al88  1  0.17995769  0.42568203  0.34916375  1
  Al0+  Al89  1  0.32137923  0.07206238  0.68321077  1
  Al0+  Al90  1  0.92782956  0.32024865  0.65344617  1
  Al0+  Al91  1  0.68085142  0.92768528  0.68078738  1
  Al0+  Al92  1  0.17781819  0.92836398  0.68326092  1
  Al0+  Al93  1  0.57393705  0.18013926  0.98315876  1
  Al0+  Al94  1  0.57141758  0.68023603  0.32032505  1
  Al0+  Al95  1  0.17812772  0.43199606  0.68148819  1
  Si0+  Si96  1  0.67957396  0.93071632  0.34615158  1
  Si0+  Si97  1  0.82023017  0.57241983  0.01404630  1
  Si0+  Si98  1  0.42824830  0.32018104  0.65166234  1
  Si0+  Si99  1  0.67712243  0.42999319  0.01504003  1
  Si0+  Si100  1  0.06895704  0.67715844  0.98899003  1
  Si0+  Si101  1  0.32332319  0.06989340  0.34677274  1
  Si0+  Si102  1  0.93023172  0.82089509  0.98666521  1
  Si0+  Si103  1  0.42924098  0.82512523  0.64841548  1
  Si0+  Si104  1  0.67932634  0.42770393  0.34825523  1
  Si0+  Si105  1  0.92977976  0.82112645  0.31625310  1
  Si0+  Si106  1  0.32418673  0.57208303  0.68470055  1
  Si0+  Si107  1  0.07397515  0.18016341  0.65018835  1
  Si0+  Si108  1  0.92843797  0.32605914  0.31546403  1
  Si0+  Si109  1  0.32132466  0.06955149  0.01718985  1
  Si0+  Si110  1  0.82168467  0.07382458  0.68183509  1
  Si0+  Si111  1  0.32127236  0.57200364  0.01503847  1
  Si0+  Si112  1  0.92877001  0.32418467  0.98532438  1
  Si0+  Si113  1  0.42560085  0.82126346  0.31949165  1
  Si0+  Si114  1  0.57095345  0.17876549  0.65402270  1
  Si0+  Si115  1  0.82093261  0.07215039  0.34884820  1
  Si0+  Si116  1  0.67733841  0.92696907  0.01830067  1
  Si0+  Si117  1  0.07188406  0.67866611  0.31815014  1
  Si0+  Si118  1  0.17872971  0.92776088  0.01421504  1
  Si0+  Si119  1  0.82055333  0.57117558  0.68357024  1
  O2-  O120  1  0.25116847  -0.00369167  0.05821146  1
  O2-  O121  1  0.25448624  0.00149837  0.39096172  1
  O2-  O122  1  0.24959242  -0.00039644  0.73417894  1
  O2-  O123  1  0.25595616  0.50044117  0.05984085  1
  O2-  O124  1  0.25209013  0.49818671  0.39808063  1
  O2-  O125  1  0.24960202  0.50964893  0.72911812  1
  O2-  O126  1  0.74212714  -0.00032861  0.06292400  1
  O2-  O127  1  0.74284738  0.00851525  0.38925007  1
  O2-  O128  1  0.75699669  0.00160854  0.72630757  1
  O2-  O129  1  0.74590599  0.50454562  0.05600588  1
  O2-  O130  1  0.74591873  0.49772060  0.39367430  1
  O2-  O131  1  0.75209360  0.50296759  0.72876105  1
  O2-  O132  1  -0.00130899  0.25877186  0.27193717  1
  O2-  O133  1  0.00465984  0.24826366  0.60616763  1
  O2-  O134  1  -0.00290940  0.25545337  0.94097914  1
  O2-  O135  1  0.00201067  0.75092390  0.27406208  1
  O2-  O136  1  0.00544546  0.75469816  0.60078976  1
  O2-  O137  1  -0.00074896  0.74831967  0.94541603  1
  O2-  O138  1  0.50240859  0.24812928  0.27109677  1
  O2-  O139  1  0.49926082  0.24824226  0.61068349  1
  O2-  O140  1  0.50224090  0.25050280  0.93054613  1
  O2-  O141  1  0.49184019  0.75027880  0.27483721  1
  O2-  O142  1  0.49459505  0.75399690  0.60282764  1
  O2-  O143  1  0.50144751  0.75273131  0.93471365  1
  O2-  O144  1  0.06829585  0.17499007  0.09835972  1
  O2-  O145  1  0.06447898  0.17768941  0.43405471  1
  O2-  O146  1  0.07217937  0.18050558  0.75592573  1
  O2-  O147  1  0.06774578  0.67941666  0.09431045  1
  O2-  O148  1  0.07006524  0.67950813  0.42252465  1
  O2-  O149  1  0.06757453  0.67649241  0.76503026  1
  O2-  O150  1  0.57224275  0.18414453  0.09674302  1
  O2-  O151  1  0.57199920  0.17403099  0.43398315  1
  O2-  O152  1  0.57319639  0.18121311  0.75861731  1
  O2-  O153  1  0.57469730  0.68094501  0.09659603  1
  O2-  O154  1  0.57375016  0.68298448  0.43317532  1
  O2-  O155  1  0.56770318  0.68035690  0.76364858  1
  O2-  O156  1  0.18088091  0.42693908  0.23519632  1
  O2-  O157  1  0.18162285  0.42892072  0.56883596  1
  O2-  O158  1  0.17452677  0.43177348  0.90199311  1
  O2-  O159  1  0.17687210  0.92967959  0.23232574  1
  O2-  O160  1  0.17864408  0.93317802  0.56950855  1
  O2-  O161  1  0.17701983  0.92842324  0.90978978  1
  O2-  O162  1  0.68216963  0.42824813  0.24225499  1
  O2-  O163  1  0.67897700  0.42789572  0.56637504  1
  O2-  O164  1  0.68024124  0.42833216  0.90997241  1
  O2-  O165  1  0.68335093  0.92811038  0.24126631  1
  O2-  O166  1  0.68005369  0.93067957  0.56687626  1
  O2-  O167  1  0.68289230  0.92417305  0.91296996  1
  O2-  O168  1  0.42847422  0.31887880  0.09480168  1
  O2-  O169  1  0.43002715  0.31771451  0.43356779  1
  O2-  O170  1  0.42883392  0.32010260  0.75650083  1
  O2-  O171  1  0.42379977  0.81765454  0.09836658  1
  O2-  O172  1  0.42969812  0.82567346  0.42456559  1
  O2-  O173  1  0.43186746  0.82419851  0.75395274  1
  O2-  O174  1  0.92937385  0.32639793  0.09088238  1
  O2-  O175  1  0.92483271  0.32260776  0.42095926  1
  O2-  O176  1  0.92680927  0.31704290  0.76683090  1
  O2-  O177  1  0.93058632  0.82082117  0.09223524  1
  O2-  O178  1  0.92810010  0.82245480  0.42065294  1
  O2-  O179  1  0.92853376  0.81959347  0.76502818  1
  O2-  O180  1  0.32329236  0.06766011  0.24104984  1
  O2-  O181  1  0.32195796  0.07239744  0.56896964  1
  O2-  O182  1  0.31913173  0.07013704  0.91240114  1
  O2-  O183  1  0.32115920  0.57321436  0.23443277  1
  O2-  O184  1  0.32722404  0.56659321  0.57929135  1
  O2-  O185  1  0.31722353  0.57419136  0.90960101  1
  O2-  O186  1  0.82448801  0.06814299  0.24381604  1
  O2-  O187  1  0.81753079  0.07527021  0.57582465  1
  O2-  O188  1  0.82228867  0.06641176  0.90160576  1
  O2-  O189  1  0.81845998  0.57386685  0.23482074  1
  O2-  O190  1  0.81868378  0.57077376  0.57801055  1
  O2-  O191  1  0.82437182  0.57248471  0.90953814  1
  O2-  O192  1  0.03139088  0.08469281  0.26581901  1
  O2-  O193  1  0.04936629  0.08638549  0.60459452  1
  O2-  O194  1  0.03487543  0.08259113  0.93040535  1
  O2-  O195  1  0.04096236  0.58735613  0.27093698  1
  O2-  O196  1  0.04021276  0.58264902  0.59548845  1
  O2-  O197  1  0.03796946  0.58571979  0.94296592  1
  O2-  O198  1  0.54762115  0.07723758  0.26433760  1
  O2-  O199  1  0.54385140  0.08552295  0.60911692  1
  O2-  O200  1  0.54957341  0.07917346  0.93476306  1
  O2-  O201  1  0.54717667  0.58274734  0.26553785  1
  O2-  O202  1  0.53838868  0.58164769  0.59829841  1
  O2-  O203  1  0.54568342  0.58143656  0.92952384  1
  O2-  O204  1  0.16590256  0.20317198  0.26662851  1
  O2-  O205  1  0.16763670  0.20790580  0.60594817  1
  O2-  O206  1  0.16600436  0.20477406  0.93058096  1
  O2-  O207  1  0.16432531  0.70623068  0.27163224  1
  O2-  O208  1  0.17487252  0.70087634  0.59989234  1
  O2-  O209  1  0.16020488  0.70193069  0.94044647  1
  O2-  O210  1  0.67377570  0.20224985  0.26848543  1
  O2-  O211  1  0.66195847  0.20638123  0.60503213  1
  O2-  O212  1  0.67416531  0.20785938  0.93345034  1
  O2-  O213  1  0.66640760  0.71687746  0.26556957  1
  O2-  O214  1  0.66624133  0.70999179  0.59908811  1
  O2-  O215  1  0.67205649  0.70757382  0.93001509  1
  O2-  O216  1  0.08326947  0.45882212  0.07144290  1
  O2-  O217  1  0.08087457  0.45441905  0.39988756  1
  O2-  O218  1  0.07972546  0.46082710  0.73390814  1
  O2-  O219  1  0.08712686  0.95669394  0.06204149  1
  O2-  O220  1  0.08109643  0.96252421  0.39977203  1
  O2-  O221  1  0.07803520  0.95579271  0.73494420  1
  O2-  O222  1  0.58362371  0.45605411  0.05965934  1
  O2-  O223  1  0.58452152  0.45007741  0.39149664  1
  O2-  O224  1  0.58225322  0.45906098  0.73480526  1
  O2-  O225  1  0.58114257  0.94690828  0.06093305  1
  O2-  O226  1  0.58555094  0.95101284  0.39287250  1
  O2-  O227  1  0.58649136  0.95796733  0.73782557  1
  O2-  O228  1  0.20913145  0.32856304  0.06471861  1
  O2-  O229  1  0.20708311  0.32634345  0.40114568  1
  O2-  O230  1  0.21047344  0.33682451  0.73695116  1
  O2-  O231  1  0.20444298  0.83413936  0.06060874  1
  O2-  O232  1  0.20278413  0.83268931  0.40199728  1
  O2-  O233  1  0.20391762  0.82814878  0.73429916  1
  O2-  O234  1  0.70785481  0.34068392  0.06538277  1
  O2-  O235  1  0.70676273  0.33417014  0.39458443  1
  O2-  O236  1  0.71146082  0.33300564  0.73473455  1
  O2-  O237  1  0.70911225  0.83504701  0.06579401  1
  O2-  O238  1  0.71522164  0.84249019  0.39531637  1
  O2-  O239  1  0.71329761  0.83172516  0.73515402  1
  O2-  O240  1  0.45696887  0.41688177  0.26279184  1
  O2-  O241  1  0.45725003  0.41119972  0.60442947  1
  O2-  O242  1  0.45198393  0.41941550  0.92879104  1
  O2-  O243  1  0.45351239  0.91267144  0.26920732  1
  O2-  O244  1  0.45869554  0.91873621  0.60433991  1
  O2-  O245  1  0.44900323  0.92066878  0.93249195  1
  O2-  O246  1  0.95022900  0.42176387  0.27210828  1
  O2-  O247  1  0.95432268  0.41725639  0.59953356  1
  O2-  O248  1  0.95427766  0.41778591  0.93862712  1
  O2-  O249  1  0.95741871  0.91281806  0.26805321  1
  O2-  O250  1  0.95291648  0.92352467  0.59805962  1
  O2-  O251  1  0.95907404  0.91103539  0.93823131  1
  O2-  O252  1  0.33176238  0.28996445  0.26489223  1
  O2-  O253  1  0.33625415  0.29147784  0.60555973  1
  O2-  O254  1  0.33096233  0.28732611  0.92848180  1
  O2-  O255  1  0.33015058  0.79841858  0.27571558  1
  O2-  O256  1  0.33374920  0.80442727  0.60497218  1
  O2-  O257  1  0.32865184  0.79038257  0.92813516  1
  O2-  O258  1  0.83585630  0.29926902  0.26740171  1
  O2-  O259  1  0.83279651  0.28728433  0.59616889  1
  O2-  O260  1  0.83497151  0.29817842  0.94076467  1
  O2-  O261  1  0.83953463  0.79128299  0.26648407  1
  O2-  O262  1  0.83313862  0.79144032  0.59622063  1
  O2-  O263  1  0.83824738  0.79458578  0.93952587  1
  O2-  O264  1  0.41425389  0.04376716  0.06384611  1
  O2-  O265  1  0.41718659  0.04419551  0.39323472  1
  O2-  O266  1  0.41872786  0.04446379  0.73891230  1
  O2-  O267  1  0.41744773  0.54986007  0.05750208  1
  O2-  O268  1  0.42366296  0.54190378  0.39930961  1
  O2-  O269  1  0.41456729  0.54002022  0.73331620  1
  O2-  O270  1  0.91524887  0.03366441  0.07034447  1
  O2-  O271  1  0.90821439  0.03658033  0.39935461  1
  O2-  O272  1  0.91724105  0.05323125  0.72518727  1
  O2-  O273  1  0.90943998  0.54208385  0.06633037  1
  O2-  O274  1  0.91591694  0.54606204  0.40415891  1
  O2-  O275  1  0.91404064  0.54512845  0.72906649  1
  O2-  O276  1  0.29049628  0.16026756  0.06437720  1
  O2-  O277  1  0.29715686  0.16271817  0.39293807  1
  O2-  O278  1  0.29183869  0.16882598  0.73890871  1
  O2-  O279  1  0.29236656  0.66449392  0.06261516  1
  O2-  O280  1  0.29671699  0.66777170  0.40396265  1
  O2-  O281  1  0.30707145  0.66897934  0.72651968  1
  O2-  O282  1  0.79554042  0.16855846  0.07030546  1
  O2-  O283  1  0.80199843  0.16719056  0.39368569  1
  O2-  O284  1  0.79220901  0.16500307  0.73003199  1
  O2-  O285  1  0.79557243  0.66544059  0.06212284  1
  O2-  O286  1  0.78894343  0.67072362  0.40198811  1
  O2-  O287  1  0.79496733  0.66486272  0.72905191  1
