# generated using pymatgen
data_Ca2Al2SiO7
_symmetry_space_group_name_H-M   'P 1'
_cell_length_a   15.45925344
_cell_length_b   15.45787104
_cell_length_c   15.28439096
_cell_angle_alpha   90.00271570
_cell_angle_beta   89.99061510
_cell_angle_gamma   90.00650572
_symmetry_Int_Tables_number   1
_chemical_formula_structural   Ca2Al2SiO7
_chemical_formula_sum   'Ca48 Al48 Si24 O168'
_cell_volume   3652.46720852
_cell_formula_units_Z   24
loop_
 _symmetry_equiv_pos_site_id
 _symmetry_equiv_pos_as_xyz
  1  'x, y, z'
loop_
 _atom_type_symbol
 _atom_type_oxidation_number
  Ca2+  2.0
  Al0+  0.0
  Si0+  0.0
  O2-  -2.0
loop_
 _atom_site_type_symbol
 _atom_site_label
 _atom_site_symmetry_multiplicity
 _atom_site_fract_x
 _atom_site_fract_y
 _atom_site_fract_z
 _atom_site_occupancy
  Ca2+  Ca0  1  0.17603566  0.07427950  0.17198408  1
  Ca2+  Ca1  1  0.17509495  0.08070620  0.49912910  1
  Ca2+  Ca2  1  0.17411832  0.07449482  0.84660195  1
  Ca2+  Ca3  1  0.17543062  0.59002465  0.16984011  1
  Ca2+  Ca4  1  0.17022443  0.59074276  0.49509637  1
  Ca2+  Ca5  1  0.17254280  0.58524738  0.84171582  1
  Ca2+  Ca6  1  0.66527957  0.08451723  0.16095756  1
  Ca2+  Ca7  1  0.66357977  0.08399933  0.50424677  1
  Ca2+  Ca8  1  0.66472346  0.07977851  0.84340553  1
  Ca2+  Ca9  1  0.67010759  0.57870445  0.17576565  1
  Ca2+  Ca10  1  0.67251820  0.57010137  0.50664604  1
  Ca2+  Ca11  1  0.67040045  0.58108821  0.83752785  1
  Ca2+  Ca12  1  0.07415858  0.33452054  0.15899875  1
  Ca2+  Ca13  1  0.07676426  0.33715744  0.49817680  1
  Ca2+  Ca14  1  0.07095495  0.33277545  0.83146050  1
  Ca2+  Ca15  1  0.09374665  0.82630456  0.16442264  1
  Ca2+  Ca16  1  0.07727872  0.82935465  0.49135124  1
  Ca2+  Ca17  1  0.08251512  0.83091781  0.83158441  1
  Ca2+  Ca18  1  0.57396629  0.33277212  0.15957297  1
  Ca2+  Ca19  1  0.58779487  0.33148526  0.49611750  1
  Ca2+  Ca20  1  0.58254321  0.32189192  0.83182150  1
  Ca2+  Ca21  1  0.57942283  0.82720993  0.15958842  1
  Ca2+  Ca22  1  0.56958732  0.83291167  0.49455823  1
  Ca2+  Ca23  1  0.58388784  0.82873938  0.83022891  1
  Ca2+  Ca24  1  0.34421155  0.42624004  0.17108432  1
  Ca2+  Ca25  1  0.33973160  0.42295906  0.49861700  1
  Ca2+  Ca26  1  0.33431869  0.42155802  0.84273188  1
  Ca2+  Ca27  1  0.32801289  0.92413911  0.17334566  1
  Ca2+  Ca28  1  0.33223184  0.91239469  0.49957762  1
  Ca2+  Ca29  1  0.33074433  0.91940491  0.84345003  1
  Ca2+  Ca30  1  0.82612669  0.42024641  0.17472045  1
  Ca2+  Ca31  1  0.82755009  0.42550357  0.50726676  1
  Ca2+  Ca32  1  0.83147736  0.41453176  0.83356444  1
  Ca2+  Ca33  1  0.82665208  0.91923011  0.16440819  1
  Ca2+  Ca34  1  0.83303716  0.91558876  0.50657881  1
  Ca2+  Ca35  1  0.82972990  0.92314734  0.84398496  1
  Ca2+  Ca36  1  0.41286079  0.17569565  0.15939438  1
  Ca2+  Ca37  1  0.42234241  0.17261473  0.49091701  1
  Ca2+  Ca38  1  0.42583447  0.16124450  0.83217331  1
  Ca2+  Ca39  1  0.41550085  0.66851527  0.15999341  1
  Ca2+  Ca40  1  0.41178089  0.67627915  0.49190975  1
  Ca2+  Ca41  1  0.42204511  0.66948284  0.83443449  1
  Ca2+  Ca42  1  0.91438360  0.17243897  0.15696534  1
  Ca2+  Ca43  1  0.91595740  0.17449798  0.49869455  1
  Ca2+  Ca44  1  0.90479346  0.17805330  0.83259701  1
  Ca2+  Ca45  1  0.92949171  0.66051670  0.16214150  1
  Ca2+  Ca46  1  0.91615568  0.66491697  0.49521794  1
  Ca2+  Ca47  1  0.92168265  0.67121410  0.82694026  1
  Al0+  Al48  1  -0.00070736  -0.00030199  0.00927301  1
  Al0+  Al49  1  -0.00043125  -0.00004135  0.33656543  1
  Al0+  Al50  1  0.00170035  -0.00107388  0.66360265  1
  Al0+  Al51  1  0.00057769  0.50098666  -0.01003138  1
  Al0+  Al52  1  0.00028761  0.50125535  0.33225822  1
  Al0+  Al53  1  0.00176600  0.49962790  0.66590514  1
  Al0+  Al54  1  0.49916208  0.00013492  0.00587920  1
  Al0+  Al55  1  0.50059382  0.00072948  0.33160533  1
  Al0+  Al56  1  0.50015947  0.00035251  0.65819152  1
  Al0+  Al57  1  0.50038164  0.50114698  -0.00546084  1
  Al0+  Al58  1  0.50081465  0.49900737  0.34071755  1
  Al0+  Al59  1  0.50062043  0.49848920  0.67295125  1
  Al0+  Al60  1  0.24567682  0.25223578  -0.00148264  1
  Al0+  Al61  1  0.24977568  0.24945434  0.33348282  1
  Al0+  Al62  1  0.25156163  0.24973512  0.66839878  1
  Al0+  Al63  1  0.25022835  0.74775142  0.00105037  1
  Al0+  Al64  1  0.24812637  0.75071464  0.33380211  1
  Al0+  Al65  1  0.24978975  0.75052347  0.66443960  1
  Al0+  Al66  1  0.74751599  0.25087516  -0.00256902  1
  Al0+  Al67  1  0.74982524  0.24865805  0.33605357  1
  Al0+  Al68  1  0.75024712  0.25039898  0.66022601  1
  Al0+  Al69  1  0.75091939  0.74944877  0.00083866  1
  Al0+  Al70  1  0.75060680  0.75255593  0.33725824  1
  Al0+  Al71  1  0.75075346  0.74869067  0.66537234  1
  Al0+  Al72  1  0.32044521  0.57051671  0.34671321  1
  Al0+  Al73  1  0.32264234  0.07264341  0.35049435  1
  Al0+  Al74  1  0.17956201  0.92873377  0.35172132  1
  Al0+  Al75  1  0.82254287  0.57176956  0.68483995  1
  Al0+  Al76  1  0.67888169  0.42799600  0.34807352  1
  Al0+  Al77  1  0.67758897  0.92581970  0.01454610  1
  Al0+  Al78  1  0.32177301  0.07409947  0.01452974  1
  Al0+  Al79  1  0.42868543  0.82051488  0.31726413  1
  Al0+  Al80  1  0.93078596  0.32041574  0.65043515  1
  Al0+  Al81  1  0.42554620  0.32259324  0.98425707  1
  Al0+  Al82  1  0.07223681  0.68102253  0.98472551  1
  Al0+  Al83  1  0.17879190  0.92699622  0.01514503  1
  Al0+  Al84  1  0.81915981  0.07358922  0.01408531  1
  Al0+  Al85  1  0.92769418  0.32054663  0.98691151  1
  Al0+  Al86  1  0.56992018  0.18009030  0.65145045  1
  Al0+  Al87  1  0.43012096  0.81884365  0.65376326  1
  Al0+  Al88  1  0.67932827  0.42657946  0.68651717  1
  Al0+  Al89  1  0.82329694  0.57195205  0.34710537  1
  Al0+  Al90  1  0.57384212  0.67874839  0.98752010  1
  Al0+  Al91  1  0.56794965  0.17833708  0.98591582  1
  Al0+  Al92  1  0.92876011  0.82142364  0.65428010  1
  Al0+  Al93  1  0.32160679  0.56768925  0.01248650  1
  Al0+  Al94  1  0.42967863  0.32151529  0.32080921  1
  Al0+  Al95  1  0.06778801  0.68021121  0.31871575  1
  Si0+  Si96  1  0.92952351  0.31954480  0.31887369  1
  Si0+  Si97  1  0.57255562  0.67533404  0.64947704  1
  Si0+  Si98  1  0.42619528  0.32295196  0.64985700  1
  Si0+  Si99  1  0.17641389  0.42690181  0.34899126  1
  Si0+  Si100  1  0.17450637  0.42967644  0.01514687  1
  Si0+  Si101  1  0.31952092  0.57278318  0.68212710  1
  Si0+  Si102  1  0.67884954  0.92932517  0.35040614  1
  Si0+  Si103  1  0.57240783  0.67889028  0.31991552  1
  Si0+  Si104  1  0.92528666  0.82527646  0.31447798  1
  Si0+  Si105  1  0.07008125  0.17573714  0.98480116  1
  Si0+  Si106  1  0.82114896  0.07107852  0.35044682  1
  Si0+  Si107  1  0.07232107  0.67865450  0.64865103  1
  Si0+  Si108  1  0.67767861  0.93006791  0.67867799  1
  Si0+  Si109  1  0.07043435  0.17774241  0.31838953  1
  Si0+  Si110  1  0.07511474  0.17739725  0.64969204  1
  Si0+  Si111  1  0.32203110  0.07019686  0.68110246  1
  Si0+  Si112  1  0.92781393  0.82291205  0.98539007  1
  Si0+  Si113  1  0.82240962  0.06934066  0.67915201  1
  Si0+  Si114  1  0.82330497  0.57103019  0.01376047  1
  Si0+  Si115  1  0.67994406  0.43050997  0.01401592  1
  Si0+  Si116  1  0.57408621  0.17772673  0.31438130  1
  Si0+  Si117  1  0.17989406  0.42717434  0.68213519  1
  Si0+  Si118  1  0.17941749  0.92900631  0.68194388  1
  Si0+  Si119  1  0.42890962  0.82066389  0.98588937  1
  O2-  O120  1  0.24984904  0.00103193  0.06289913  1
  O2-  O121  1  0.25342647  -0.00134243  0.40266778  1
  O2-  O122  1  0.25024027  0.00017657  0.72367130  1
  O2-  O123  1  0.24861774  0.49151169  0.05980379  1
  O2-  O124  1  0.24738777  0.49345752  0.39341166  1
  O2-  O125  1  0.25129213  0.49844388  0.72320465  1
  O2-  O126  1  0.74817745  0.00034576  0.06407731  1
  O2-  O127  1  0.75048390  0.00001804  0.39283619  1
  O2-  O128  1  0.75253479  -0.00289867  0.72074010  1
  O2-  O129  1  0.75091126  0.50178797  0.05625731  1
  O2-  O130  1  0.75074567  0.50085199  0.39701727  1
  O2-  O131  1  0.75018275  0.50060239  0.73609567  1
  O2-  O132  1  0.00010446  0.24919704  0.27550805  1
  O2-  O133  1  0.00681468  0.24614075  0.60427771  1
  O2-  O134  1  -0.00081130  0.24197964  0.94004713  1
  O2-  O135  1  -0.00768770  0.75449289  0.27160264  1
  O2-  O136  1  -0.00024197  0.74405541  0.60623773  1
  O2-  O137  1  -0.00127176  0.75744702  0.93969455  1
  O2-  O138  1  0.50378526  0.24637015  0.27369469  1
  O2-  O139  1  0.49722375  0.25704257  0.60580707  1
  O2-  O140  1  0.49254186  0.24590516  0.93417160  1
  O2-  O141  1  0.50250066  0.74420227  0.27250631  1
  O2-  O142  1  0.50245998  0.74246462  0.60528656  1
  O2-  O143  1  0.50193185  0.75678269  0.94100901  1
  O2-  O144  1  0.06952779  0.17930388  0.09052198  1
  O2-  O145  1  0.06788888  0.17877146  0.42386775  1
  O2-  O146  1  0.07623337  0.17740137  0.75498850  1
  O2-  O147  1  0.07064890  0.67837613  0.09751055  1
  O2-  O148  1  0.06641574  0.68095145  0.43212849  1
  O2-  O149  1  0.07573489  0.68159590  0.75424368  1
  O2-  O150  1  0.57168491  0.18396548  0.09906314  1
  O2-  O151  1  0.57561592  0.17834347  0.42038477  1
  O2-  O152  1  0.56775851  0.17501287  0.76390108  1
  O2-  O153  1  0.57334173  0.67695925  0.10066814  1
  O2-  O154  1  0.57172631  0.68294002  0.42564309  1
  O2-  O155  1  0.57196775  0.67796560  0.75528279  1
  O2-  O156  1  0.17196800  0.42709578  0.24382031  1
  O2-  O157  1  0.18016905  0.42518966  0.57708387  1
  O2-  O158  1  0.17263566  0.43320785  0.90910095  1
  O2-  O159  1  0.17964168  0.93135794  0.23868680  1
  O2-  O160  1  0.17920016  0.92899461  0.57733635  1
  O2-  O161  1  0.18009366  0.92801173  0.90030375  1
  O2-  O162  1  0.68072833  0.42775727  0.23387427  1
  O2-  O163  1  0.68103160  0.42761469  0.57295544  1
  O2-  O164  1  0.68206538  0.43013425  0.90914966  1
  O2-  O165  1  0.68007330  0.92768770  0.24579961  1
  O2-  O166  1  0.67777317  0.93320983  0.57326839  1
  O2-  O167  1  0.68047612  0.92484379  0.90015381  1
  O2-  O168  1  0.43075594  0.32563430  0.09785151  1
  O2-  O169  1  0.43091109  0.32042795  0.43424396  1
  O2-  O170  1  0.42227502  0.32030527  0.75499498  1
  O2-  O171  1  0.42844336  0.81664768  0.09124615  1
  O2-  O172  1  0.43093404  0.81889419  0.43102660  1
  O2-  O173  1  0.43070844  0.81936771  0.76686636  1
  O2-  O174  1  0.92932562  0.32182168  0.10054497  1
  O2-  O175  1  0.93119687  0.31772732  0.42398513  1
  O2-  O176  1  0.93154842  0.31770947  0.76344861  1
  O2-  O177  1  0.92487642  0.81959185  0.09068316  1
  O2-  O178  1  0.92634498  0.82670058  0.42048465  1
  O2-  O179  1  0.93312040  0.82567585  0.76709897  1
  O2-  O180  1  0.31862668  0.07439010  0.23756887  1
  O2-  O181  1  0.32027792  0.07108324  0.57641632  1
  O2-  O182  1  0.32076385  0.06961474  0.89967216  1
  O2-  O183  1  0.32081673  0.56990163  0.23397287  1
  O2-  O184  1  0.31769743  0.57405540  0.57698610  1
  O2-  O185  1  0.31910947  0.56917731  0.89870577  1
  O2-  O186  1  0.82135846  0.07353843  0.24585329  1
  O2-  O187  1  0.82251656  0.06765893  0.57359010  1
  O2-  O188  1  0.81835955  0.07240410  0.89989567  1
  O2-  O189  1  0.82364647  0.56806046  0.23288783  1
  O2-  O190  1  0.82146973  0.57036358  0.57133638  1
  O2-  O191  1  0.82309386  0.57112445  0.90884426  1
  O2-  O192  1  0.04029783  0.08649231  0.27185902  1
  O2-  O193  1  0.04842394  0.08459929  0.60245596  1
  O2-  O194  1  0.04779240  0.08025741  0.94110195  1
  O2-  O195  1  0.03945781  0.58284463  0.26366652  1
  O2-  O196  1  0.05243759  0.58328325  0.60455354  1
  O2-  O197  1  0.04014924  0.58671911  0.92699350  1
  O2-  O198  1  0.55135344  0.08343609  0.26988152  1
  O2-  O199  1  0.53772735  0.08565024  0.59341266  1
  O2-  O200  1  0.54478121  0.07698856  0.93484157  1
  O2-  O201  1  0.55046008  0.58311530  0.27805555  1
  O2-  O202  1  0.54715293  0.58031300  0.60673067  1
  O2-  O203  1  0.53982602  0.58592414  0.92882202  1
  O2-  O204  1  0.16202539  0.20450481  0.27130677  1
  O2-  O205  1  0.16853193  0.20438759  0.60320115  1
  O2-  O206  1  0.16159207  0.20315795  0.93528621  1
  O2-  O207  1  0.16438861  0.71164247  0.26599678  1
  O2-  O208  1  0.16386077  0.70908667  0.60099954  1
  O2-  O209  1  0.16871971  0.71062515  0.92925775  1
  O2-  O210  1  0.66851956  0.20332563  0.26967074  1
  O2-  O211  1  0.66654883  0.20766644  0.59556087  1
  O2-  O212  1  0.66486808  0.21021825  0.93122682  1
  O2-  O213  1  0.66599270  0.70698804  0.27442829  1
  O2-  O214  1  0.66576715  0.70099052  0.60349505  1
  O2-  O215  1  0.67058585  0.70756259  0.93191268  1
  O2-  O216  1  0.08256615  0.46132547  0.06152549  1
  O2-  O217  1  0.08477370  0.45665666  0.39766613  1
  O2-  O218  1  0.08848139  0.45514830  0.72981608  1
  O2-  O219  1  0.08031871  0.95067981  0.06967983  1
  O2-  O220  1  0.08037892  0.95927883  0.40387305  1
  O2-  O221  1  0.08761384  0.95740367  0.72925409  1
  O2-  O222  1  0.58819319  0.45989512  0.05948532  1
  O2-  O223  1  0.58257875  0.45494968  0.40552277  1
  O2-  O224  1  0.57915170  0.45120933  0.73835942  1
  O2-  O225  1  0.57984772  0.95113323  0.06912049  1
  O2-  O226  1  0.58763197  0.95871244  0.39800626  1
  O2-  O227  1  0.58697036  0.96173388  0.72560365  1
  O2-  O228  1  0.18953816  0.33332204  0.05851589  1
  O2-  O229  1  0.19823198  0.33288480  0.39580288  1
  O2-  O230  1  0.20647918  0.33543013  0.73111300  1
  O2-  O231  1  0.20955087  0.82959434  0.06711854  1
  O2-  O232  1  0.20637005  0.83037780  0.40494493  1
  O2-  O233  1  0.20763486  0.83677769  0.72861690  1
  O2-  O234  1  0.70797374  0.33953971  0.06182199  1
  O2-  O235  1  0.70907790  0.32971685  0.40113503  1
  O2-  O236  1  0.71203167  0.32719823  0.73520864  1
  O2-  O237  1  0.70981383  0.82919783  0.07028020  1
  O2-  O238  1  0.70551791  0.83856984  0.40078865  1
  O2-  O239  1  0.70011296  0.83600115  0.72319417  1
  O2-  O240  1  0.46125495  0.41925537  0.26907445  1
  O2-  O241  1  0.44902995  0.41906991  0.60758708  1
  O2-  O242  1  0.45919735  0.41823257  0.92893968  1
  O2-  O243  1  0.46082680  0.91746928  0.26558824  1
  O2-  O244  1  0.46221638  0.91326618  0.59633042  1
  O2-  O245  1  0.44872840  0.91641900  0.94274781  1
  O2-  O246  1  0.95701686  0.41123110  0.27197750  1
  O2-  O247  1  0.96419132  0.41662632  0.59691481  1
  O2-  O248  1  0.96213970  0.41361284  0.92853775  1
  O2-  O249  1  0.95175773  0.91934885  0.26996323  1
  O2-  O250  1  0.96118389  0.91679632  0.59706257  1
  O2-  O251  1  0.95022984  0.91884699  0.94237501  1
  O2-  O252  1  0.33114613  0.29431565  0.26837514  1
  O2-  O253  1  0.33324062  0.29560567  0.60269719  1
  O2-  O254  1  0.32321467  0.30370292  0.93453502  1
  O2-  O255  1  0.33142871  0.79083099  0.26634282  1
  O2-  O256  1  0.33327779  0.78847917  0.59909721  1
  O2-  O257  1  0.33792515  0.78956752  0.93749427  1
  O2-  O258  1  0.83768340  0.28973528  0.27283743  1
  O2-  O259  1  0.83657520  0.28718250  0.59426661  1
  O2-  O260  1  0.83209149  0.29038147  0.93129770  1
  O2-  O261  1  0.83006529  0.80285102  0.27077404  1
  O2-  O262  1  0.83091003  0.79533249  0.59941816  1
  O2-  O263  1  0.83584493  0.79515826  0.93721851  1
  O2-  O264  1  0.41956019  0.04980692  0.06881103  1
  O2-  O265  1  0.42328991  0.04714599  0.40035982  1
  O2-  O266  1  0.41388611  0.03886569  0.72589717  1
  O2-  O267  1  0.41936106  0.53974482  0.06554849  1
  O2-  O268  1  0.41581696  0.54212198  0.40461487  1
  O2-  O269  1  0.41256012  0.54914355  0.72874912  1
  O2-  O270  1  0.91693895  0.04824339  0.06981752  1
  O2-  O271  1  0.91257934  0.04474823  0.39932030  1
  O2-  O272  1  0.91506507  0.04372358  0.72592372  1
  O2-  O273  1  0.91510004  0.53948125  0.05866379  1
  O2-  O274  1  0.92055214  0.54118445  0.40112539  1
  O2-  O275  1  0.92310183  0.54376719  0.73418008  1
  O2-  O276  1  0.29090078  0.17322867  0.06480175  1
  O2-  O277  1  0.28947166  0.16996100  0.40478056  1
  O2-  O278  1  0.29621780  0.16248782  0.72864452  1
  O2-  O279  1  0.28890096  0.66301756  0.06645427  1
  O2-  O280  1  0.28512923  0.66497567  0.40207819  1
  O2-  O281  1  0.28765137  0.66323871  0.73012854  1
  O2-  O282  1  0.78883877  0.17142359  0.06822694  1
  O2-  O283  1  0.79300728  0.16211513  0.39989411  1
  O2-  O284  1  0.79365383  0.16171478  0.72316161  1
  O2-  O285  1  0.79883469  0.66291280  0.06147100  1
  O2-  O286  1  0.79927446  0.67230101  0.39839698  1
  O2-  O287  1  0.79549460  0.67211250  0.73601675  1
