# generated using pymatgen
data_Ca2Al2SiO7
_symmetry_space_group_name_H-M   'P 1'
_cell_length_a   15.46005149
_cell_length_b   15.45931254
_cell_length_c   15.28532691
_cell_angle_alpha   89.99690285
_cell_angle_beta   90.00520726
_cell_angle_gamma   89.98760403
_symmetry_Int_Tables_number   1
_chemical_formula_structural   Ca2Al2SiO7
_chemical_formula_sum   'Ca48 Al48 Si24 O168'
_cell_volume   3653.22004892
_cell_formula_units_Z   24
loop_
 _symmetry_equiv_pos_site_id
 _symmetry_equiv_pos_as_xyz
  1  'x, y, z'
loop_
 _atom_type_symbol
 _atom_type_oxidation_number
  Ca2+  2.0
  Al0+  0.0
  Si0+  0.0
  O2-  -2.0
loop_
 _atom_site_type_symbol
 _atom_site_label
 _atom_site_symmetry_multiplicity
 _atom_site_fract_x
 _atom_site_fract_y
 _atom_site_fract_z
 _atom_site_occupancy
  Ca2+  Ca0  1  0.16729557  0.08827884  0.17289778  1
  Ca2+  Ca1  1  0.17760162  0.09178695  0.50031480  1
  Ca2+  Ca2  1  0.17289577  0.08390740  0.83818936  1
  Ca2+  Ca3  1  0.16965918  0.58501683  0.17231618  1
  Ca2+  Ca4  1  0.15955361  0.57016248  0.50268578  1
  Ca2+  Ca5  1  0.17062044  0.58130557  0.84334109  1
  Ca2+  Ca6  1  0.67380722  0.07483184  0.16894994  1
  Ca2+  Ca7  1  0.67078006  0.07838841  0.49779208  1
  Ca2+  Ca8  1  0.67096316  0.07676026  0.85019197  1
  Ca2+  Ca9  1  0.66045412  0.58083950  0.16865086  1
  Ca2+  Ca10  1  0.66291644  0.58693229  0.50108099  1
  Ca2+  Ca11  1  0.65787727  0.57894649  0.84237814  1
  Ca2+  Ca12  1  0.07454563  0.32399491  0.16492806  1
  Ca2+  Ca13  1  0.08301085  0.33208698  0.48625720  1
  Ca2+  Ca14  1  0.08186211  0.33196556  0.83566744  1
  Ca2+  Ca15  1  0.08123179  0.82510041  0.15719560  1
  Ca2+  Ca16  1  0.08343188  0.82479940  0.49300536  1
  Ca2+  Ca17  1  0.07955374  0.83034818  0.83836635  1
  Ca2+  Ca18  1  0.58006617  0.32881091  0.15909521  1
  Ca2+  Ca19  1  0.57092705  0.33025355  0.49093289  1
  Ca2+  Ca20  1  0.58854162  0.32806252  0.83758371  1
  Ca2+  Ca21  1  0.58520395  0.82853972  0.15914037  1
  Ca2+  Ca22  1  0.58190300  0.82695560  0.49527017  1
  Ca2+  Ca23  1  0.57637188  0.82939625  0.83021585  1
  Ca2+  Ca24  1  0.32973111  0.42257574  0.17297699  1
  Ca2+  Ca25  1  0.32018846  0.41115292  0.50174465  1
  Ca2+  Ca26  1  0.32750101  0.42573673  0.84061947  1
  Ca2+  Ca27  1  0.33581212  0.92193987  0.17003307  1
  Ca2+  Ca28  1  0.33767027  0.92733257  0.50362471  1
  Ca2+  Ca29  1  0.34082923  0.91552128  0.83713286  1
  Ca2+  Ca30  1  0.83147347  0.40888479  0.16681549  1
  Ca2+  Ca31  1  0.83614965  0.41773576  0.50009125  1
  Ca2+  Ca32  1  0.82729797  0.41862636  0.84519823  1
  Ca2+  Ca33  1  0.82838907  0.92190092  0.17023965  1
  Ca2+  Ca34  1  0.83005763  0.92001968  0.49729809  1
  Ca2+  Ca35  1  0.82658846  0.92044175  0.84914687  1
  Ca2+  Ca36  1  0.41773049  0.17180474  0.16454286  1
  Ca2+  Ca37  1  0.40935735  0.16915006  0.49169805  1
  Ca2+  Ca38  1  0.42517091  0.16019142  0.83128195  1
  Ca2+  Ca39  1  0.42465379  0.67125859  0.15560061  1
  Ca2+  Ca40  1  0.42658168  0.67023966  0.49502538  1
  Ca2+  Ca41  1  0.42232132  0.67432706  0.83324677  1
  Ca2+  Ca42  1  0.91834793  0.16818045  0.15776314  1
  Ca2+  Ca43  1  0.92463090  0.17421053  0.48574647  1
  Ca2+  Ca44  1  0.91687614  0.16786462  0.83768854  1
  Ca2+  Ca45  1  0.92881372  0.67148690  0.16085859  1
  Ca2+  Ca46  1  0.92242199  0.66813647  0.49080645  1
  Ca2+  Ca47  1  0.91528951  0.67215434  0.83772785  1
  Al0+  Al48  1  0.00250421  0.00031286  -0.00483423  1
  Al0+  Al49  1  0.00029574  -0.00057229  0.33689578  1
  Al0+  Al50  1  0.00183008  0.00116848  0.66485156  1
  Al0+  Al51  1  -0.00011430  0.49750951  -0.00618619  1
  Al0+  Al52  1  -0.00071140  0.50020503  0.32886742  1
  Al0+  Al53  1  -0.00235060  0.49900531  0.67337279  1
  Al0+  Al54  1  0.50051710  0.00132092  -0.00121591  1
  Al0+  Al55  1  0.50034237  -0.00031289  0.34286077  1
  Al0+  Al56  1  0.50230716  -0.00063748  0.66601576  1
  Al0+  Al57  1  0.49761306  0.50021658  0.00539438  1
  Al0+  Al58  1  0.49911672  0.50063531  0.32816608  1
  Al0+  Al59  1  0.49917315  0.49815768  0.66336538  1
  Al0+  Al60  1  0.24880942  0.25171374  -0.00357385  1
  Al0+  Al61  1  0.24895670  0.25235141  0.33142297  1
  Al0+  Al62  1  0.25014604  0.24896528  0.67816564  1
  Al0+  Al63  1  0.25170088  0.75074895  -0.00315843  1
  Al0+  Al64  1  0.25319032  0.75055477  0.33270063  1
  Al0+  Al65  1  0.24914232  0.75080989  0.66088369  1
  Al0+  Al66  1  0.74919478  0.25096993  -0.00013196  1
  Al0+  Al67  1  0.74802977  0.25043797  0.33763799  1
  Al0+  Al68  1  0.75112082  0.25105291  0.66447274  1
  Al0+  Al69  1  0.75082286  0.74730160  -0.00265927  1
  Al0+  Al70  1  0.74961585  0.74820397  0.33450068  1
  Al0+  Al71  1  0.75133769  0.75041808  0.66317019  1
  Al0+  Al72  1  0.31806156  0.07091047  0.34445957  1
  Al0+  Al73  1  0.31857194  0.57211265  0.01402111  1
  Al0+  Al74  1  0.57117259  0.68029375  0.31731675  1
  Al0+  Al75  1  0.56919182  0.18082449  0.98903409  1
  Al0+  Al76  1  0.92631411  0.32140090  0.31885362  1
  Al0+  Al77  1  0.82283517  0.07061193  0.01385965  1
  Al0+  Al78  1  0.67998735  0.92673837  0.35046401  1
  Al0+  Al79  1  0.32182625  0.06855663  0.68256055  1
  Al0+  Al80  1  0.43008542  0.82297146  0.98646918  1
  Al0+  Al81  1  0.67907495  0.43030305  0.01449422  1
  Al0+  Al82  1  0.57145404  0.67681540  0.98603985  1
  Al0+  Al83  1  0.92745683  0.31934801  0.98318310  1
  Al0+  Al84  1  0.57106391  0.67745019  0.65023231  1
  Al0+  Al85  1  0.07282849  0.67815422  0.98472056  1
  Al0+  Al86  1  0.07101657  0.17787233  0.32016807  1
  Al0+  Al87  1  0.17965110  0.43343670  0.34397696  1
  Al0+  Al88  1  0.07258895  0.67955111  0.32154229  1
  Al0+  Al89  1  0.07297780  0.17779396  0.98235700  1
  Al0+  Al90  1  0.67730361  0.92620190  0.01400537  1
  Al0+  Al91  1  0.42801538  0.82290850  0.64813795  1
  Al0+  Al92  1  0.82298697  0.07314121  0.34957489  1
  Al0+  Al93  1  0.92879329  0.82116401  0.98689238  1
  Al0+  Al94  1  0.42754375  0.32027577  0.32021463  1
  Al0+  Al95  1  0.17741465  0.42937088  0.68303346  1
  Si0+  Si96  1  0.57131669  0.17678894  0.31853695  1
  Si0+  Si97  1  0.07215000  0.18057489  0.65116261  1
  Si0+  Si98  1  0.82220091  0.07213636  0.68150570  1
  Si0+  Si99  1  0.67552041  0.42854924  0.34962896  1
  Si0+  Si100  1  0.82449352  0.57161249  0.01763772  1
  Si0+  Si101  1  0.82012696  0.57167589  0.68165272  1
  Si0+  Si102  1  0.32184437  0.57231941  0.68143351  1
  Si0+  Si103  1  0.42822842  0.31840101  0.65347910  1
  Si0+  Si104  1  0.57319818  0.17915781  0.65105286  1
  Si0+  Si105  1  0.68253634  0.92931933  0.68258783  1
  Si0+  Si106  1  0.92907030  0.32113913  0.65071877  1
  Si0+  Si107  1  0.32175575  0.07302928  0.01490288  1
  Si0+  Si108  1  0.92951922  0.82241591  0.65026379  1
  Si0+  Si109  1  0.67803783  0.42895125  0.67990423  1
  Si0+  Si110  1  0.42723434  0.32289835  0.98235061  1
  Si0+  Si111  1  0.18054562  0.93008993  0.01371524  1
  Si0+  Si112  1  0.06872544  0.67710807  0.65206750  1
  Si0+  Si113  1  0.92839735  0.82146549  0.31875125  1
  Si0+  Si114  1  0.42960515  0.82455202  0.31677312  1
  Si0+  Si115  1  0.81976227  0.56861225  0.34742585  1
  Si0+  Si116  1  0.17653792  0.42731655  0.01922654  1
  Si0+  Si117  1  0.17750869  0.92457023  0.34957628  1
  Si0+  Si118  1  0.32412380  0.57373599  0.35163806  1
  Si0+  Si119  1  0.17645776  0.92616818  0.68373585  1
  O2-  O120  1  0.24978031  0.00281909  0.05618530  1
  O2-  O121  1  0.24304451  -0.00312262  0.39314768  1
  O2-  O122  1  0.24939555  -0.00934876  0.72778136  1
  O2-  O123  1  0.24208915  0.49948860  0.06165578  1
  O2-  O124  1  0.25253493  0.50793213  0.39589155  1
  O2-  O125  1  0.25048926  0.50693687  0.72691938  1
  O2-  O126  1  0.75291822  -0.00425406  0.06197688  1
  O2-  O127  1  0.75177283  0.00005986  0.40053346  1
  O2-  O128  1  0.75266757  0.00092331  0.72494409  1
  O2-  O129  1  0.75360925  0.50509648  0.06169481  1
  O2-  O130  1  0.74869879  0.49785831  0.39165979  1
  O2-  O131  1  0.74469155  0.50424601  0.72154982  1
  O2-  O132  1  -0.00865400  0.24194961  0.27150650  1
  O2-  O133  1  0.00161407  0.25202432  0.60880476  1
  O2-  O134  1  -0.00009405  0.24852420  0.93159230  1
  O2-  O135  1  0.00393606  0.75993695  0.27614289  1
  O2-  O136  1  0.00035896  0.75047148  0.60874845  1
  O2-  O137  1  -0.00157616  0.74762561  0.93436502  1
  O2-  O138  1  0.50316838  0.24609319  0.27506519  1
  O2-  O139  1  0.49866625  0.24708794  0.60982909  1
  O2-  O140  1  0.49434464  0.25320011  0.93735166  1
  O2-  O141  1  0.49714296  0.75558243  0.27262117  1
  O2-  O142  1  0.49904372  0.74898612  0.59954696  1
  O2-  O143  1  0.50397830  0.75276806  0.93644216  1
  O2-  O144  1  0.07593172  0.17929232  0.09534699  1
  O2-  O145  1  0.07378366  0.18385236  0.43471060  1
  O2-  O146  1  0.07017356  0.17932825  0.75572027  1
  O2-  O147  1  0.07287254  0.68136899  0.09833658  1
  O2-  O148  1  0.06724051  0.67826404  0.43563054  1
  O2-  O149  1  0.06702827  0.67724098  0.75654849  1
  O2-  O150  1  0.56580161  0.18132329  0.10186176  1
  O2-  O151  1  0.57038637  0.17981036  0.42516590  1
  O2-  O152  1  0.57556924  0.18108894  0.75597303  1
  O2-  O153  1  0.56777670  0.67663750  0.09939487  1
  O2-  O154  1  0.56976360  0.67967375  0.43076541  1
  O2-  O155  1  0.57132721  0.67593202  0.76295910  1
  O2-  O156  1  0.18162544  0.43543384  0.23181994  1
  O2-  O157  1  0.17650635  0.42885901  0.56955955  1
  O2-  O158  1  0.18006947  0.42750245  0.91290614  1
  O2-  O159  1  0.17953660  0.92114478  0.24423253  1
  O2-  O160  1  0.17214884  0.92818090  0.57827011  1
  O2-  O161  1  0.18135768  0.93004168  0.90834477  1
  O2-  O162  1  0.67389712  0.42881854  0.24515878  1
  O2-  O163  1  0.67991383  0.42643494  0.57480445  1
  O2-  O164  1  0.67969998  0.43085775  0.90028260  1
  O2-  O165  1  0.68071564  0.92628039  0.23751184  1
  O2-  O166  1  0.68462262  0.92974829  0.57758245  1
  O2-  O167  1  0.67723884  0.93006789  0.89945038  1
  O2-  O168  1  0.42705485  0.32086875  0.08790513  1
  O2-  O169  1  0.42808873  0.31885848  0.43446113  1
  O2-  O170  1  0.43102474  0.31973442  0.75824594  1
  O2-  O171  1  0.42829535  0.82324362  0.09995825  1
  O2-  O172  1  0.42946491  0.82320837  0.42250145  1
  O2-  O173  1  0.43125288  0.82303612  0.76123905  1
  O2-  O174  1  0.92800278  0.31824871  0.09629292  1
  O2-  O175  1  0.93061055  0.32441628  0.43363242  1
  O2-  O176  1  0.92525705  0.31983722  0.75499576  1
  O2-  O177  1  0.93297388  0.82111094  0.10045176  1
  O2-  O178  1  0.92841141  0.81718372  0.42543822  1
  O2-  O179  1  0.92815599  0.82245392  0.75472631  1
  O2-  O180  1  0.31893043  0.06963900  0.23147772  1
  O2-  O181  1  0.31782928  0.07286329  0.56944915  1
  O2-  O182  1  0.32176690  0.07177993  0.90962826  1
  O2-  O183  1  0.32381968  0.57309391  0.24636910  1
  O2-  O184  1  0.32181676  0.56861044  0.57582625  1
  O2-  O185  1  0.31806283  0.56932877  0.90014937  1
  O2-  O186  1  0.82164904  0.07237964  0.23675092  1
  O2-  O187  1  0.82076013  0.07195628  0.57671131  1
  O2-  O188  1  0.81925025  0.06971679  0.89902703  1
  O2-  O189  1  0.81995078  0.56977443  0.24309589  1
  O2-  O190  1  0.82475408  0.56928899  0.57638934  1
  O2-  O191  1  0.82434958  0.56955766  0.91131460  1
  O2-  O192  1  0.05392936  0.07480402  0.27291847  1
  O2-  O193  1  0.04559968  0.08833189  0.60339987  1
  O2-  O194  1  0.04857807  0.07956958  0.92729908  1
  O2-  O195  1  0.03615506  0.58709526  0.26566606  1
  O2-  O196  1  0.03554207  0.58568624  0.60612082  1
  O2-  O197  1  0.04744798  0.57941039  0.93193349  1
  O2-  O198  1  0.54484386  0.08265273  0.27618617  1
  O2-  O199  1  0.54936507  0.08641610  0.60477450  1
  O2-  O200  1  0.53855899  0.08597500  0.93138268  1
  O2-  O201  1  0.54123171  0.58348499  0.26479510  1
  O2-  O202  1  0.54413216  0.57750848  0.59716439  1
  O2-  O203  1  0.53658494  0.57948936  0.93390481  1
  O2-  O204  1  0.16554124  0.21310392  0.26544448  1
  O2-  O205  1  0.16558892  0.20955080  0.60805961  1
  O2-  O206  1  0.17048432  0.20951942  0.92730450  1
  O2-  O207  1  0.17147112  0.70477547  0.27023221  1
  O2-  O208  1  0.16105472  0.70047240  0.60369863  1
  O2-  O209  1  0.16826103  0.71147967  0.92945468  1
  O2-  O210  1  0.66466414  0.20300696  0.27443562  1
  O2-  O211  1  0.66325857  0.21119950  0.60178603  1
  O2-  O212  1  0.66356342  0.21341385  0.93200706  1
  O2-  O213  1  0.66951467  0.70736475  0.26608730  1
  O2-  O214  1  0.67087821  0.70614603  0.59824655  1
  O2-  O215  1  0.67229204  0.69496509  0.93468178  1
  O2-  O216  1  0.08043063  0.44830251  0.06020656  1
  O2-  O217  1  0.08264604  0.46441387  0.39946552  1
  O2-  O218  1  0.08066721  0.45878757  0.73758638  1
  O2-  O219  1  0.08871190  0.95593561  0.06111233  1
  O2-  O220  1  0.08261982  0.94345109  0.39619710  1
  O2-  O221  1  0.08435714  0.95713088  0.73111723  1
  O2-  O222  1  0.58237432  0.45821277  0.06928598  1
  O2-  O223  1  0.58453625  0.45976396  0.39802402  1
  O2-  O224  1  0.58459670  0.45145078  0.72661469  1
  O2-  O225  1  0.58061818  0.95980347  0.06725591  1
  O2-  O226  1  0.58310652  0.95623058  0.40708714  1
  O2-  O227  1  0.59012318  0.95667725  0.72784605  1
  O2-  O228  1  0.20634436  0.33433106  0.06367992  1
  O2-  O229  1  0.21275113  0.33784709  0.39973834  1
  O2-  O230  1  0.21049719  0.33531098  0.73954253  1
  O2-  O231  1  0.20963592  0.83909207  0.06145528  1
  O2-  O232  1  0.20707624  0.83285083  0.39940938  1
  O2-  O233  1  0.19671449  0.82997595  0.72700180  1
  O2-  O234  1  0.70950798  0.33421339  0.06863682  1
  O2-  O235  1  0.69912159  0.33696209  0.40007803  1
  O2-  O236  1  0.71045640  0.33816094  0.72767799  1
  O2-  O237  1  0.70316253  0.82597876  0.06341426  1
  O2-  O238  1  0.71209854  0.82913357  0.40510263  1
  O2-  O239  1  0.71133222  0.83677675  0.72785181  1
  O2-  O240  1  0.45786656  0.41596562  0.26589362  1
  O2-  O241  1  0.45544645  0.40914859  0.60357990  1
  O2-  O242  1  0.45548306  0.41549862  0.93684218  1
  O2-  O243  1  0.45507174  0.91922042  0.27380920  1
  O2-  O244  1  0.46010827  0.92129582  0.59616882  1
  O2-  O245  1  0.45582435  0.92141809  0.93226231  1
  O2-  O246  1  0.95863643  0.41699616  0.26449011  1
  O2-  O247  1  0.95479458  0.41509983  0.60618231  1
  O2-  O248  1  0.95465782  0.41733626  0.92784039  1
  O2-  O249  1  0.94583699  0.91768462  0.27710462  1
  O2-  O250  1  0.95839856  0.91403312  0.60220485  1
  O2-  O251  1  0.96017719  0.91678669  0.93001251  1
  O2-  O252  1  0.33355173  0.28907729  0.26376550  1
  O2-  O253  1  0.33534080  0.28888146  0.60890638  1
  O2-  O254  1  0.33372938  0.29949553  0.93566692  1
  O2-  O255  1  0.33520061  0.80135684  0.27173039  1
  O2-  O256  1  0.32742208  0.79969231  0.59594063  1
  O2-  O257  1  0.33350499  0.79295362  0.93066262  1
  O2-  O258  1  0.82359523  0.30178184  0.27246384  1
  O2-  O259  1  0.83759282  0.29315495  0.60138287  1
  O2-  O260  1  0.82943002  0.29154935  0.92861657  1
  O2-  O261  1  0.83819831  0.78780681  0.27298368  1
  O2-  O262  1  0.83905188  0.79360410  0.60076248  1
  O2-  O263  1  0.83170453  0.79243881  0.93054313  1
  O2-  O264  1  0.41269832  0.04538992  0.06285503  1
  O2-  O265  1  0.41364814  0.04276128  0.40296415  1
  O2-  O266  1  0.42120197  0.04162628  0.73381194  1
  O2-  O267  1  0.41260600  0.53857017  0.07061614  1
  O2-  O268  1  0.41668156  0.54343443  0.39751883  1
  O2-  O269  1  0.41444584  0.54189804  0.72736114  1
  O2-  O270  1  0.92344218  0.04504500  0.06277275  1
  O2-  O271  1  0.92170389  0.04546026  0.40516274  1
  O2-  O272  1  0.91572050  0.04597805  0.72605859  1
  O2-  O273  1  0.91824176  0.54344935  0.06206924  1
  O2-  O274  1  0.91080678  0.53970367  0.39701380  1
  O2-  O275  1  0.90853070  0.54031888  0.73320446  1
  O2-  O276  1  0.29443839  0.16624860  0.05963276  1
  O2-  O277  1  0.28661639  0.16734990  0.39984260  1
  O2-  O278  1  0.29019608  0.16289955  0.74004932  1
  O2-  O279  1  0.28989524  0.66951604  0.06753943  1
  O2-  O280  1  0.30271281  0.66878047  0.39691571  1
  O2-  O281  1  0.29850176  0.66803490  0.72373379  1
  O2-  O282  1  0.79100569  0.16789562  0.06480902  1
  O2-  O283  1  0.79225953  0.17086646  0.40558585  1
  O2-  O284  1  0.79371318  0.16498815  0.72677170  1
  O2-  O285  1  0.80365709  0.66629935  0.06237954  1
  O2-  O286  1  0.79246939  0.65931566  0.39827772  1
  O2-  O287  1  0.79735052  0.66574195  0.72685656  1
