# generated using pymatgen
data_Ca2Al2SiO7
_symmetry_space_group_name_H-M   'P 1'
_cell_length_a   15.45945390
_cell_length_b   15.45890061
_cell_length_c   15.28395677
_cell_angle_alpha   90.01483130
_cell_angle_beta   89.98339238
_cell_angle_gamma   90.00304161
_symmetry_Int_Tables_number   1
_chemical_formula_structural   Ca2Al2SiO7
_chemical_formula_sum   'Ca48 Al48 Si24 O168'
_cell_volume   3652.65387686
_cell_formula_units_Z   24
loop_
 _symmetry_equiv_pos_site_id
 _symmetry_equiv_pos_as_xyz
  1  'x, y, z'
loop_
 _atom_type_symbol
 _atom_type_oxidation_number
  Ca2+  2.0
  Al0+  0.0
  Si0+  0.0
  O2-  -2.0
loop_
 _atom_site_type_symbol
 _atom_site_label
 _atom_site_symmetry_multiplicity
 _atom_site_fract_x
 _atom_site_fract_y
 _atom_site_fract_z
 _atom_site_occupancy
  Ca2+  Ca0  1  0.16342459  0.08030521  0.16997339  1
  Ca2+  Ca1  1  0.15691359  0.07053472  0.50437341  1
  Ca2+  Ca2  1  0.15969416  0.08285208  0.83159294  1
  Ca2+  Ca3  1  0.17671962  0.57732196  0.17346390  1
  Ca2+  Ca4  1  0.17447163  0.57352057  0.50374390  1
  Ca2+  Ca5  1  0.17843379  0.57495329  0.83198944  1
  Ca2+  Ca6  1  0.67170010  0.07781961  0.17228349  1
  Ca2+  Ca7  1  0.67402846  0.08360967  0.50117473  1
  Ca2+  Ca8  1  0.66464397  0.07626362  0.84071554  1
  Ca2+  Ca9  1  0.67223455  0.57560384  0.16892808  1
  Ca2+  Ca10  1  0.67783182  0.59201078  0.50426086  1
  Ca2+  Ca11  1  0.66971687  0.58287512  0.83437066  1
  Ca2+  Ca12  1  0.07371968  0.33556622  0.16032789  1
  Ca2+  Ca13  1  0.07795717  0.34072269  0.49652626  1
  Ca2+  Ca14  1  0.07936245  0.32510027  0.82271483  1
  Ca2+  Ca15  1  0.07925108  0.83668325  0.16833019  1
  Ca2+  Ca16  1  0.08427205  0.83323417  0.49227367  1
  Ca2+  Ca17  1  0.08423915  0.83101016  0.82710761  1
  Ca2+  Ca18  1  0.58111294  0.33469616  0.15886093  1
  Ca2+  Ca19  1  0.57508044  0.33888322  0.50112249  1
  Ca2+  Ca20  1  0.57418305  0.34524833  0.83352453  1
  Ca2+  Ca21  1  0.57249262  0.83183004  0.15962044  1
  Ca2+  Ca22  1  0.57111301  0.82526575  0.49689358  1
  Ca2+  Ca23  1  0.57361444  0.82885604  0.82556927  1
  Ca2+  Ca24  1  0.33170671  0.42637888  0.17424223  1
  Ca2+  Ca25  1  0.32354858  0.42186755  0.51033625  1
  Ca2+  Ca26  1  0.34023035  0.42394709  0.83919566  1
  Ca2+  Ca27  1  0.33044405  0.91479261  0.17390592  1
  Ca2+  Ca28  1  0.32542871  0.91007717  0.50517278  1
  Ca2+  Ca29  1  0.33176797  0.91121187  0.83540534  1
  Ca2+  Ca30  1  0.83164178  0.41300436  0.17289540  1
  Ca2+  Ca31  1  0.84026855  0.42523265  0.50568764  1
  Ca2+  Ca32  1  0.83308431  0.41617755  0.83588370  1
  Ca2+  Ca33  1  0.82878738  0.92144110  0.17540992  1
  Ca2+  Ca34  1  0.84236406  0.92467401  0.50221574  1
  Ca2+  Ca35  1  0.82301395  0.91879752  0.84078797  1
  Ca2+  Ca36  1  0.41704932  0.17488114  0.16011013  1
  Ca2+  Ca37  1  0.41386936  0.17266450  0.50207840  1
  Ca2+  Ca38  1  0.41585487  0.18092652  0.82929439  1
  Ca2+  Ca39  1  0.40532455  0.67419824  0.16284365  1
  Ca2+  Ca40  1  0.40891898  0.67017127  0.49857561  1
  Ca2+  Ca41  1  0.41720997  0.67067823  0.82439259  1
  Ca2+  Ca42  1  0.92146527  0.17401233  0.16154892  1
  Ca2+  Ca43  1  0.92027762  0.17795323  0.49508010  1
  Ca2+  Ca44  1  0.92460040  0.17800243  0.82886071  1
  Ca2+  Ca45  1  0.91489248  0.66782206  0.16958117  1
  Ca2+  Ca46  1  0.91565936  0.66847339  0.49142938  1
  Ca2+  Ca47  1  0.91637670  0.66584542  0.82617773  1
  Al0+  Al48  1  -0.00070081  -0.00037635  -0.00357319  1
  Al0+  Al49  1  -0.00135331  0.00036929  0.33563674  1
  Al0+  Al50  1  -0.00041031  0.00156032  0.67127816  1
  Al0+  Al51  1  0.00139139  0.50289834  -0.00403009  1
  Al0+  Al52  1  -0.00075703  0.50027052  0.33303457  1
  Al0+  Al53  1  0.00103937  0.50150585  0.67290008  1
  Al0+  Al54  1  0.49732876  -0.00082230  0.00156263  1
  Al0+  Al55  1  0.50006212  -0.00049119  0.33022123  1
  Al0+  Al56  1  0.49887665  -0.00042274  0.66237559  1
  Al0+  Al57  1  0.50363639  0.50303369  0.00721397  1
  Al0+  Al58  1  0.50166779  0.50111963  0.33589125  1
  Al0+  Al59  1  0.50355915  0.50098605  0.65963287  1
  Al0+  Al60  1  0.24934104  0.24889415  -0.00665043  1
  Al0+  Al61  1  0.25007994  0.24833852  0.33543974  1
  Al0+  Al62  1  0.24940268  0.24460133  0.66073408  1
  Al0+  Al63  1  0.24843909  0.75049330  -0.00004929  1
  Al0+  Al64  1  0.24957325  0.74991014  0.33479153  1
  Al0+  Al65  1  0.24767123  0.74941044  0.67157354  1
  Al0+  Al66  1  0.75105723  0.24955826  0.00012013  1
  Al0+  Al67  1  0.74972701  0.24791488  0.33465311  1
  Al0+  Al68  1  0.75161454  0.25050128  0.66490980  1
  Al0+  Al69  1  0.74882089  0.75081658  0.00584106  1
  Al0+  Al70  1  0.74720961  0.74948450  0.33063576  1
  Al0+  Al71  1  0.74891976  0.75123302  0.66773088  1
  Al0+  Al72  1  0.57314599  0.67882140  0.65091069  1
  Al0+  Al73  1  0.82100065  0.57248494  0.68036663  1
  Al0+  Al74  1  0.67619398  0.92879484  0.01470259  1
  Al0+  Al75  1  0.18024967  0.93146786  0.34480394  1
  Al0+  Al76  1  0.42645916  0.81974834  0.65067702  1
  Al0+  Al77  1  0.68190609  0.42945856  0.01306997  1
  Al0+  Al78  1  0.42775448  0.82056611  0.98562617  1
  Al0+  Al79  1  0.07105376  0.17762552  0.98384594  1
  Al0+  Al80  1  0.07074706  0.17669366  0.64788542  1
  Al0+  Al81  1  0.17967461  0.42512496  0.68285024  1
  Al0+  Al82  1  0.32239662  0.57127846  0.34939250  1
  Al0+  Al83  1  0.17898959  0.92949652  0.68229932  1
  Al0+  Al84  1  0.43150341  0.32335878  0.98994036  1
  Al0+  Al85  1  0.42829495  0.81870053  0.31795742  1
  Al0+  Al86  1  0.81991653  0.07006439  0.34754923  1
  Al0+  Al87  1  0.42971742  0.32149472  0.65302025  1
  Al0+  Al88  1  0.32120258  0.57096107  0.01389000  1
  Al0+  Al89  1  0.32322021  0.56869090  0.68222421  1
  Al0+  Al90  1  0.92963355  0.32203991  0.31887369  1
  Al0+  Al91  1  0.92823221  0.82241781  0.32062896  1
  Al0+  Al92  1  0.93036603  0.32287972  0.64965700  1
  Al0+  Al93  1  0.92753304  0.32364549  0.98402665  1
  Al0+  Al94  1  0.81886057  0.57048686  0.34557831  1
  Al0+  Al95  1  0.17876225  0.42683986  0.34641525  1
  Si0+  Si96  1  0.67612860  0.92800206  0.35143231  1
  Si0+  Si97  1  0.82041319  0.07233621  0.68412341  1
  Si0+  Si98  1  0.07139449  0.68080315  0.98393103  1
  Si0+  Si99  1  0.67822047  0.42547553  0.35163467  1
  Si0+  Si100  1  0.31998429  0.07273303  0.01432366  1
  Si0+  Si101  1  0.92753897  0.82010827  0.98547465  1
  Si0+  Si102  1  0.67844653  0.93100028  0.68032918  1
  Si0+  Si103  1  0.57317063  0.17592705  0.65024462  1
  Si0+  Si104  1  0.57101562  0.17901790  0.31798499  1
  Si0+  Si105  1  0.82173439  0.06970392  0.01666367  1
  Si0+  Si106  1  0.82540852  0.57338409  0.01776288  1
  Si0+  Si107  1  0.07178285  0.17712080  0.31686758  1
  Si0+  Si108  1  0.57388056  0.67972069  0.98400383  1
  Si0+  Si109  1  0.17803879  0.92924378  0.01543784  1
  Si0+  Si110  1  0.42899732  0.32120823  0.31900944  1
  Si0+  Si111  1  0.67945241  0.42628063  0.68239204  1
  Si0+  Si112  1  0.06997685  0.67999618  0.65240303  1
  Si0+  Si113  1  0.17856715  0.42638819  0.01466602  1
  Si0+  Si114  1  0.32514174  0.07037266  0.68496038  1
  Si0+  Si115  1  0.07112791  0.67858805  0.31626879  1
  Si0+  Si116  1  0.32525297  0.07272907  0.35008961  1
  Si0+  Si117  1  0.57296976  0.67658031  0.31258299  1
  Si0+  Si118  1  0.92824853  0.82099109  0.65422357  1
  Si0+  Si119  1  0.57180349  0.17730284  0.98578794  1
  O2-  O120  1  0.24822525  0.00175733  0.05608097  1
  O2-  O121  1  0.25597877  0.00409930  0.39268170  1
  O2-  O122  1  0.25574352  0.00205528  0.72919652  1
  O2-  O123  1  0.24984423  0.49209407  0.05952437  1
  O2-  O124  1  0.25414722  0.49491401  0.39669322  1
  O2-  O125  1  0.25816899  0.49044859  0.73318687  1
  O2-  O126  1  0.75109475  0.00330096  0.06148258  1
  O2-  O127  1  0.74819106  -0.00732602  0.39644087  1
  O2-  O128  1  0.74674544  0.00343510  0.72539126  1
  O2-  O129  1  0.76153339  0.49912512  0.05990370  1
  O2-  O130  1  0.74695263  0.49453158  0.39441307  1
  O2-  O131  1  0.74839863  0.49536814  0.72573180  1
  O2-  O132  1  0.00765034  0.25009486  0.27273771  1
  O2-  O133  1  0.00463661  0.25395729  0.59823591  1
  O2-  O134  1  0.00246820  0.25382897  0.93576565  1
  O2-  O135  1  0.00184029  0.74758427  0.27184270  1
  O2-  O136  1  -0.00198777  0.75038230  0.61062120  1
  O2-  O137  1  -0.00399975  0.74806008  0.94191915  1
  O2-  O138  1  0.50030212  0.25049137  0.27600961  1
  O2-  O139  1  0.50556976  0.24628242  0.60696990  1
  O2-  O140  1  0.50692783  0.24932461  0.94178456  1
  O2-  O141  1  0.50058284  0.74232289  0.26945645  1
  O2-  O142  1  0.49559071  0.74492946  0.60100928  1
  O2-  O143  1  0.50389989  0.74723928  0.94022088  1
  O2-  O144  1  0.06867415  0.17371201  0.09771324  1
  O2-  O145  1  0.06841909  0.17403723  0.42169896  1
  O2-  O146  1  0.06420050  0.17407305  0.76136429  1
  O2-  O147  1  0.07203354  0.68233417  0.08902408  1
  O2-  O148  1  0.07037624  0.67975421  0.42183973  1
  O2-  O149  1  0.06880456  0.68289087  0.75811708  1
  O2-  O150  1  0.56954347  0.17669923  0.09169476  1
  O2-  O151  1  0.57107710  0.17834076  0.42292405  1
  O2-  O152  1  0.57253813  0.17216705  0.75583076  1
  O2-  O153  1  0.57607495  0.68182800  0.08950878  1
  O2-  O154  1  0.57712201  0.67972103  0.41760740  1
  O2-  O155  1  0.57652067  0.68380625  0.76483019  1
  O2-  O156  1  0.18030521  0.42751622  0.23202092  1
  O2-  O157  1  0.17829701  0.43122262  0.56946442  1
  O2-  O158  1  0.17932512  0.42839925  0.90953926  1
  O2-  O159  1  0.17997644  0.93381474  0.23101340  1
  O2-  O160  1  0.17681353  0.92935736  0.56930985  1
  O2-  O161  1  0.17772039  0.92783121  0.91063680  1
  O2-  O162  1  0.67798547  0.42467926  0.24562428  1
  O2-  O163  1  0.68093282  0.42329736  0.57696608  1
  O2-  O164  1  0.67923522  0.43354693  0.90031301  1
  O2-  O165  1  0.67560637  0.93241542  0.24555104  1
  O2-  O166  1  0.68096683  0.93256932  0.57548900  1
  O2-  O167  1  0.67874429  0.93015688  0.90101696  1
  O2-  O168  1  0.43209359  0.32002452  0.10338901  1
  O2-  O169  1  0.43045541  0.31908769  0.42381052  1
  O2-  O170  1  0.43351236  0.32168405  0.76650624  1
  O2-  O171  1  0.42668413  0.82025980  0.09890195  1
  O2-  O172  1  0.42921154  0.82004002  0.43044281  1
  O2-  O173  1  0.43006243  0.82131642  0.76453211  1
  O2-  O174  1  0.92809512  0.32133338  0.09810517  1
  O2-  O175  1  0.92856143  0.32215843  0.43133892  1
  O2-  O176  1  0.92770363  0.31963586  0.76312057  1
  O2-  O177  1  0.92930267  0.82168239  0.09049229  1
  O2-  O178  1  0.93107899  0.82206791  0.43392240  1
  O2-  O179  1  0.92770032  0.81971609  0.76002265  1
  O2-  O180  1  0.32609643  0.07419480  0.24393563  1
  O2-  O181  1  0.32899051  0.06818924  0.57944243  1
  O2-  O182  1  0.32318211  0.07265492  0.90982995  1
  O2-  O183  1  0.31952807  0.57046484  0.23515962  1
  O2-  O184  1  0.31789667  0.56972763  0.56910223  1
  O2-  O185  1  0.32084952  0.57152937  0.90119816  1
  O2-  O186  1  0.81688561  0.06927133  0.23429645  1
  O2-  O187  1  0.82038241  0.07056914  0.57899588  1
  O2-  O188  1  0.82038752  0.06628578  0.91083050  1
  O2-  O189  1  0.81693083  0.56976611  0.23232283  1
  O2-  O190  1  0.82030702  0.57580193  0.56741880  1
  O2-  O191  1  0.82285481  0.57833794  0.91244531  1
  O2-  O192  1  0.04050174  0.08577278  0.26904671  1
  O2-  O193  1  0.03348465  0.07927105  0.59690126  1
  O2-  O194  1  0.03944460  0.07977394  0.92972268  1
  O2-  O195  1  0.04393523  0.58655084  0.26788679  1
  O2-  O196  1  0.04231619  0.58851865  0.60602998  1
  O2-  O197  1  0.04830556  0.58894621  0.93473014  1
  O2-  O198  1  0.54349422  0.08780880  0.26863509  1
  O2-  O199  1  0.54641018  0.08439846  0.60024950  1
  O2-  O200  1  0.54191338  0.08541577  0.93874681  1
  O2-  O201  1  0.55170747  0.58039984  0.26908738  1
  O2-  O202  1  0.55716868  0.57885171  0.59741962  1
  O2-  O203  1  0.54992764  0.58538556  0.94014918  1
  O2-  O204  1  0.16851007  0.19578367  0.27319066  1
  O2-  O205  1  0.17282669  0.18958727  0.59782897  1
  O2-  O206  1  0.17041979  0.19964329  0.93003795  1
  O2-  O207  1  0.16352795  0.70653644  0.26905440  1
  O2-  O208  1  0.16037261  0.70984450  0.60482372  1
  O2-  O209  1  0.15961190  0.71533483  0.93445429  1
  O2-  O210  1  0.66224824  0.20625676  0.26909797  1
  O2-  O211  1  0.66699027  0.20078543  0.60433074  1
  O2-  O212  1  0.66689196  0.19664858  0.94098929  1
  O2-  O213  1  0.66427052  0.70540645  0.26318574  1
  O2-  O214  1  0.66873191  0.71674148  0.59628052  1
  O2-  O215  1  0.66759324  0.70671852  0.93810893  1
  O2-  O216  1  0.08549500  0.45743034  0.05994992  1
  O2-  O217  1  0.08172748  0.45946220  0.39846812  1
  O2-  O218  1  0.08483701  0.46132692  0.73823688  1
  O2-  O219  1  0.08491482  0.95617249  0.06147954  1
  O2-  O220  1  0.08414393  0.96136121  0.39983672  1
  O2-  O221  1  0.08251223  0.96119645  0.73817682  1
  O2-  O222  1  0.58885576  0.46341457  0.07308494  1
  O2-  O223  1  0.58474020  0.45144631  0.39720217  1
  O2-  O224  1  0.58599696  0.45362152  0.72724552  1
  O2-  O225  1  0.58002269  0.96016433  0.06944507  1
  O2-  O226  1  0.58436345  0.95946535  0.39771467  1
  O2-  O227  1  0.58594575  0.95790940  0.72707970  1
  O2-  O228  1  0.19939125  0.33063884  0.05817696  1
  O2-  O229  1  0.20263117  0.32708031  0.39881093  1
  O2-  O230  1  0.19990329  0.32168104  0.72777629  1
  O2-  O231  1  0.20653377  0.83851754  0.06401847  1
  O2-  O232  1  0.20774575  0.83443716  0.39837008  1
  O2-  O233  1  0.20659594  0.83312510  0.73844957  1
  O2-  O234  1  0.70568529  0.33004580  0.06684085  1
  O2-  O235  1  0.70101728  0.33153746  0.39705619  1
  O2-  O236  1  0.70329431  0.33236031  0.72974598  1
  O2-  O237  1  0.70799879  0.83373453  0.07081922  1
  O2-  O238  1  0.69705149  0.83253506  0.39332270  1
  O2-  O239  1  0.70936822  0.84135124  0.72980840  1
  O2-  O240  1  0.45717031  0.41377743  0.27312432  1
  O2-  O241  1  0.46161196  0.41560132  0.59544306  1
  O2-  O242  1  0.46558946  0.41987774  0.93801749  1
  O2-  O243  1  0.45980634  0.91645868  0.26469759  1
  O2-  O244  1  0.45721539  0.91767166  0.59767740  1
  O2-  O245  1  0.45651573  0.91858899  0.93338779  1
  O2-  O246  1  0.95727705  0.41920990  0.26384633  1
  O2-  O247  1  0.95697873  0.42417630  0.60192579  1
  O2-  O248  1  0.95041456  0.42469037  0.93420412  1
  O2-  O249  1  0.96048576  0.91811662  0.26494523  1
  O2-  O250  1  0.95677118  0.91329628  0.60944779  1
  O2-  O251  1  0.95571340  0.91079503  0.93615191  1
  O2-  O252  1  0.33732437  0.29254155  0.27142686  1
  O2-  O253  1  0.33523948  0.28728049  0.59742891  1
  O2-  O254  1  0.33630078  0.29215644  0.93459570  1
  O2-  O255  1  0.33049349  0.79003147  0.26414804  1
  O2-  O256  1  0.32601271  0.79291133  0.60168585  1
  O2-  O257  1  0.33056767  0.79033282  0.93307675  1
  O2-  O258  1  0.83242258  0.28719160  0.26740390  1
  O2-  O259  1  0.83167373  0.29198421  0.59772507  1
  O2-  O260  1  0.82945350  0.29234330  0.93132639  1
  O2-  O261  1  0.83081691  0.79346215  0.26656247  1
  O2-  O262  1  0.83663214  0.79587406  0.60644859  1
  O2-  O263  1  0.83440571  0.79387291  0.93960876  1
  O2-  O264  1  0.41074611  0.04498633  0.06449757  1
  O2-  O265  1  0.41890418  0.04730256  0.39562344  1
  O2-  O266  1  0.41892753  0.04526088  0.73186874  1
  O2-  O267  1  0.41841833  0.54610832  0.06919640  1
  O2-  O268  1  0.42329483  0.54926798  0.39907755  1
  O2-  O269  1  0.42593293  0.54687955  0.72937762  1
  O2-  O270  1  0.91428128  0.03974626  0.06242829  1
  O2-  O271  1  0.91517861  0.03932169  0.40308721  1
  O2-  O272  1  0.90925805  0.04002275  0.73373921  1
  O2-  O273  1  0.92162162  0.55468294  0.06141245  1
  O2-  O274  1  0.91677362  0.54459967  0.39808276  1
  O2-  O275  1  0.91701678  0.54582947  0.73697572  1
  O2-  O276  1  0.29239574  0.16443941  0.06324983  1
  O2-  O277  1  0.30128070  0.16601280  0.39684013  1
  O2-  O278  1  0.29936246  0.16423819  0.72994926  1
  O2-  O279  1  0.28271765  0.66602713  0.06733261  1
  O2-  O280  1  0.28954077  0.66810192  0.40125540  1
  O2-  O281  1  0.28775816  0.66486728  0.73588368  1
  O2-  O282  1  0.79865048  0.16401288  0.06176846  1
  O2-  O283  1  0.78495704  0.16434003  0.40364756  1
  O2-  O284  1  0.79317580  0.16428893  0.73112805  1
  O2-  O285  1  0.79504976  0.66488324  0.06615962  1
  O2-  O286  1  0.78779388  0.66802343  0.39858581  1
  O2-  O287  1  0.78843963  0.66890549  0.73594490  1
