# generated using pymatgen
data_Ca2Al2SiO7
_symmetry_space_group_name_H-M   'P 1'
_cell_length_a   15.45661595
_cell_length_b   15.45658208
_cell_length_c   15.28271920
_cell_angle_alpha   89.99106816
_cell_angle_beta   90.01358214
_cell_angle_gamma   89.98132449
_symmetry_Int_Tables_number   1
_chemical_formula_structural   Ca2Al2SiO7
_chemical_formula_sum   'Ca48 Al48 Si24 O168'
_cell_volume   3651.13989756
_cell_formula_units_Z   24
loop_
 _symmetry_equiv_pos_site_id
 _symmetry_equiv_pos_as_xyz
  1  'x, y, z'
loop_
 _atom_type_symbol
 _atom_type_oxidation_number
  Ca2+  2.0
  Al0+  0.0
  Si0+  0.0
  O2-  -2.0
loop_
 _atom_site_type_symbol
 _atom_site_label
 _atom_site_symmetry_multiplicity
 _atom_site_fract_x
 _atom_site_fract_y
 _atom_site_fract_z
 _atom_site_occupancy
  Ca2+  Ca0  1  0.15696678  0.07750177  0.16624316  1
  Ca2+  Ca1  1  0.16782452  0.08484425  0.50815409  1
  Ca2+  Ca2  1  0.15936012  0.07862002  0.83916490  1
  Ca2+  Ca3  1  0.17082822  0.58384689  0.17407599  1
  Ca2+  Ca4  1  0.16411013  0.57300303  0.50916632  1
  Ca2+  Ca5  1  0.17736054  0.59318854  0.83684073  1
  Ca2+  Ca6  1  0.67007662  0.07898661  0.17517014  1
  Ca2+  Ca7  1  0.67549174  0.08661414  0.51025863  1
  Ca2+  Ca8  1  0.66703030  0.07106465  0.83399741  1
  Ca2+  Ca9  1  0.66689912  0.58597055  0.17068037  1
  Ca2+  Ca10  1  0.66184139  0.58586999  0.50474380  1
  Ca2+  Ca11  1  0.66493647  0.58820612  0.83888659  1
  Ca2+  Ca12  1  0.07309417  0.33368327  0.16082033  1
  Ca2+  Ca13  1  0.08332817  0.33346586  0.49553760  1
  Ca2+  Ca14  1  0.08312278  0.32487693  0.82942388  1
  Ca2+  Ca15  1  0.08690155  0.82435238  0.15978571  1
  Ca2+  Ca16  1  0.08123431  0.82090812  0.49977329  1
  Ca2+  Ca17  1  0.08440881  0.82700059  0.82565633  1
  Ca2+  Ca18  1  0.57978961  0.32775514  0.16792894  1
  Ca2+  Ca19  1  0.57774674  0.32376510  0.49342447  1
  Ca2+  Ca20  1  0.58089329  0.32596830  0.82613578  1
  Ca2+  Ca21  1  0.58711820  0.82376111  0.16058626  1
  Ca2+  Ca22  1  0.58257068  0.82815149  0.50203331  1
  Ca2+  Ca23  1  0.58278750  0.82818063  0.82365686  1
  Ca2+  Ca24  1  0.32703000  0.42026629  0.17480827  1
  Ca2+  Ca25  1  0.32405425  0.41854197  0.50818414  1
  Ca2+  Ca26  1  0.32760656  0.42952083  0.83466577  1
  Ca2+  Ca27  1  0.32574413  0.91606107  0.16506981  1
  Ca2+  Ca28  1  0.33538740  0.91482351  0.50520747  1
  Ca2+  Ca29  1  0.33014821  0.91456726  0.83749701  1
  Ca2+  Ca30  1  0.83758020  0.41308077  0.17165135  1
  Ca2+  Ca31  1  0.83423453  0.41644727  0.50119625  1
  Ca2+  Ca32  1  0.83325744  0.41612033  0.83525770  1
  Ca2+  Ca33  1  0.82811495  0.92339990  0.17262480  1
  Ca2+  Ca34  1  0.82928683  0.92691640  0.51207027  1
  Ca2+  Ca35  1  0.82704316  0.91417499  0.83372057  1
  Ca2+  Ca36  1  0.41564917  0.17323333  0.16900168  1
  Ca2+  Ca37  1  0.43073189  0.16844457  0.49352136  1
  Ca2+  Ca38  1  0.42233393  0.16675223  0.82469044  1
  Ca2+  Ca39  1  0.42723129  0.66042535  0.16091810  1
  Ca2+  Ca40  1  0.42163646  0.66648460  0.50233310  1
  Ca2+  Ca41  1  0.42150451  0.66862809  0.82578640  1
  Ca2+  Ca42  1  0.91478273  0.17695738  0.16250156  1
  Ca2+  Ca43  1  0.91668002  0.16699506  0.49692564  1
  Ca2+  Ca44  1  0.92394148  0.16633708  0.82924511  1
  Ca2+  Ca45  1  0.93291020  0.66303255  0.16087796  1
  Ca2+  Ca46  1  0.92399804  0.67149527  0.49937156  1
  Ca2+  Ca47  1  0.92960483  0.67421277  0.82584856  1
  Al0+  Al48  1  -0.00184861  0.00091331  0.00439117  1
  Al0+  Al49  1  -0.00154584  -0.00149549  0.33994495  1
  Al0+  Al50  1  -0.00004988  0.00239433  0.66270287  1
  Al0+  Al51  1  -0.00010700  0.50046375  -0.01039858  1
  Al0+  Al52  1  0.00060447  0.49997493  0.33031830  1
  Al0+  Al53  1  -0.00179750  0.49685291  0.66984527  1
  Al0+  Al54  1  0.49996054  -0.00009400  0.00812998  1
  Al0+  Al55  1  0.49892644  -0.00231263  0.32877190  1
  Al0+  Al56  1  0.50114698  -0.00051889  0.66221067  1
  Al0+  Al57  1  0.50036826  0.49917089  0.00088433  1
  Al0+  Al58  1  0.49972188  0.50072212  0.32706561  1
  Al0+  Al59  1  0.49841347  0.49960337  0.66820521  1
  Al0+  Al60  1  0.25024973  0.25181349  -0.00317619  1
  Al0+  Al61  1  0.24982320  0.24849205  0.33366552  1
  Al0+  Al62  1  0.24861081  0.25065007  0.66869139  1
  Al0+  Al63  1  0.25343767  0.75113074  0.00772030  1
  Al0+  Al64  1  0.25115411  0.74978633  0.33139950  1
  Al0+  Al65  1  0.25162033  0.74931127  0.66104394  1
  Al0+  Al66  1  0.74838055  0.25092015  -0.00384482  1
  Al0+  Al67  1  0.75054098  0.25004462  0.32993375  1
  Al0+  Al68  1  0.75154462  0.25018936  0.66953422  1
  Al0+  Al69  1  0.75095611  0.74825990  0.00330815  1
  Al0+  Al70  1  0.74992776  0.75098668  0.33073786  1
  Al0+  Al71  1  0.75075092  0.75024747  0.66291705  1
  Al0+  Al72  1  0.57129763  0.67941063  0.98612499  1
  Al0+  Al73  1  0.07132272  0.18016176  0.65196463  1
  Al0+  Al74  1  0.92866026  0.82249868  0.65211984  1
  Al0+  Al75  1  0.81864321  0.07179476  0.34792512  1
  Al0+  Al76  1  0.32144899  0.57045073  0.01642002  1
  Al0+  Al77  1  0.67877971  0.92854162  0.68099731  1
  Al0+  Al78  1  0.57148203  0.17930086  0.65527143  1
  Al0+  Al79  1  0.92660025  0.32186219  0.98171649  1
  Al0+  Al80  1  0.32018005  0.57167388  0.68167387  1
  Al0+  Al81  1  0.42850297  0.82195297  0.65253127  1
  Al0+  Al82  1  0.17843209  0.93068414  0.01232295  1
  Al0+  Al83  1  0.57174066  0.67687133  0.65273718  1
  Al0+  Al84  1  0.42688233  0.32063699  0.31913577  1
  Al0+  Al85  1  0.17587077  0.42694288  0.68501562  1
  Al0+  Al86  1  0.82315345  0.07292565  0.68516903  1
  Al0+  Al87  1  0.06962206  0.67969473  0.31955991  1
  Al0+  Al88  1  0.17855246  0.42967649  0.34559819  1
  Al0+  Al89  1  0.57230776  0.17817207  0.31739959  1
  Al0+  Al90  1  0.93126653  0.31979722  0.32144059  1
  Al0+  Al91  1  0.07068414  0.17821705  0.98608294  1
  Al0+  Al92  1  0.57078734  0.68071900  0.31807587  1
  Al0+  Al93  1  0.67890530  0.92737530  0.01576959  1
  Al0+  Al94  1  0.07221025  0.67698703  0.65225180  1
  Al0+  Al95  1  0.07481470  0.68153384  0.98618468  1
  Si0+  Si96  1  0.92876483  0.82305307  0.31588276  1
  Si0+  Si97  1  0.82115256  0.57131167  0.34701276  1
  Si0+  Si98  1  0.43002901  0.82335367  0.98545710  1
  Si0+  Si99  1  0.32106554  0.07010625  0.34889528  1
  Si0+  Si100  1  0.82177475  0.56929162  0.01455770  1
  Si0+  Si101  1  0.67896428  0.42777283  0.01584292  1
  Si0+  Si102  1  0.42627948  0.82273546  0.31224631  1
  Si0+  Si103  1  0.67663475  0.92638690  0.35142851  1
  Si0+  Si104  1  0.42806987  0.32161946  0.65178497  1
  Si0+  Si105  1  0.82067034  0.57181298  0.68128968  1
  Si0+  Si106  1  0.17764666  0.42836955  0.01673614  1
  Si0+  Si107  1  0.18004178  0.92997810  0.67814929  1
  Si0+  Si108  1  0.67827560  0.43032506  0.34692239  1
  Si0+  Si109  1  0.32301185  0.07553935  0.01744084  1
  Si0+  Si110  1  0.17924303  0.92750685  0.35061312  1
  Si0+  Si111  1  0.32224340  0.07097814  0.67921993  1
  Si0+  Si112  1  0.07296929  0.17484583  0.31796355  1
  Si0+  Si113  1  0.81981711  0.07324423  0.01810014  1
  Si0+  Si114  1  0.42918090  0.32141895  0.98364295  1
  Si0+  Si115  1  0.92705623  0.32147111  0.64859436  1
  Si0+  Si116  1  0.67850705  0.42952970  0.68056177  1
  Si0+  Si117  1  0.32386302  0.57215162  0.35111041  1
  Si0+  Si118  1  0.92813151  0.82180471  0.98644758  1
  Si0+  Si119  1  0.56933342  0.17773330  0.98502404  1
  O2-  O120  1  0.24997071  0.00959960  0.05949739  1
  O2-  O121  1  0.24947528  -0.00009405  0.39196284  1
  O2-  O122  1  0.25091549  0.00069381  0.72157839  1
  O2-  O123  1  0.24333463  0.49883776  0.06285402  1
  O2-  O124  1  0.25453454  0.50317686  0.39314167  1
  O2-  O125  1  0.24399317  0.50414181  0.73274979  1
  O2-  O126  1  0.75190456  0.00381084  0.06259949  1
  O2-  O127  1  0.74181469  -0.00125935  0.39408823  1
  O2-  O128  1  0.75191993  -0.00122272  0.73282562  1
  O2-  O129  1  0.75182633  0.49718355  0.05771012  1
  O2-  O130  1  0.74761867  0.50275605  0.38981410  1
  O2-  O131  1  0.74605774  0.50371288  0.72302141  1
  O2-  O132  1  0.00530901  0.24458554  0.27463447  1
  O2-  O133  1  -0.00245223  0.25496984  0.60477851  1
  O2-  O134  1  -0.00063376  0.24962378  0.93442215  1
  O2-  O135  1  -0.00266894  0.75547448  0.27011491  1
  O2-  O136  1  -0.00024754  0.74893206  0.60269723  1
  O2-  O137  1  0.00219193  0.75933246  0.94178209  1
  O2-  O138  1  0.49882523  0.24897091  0.26730520  1
  O2-  O139  1  0.49656524  0.25301155  0.60786578  1
  O2-  O140  1  0.49664157  0.24655245  0.94195727  1
  O2-  O141  1  0.49630773  0.75464775  0.26982657  1
  O2-  O142  1  0.50041787  0.74935908  0.60318630  1
  O2-  O143  1  0.49957862  0.75661089  0.94057703  1
  O2-  O144  1  0.06880850  0.17893731  0.10006125  1
  O2-  O145  1  0.07341804  0.17524702  0.42344258  1
  O2-  O146  1  0.07177098  0.17887540  0.76474361  1
  O2-  O147  1  0.07207324  0.68028711  0.09968944  1
  O2-  O148  1  0.06679653  0.67949998  0.43210573  1
  O2-  O149  1  0.07291053  0.68251186  0.76599307  1
  O2-  O150  1  0.56977720  0.18010110  0.08999704  1
  O2-  O151  1  0.57201415  0.18099981  0.43093232  1
  O2-  O152  1  0.56782342  0.18051894  0.76902942  1
  O2-  O153  1  0.57100258  0.67925257  0.09940019  1
  O2-  O154  1  0.57111067  0.68014882  0.43053236  1
  O2-  O155  1  0.57054482  0.67691834  0.76634257  1
  O2-  O156  1  0.17785972  0.43219551  0.23221730  1
  O2-  O157  1  0.17867007  0.42604844  0.57081344  1
  O2-  O158  1  0.18202346  0.42676615  0.91168521  1
  O2-  O159  1  0.17901506  0.92816385  0.24531353  1
  O2-  O160  1  0.18191332  0.93205491  0.57274296  1
  O2-  O161  1  0.18140071  0.92989991  0.89908766  1
  O2-  O162  1  0.67950474  0.43076185  0.24151611  1
  O2-  O163  1  0.67954798  0.42791185  0.57528240  1
  O2-  O164  1  0.67727863  0.42736261  0.91058965  1
  O2-  O165  1  0.68008912  0.92546764  0.24536086  1
  O2-  O166  1  0.67863810  0.93110592  0.56741870  1
  O2-  O167  1  0.67774901  0.92791310  0.90321138  1
  O2-  O168  1  0.43045114  0.32092551  0.08869173  1
  O2-  O169  1  0.42925053  0.31855268  0.43265918  1
  O2-  O170  1  0.43103155  0.32029497  0.75797016  1
  O2-  O171  1  0.43078470  0.82263735  0.09120891  1
  O2-  O172  1  0.42485171  0.82400795  0.41744240  1
  O2-  O173  1  0.42750043  0.82371152  0.76617788  1
  O2-  O174  1  0.92593735  0.32112535  0.09572170  1
  O2-  O175  1  0.93069568  0.32141542  0.43402667  1
  O2-  O176  1  0.92466534  0.32030767  0.75388249  1
  O2-  O177  1  0.92828849  0.81819139  0.09239514  1
  O2-  O178  1  0.92994923  0.82149557  0.42108677  1
  O2-  O179  1  0.93054290  0.82001404  0.76632673  1
  O2-  O180  1  0.32000112  0.06967741  0.24371600  1
  O2-  O181  1  0.32132887  0.07133475  0.57392480  1
  O2-  O182  1  0.32815658  0.07418195  0.91194573  1
  O2-  O183  1  0.32322636  0.57133383  0.24513492  1
  O2-  O184  1  0.32280097  0.56734526  0.56808405  1
  O2-  O185  1  0.32326979  0.57024683  0.90374019  1
  O2-  O186  1  0.81849095  0.06984418  0.23436300  1
  O2-  O187  1  0.82006903  0.07494711  0.57132362  1
  O2-  O188  1  0.81917179  0.07312753  0.91298591  1
  O2-  O189  1  0.82128293  0.56949235  0.24163765  1
  O2-  O190  1  0.82218246  0.56888324  0.57581939  1
  O2-  O191  1  0.81883975  0.57073897  0.90952774  1
  O2-  O192  1  0.04559613  0.08036965  0.27434981  1
  O2-  O193  1  0.04305799  0.08439409  0.59581077  1
  O2-  O194  1  0.04241422  0.07847225  0.93506430  1
  O2-  O195  1  0.03603770  0.58537525  0.26325276  1
  O2-  O196  1  0.04080594  0.57774228  0.60336306  1
  O2-  O197  1  0.04261614  0.58693815  0.93080750  1
  O2-  O198  1  0.54427208  0.07911637  0.26549549  1
  O2-  O199  1  0.54051454  0.08526277  0.59853099  1
  O2-  O200  1  0.54162160  0.08461882  0.94081376  1
  O2-  O201  1  0.54253078  0.58388465  0.26263847  1
  O2-  O202  1  0.54300746  0.57791084  0.59999425  1
  O2-  O203  1  0.54140443  0.58146576  0.93480808  1
  O2-  O204  1  0.16721181  0.19629936  0.27230458  1
  O2-  O205  1  0.16924693  0.20918884  0.59858916  1
  O2-  O206  1  0.17079021  0.20329370  0.93399163  1
  O2-  O207  1  0.16739888  0.70967365  0.26726048  1
  O2-  O208  1  0.16878786  0.70538990  0.59703298  1
  O2-  O209  1  0.17267947  0.71342575  0.93672411  1
  O2-  O210  1  0.66794579  0.21066746  0.26196955  1
  O2-  O211  1  0.66741497  0.21320711  0.60306848  1
  O2-  O212  1  0.65948354  0.20794045  0.93679265  1
  O2-  O213  1  0.66844559  0.71000295  0.26355940  1
  O2-  O214  1  0.67021323  0.70199011  0.59919398  1
  O2-  O215  1  0.67020357  0.70659756  0.93556334  1
  O2-  O216  1  0.08082756  0.45190491  0.05682710  1
  O2-  O217  1  0.08255417  0.46264886  0.40003925  1
  O2-  O218  1  0.07478045  0.44686269  0.73545345  1
  O2-  O219  1  0.08148904  0.95741356  0.06992547  1
  O2-  O220  1  0.08729023  0.95254495  0.39856128  1
  O2-  O221  1  0.08875889  0.95824440  0.72528176  1
  O2-  O222  1  0.58837541  0.45667728  0.06478862  1
  O2-  O223  1  0.58580972  0.45727315  0.39337965  1
  O2-  O224  1  0.58613678  0.45259236  0.72933495  1
  O2-  O225  1  0.58273370  0.95725756  0.07226794  1
  O2-  O226  1  0.57956966  0.94641053  0.39192584  1
  O2-  O227  1  0.58036797  0.95982270  0.73357226  1
  O2-  O228  1  0.20548160  0.33492983  0.06295428  1
  O2-  O229  1  0.20635854  0.33099148  0.39802617  1
  O2-  O230  1  0.21024569  0.33021027  0.73905464  1
  O2-  O231  1  0.21418948  0.83804341  0.07201172  1
  O2-  O232  1  0.21000055  0.83609457  0.39731613  1
  O2-  O233  1  0.20755476  0.83783220  0.72428277  1
  O2-  O234  1  0.70546953  0.33537501  0.06362967  1
  O2-  O235  1  0.70803193  0.33918068  0.39398348  1
  O2-  O236  1  0.70986029  0.34025895  0.73141490  1
  O2-  O237  1  0.71258227  0.83152635  0.07093313  1
  O2-  O238  1  0.70554136  0.83335701  0.39694242  1
  O2-  O239  1  0.70648904  0.82871062  0.73233149  1
  O2-  O240  1  0.45564848  0.41778026  0.26420218  1
  O2-  O241  1  0.45482961  0.41388071  0.60519295  1
  O2-  O242  1  0.46322725  0.41049403  0.93558101  1
  O2-  O243  1  0.44892074  0.91647618  0.26487960  1
  O2-  O244  1  0.45662543  0.91894302  0.59594437  1
  O2-  O245  1  0.45169663  0.91928555  0.94231466  1
  O2-  O246  1  0.96110085  0.41546295  0.26467607  1
  O2-  O247  1  0.94917092  0.41614810  0.60348762  1
  O2-  O248  1  0.95235547  0.41971092  0.92706910  1
  O2-  O249  1  0.95491342  0.91716793  0.27093849  1
  O2-  O250  1  0.95760399  0.91957815  0.59804022  1
  O2-  O251  1  0.94594652  0.91808853  0.94434373  1
  O2-  O252  1  0.32986166  0.28899671  0.26384517  1
  O2-  O253  1  0.33455062  0.29609988  0.60728744  1
  O2-  O254  1  0.33702273  0.29764778  0.93560934  1
  O2-  O255  1  0.33295595  0.79647200  0.26576884  1
  O2-  O256  1  0.33207915  0.79440578  0.59492118  1
  O2-  O257  1  0.33647113  0.79679102  0.94121502  1
  O2-  O258  1  0.83501617  0.29097535  0.26532431  1
  O2-  O259  1  0.83362917  0.29540161  0.60224113  1
  O2-  O260  1  0.82712574  0.29485016  0.92941085  1
  O2-  O261  1  0.83492677  0.79839871  0.27012866  1
  O2-  O262  1  0.83192848  0.79357792  0.59673747  1
  O2-  O263  1  0.83740771  0.78909647  0.93953578  1
  O2-  O264  1  0.41348936  0.04656201  0.06881833  1
  O2-  O265  1  0.41357583  0.04083942  0.39500476  1
  O2-  O266  1  0.41330226  0.04281747  0.72767545  1
  O2-  O267  1  0.41732665  0.53437710  0.07000808  1
  O2-  O268  1  0.41842732  0.54650692  0.39476458  1
  O2-  O269  1  0.41752002  0.53920833  0.73650326  1
  O2-  O270  1  0.91314745  0.04969339  0.06596346  1
  O2-  O271  1  0.91524405  0.04118086  0.40278361  1
  O2-  O272  1  0.92285157  0.04433542  0.73528694  1
  O2-  O273  1  0.91490494  0.54127727  0.06004685  1
  O2-  O274  1  0.91098716  0.53988008  0.39532826  1
  O2-  O275  1  0.90986255  0.54071123  0.73201132  1
  O2-  O276  1  0.30013420  0.17054028  0.06226281  1
  O2-  O277  1  0.29554163  0.16171508  0.39748531  1
  O2-  O278  1  0.29661861  0.16264818  0.72792397  1
  O2-  O279  1  0.29571365  0.66728921  0.07258527  1
  O2-  O280  1  0.29944508  0.66726050  0.39422951  1
  O2-  O281  1  0.29489069  0.67222701  0.73285355  1
  O2-  O282  1  0.79061016  0.16719612  0.06250760  1
  O2-  O283  1  0.78922075  0.16959563  0.40049300  1
  O2-  O284  1  0.79312413  0.17091884  0.73833723  1
  O2-  O285  1  0.79413552  0.65938003  0.06566443  1
  O2-  O286  1  0.79495102  0.66424631  0.39314557  1
  O2-  O287  1  0.79617281  0.66404848  0.72857627  1
