# generated using pymatgen
data_Ca2Al2SiO7
_symmetry_space_group_name_H-M   'P 1'
_cell_length_a   15.45917470
_cell_length_b   15.45845889
_cell_length_c   15.28386796
_cell_angle_alpha   90.00815840
_cell_angle_beta   89.99500815
_cell_angle_gamma   90.00362120
_symmetry_Int_Tables_number   1
_chemical_formula_structural   Ca2Al2SiO7
_chemical_formula_sum   'Ca48 Al48 Si24 O168'
_cell_volume   3652.46254169
_cell_formula_units_Z   24
loop_
 _symmetry_equiv_pos_site_id
 _symmetry_equiv_pos_as_xyz
  1  'x, y, z'
loop_
 _atom_type_symbol
 _atom_type_oxidation_number
  Ca2+  2.0
  Al0+  0.0
  Si0+  0.0
  O2-  -2.0
loop_
 _atom_site_type_symbol
 _atom_site_label
 _atom_site_symmetry_multiplicity
 _atom_site_fract_x
 _atom_site_fract_y
 _atom_site_fract_z
 _atom_site_occupancy
  Ca2+  Ca0  1  0.17876359  0.07672986  0.17562587  1
  Ca2+  Ca1  1  0.17859559  0.08090533  0.50029392  1
  Ca2+  Ca2  1  0.18311821  0.08510108  0.83856108  1
  Ca2+  Ca3  1  0.16746303  0.57861924  0.16994012  1
  Ca2+  Ca4  1  0.15796170  0.57619929  0.50280960  1
  Ca2+  Ca5  1  0.16842967  0.57565716  0.83579388  1
  Ca2+  Ca6  1  0.67642990  0.08653618  0.17367371  1
  Ca2+  Ca7  1  0.66734650  0.08686553  0.50295870  1
  Ca2+  Ca8  1  0.66607804  0.07911408  0.83298044  1
  Ca2+  Ca9  1  0.66870381  0.57694266  0.17521761  1
  Ca2+  Ca10  1  0.66534644  0.56873164  0.50362112  1
  Ca2+  Ca11  1  0.66083720  0.57525295  0.83322216  1
  Ca2+  Ca12  1  0.08290309  0.33877665  0.16766766  1
  Ca2+  Ca13  1  0.08025005  0.33664584  0.49169631  1
  Ca2+  Ca14  1  0.08665944  0.33786300  0.82869186  1
  Ca2+  Ca15  1  0.07925727  0.83753530  0.16697056  1
  Ca2+  Ca16  1  0.08479445  0.82258962  0.48869543  1
  Ca2+  Ca17  1  0.07913874  0.82763389  0.82703700  1
  Ca2+  Ca18  1  0.57945909  0.32959960  0.17072756  1
  Ca2+  Ca19  1  0.57720220  0.32670325  0.49099675  1
  Ca2+  Ca20  1  0.57356413  0.32585504  0.82011242  1
  Ca2+  Ca21  1  0.57720453  0.83176601  0.16127401  1
  Ca2+  Ca22  1  0.57993550  0.84074146  0.50184842  1
  Ca2+  Ca23  1  0.57359351  0.83693056  0.82676592  1
  Ca2+  Ca24  1  0.32363673  0.41931915  0.17429886  1
  Ca2+  Ca25  1  0.32541064  0.40829244  0.50458450  1
  Ca2+  Ca26  1  0.32350154  0.41748310  0.83962345  1
  Ca2+  Ca27  1  0.33363383  0.92457022  0.17373019  1
  Ca2+  Ca28  1  0.33667664  0.92725510  0.50428851  1
  Ca2+  Ca29  1  0.34357597  0.92581815  0.83660613  1
  Ca2+  Ca30  1  0.82787586  0.41465043  0.17767812  1
  Ca2+  Ca31  1  0.82106742  0.40687317  0.50059294  1
  Ca2+  Ca32  1  0.82463432  0.41570152  0.83339436  1
  Ca2+  Ca33  1  0.84201031  0.92447599  0.17284331  1
  Ca2+  Ca34  1  0.83000958  0.91916086  0.50193488  1
  Ca2+  Ca35  1  0.82790174  0.91912224  0.84046525  1
  Ca2+  Ca36  1  0.41462751  0.16598365  0.16789439  1
  Ca2+  Ca37  1  0.42251556  0.17146109  0.49591026  1
  Ca2+  Ca38  1  0.41767449  0.16886322  0.82089938  1
  Ca2+  Ca39  1  0.41335812  0.67091192  0.15932175  1
  Ca2+  Ca40  1  0.41373839  0.67468294  0.49814879  1
  Ca2+  Ca41  1  0.40483790  0.67882095  0.83208034  1
  Ca2+  Ca42  1  0.91270530  0.16809509  0.16552520  1
  Ca2+  Ca43  1  0.91640933  0.17118554  0.48961262  1
  Ca2+  Ca44  1  0.91951460  0.16436099  0.83339829  1
  Ca2+  Ca45  1  0.92337530  0.67834462  0.16489589  1
  Ca2+  Ca46  1  0.92780068  0.67077957  0.49094602  1
  Ca2+  Ca47  1  0.92283297  0.67081788  0.82737218  1
  Al0+  Al48  1  -0.00033921  0.00194524  -0.00327323  1
  Al0+  Al49  1  0.00133644  0.00033152  0.33995402  1
  Al0+  Al50  1  0.00084744  0.00039949  0.66612156  1
  Al0+  Al51  1  -0.00354003  0.49945212  0.00155863  1
  Al0+  Al52  1  0.00037116  0.50187243  0.32710399  1
  Al0+  Al53  1  -0.00037202  0.50083506  0.66769599  1
  Al0+  Al54  1  0.50274429  -0.00061486  0.00152464  1
  Al0+  Al55  1  0.50316450  0.00095827  0.33162060  1
  Al0+  Al56  1  0.50261552  0.00060948  0.66647036  1
  Al0+  Al57  1  0.49869422  0.49812723  0.00274835  1
  Al0+  Al58  1  0.49960405  0.49945980  0.33356574  1
  Al0+  Al59  1  0.49774666  0.50222229  0.66941730  1
  Al0+  Al60  1  0.24883080  0.24871664  0.00825821  1
  Al0+  Al61  1  0.25047310  0.25146352  0.33693460  1
  Al0+  Al62  1  0.24852088  0.24958011  0.67124454  1
  Al0+  Al63  1  0.24883289  0.74898156  -0.00270933  1
  Al0+  Al64  1  0.25056281  0.74879134  0.33052487  1
  Al0+  Al65  1  0.24816869  0.74998856  0.65687887  1
  Al0+  Al66  1  0.74999341  0.24875357  0.00045031  1
  Al0+  Al67  1  0.74962665  0.24877988  0.33305766  1
  Al0+  Al68  1  0.75052742  0.25011406  0.67105245  1
  Al0+  Al69  1  0.74935148  0.74803852  -0.00509612  1
  Al0+  Al70  1  0.75062144  0.75052373  0.32989938  1
  Al0+  Al71  1  0.74939759  0.75086115  0.67134370  1
  Al0+  Al72  1  0.92941221  0.82301200  0.98399771  1
  Al0+  Al73  1  0.67935188  0.42920927  0.34635817  1
  Al0+  Al74  1  0.17990755  0.92720601  0.34849484  1
  Al0+  Al75  1  0.68078059  0.92941005  0.68102665  1
  Al0+  Al76  1  0.57104375  0.17831035  0.31596618  1
  Al0+  Al77  1  0.17891927  0.43030776  0.67997859  1
  Al0+  Al78  1  0.42960900  0.82072957  0.98726963  1
  Al0+  Al79  1  0.92935693  0.31945368  0.32049769  1
  Al0+  Al80  1  0.92874521  0.82311724  0.31912640  1
  Al0+  Al81  1  0.82086208  0.06948051  0.01383333  1
  Al0+  Al82  1  0.67677121  0.42814651  0.68096614  1
  Al0+  Al83  1  0.32422638  0.07123502  0.35039521  1
  Al0+  Al84  1  0.31991949  0.06844491  0.68022936  1
  Al0+  Al85  1  0.43067380  0.82075606  0.65187570  1
  Al0+  Al86  1  0.57206952  0.18006700  0.65208075  1
  Al0+  Al87  1  0.42583328  0.32304513  0.65370704  1
  Al0+  Al88  1  0.17694642  0.42876663  0.01715132  1
  Al0+  Al89  1  0.32409221  0.06936595  0.01456169  1
  Al0+  Al90  1  0.42685679  0.32196803  0.31658314  1
  Al0+  Al91  1  0.07326953  0.67865607  0.31420789  1
  Al0+  Al92  1  0.82115100  0.07031560  0.34739114  1
  Al0+  Al93  1  0.06868949  0.67944896  0.65228346  1
  Al0+  Al94  1  0.32068356  0.57221588  0.01458266  1
  Al0+  Al95  1  0.17854291  0.43196217  0.34816968  1
  Si0+  Si96  1  0.82502920  0.07293907  0.68488991  1
  Si0+  Si97  1  0.57263683  0.18049569  0.98411043  1
  Si0+  Si98  1  0.32140559  0.57604701  0.68200074  1
  Si0+  Si99  1  0.93002502  0.32030819  0.65387235  1
  Si0+  Si100  1  0.06970043  0.67621805  0.98084992  1
  Si0+  Si101  1  0.67923836  0.42822473  0.01547083  1
  Si0+  Si102  1  0.17740322  0.92839977  0.01284784  1
  Si0+  Si103  1  0.92701826  0.32132636  0.98352230  1
  Si0+  Si104  1  0.07148403  0.18066858  0.98550607  1
  Si0+  Si105  1  0.57129151  0.67763105  0.31951635  1
  Si0+  Si106  1  0.17772211  0.92593672  0.68306528  1
  Si0+  Si107  1  0.81950029  0.57164468  0.01539406  1
  Si0+  Si108  1  0.43088298  0.82100854  0.31844281  1
  Si0+  Si109  1  0.82130929  0.57353309  0.34855389  1
  Si0+  Si110  1  0.57468372  0.67730708  0.64965124  1
  Si0+  Si111  1  0.82103425  0.57094167  0.68324642  1
  Si0+  Si112  1  0.42757057  0.31942951  0.98595355  1
  Si0+  Si113  1  0.32377539  0.57253831  0.35138485  1
  Si0+  Si114  1  0.07153935  0.17805560  0.65254990  1
  Si0+  Si115  1  0.67857228  0.92535677  0.34893393  1
  Si0+  Si116  1  0.92606726  0.82349802  0.65010075  1
  Si0+  Si117  1  0.07305620  0.17799278  0.31742435  1
  Si0+  Si118  1  0.67947218  0.92611568  0.01724423  1
  Si0+  Si119  1  0.57188404  0.67448308  0.98265260  1
  O2-  O120  1  0.25158117  -0.00918476  0.05745186  1
  O2-  O121  1  0.25300580  -0.00242169  0.39911793  1
  O2-  O122  1  0.24653348  -0.00697713  0.72941613  1
  O2-  O123  1  0.24920016  0.50093997  0.06570666  1
  O2-  O124  1  0.25463524  0.50464860  0.39571845  1
  O2-  O125  1  0.25699289  0.50233454  0.72505113  1
  O2-  O126  1  0.75080570  -0.00863790  0.06159375  1
  O2-  O127  1  0.74821460  -0.00656788  0.39210287  1
  O2-  O128  1  0.75749368  0.00239654  0.72763728  1
  O2-  O129  1  0.74757578  0.50168139  0.05749480  1
  O2-  O130  1  0.75485333  0.50326441  0.39357214  1
  O2-  O131  1  0.74976665  0.50485011  0.72868083  1
  O2-  O132  1  0.00436837  0.24617868  0.27159864  1
  O2-  O133  1  -0.00144161  0.24750960  0.61166183  1
  O2-  O134  1  0.00200873  0.25401495  0.94228300  1
  O2-  O135  1  0.00302184  0.75433696  0.26734585  1
  O2-  O136  1  -0.00392977  0.75660928  0.60658627  1
  O2-  O137  1  0.00338160  0.74773317  0.93677963  1
  O2-  O138  1  0.49633212  0.24752904  0.26546252  1
  O2-  O139  1  0.50241632  0.25547123  0.60431611  1
  O2-  O140  1  0.49732672  0.24741969  0.94254083  1
  O2-  O141  1  0.50079857  0.74860393  0.27663773  1
  O2-  O142  1  0.50526979  0.74519431  0.60518826  1
  O2-  O143  1  0.50227803  0.74316359  0.94012959  1
  O2-  O144  1  0.06978128  0.17913840  0.08998645  1
  O2-  O145  1  0.07124098  0.18017065  0.42349540  1
  O2-  O146  1  0.07065940  0.17781582  0.75821064  1
  O2-  O147  1  0.06746074  0.67481190  0.08576514  1
  O2-  O148  1  0.06917237  0.67720693  0.42800537  1
  O2-  O149  1  0.06623819  0.67963518  0.76587936  1
  O2-  O150  1  0.57641763  0.18350448  0.08855203  1
  O2-  O151  1  0.57248167  0.18013182  0.42918902  1
  O2-  O152  1  0.57084238  0.18039320  0.76681544  1
  O2-  O153  1  0.57486132  0.67511350  0.08845381  1
  O2-  O154  1  0.57150523  0.67737178  0.42438801  1
  O2-  O155  1  0.57567803  0.67807518  0.75535044  1
  O2-  O156  1  0.17846066  0.43395120  0.23529478  1
  O2-  O157  1  0.17460804  0.43114804  0.56752596  1
  O2-  O158  1  0.17772051  0.42913329  0.90305480  1
  O2-  O159  1  0.18209993  0.92931588  0.23406662  1
  O2-  O160  1  0.17758154  0.92843645  0.57807425  1
  O2-  O161  1  0.17595631  0.93208672  0.90698088  1
  O2-  O162  1  0.68106982  0.43260657  0.23259863  1
  O2-  O163  1  0.68032975  0.42759203  0.56835674  1
  O2-  O164  1  0.68082475  0.42829648  0.91012738  1
  O2-  O165  1  0.67726788  0.92296092  0.24331461  1
  O2-  O166  1  0.68341905  0.92852395  0.56812484  1
  O2-  O167  1  0.67843466  0.92880945  0.91154684  1
  O2-  O168  1  0.43011765  0.32016463  0.09051916  1
  O2-  O169  1  0.42902150  0.32370614  0.42990105  1
  O2-  O170  1  0.42578493  0.31972032  0.76845197  1
  O2-  O171  1  0.43312368  0.82027167  0.10058625  1
  O2-  O172  1  0.43262103  0.82091289  0.42355604  1
  O2-  O173  1  0.43100638  0.82000041  0.76520984  1
  O2-  O174  1  0.92314669  0.32064364  0.08811384  1
  O2-  O175  1  0.92906066  0.31782894  0.43411526  1
  O2-  O176  1  0.93018611  0.32025679  0.75966397  1
  O2-  O177  1  0.93124395  0.82262749  0.09649693  1
  O2-  O178  1  0.92533666  0.81815623  0.43265627  1
  O2-  O179  1  0.92735286  0.82261899  0.75623647  1
  O2-  O180  1  0.32299388  0.06719283  0.23627886  1
  O2-  O181  1  0.31847983  0.06843606  0.56800334  1
  O2-  O182  1  0.32349271  0.07147820  0.90119602  1
  O2-  O183  1  0.32497082  0.57242806  0.24566001  1
  O2-  O184  1  0.32027432  0.57893803  0.57675986  1
  O2-  O185  1  0.31962699  0.57102667  0.90079722  1
  O2-  O186  1  0.81949611  0.07043474  0.23398433  1
  O2-  O187  1  0.82711010  0.07453297  0.57981811  1
  O2-  O188  1  0.81849412  0.07099617  0.90064405  1
  O2-  O189  1  0.81646604  0.57410173  0.24244914  1
  O2-  O190  1  0.82129828  0.56959071  0.57808905  1
  O2-  O191  1  0.82014524  0.56955164  0.91005493  1
  O2-  O192  1  0.04777903  0.08395334  0.27317064  1
  O2-  O193  1  0.04634655  0.08585881  0.60454659  1
  O2-  O194  1  0.04144152  0.09134294  0.93406454  1
  O2-  O195  1  0.03987006  0.58335653  0.25857118  1
  O2-  O196  1  0.03338799  0.58386563  0.59866151  1
  O2-  O197  1  0.03802939  0.58364577  0.93466755  1
  O2-  O198  1  0.54793630  0.07840084  0.26222883  1
  O2-  O199  1  0.54437527  0.08232170  0.59965100  1
  O2-  O200  1  0.54965357  0.08593666  0.94025958  1
  O2-  O201  1  0.54392485  0.58702045  0.26964874  1
  O2-  O202  1  0.54968810  0.58325570  0.60458124  1
  O2-  O203  1  0.54701950  0.57992794  0.93733315  1
  O2-  O204  1  0.16626267  0.20400594  0.27162809  1
  O2-  O205  1  0.16174669  0.20816548  0.60508553  1
  O2-  O206  1  0.16398810  0.20816475  0.93810162  1
  O2-  O207  1  0.17273202  0.70411373  0.26160111  1
  O2-  O208  1  0.16402367  0.70639593  0.59517919  1
  O2-  O209  1  0.16412449  0.69897866  0.93529496  1
  O2-  O210  1  0.66780681  0.21189656  0.26229548  1
  O2-  O211  1  0.67302627  0.20592046  0.60310374  1
  O2-  O212  1  0.66258739  0.21237175  0.93460699  1
  O2-  O213  1  0.66241480  0.70483551  0.26974306  1
  O2-  O214  1  0.66858837  0.70307866  0.60446791  1
  O2-  O215  1  0.66499516  0.69845733  0.93443646  1
  O2-  O216  1  0.07624868  0.45528751  0.06638862  1
  O2-  O217  1  0.08028347  0.46336013  0.39940064  1
  O2-  O218  1  0.08293951  0.46347563  0.73565928  1
  O2-  O219  1  0.08654016  0.96102262  0.05984112  1
  O2-  O220  1  0.08266619  0.95431973  0.40383699  1
  O2-  O221  1  0.08326137  0.95164529  0.72868971  1
  O2-  O222  1  0.58677210  0.45271502  0.06229607  1
  O2-  O223  1  0.58395232  0.46244096  0.40036289  1
  O2-  O224  1  0.58056627  0.45926809  0.73679815  1
  O2-  O225  1  0.58782204  0.95449399  0.06516512  1
  O2-  O226  1  0.58609122  0.95270369  0.39565228  1
  O2-  O227  1  0.58586309  0.96259537  0.73702682  1
  O2-  O228  1  0.20364844  0.33069420  0.07045771  1
  O2-  O229  1  0.20494719  0.33405527  0.40135838  1
  O2-  O230  1  0.20567684  0.33343922  0.73602259  1
  O2-  O231  1  0.19503501  0.83217442  0.05533723  1
  O2-  O232  1  0.20710096  0.82731181  0.39865913  1
  O2-  O233  1  0.20172063  0.83091606  0.72639910  1
  O2-  O234  1  0.71170713  0.33802957  0.06212608  1
  O2-  O235  1  0.71232048  0.33403427  0.39999068  1
  O2-  O236  1  0.71189942  0.33408089  0.73850159  1
  O2-  O237  1  0.69996505  0.82955291  0.05915762  1
  O2-  O238  1  0.70278117  0.83158076  0.39595221  1
  O2-  O239  1  0.70722940  0.83231447  0.73798596  1
  O2-  O240  1  0.45923488  0.42002880  0.26355918  1
  O2-  O241  1  0.44665559  0.42502434  0.60573549  1
  O2-  O242  1  0.45611985  0.41153989  0.93900372  1
  O2-  O243  1  0.46116714  0.91129992  0.27001684  1
  O2-  O244  1  0.46585636  0.91543390  0.59811796  1
  O2-  O245  1  0.46504039  0.91645432  0.93297606  1
  O2-  O246  1  0.95636318  0.41634798  0.26514306  1
  O2-  O247  1  0.95795510  0.41152183  0.60702240  1
  O2-  O248  1  0.95039876  0.41452238  0.93607593  1
  O2-  O249  1  0.95693314  0.92302543  0.26895095  1
  O2-  O250  1  0.94874759  0.91864708  0.60624489  1
  O2-  O251  1  0.95906735  0.91964530  0.92877427  1
  O2-  O252  1  0.32727003  0.29536033  0.26495924  1
  O2-  O253  1  0.32819698  0.29019903  0.60232928  1
  O2-  O254  1  0.33399715  0.29226025  0.94175057  1
  O2-  O255  1  0.33953092  0.79422615  0.27065580  1
  O2-  O256  1  0.33487452  0.79152095  0.59596880  1
  O2-  O257  1  0.33180196  0.79374151  0.93242570  1
  O2-  O258  1  0.83406667  0.28765755  0.26489121  1
  O2-  O259  1  0.83752392  0.29354870  0.60804939  1
  O2-  O260  1  0.83700081  0.28871356  0.93396287  1
  O2-  O261  1  0.83095043  0.79335129  0.26357871  1
  O2-  O262  1  0.83218591  0.79680397  0.60639784  1
  O2-  O263  1  0.83212844  0.79089575  0.93066398  1
  O2-  O264  1  0.42128670  0.04077141  0.06800946  1
  O2-  O265  1  0.42340881  0.04150317  0.40042957  1
  O2-  O266  1  0.41696000  0.03810013  0.73334907  1
  O2-  O267  1  0.42039327  0.54618011  0.06718798  1
  O2-  O268  1  0.41759053  0.54903711  0.39759104  1
  O2-  O269  1  0.41669511  0.55942467  0.72834338  1
  O2-  O270  1  0.91941287  0.04340290  0.06566949  1
  O2-  O271  1  0.91754858  0.04462755  0.40376791  1
  O2-  O272  1  0.91928055  0.04794806  0.73155019  1
  O2-  O273  1  0.90992504  0.54296649  0.06390743  1
  O2-  O274  1  0.91577101  0.54929055  0.39125219  1
  O2-  O275  1  0.91192795  0.54033305  0.73256727  1
  O2-  O276  1  0.28935279  0.16325041  0.07009162  1
  O2-  O277  1  0.29417251  0.16917007  0.40179556  1
  O2-  O278  1  0.28583983  0.16337896  0.73647777  1
  O2-  O279  1  0.29359935  0.67167720  0.06688212  1
  O2-  O280  1  0.29951932  0.66705948  0.39547376  1
  O2-  O281  1  0.28828427  0.66783721  0.72849738  1
  O2-  O282  1  0.78779110  0.16607185  0.06693860  1
  O2-  O283  1  0.78815299  0.16560439  0.40203645  1
  O2-  O284  1  0.79926194  0.16566423  0.73316731  1
  O2-  O285  1  0.79197313  0.66382100  0.06205931  1
  O2-  O286  1  0.79362112  0.66609709  0.39531886  1
  O2-  O287  1  0.79876847  0.66504728  0.73042010  1
