# generated using pymatgen
data_Ca2Al2SiO7
_symmetry_space_group_name_H-M   'P 1'
_cell_length_a   15.46260991
_cell_length_b   15.46396395
_cell_length_c   15.28851949
_cell_angle_alpha   89.99655427
_cell_angle_beta   90.00463910
_cell_angle_gamma   89.98706293
_symmetry_Int_Tables_number   1
_chemical_formula_structural   Ca2Al2SiO7
_chemical_formula_sum   'Ca48 Al48 Si24 O168'
_cell_volume   3655.68735283
_cell_formula_units_Z   24
loop_
 _symmetry_equiv_pos_site_id
 _symmetry_equiv_pos_as_xyz
  1  'x, y, z'
loop_
 _atom_type_symbol
 _atom_type_oxidation_number
  Ca2+  2.0
  Al0+  0.0
  Si0+  0.0
  O2-  -2.0
loop_
 _atom_site_type_symbol
 _atom_site_label
 _atom_site_symmetry_multiplicity
 _atom_site_fract_x
 _atom_site_fract_y
 _atom_site_fract_z
 _atom_site_occupancy
  Ca2+  Ca0  1  0.16380147  0.08470935  0.17411164  1
  Ca2+  Ca1  1  0.15903338  0.08018574  0.50046049  1
  Ca2+  Ca2  1  0.17435254  0.08978967  0.84381233  1
  Ca2+  Ca3  1  0.17097468  0.58497926  0.17177362  1
  Ca2+  Ca4  1  0.17273582  0.57687190  0.50790248  1
  Ca2+  Ca5  1  0.15997986  0.58042071  0.83337012  1
  Ca2+  Ca6  1  0.67126743  0.08953044  0.17169221  1
  Ca2+  Ca7  1  0.66614934  0.08699524  0.50343533  1
  Ca2+  Ca8  1  0.65789910  0.08103437  0.83678290  1
  Ca2+  Ca9  1  0.67146142  0.57710780  0.16954108  1
  Ca2+  Ca10  1  0.67255022  0.57590060  0.50956940  1
  Ca2+  Ca11  1  0.67849261  0.56779849  0.83975405  1
  Ca2+  Ca12  1  0.07188565  0.32649015  0.16142990  1
  Ca2+  Ca13  1  0.07188509  0.33456183  0.49589379  1
  Ca2+  Ca14  1  0.07338462  0.33777622  0.82823070  1
  Ca2+  Ca15  1  0.07975676  0.83058764  0.15874084  1
  Ca2+  Ca16  1  0.08531930  0.82870652  0.49603689  1
  Ca2+  Ca17  1  0.07509350  0.82159462  0.83259287  1
  Ca2+  Ca18  1  0.58074652  0.32455703  0.16333194  1
  Ca2+  Ca19  1  0.57961940  0.33114544  0.49326409  1
  Ca2+  Ca20  1  0.58659294  0.32618994  0.82647008  1
  Ca2+  Ca21  1  0.58738811  0.82385188  0.16524854  1
  Ca2+  Ca22  1  0.58794760  0.82717284  0.49715584  1
  Ca2+  Ca23  1  0.58411506  0.83459254  0.82595932  1
  Ca2+  Ca24  1  0.33333106  0.42020464  0.17529234  1
  Ca2+  Ca25  1  0.33350663  0.41430033  0.50447873  1
  Ca2+  Ca26  1  0.32578486  0.40618131  0.83268101  1
  Ca2+  Ca27  1  0.32416771  0.92528962  0.17128614  1
  Ca2+  Ca28  1  0.32674755  0.91845358  0.50086856  1
  Ca2+  Ca29  1  0.33167215  0.92715311  0.84182003  1
  Ca2+  Ca30  1  0.83313870  0.40972563  0.16411034  1
  Ca2+  Ca31  1  0.83054759  0.41640331  0.51015140  1
  Ca2+  Ca32  1  0.83097715  0.41703848  0.83759598  1
  Ca2+  Ca33  1  0.83955444  0.92484618  0.17318544  1
  Ca2+  Ca34  1  0.82765001  0.92888940  0.50409941  1
  Ca2+  Ca35  1  0.82990286  0.91659326  0.83585452  1
  Ca2+  Ca36  1  0.42485314  0.16414449  0.16214912  1
  Ca2+  Ca37  1  0.42798567  0.17975824  0.49664263  1
  Ca2+  Ca38  1  0.42454093  0.17000429  0.82755119  1
  Ca2+  Ca39  1  0.42112232  0.66206378  0.16916558  1
  Ca2+  Ca40  1  0.42371247  0.66346468  0.48953660  1
  Ca2+  Ca41  1  0.41787992  0.67083312  0.83008455  1
  Ca2+  Ca42  1  0.92277053  0.17155979  0.16438315  1
  Ca2+  Ca43  1  0.91467974  0.17925590  0.49069825  1
  Ca2+  Ca44  1  0.91816909  0.18045489  0.83241898  1
  Ca2+  Ca45  1  0.92025773  0.67454606  0.15233107  1
  Ca2+  Ca46  1  0.92237482  0.65974469  0.50120121  1
  Ca2+  Ca47  1  0.92129181  0.65669836  0.83130920  1
  Al0+  Al48  1  -0.00038147  -0.00232929  -0.00924690  1
  Al0+  Al49  1  -0.00192191  -0.00029001  0.34196881  1
  Al0+  Al50  1  -0.00081336  -0.00304994  0.66997678  1
  Al0+  Al51  1  0.00038184  0.50050290  -0.00044153  1
  Al0+  Al52  1  0.00057985  0.50140936  0.32826320  1
  Al0+  Al53  1  0.00411855  0.50044160  0.66362433  1
  Al0+  Al54  1  0.49821671  -0.00039724  0.00383352  1
  Al0+  Al55  1  0.49780334  -0.00251295  0.33177817  1
  Al0+  Al56  1  0.49876663  0.00010527  0.66467994  1
  Al0+  Al57  1  0.49959257  0.49917745  0.00264956  1
  Al0+  Al58  1  0.50132772  0.50167514  0.32906508  1
  Al0+  Al59  1  0.49997232  0.50195448  0.66935382  1
  Al0+  Al60  1  0.25263846  0.25069448  0.00639556  1
  Al0+  Al61  1  0.24936779  0.25069423  0.33039785  1
  Al0+  Al62  1  0.25133105  0.24931383  0.66658738  1
  Al0+  Al63  1  0.25041768  0.75096926  -0.00329264  1
  Al0+  Al64  1  0.25136055  0.75042632  0.34152525  1
  Al0+  Al65  1  0.24878824  0.75063748  0.66426103  1
  Al0+  Al66  1  0.74844280  0.24703193  -0.00356587  1
  Al0+  Al67  1  0.74881065  0.25115028  0.33086520  1
  Al0+  Al68  1  0.75232594  0.24854436  0.66371396  1
  Al0+  Al69  1  0.74861694  0.74878615  -0.00108852  1
  Al0+  Al70  1  0.75072819  0.74917645  0.32996918  1
  Al0+  Al71  1  0.75125786  0.75347522  0.67329754  1
  Al0+  Al72  1  0.82196950  0.56991706  0.01714265  1
  Al0+  Al73  1  0.07420756  0.17860489  0.98589091  1
  Al0+  Al74  1  0.92943975  0.31962067  0.98365709  1
  Al0+  Al75  1  0.07011249  0.68024560  0.64981000  1
  Al0+  Al76  1  0.57241521  0.68037778  0.31999558  1
  Al0+  Al77  1  0.57141165  0.17816108  0.65145608  1
  Al0+  Al78  1  0.92769563  0.32414753  0.31738221  1
  Al0+  Al79  1  0.18252144  0.42901072  0.67930364  1
  Al0+  Al80  1  0.67830926  0.93256821  0.67937618  1
  Al0+  Al81  1  0.56880426  0.17806824  0.98569394  1
  Al0+  Al82  1  0.56986905  0.17712116  0.31724458  1
  Al0+  Al83  1  0.06901704  0.17633148  0.32141522  1
  Al0+  Al84  1  0.67746497  0.42641004  0.68025152  1
  Al0+  Al85  1  0.07251598  0.67904788  0.98546176  1
  Al0+  Al86  1  0.32060488  0.07221612  0.01517880  1
  Al0+  Al87  1  0.93093131  0.32074267  0.65268039  1
  Al0+  Al88  1  0.67856497  0.42556935  0.01772512  1
  Al0+  Al89  1  0.92530585  0.82174135  0.98386905  1
  Al0+  Al90  1  0.82281151  0.57051582  0.68014168  1
  Al0+  Al91  1  0.17861966  0.93107643  0.34754206  1
  Al0+  Al92  1  0.81831040  0.07216514  0.34613769  1
  Al0+  Al93  1  0.42865586  0.32269339  0.31749200  1
  Al0+  Al94  1  0.42831812  0.32305377  0.65275928  1
  Al0+  Al95  1  0.32134447  0.56889894  0.34698511  1
  Si0+  Si96  1  0.17750072  0.92617018  0.68485519  1
  Si0+  Si97  1  0.42856838  0.32450686  0.98369549  1
  Si0+  Si98  1  0.31821503  0.06821734  0.68073084  1
  Si0+  Si99  1  0.82266803  0.57426000  0.34738086  1
  Si0+  Si100  1  0.17624582  0.42809091  0.34939541  1
  Si0+  Si101  1  0.68112032  0.43145273  0.34713050  1
  Si0+  Si102  1  0.07296627  0.17593057  0.65198354  1
  Si0+  Si103  1  0.92646162  0.82323151  0.64650766  1
  Si0+  Si104  1  0.82124546  0.06782421  0.01322321  1
  Si0+  Si105  1  0.57062344  0.67707610  0.98321766  1
  Si0+  Si106  1  0.42517017  0.82062518  0.31615010  1
  Si0+  Si107  1  0.17842713  0.92865350  0.01431751  1
  Si0+  Si108  1  0.32360546  0.07403612  0.35242463  1
  Si0+  Si109  1  0.07321478  0.68073674  0.31931144  1
  Si0+  Si110  1  0.82354493  0.07253850  0.68547707  1
  Si0+  Si111  1  0.42856126  0.82145203  0.65116463  1
  Si0+  Si112  1  0.43078184  0.81983971  0.98590602  1
  Si0+  Si113  1  0.93001404  0.81965853  0.32119565  1
  Si0+  Si114  1  0.32315166  0.57494331  0.68439572  1
  Si0+  Si115  1  0.57172119  0.68126554  0.65437226  1
  Si0+  Si116  1  0.67641055  0.92791107  0.01609754  1
  Si0+  Si117  1  0.67764365  0.92527134  0.34772751  1
  Si0+  Si118  1  0.17939212  0.42952577  0.01636849  1
  Si0+  Si119  1  0.32089285  0.57397066  0.01475085  1
  O2-  O120  1  0.23971231  0.00289265  0.06003103  1
  O2-  O121  1  0.25103217  0.00812680  0.39589519  1
  O2-  O122  1  0.24453638  0.00089169  0.72587189  1
  O2-  O123  1  0.24995521  0.50290562  0.05628839  1
  O2-  O124  1  0.24868940  0.49309889  0.39382977  1
  O2-  O125  1  0.25866978  0.50243840  0.72817156  1
  O2-  O126  1  0.75158189  -0.00515086  0.05642582  1
  O2-  O127  1  0.73891964  0.00037324  0.39130322  1
  O2-  O128  1  0.75026433  0.00787521  0.72899007  1
  O2-  O129  1  0.75148033  0.49716474  0.06854275  1
  O2-  O130  1  0.75567360  0.49948172  0.38878663  1
  O2-  O131  1  0.75195613  0.49686528  0.72909258  1
  O2-  O132  1  0.00052693  0.25086249  0.27092063  1
  O2-  O133  1  0.00281538  0.24220294  0.60763254  1
  O2-  O134  1  0.00507322  0.25114349  0.93345890  1
  O2-  O135  1  0.00089367  0.74970839  0.27721362  1
  O2-  O136  1  -0.00562796  0.75380134  0.60216827  1
  O2-  O137  1  -0.00566217  0.74531701  0.93635337  1
  O2-  O138  1  0.49478411  0.24569604  0.26691265  1
  O2-  O139  1  0.50714917  0.25823575  0.60342043  1
  O2-  O140  1  0.49753570  0.25620502  0.94015414  1
  O2-  O141  1  0.49816035  0.75612283  0.27258284  1
  O2-  O142  1  0.49800220  0.74877669  0.60982302  1
  O2-  O143  1  0.50131009  0.75002755  0.94095587  1
  O2-  O144  1  0.07126922  0.17829570  0.09927477  1
  O2-  O145  1  0.06516435  0.17622829  0.43525802  1
  O2-  O146  1  0.07414318  0.17728064  0.75745710  1
  O2-  O147  1  0.07734148  0.68474049  0.09957197  1
  O2-  O148  1  0.07215365  0.68104415  0.42429423  1
  O2-  O149  1  0.07240685  0.68299382  0.76238048  1
  O2-  O150  1  0.56725560  0.17549399  0.09842941  1
  O2-  O151  1  0.57051405  0.17951822  0.43053011  1
  O2-  O152  1  0.56465888  0.17310357  0.76488007  1
  O2-  O153  1  0.56912551  0.67888600  0.08843558  1
  O2-  O154  1  0.57297048  0.68231430  0.43348214  1
  O2-  O155  1  0.56843392  0.68481432  0.75951293  1
  O2-  O156  1  0.17459310  0.43301711  0.24372858  1
  O2-  O157  1  0.18285000  0.43142323  0.56632404  1
  O2-  O158  1  0.18137682  0.42827089  0.91113297  1
  O2-  O159  1  0.18002744  0.92823105  0.23443378  1
  O2-  O160  1  0.17911001  0.92527658  0.57963696  1
  O2-  O161  1  0.18472613  0.92583193  0.90877623  1
  O2-  O162  1  0.68032667  0.43305014  0.24228366  1
  O2-  O163  1  0.67627993  0.43119858  0.56603166  1
  O2-  O164  1  0.67669038  0.42796297  0.90438294  1
  O2-  O165  1  0.68247852  0.92050139  0.24223682  1
  O2-  O166  1  0.67937612  0.93038740  0.56627551  1
  O2-  O167  1  0.67194512  0.93014306  0.91102811  1
  O2-  O168  1  0.42886492  0.32563720  0.08903905  1
  O2-  O169  1  0.43306914  0.32451932  0.43100020  1
  O2-  O170  1  0.42367584  0.31632657  0.76616700  1
  O2-  O171  1  0.43024312  0.81810015  0.09064244  1
  O2-  O172  1  0.42423389  0.81902432  0.42201560  1
  O2-  O173  1  0.42871265  0.82198796  0.75673919  1
  O2-  O174  1  0.93056619  0.31636460  0.09701880  1
  O2-  O175  1  0.92878186  0.32621733  0.43119366  1
  O2-  O176  1  0.93243336  0.32097459  0.76542180  1
  O2-  O177  1  0.92906853  0.82423358  0.09838912  1
  O2-  O178  1  0.92891988  0.81723772  0.42609661  1
  O2-  O179  1  0.92829507  0.82579871  0.75160827  1
  O2-  O180  1  0.32505282  0.06908162  0.24694412  1
  O2-  O181  1  0.31732862  0.06438465  0.57592414  1
  O2-  O182  1  0.32281273  0.06739204  0.90153675  1
  O2-  O183  1  0.31774295  0.57146897  0.23340408  1
  O2-  O184  1  0.32201790  0.57887053  0.57904377  1
  O2-  O185  1  0.32217075  0.57697899  0.90985170  1
  O2-  O186  1  0.82093903  0.06755213  0.23271523  1
  O2-  O187  1  0.82594109  0.06883751  0.57990183  1
  O2-  O188  1  0.81944209  0.06676903  0.90823183  1
  O2-  O189  1  0.82058626  0.57988790  0.24299410  1
  O2-  O190  1  0.81933033  0.57119010  0.56556141  1
  O2-  O191  1  0.81918179  0.57004329  0.90385067  1
  O2-  O192  1  0.03821994  0.07755889  0.26995640  1
  O2-  O193  1  0.04937338  0.07964999  0.60986196  1
  O2-  O194  1  0.04962336  0.07980139  0.93225259  1
  O2-  O195  1  0.04894098  0.58906272  0.27092378  1
  O2-  O196  1  0.04208841  0.58444607  0.59362724  1
  O2-  O197  1  0.04904536  0.57953173  0.93390392  1
  O2-  O198  1  0.54665243  0.07543136  0.26732441  1
  O2-  O199  1  0.53512096  0.08223225  0.59695637  1
  O2-  O200  1  0.53395111  0.08107470  0.93384625  1
  O2-  O201  1  0.53918898  0.58708405  0.26252042  1
  O2-  O202  1  0.54716549  0.58886283  0.60721153  1
  O2-  O203  1  0.53887495  0.58654010  0.93654879  1
  O2-  O204  1  0.16995259  0.19740156  0.27134564  1
  O2-  O205  1  0.16629026  0.20059325  0.60568595  1
  O2-  O206  1  0.17530735  0.20566233  0.93761485  1
  O2-  O207  1  0.16516882  0.71117582  0.27436562  1
  O2-  O208  1  0.16673954  0.71373257  0.59594641  1
  O2-  O209  1  0.16903069  0.71207652  0.92999251  1
  O2-  O210  1  0.66692469  0.20878072  0.26453024  1
  O2-  O211  1  0.67332875  0.19543471  0.60281575  1
  O2-  O212  1  0.66587888  0.20290061  0.93111925  1
  O2-  O213  1  0.66734746  0.71241348  0.26253275  1
  O2-  O214  1  0.66269321  0.71325695  0.60801557  1
  O2-  O215  1  0.66169008  0.70438741  0.93581271  1
  O2-  O216  1  0.08806502  0.45676376  0.06401272  1
  O2-  O217  1  0.08399267  0.45968544  0.39574954  1
  O2-  O218  1  0.08801817  0.46414301  0.73376787  1
  O2-  O219  1  0.08142425  0.94627013  0.05573672  1
  O2-  O220  1  0.08309120  0.95746745  0.40638115  1
  O2-  O221  1  0.08382976  0.94771372  0.73077457  1
  O2-  O222  1  0.57994059  0.45789134  0.06967097  1
  O2-  O223  1  0.59077925  0.46453593  0.39371014  1
  O2-  O224  1  0.57969653  0.45648365  0.73463489  1
  O2-  O225  1  0.58652055  0.95722147  0.06628622  1
  O2-  O226  1  0.58013925  0.94086951  0.38967571  1
  O2-  O227  1  0.57982433  0.95922996  0.73360939  1
  O2-  O228  1  0.20906722  0.33986923  0.06660147  1
  O2-  O229  1  0.19608659  0.33252566  0.39340221  1
  O2-  O230  1  0.21151458  0.33196281  0.73476162  1
  O2-  O231  1  0.21238882  0.83780455  0.06210480  1
  O2-  O232  1  0.21383554  0.83686644  0.40517054  1
  O2-  O233  1  0.21105619  0.83634658  0.73220761  1
  O2-  O234  1  0.70639224  0.32561918  0.06808666  1
  O2-  O235  1  0.70504780  0.33889700  0.39404585  1
  O2-  O236  1  0.70441421  0.32659564  0.73033612  1
  O2-  O237  1  0.69928209  0.83388297  0.06113442  1
  O2-  O238  1  0.71039361  0.83444370  0.39639909  1
  O2-  O239  1  0.70870906  0.83753181  0.73731082  1
  O2-  O240  1  0.46041598  0.41938543  0.26321299  1
  O2-  O241  1  0.44655765  0.42634189  0.60510687  1
  O2-  O242  1  0.45015450  0.41900436  0.93727853  1
  O2-  O243  1  0.44521335  0.91520102  0.27055141  1
  O2-  O244  1  0.45770373  0.91117126  0.60148425  1
  O2-  O245  1  0.45937604  0.91104936  0.93811701  1
  O2-  O246  1  0.95646612  0.42211203  0.26260299  1
  O2-  O247  1  0.96542480  0.41534032  0.59767132  1
  O2-  O248  1  0.95636030  0.41937889  0.93401349  1
  O2-  O249  1  0.95845332  0.91168764  0.27576665  1
  O2-  O250  1  0.95560172  0.91637333  0.60030442  1
  O2-  O251  1  0.95605265  0.91643133  0.92531854  1
  O2-  O252  1  0.32700655  0.30333050  0.26792007  1
  O2-  O253  1  0.33255904  0.28747223  0.59754696  1
  O2-  O254  1  0.33474786  0.29679168  0.94001929  1
  O2-  O255  1  0.33369178  0.78912284  0.26938273  1
  O2-  O256  1  0.33633709  0.79574113  0.60394342  1
  O2-  O257  1  0.34021726  0.79206837  0.93559521  1
  O2-  O258  1  0.83002875  0.29509217  0.26552445  1
  O2-  O259  1  0.83419988  0.29251505  0.59776214  1
  O2-  O260  1  0.83247898  0.28687346  0.93115097  1
  O2-  O261  1  0.83925132  0.79305495  0.27136241  1
  O2-  O262  1  0.83135852  0.80002019  0.60272733  1
  O2-  O263  1  0.82458493  0.79914082  0.93303685  1
  O2-  O264  1  0.41298097  0.03157534  0.07152957  1
  O2-  O265  1  0.41532372  0.04215848  0.39974778  1
  O2-  O266  1  0.40820615  0.03498209  0.72846386  1
  O2-  O267  1  0.41240938  0.54647920  0.06299886  1
  O2-  O268  1  0.42011271  0.54214187  0.39915723  1
  O2-  O269  1  0.41810680  0.55682062  0.73049069  1
  O2-  O270  1  0.91414892  0.03929004  0.05886533  1
  O2-  O271  1  0.91047364  0.03629235  0.40528929  1
  O2-  O272  1  0.91508449  0.04112268  0.73336483  1
  O2-  O273  1  0.92271939  0.54729816  0.06847979  1
  O2-  O274  1  0.91706398  0.55017808  0.39171786  1
  O2-  O275  1  0.92248568  0.54384287  0.72951234  1
  O2-  O276  1  0.29821690  0.16942350  0.07130568  1
  O2-  O277  1  0.30251468  0.16960314  0.39561373  1
  O2-  O278  1  0.29400553  0.16029894  0.72876420  1
  O2-  O279  1  0.29320911  0.66596182  0.06274067  1
  O2-  O280  1  0.29149674  0.66455372  0.40356098  1
  O2-  O281  1  0.29267077  0.66776640  0.73100578  1
  O2-  O282  1  0.79118403  0.15830042  0.06074445  1
  O2-  O283  1  0.78949607  0.16936486  0.40001081  1
  O2-  O284  1  0.80360530  0.16750073  0.72932401  1
  O2-  O285  1  0.79085465  0.66981919  0.06789645  1
  O2-  O286  1  0.79163657  0.66438036  0.39677800  1
  O2-  O287  1  0.79543664  0.66924440  0.73266183  1
