# generated using pymatgen
data_Ca2Al2SiO7
_symmetry_space_group_name_H-M   'P 1'
_cell_length_a   15.45122580
_cell_length_b   15.45108744
_cell_length_c   15.27889082
_cell_angle_alpha   89.99564164
_cell_angle_beta   89.99324450
_cell_angle_gamma   90.00901193
_symmetry_Int_Tables_number   1
_chemical_formula_structural   Ca2Al2SiO7
_chemical_formula_sum   'Ca48 Al48 Si24 O168'
_cell_volume   3647.65543603
_cell_formula_units_Z   24
loop_
 _symmetry_equiv_pos_site_id
 _symmetry_equiv_pos_as_xyz
  1  'x, y, z'
loop_
 _atom_type_symbol
 _atom_type_oxidation_number
  Ca2+  2.0
  Al0+  0.0
  Si0+  0.0
  O2-  -2.0
loop_
 _atom_site_type_symbol
 _atom_site_label
 _atom_site_symmetry_multiplicity
 _atom_site_fract_x
 _atom_site_fract_y
 _atom_site_fract_z
 _atom_site_occupancy
  Ca2+  Ca0  1  0.17223564  0.07790985  0.17175286  1
  Ca2+  Ca1  1  0.16999053  0.07840590  0.50613442  1
  Ca2+  Ca2  1  0.17777859  0.08963939  0.83426934  1
  Ca2+  Ca3  1  0.16521732  0.57617051  0.16664578  1
  Ca2+  Ca4  1  0.17247097  0.57465833  0.50550438  1
  Ca2+  Ca5  1  0.17623013  0.58263048  0.84280521  1
  Ca2+  Ca6  1  0.68046010  0.08234216  0.17116799  1
  Ca2+  Ca7  1  0.67640438  0.08132901  0.51138547  1
  Ca2+  Ca8  1  0.67111532  0.08272890  0.83366183  1
  Ca2+  Ca9  1  0.67044124  0.57952619  0.17850784  1
  Ca2+  Ca10  1  0.66282796  0.58430286  0.49972100  1
  Ca2+  Ca11  1  0.66560404  0.58415907  0.83243929  1
  Ca2+  Ca12  1  0.07855334  0.33974597  0.15912662  1
  Ca2+  Ca13  1  0.08337466  0.32689536  0.49947216  1
  Ca2+  Ca14  1  0.07400292  0.33158288  0.82783480  1
  Ca2+  Ca15  1  0.08213388  0.83031923  0.16599998  1
  Ca2+  Ca16  1  0.07861810  0.83521278  0.49098208  1
  Ca2+  Ca17  1  0.08686958  0.82684341  0.83330627  1
  Ca2+  Ca18  1  0.57839477  0.33872873  0.16931615  1
  Ca2+  Ca19  1  0.57874529  0.33012178  0.49341246  1
  Ca2+  Ca20  1  0.58037913  0.32330178  0.82532191  1
  Ca2+  Ca21  1  0.57957877  0.82570545  0.16261835  1
  Ca2+  Ca22  1  0.58344995  0.82736479  0.49925627  1
  Ca2+  Ca23  1  0.57256101  0.83198558  0.82172442  1
  Ca2+  Ca24  1  0.32266531  0.41861717  0.17326575  1
  Ca2+  Ca25  1  0.33299811  0.41753340  0.50249035  1
  Ca2+  Ca26  1  0.32848577  0.43067587  0.84188176  1
  Ca2+  Ca27  1  0.33093136  0.91755912  0.16564185  1
  Ca2+  Ca28  1  0.32811456  0.91591796  0.50761474  1
  Ca2+  Ca29  1  0.34426702  0.92495254  0.83643760  1
  Ca2+  Ca30  1  0.82879893  0.42215079  0.17549813  1
  Ca2+  Ca31  1  0.83038140  0.42072137  0.50072969  1
  Ca2+  Ca32  1  0.83529435  0.40841702  0.83602286  1
  Ca2+  Ca33  1  0.84261769  0.92775073  0.17466727  1
  Ca2+  Ca34  1  0.83147781  0.92558212  0.50635368  1
  Ca2+  Ca35  1  0.82720852  0.92831824  0.83459862  1
  Ca2+  Ca36  1  0.41352177  0.17222149  0.16363579  1
  Ca2+  Ca37  1  0.42312609  0.16469887  0.49771107  1
  Ca2+  Ca38  1  0.41952642  0.16152743  0.82315253  1
  Ca2+  Ca39  1  0.41832693  0.66925612  0.16042767  1
  Ca2+  Ca40  1  0.42525720  0.66519299  0.50005063  1
  Ca2+  Ca41  1  0.41339995  0.67583372  0.82441524  1
  Ca2+  Ca42  1  0.91539948  0.17011310  0.15963925  1
  Ca2+  Ca43  1  0.91625380  0.16447144  0.49955967  1
  Ca2+  Ca44  1  0.91631800  0.17410872  0.82476394  1
  Ca2+  Ca45  1  0.91968680  0.66940212  0.16433907  1
  Ca2+  Ca46  1  0.91165497  0.67652719  0.48985843  1
  Ca2+  Ca47  1  0.92846053  0.66257191  0.83063464  1
  Al0+  Al48  1  0.00052358  0.00071123  0.00142692  1
  Al0+  Al49  1  0.00287716  0.00015714  0.33626420  1
  Al0+  Al50  1  0.00034346  -0.00013090  0.67002543  1
  Al0+  Al51  1  -0.00159748  0.50063279  -0.00624383  1
  Al0+  Al52  1  0.00102320  0.49954732  0.34337555  1
  Al0+  Al53  1  -0.00138259  0.49906156  0.66167808  1
  Al0+  Al54  1  0.50137271  -0.00076661  0.00401693  1
  Al0+  Al55  1  0.50195713  0.00052393  0.32930071  1
  Al0+  Al56  1  0.49897332  -0.00132726  0.66256547  1
  Al0+  Al57  1  0.50027022  0.49957376  0.00248626  1
  Al0+  Al58  1  0.49996336  0.49908916  0.32695019  1
  Al0+  Al59  1  0.49997618  0.50077403  0.67008292  1
  Al0+  Al60  1  0.24967831  0.25039206  0.00738600  1
  Al0+  Al61  1  0.25052929  0.25031554  0.33270604  1
  Al0+  Al62  1  0.24630596  0.24953449  0.66742525  1
  Al0+  Al63  1  0.25093494  0.75076369  -0.00405107  1
  Al0+  Al64  1  0.24994256  0.75004781  0.33693610  1
  Al0+  Al65  1  0.24958072  0.74858422  0.66509915  1
  Al0+  Al66  1  0.74958417  0.24931257  0.00126660  1
  Al0+  Al67  1  0.75055949  0.25052626  0.34044505  1
  Al0+  Al68  1  0.74919816  0.25224869  0.66133374  1
  Al0+  Al69  1  0.74907360  0.75032582  -0.00138769  1
  Al0+  Al70  1  0.75046598  0.75250060  0.32409358  1
  Al0+  Al71  1  0.75022217  0.74864447  0.67052108  1
  Al0+  Al72  1  0.07159073  0.17759083  0.65094840  1
  Al0+  Al73  1  0.93078461  0.82242983  0.32031911  1
  Al0+  Al74  1  0.82058874  0.57361766  0.34742501  1
  Al0+  Al75  1  0.43104143  0.82047614  0.98637155  1
  Al0+  Al76  1  0.17876763  0.42759299  0.34928509  1
  Al0+  Al77  1  0.32315370  0.07095203  0.01476907  1
  Al0+  Al78  1  0.42879339  0.31920449  0.31902542  1
  Al0+  Al79  1  0.42759453  0.82136330  0.64905011  1
  Al0+  Al80  1  0.67879517  0.92714367  0.68096547  1
  Al0+  Al81  1  0.57007440  0.68035946  0.31791786  1
  Al0+  Al82  1  0.32099776  0.56944726  0.67986254  1
  Al0+  Al83  1  0.31933793  0.07005035  0.67736153  1
  Al0+  Al84  1  0.18178329  0.92904913  0.34618391  1
  Al0+  Al85  1  0.57240966  0.67779105  0.65174149  1
  Al0+  Al86  1  0.17712844  0.43077960  0.01373881  1
  Al0+  Al87  1  0.82150351  0.07321697  0.68324272  1
  Al0+  Al88  1  0.56946474  0.17823141  0.65378357  1
  Al0+  Al89  1  0.32184009  0.57351080  0.01656553  1
  Al0+  Al90  1  0.67710590  0.43044809  0.34951576  1
  Al0+  Al91  1  0.06861051  0.68028635  0.98732074  1
  Al0+  Al92  1  0.92774461  0.32168052  0.64696131  1
  Al0+  Al93  1  0.82148345  0.07030710  0.34786647  1
  Al0+  Al94  1  0.82033196  0.07073074  0.01395642  1
  Al0+  Al95  1  0.92878004  0.31919617  0.98902647  1
  Si0+  Si96  1  0.42713644  0.32254656  0.65374732  1
  Si0+  Si97  1  0.92646027  0.82514012  0.98137950  1
  Si0+  Si98  1  0.67890381  0.92713331  0.01864225  1
  Si0+  Si99  1  0.67670118  0.92808051  0.34824759  1
  Si0+  Si100  1  0.42546868  0.82315509  0.31523984  1
  Si0+  Si101  1  0.67907114  0.42987821  0.68233488  1
  Si0+  Si102  1  0.32244517  0.57172334  0.34953158  1
  Si0+  Si103  1  0.17670576  0.92606883  0.68476741  1
  Si0+  Si104  1  0.82250225  0.57117081  0.68308284  1
  Si0+  Si105  1  0.42690816  0.32134763  0.98496238  1
  Si0+  Si106  1  0.07392215  0.17619217  0.98491971  1
  Si0+  Si107  1  0.07164323  0.67855894  0.64998491  1
  Si0+  Si108  1  0.82050070  0.57198263  0.01275647  1
  Si0+  Si109  1  0.92954916  0.32128439  0.31907942  1
  Si0+  Si110  1  0.17770016  0.92744768  0.01594079  1
  Si0+  Si111  1  0.56958090  0.18101583  0.98687593  1
  Si0+  Si112  1  0.57466563  0.17770823  0.31476634  1
  Si0+  Si113  1  0.17599800  0.42808964  0.68437135  1
  Si0+  Si114  1  0.32352593  0.07194608  0.34926063  1
  Si0+  Si115  1  0.92983699  0.81918190  0.65449123  1
  Si0+  Si116  1  0.07289893  0.67616307  0.31860811  1
  Si0+  Si117  1  0.07095919  0.17937120  0.31702728  1
  Si0+  Si118  1  0.57310545  0.67547351  0.98187745  1
  Si0+  Si119  1  0.67946804  0.42800889  0.01390212  1
  O2-  O120  1  0.24548255  -0.00203358  0.05917148  1
  O2-  O121  1  0.26013786  -0.00106912  0.39348112  1
  O2-  O122  1  0.24612817  -0.00501693  0.72720320  1
  O2-  O123  1  0.25075820  0.50026120  0.06573604  1
  O2-  O124  1  0.25317534  0.50352856  0.39397950  1
  O2-  O125  1  0.24564146  0.49595612  0.72752147  1
  O2-  O126  1  0.75229961  -0.00909166  0.06287118  1
  O2-  O127  1  0.74410406  -0.00224157  0.39245287  1
  O2-  O128  1  0.74719634  0.00263499  0.73176786  1
  O2-  O129  1  0.74707182  0.50325674  0.05422894  1
  O2-  O130  1  0.74794486  0.50356925  0.39963988  1
  O2-  O131  1  0.75189443  0.49929077  0.72511338  1
  O2-  O132  1  0.00030373  0.25107373  0.27473537  1
  O2-  O133  1  -0.00209947  0.24686062  0.59869172  1
  O2-  O134  1  0.00414963  0.24492850  0.94277049  1
  O2-  O135  1  0.00292111  0.74405896  0.27478688  1
  O2-  O136  1  0.00136574  0.75030963  0.60914152  1
  O2-  O137  1  -0.00535829  0.75544355  0.93793706  1
  O2-  O138  1  0.50390547  0.24458612  0.27065618  1
  O2-  O139  1  0.49194374  0.25086917  0.60850932  1
  O2-  O140  1  0.49533184  0.24801832  0.94251837  1
  O2-  O141  1  0.49412762  0.75422799  0.27138455  1
  O2-  O142  1  0.50128847  0.75006405  0.60121201  1
  O2-  O143  1  0.50331837  0.74333332  0.93928377  1
  O2-  O144  1  0.07235442  0.17468844  0.09087370  1
  O2-  O145  1  0.07144183  0.17889931  0.42178591  1
  O2-  O146  1  0.07403717  0.18148040  0.76478429  1
  O2-  O147  1  0.06521953  0.67982607  0.10048434  1
  O2-  O148  1  0.07352856  0.67838716  0.42436786  1
  O2-  O149  1  0.07066541  0.67812846  0.75542282  1
  O2-  O150  1  0.57132261  0.18430299  0.09193018  1
  O2-  O151  1  0.57301452  0.17675445  0.42013974  1
  O2-  O152  1  0.56952608  0.18170215  0.76779570  1
  O2-  O153  1  0.57530595  0.67622704  0.08746649  1
  O2-  O154  1  0.56895727  0.68104841  0.43069708  1
  O2-  O155  1  0.57125460  0.67745673  0.76546454  1
  O2-  O156  1  0.17669473  0.42936418  0.23624326  1
  O2-  O157  1  0.17712288  0.42935689  0.57850207  1
  O2-  O158  1  0.17835907  0.43215910  0.90026334  1
  O2-  O159  1  0.18138163  0.93089021  0.23285475  1
  O2-  O160  1  0.17611826  0.92583251  0.57894546  1
  O2-  O161  1  0.17635816  0.92772868  0.91053978  1
  O2-  O162  1  0.68078283  0.43040816  0.23502106  1
  O2-  O163  1  0.67703646  0.43148180  0.57782853  1
  O2-  O164  1  0.67930019  0.42592116  0.90860043  1
  O2-  O165  1  0.67633774  0.93097455  0.24225519  1
  O2-  O166  1  0.68381107  0.92573911  0.56722348  1
  O2-  O167  1  0.67783209  0.92892263  0.91337088  1
  O2-  O168  1  0.42939250  0.32102677  0.08999440  1
  O2-  O169  1  0.42914348  0.31670921  0.43239853  1
  O2-  O170  1  0.43095084  0.32279183  0.75987027  1
  O2-  O171  1  0.43371337  0.82020353  0.09984722  1
  O2-  O172  1  0.42461043  0.82401560  0.42025955  1
  O2-  O173  1  0.42814669  0.82039395  0.76298657  1
  O2-  O174  1  0.92715740  0.31961496  0.10251774  1
  O2-  O175  1  0.93074216  0.31993226  0.42363646  1
  O2-  O176  1  0.92985505  0.32272164  0.76121373  1
  O2-  O177  1  0.92748303  0.82513576  0.08697883  1
  O2-  O178  1  0.93252975  0.82246008  0.43386165  1
  O2-  O179  1  0.93164794  0.81581395  0.75981131  1
  O2-  O180  1  0.32074757  0.07193432  0.24328610  1
  O2-  O181  1  0.31749634  0.06961768  0.56431871  1
  O2-  O182  1  0.32450629  0.07138399  0.90169276  1
  O2-  O183  1  0.32034561  0.57218166  0.24392516  1
  O2-  O184  1  0.32010227  0.56654104  0.56649834  1
  O2-  O185  1  0.32135940  0.57163400  0.90279774  1
  O2-  O186  1  0.82149523  0.07081714  0.23409300  1
  O2-  O187  1  0.82183534  0.06878696  0.56966248  1
  O2-  O188  1  0.81617094  0.07317744  0.90153589  1
  O2-  O189  1  0.82187434  0.56986954  0.23307638  1
  O2-  O190  1  0.82335896  0.57343811  0.57851890  1
  O2-  O191  1  0.82019661  0.57191933  0.90742066  1
  O2-  O192  1  0.04219320  0.08806648  0.26934843  1
  O2-  O193  1  0.04631752  0.07673286  0.60061569  1
  O2-  O194  1  0.05058899  0.08230786  0.93848079  1
  O2-  O195  1  0.04638282  0.58172583  0.27470490  1
  O2-  O196  1  0.04366960  0.58706317  0.60286086  1
  O2-  O197  1  0.03519428  0.58679202  0.92808421  1
  O2-  O198  1  0.55185187  0.08367258  0.26707614  1
  O2-  O199  1  0.54106930  0.08309214  0.59723387  1
  O2-  O200  1  0.54511772  0.08746475  0.94216546  1
  O2-  O201  1  0.54143441  0.58373783  0.26250942  1
  O2-  O202  1  0.54130468  0.57929036  0.59996157  1
  O2-  O203  1  0.55040670  0.58005893  0.93768785  1
  O2-  O204  1  0.16301135  0.20628689  0.26968555  1
  O2-  O205  1  0.16892618  0.20835396  0.59533001  1
  O2-  O206  1  0.16829691  0.20296144  0.94074670  1
  O2-  O207  1  0.16611681  0.70355719  0.27232307  1
  O2-  O208  1  0.16262384  0.70509862  0.60140092  1
  O2-  O209  1  0.16456638  0.71099871  0.93164341  1
  O2-  O210  1  0.66822488  0.20711117  0.26991458  1
  O2-  O211  1  0.66378365  0.21149721  0.59832308  1
  O2-  O212  1  0.65915036  0.21357647  0.93785460  1
  O2-  O213  1  0.66517772  0.71131917  0.25984132  1
  O2-  O214  1  0.67265795  0.70403867  0.60123378  1
  O2-  O215  1  0.66741373  0.70068074  0.93599539  1
  O2-  O216  1  0.07844606  0.46301933  0.06513490  1
  O2-  O217  1  0.08433940  0.45689943  0.40744533  1
  O2-  O218  1  0.08190735  0.45638495  0.72790629  1
  O2-  O219  1  0.08385482  0.95117655  0.06315856  1
  O2-  O220  1  0.08801102  0.96362727  0.40267067  1
  O2-  O221  1  0.08367620  0.94975946  0.73259780  1
  O2-  O222  1  0.58708278  0.45250170  0.06204572  1
  O2-  O223  1  0.57730816  0.45711257  0.39947632  1
  O2-  O224  1  0.58871572  0.45787235  0.73326913  1
  O2-  O225  1  0.58833373  0.95765119  0.06768949  1
  O2-  O226  1  0.58197305  0.95114219  0.39352253  1
  O2-  O227  1  0.57925146  0.95478051  0.73117032  1
  O2-  O228  1  0.20212559  0.33226272  0.06831740  1
  O2-  O229  1  0.21244513  0.33149567  0.40242446  1
  O2-  O230  1  0.19829106  0.33402563  0.72975305  1
  O2-  O231  1  0.20558067  0.83498302  0.06244683  1
  O2-  O232  1  0.20606517  0.83143410  0.40219668  1
  O2-  O233  1  0.20163085  0.83165184  0.72927406  1
  O2-  O234  1  0.71026372  0.33871058  0.06384448  1
  O2-  O235  1  0.70520229  0.33266581  0.40292862  1
  O2-  O236  1  0.70675270  0.33810320  0.73005585  1
  O2-  O237  1  0.69967842  0.83100230  0.06258012  1
  O2-  O238  1  0.70358295  0.83432418  0.39101418  1
  O2-  O239  1  0.71024642  0.83070683  0.73754997  1
  O2-  O240  1  0.45938676  0.41424094  0.26149268  1
  O2-  O241  1  0.45768906  0.41394132  0.60681534  1
  O2-  O242  1  0.45800552  0.41268747  0.93793054  1
  O2-  O243  1  0.45108058  0.91725934  0.26874885  1
  O2-  O244  1  0.45347861  0.91908069  0.59485819  1
  O2-  O245  1  0.46498110  0.91755747  0.93401145  1
  O2-  O246  1  0.95773486  0.41479300  0.27474232  1
  O2-  O247  1  0.95715357  0.42011748  0.59375446  1
  O2-  O248  1  0.95611270  0.41510382  0.93170973  1
  O2-  O249  1  0.96848390  0.91683454  0.26528846  1
  O2-  O250  1  0.95532200  0.91195095  0.60851082  1
  O2-  O251  1  0.95370037  0.91835016  0.93519161  1
  O2-  O252  1  0.33283066  0.28721649  0.26289455  1
  O2-  O253  1  0.33168521  0.30216101  0.61041043  1
  O2-  O254  1  0.33344399  0.29656956  0.94024893  1
  O2-  O255  1  0.33151720  0.79653396  0.26952791  1
  O2-  O256  1  0.32902903  0.79071817  0.59717521  1
  O2-  O257  1  0.33359862  0.79549107  0.93173177  1
  O2-  O258  1  0.83637105  0.29403028  0.27369393  1
  O2-  O259  1  0.82834208  0.29842679  0.59495327  1
  O2-  O260  1  0.83246055  0.28724298  0.93374199  1
  O2-  O261  1  0.83527749  0.79713731  0.26155763  1
  O2-  O262  1  0.83913202  0.78873613  0.60731239  1
  O2-  O263  1  0.83199040  0.79986632  0.93693920  1
  O2-  O264  1  0.41818149  0.03863615  0.07132266  1
  O2-  O265  1  0.42046639  0.05218001  0.39048867  1
  O2-  O266  1  0.41650876  0.04112914  0.73098253  1
  O2-  O267  1  0.42128668  0.54527725  0.06791477  1
  O2-  O268  1  0.41557914  0.54292414  0.39316045  1
  O2-  O269  1  0.41646631  0.53915961  0.73681709  1
  O2-  O270  1  0.91921965  0.04482080  0.06681712  1
  O2-  O271  1  0.91717179  0.03729823  0.40077682  1
  O2-  O272  1  0.91922821  0.04259885  0.73672674  1
  O2-  O273  1  0.91114376  0.54201688  0.05977946  1
  O2-  O274  1  0.91764853  0.54642398  0.40333535  1
  O2-  O275  1  0.91479128  0.54185586  0.72995940  1
  O2-  O276  1  0.29367182  0.16696252  0.07080486  1
  O2-  O277  1  0.29371793  0.16364076  0.39510701  1
  O2-  O278  1  0.28935747  0.16708814  0.73322223  1
  O2-  O279  1  0.29249024  0.67220976  0.06737299  1
  O2-  O280  1  0.29850625  0.66514658  0.39644418  1
  O2-  O281  1  0.28795944  0.66604375  0.73272344  1
  O2-  O282  1  0.78401481  0.16525311  0.06967157  1
  O2-  O283  1  0.79320465  0.16652327  0.40251317  1
  O2-  O284  1  0.79234168  0.17363438  0.73142388  1
  O2-  O285  1  0.79642594  0.66528525  0.05993697  1
  O2-  O286  1  0.79305318  0.67435847  0.39533955  1
  O2-  O287  1  0.79550492  0.66118864  0.73430415  1
