# generated using pymatgen
data_Ca2Al2SiO7
_symmetry_space_group_name_H-M   'P 1'
_cell_length_a   15.46457029
_cell_length_b   15.46410697
_cell_length_c   15.28765772
_cell_angle_alpha   90.01350743
_cell_angle_beta   89.99176373
_cell_angle_gamma   89.98486601
_symmetry_Int_Tables_number   1
_chemical_formula_structural   Ca2Al2SiO7
_chemical_formula_sum   'Ca48 Al48 Si24 O168'
_cell_volume   3655.97839593
_cell_formula_units_Z   24
loop_
 _symmetry_equiv_pos_site_id
 _symmetry_equiv_pos_as_xyz
  1  'x, y, z'
loop_
 _atom_type_symbol
 _atom_type_oxidation_number
  Ca2+  2.0
  Al0+  0.0
  Si0+  0.0
  O2-  -2.0
loop_
 _atom_site_type_symbol
 _atom_site_label
 _atom_site_symmetry_multiplicity
 _atom_site_fract_x
 _atom_site_fract_y
 _atom_site_fract_z
 _atom_site_occupancy
  Ca2+  Ca0  1  0.16905281  0.07380248  0.17480543  1
  Ca2+  Ca1  1  0.17131501  0.08011492  0.50608019  1
  Ca2+  Ca2  1  0.17220185  0.08665665  0.83145062  1
  Ca2+  Ca3  1  0.17742915  0.57720466  0.17128803  1
  Ca2+  Ca4  1  0.17235210  0.58091524  0.49533961  1
  Ca2+  Ca5  1  0.17048142  0.57840869  0.84324026  1
  Ca2+  Ca6  1  0.66268685  0.08560900  0.17093414  1
  Ca2+  Ca7  1  0.66512107  0.08293125  0.50233527  1
  Ca2+  Ca8  1  0.66759401  0.08122204  0.84014951  1
  Ca2+  Ca9  1  0.66672950  0.57640506  0.17266524  1
  Ca2+  Ca10  1  0.65669637  0.57443670  0.50304792  1
  Ca2+  Ca11  1  0.66816077  0.57471586  0.83778012  1
  Ca2+  Ca12  1  0.08173003  0.34677791  0.16665245  1
  Ca2+  Ca13  1  0.07520436  0.33429547  0.49261317  1
  Ca2+  Ca14  1  0.07862004  0.33390623  0.82367219  1
  Ca2+  Ca15  1  0.07685171  0.83432210  0.16457220  1
  Ca2+  Ca16  1  0.07556624  0.83892905  0.49362935  1
  Ca2+  Ca17  1  0.07124763  0.83137573  0.82955208  1
  Ca2+  Ca18  1  0.58775668  0.32983841  0.16781779  1
  Ca2+  Ca19  1  0.58130592  0.33174737  0.48785073  1
  Ca2+  Ca20  1  0.59163480  0.33223223  0.83237691  1
  Ca2+  Ca21  1  0.57128561  0.82388096  0.16481614  1
  Ca2+  Ca22  1  0.57358622  0.82004279  0.49429142  1
  Ca2+  Ca23  1  0.57360615  0.82135716  0.82602132  1
  Ca2+  Ca24  1  0.32860394  0.42429799  0.17734848  1
  Ca2+  Ca25  1  0.34010990  0.42143466  0.49878058  1
  Ca2+  Ca26  1  0.32502204  0.42615310  0.84458588  1
  Ca2+  Ca27  1  0.33120732  0.91148223  0.17602008  1
  Ca2+  Ca28  1  0.33543430  0.91815307  0.50413874  1
  Ca2+  Ca29  1  0.34266436  0.91990573  0.83562730  1
  Ca2+  Ca30  1  0.82553862  0.42088283  0.17190181  1
  Ca2+  Ca31  1  0.82348748  0.40893423  0.50416063  1
  Ca2+  Ca32  1  0.82551248  0.41983999  0.84051558  1
  Ca2+  Ca33  1  0.83688478  0.91759314  0.17421939  1
  Ca2+  Ca34  1  0.83559270  0.91451898  0.50418264  1
  Ca2+  Ca35  1  0.83533101  0.91445111  0.83796287  1
  Ca2+  Ca36  1  0.42717695  0.17310871  0.16552419  1
  Ca2+  Ca37  1  0.42071229  0.17149334  0.49221990  1
  Ca2+  Ca38  1  0.42130318  0.16702503  0.82995311  1
  Ca2+  Ca39  1  0.40971823  0.66930778  0.16556549  1
  Ca2+  Ca40  1  0.42430995  0.66869686  0.49070867  1
  Ca2+  Ca41  1  0.41530272  0.67331958  0.82765749  1
  Ca2+  Ca42  1  0.91816054  0.17585558  0.16736227  1
  Ca2+  Ca43  1  0.92158850  0.17821034  0.49850104  1
  Ca2+  Ca44  1  0.92686321  0.17562302  0.82369343  1
  Ca2+  Ca45  1  0.91144820  0.67529414  0.16110287  1
  Ca2+  Ca46  1  0.91681945  0.67699802  0.49449335  1
  Ca2+  Ca47  1  0.90840871  0.67333280  0.83158061  1
  Al0+  Al48  1  0.00010754  0.00168227  -0.00453670  1
  Al0+  Al49  1  0.00013250  0.00184085  0.33482215  1
  Al0+  Al50  1  0.00124992  0.00111008  0.66182425  1
  Al0+  Al51  1  -0.00167338  0.50252521  0.00543384  1
  Al0+  Al52  1  0.00022507  0.50222432  0.33325656  1
  Al0+  Al53  1  -0.00234954  0.50236022  0.66277293  1
  Al0+  Al54  1  0.50141249  0.00126051  -0.00688911  1
  Al0+  Al55  1  0.50171273  -0.00175666  0.32823957  1
  Al0+  Al56  1  0.50013841  -0.00036051  0.66913390  1
  Al0+  Al57  1  0.49957322  0.49878842  0.00720174  1
  Al0+  Al58  1  0.50092323  0.49872097  0.33323103  1
  Al0+  Al59  1  0.50020944  0.49822498  0.67235409  1
  Al0+  Al60  1  0.25075665  0.24742972  0.00438923  1
  Al0+  Al61  1  0.24968852  0.24776625  0.33276206  1
  Al0+  Al62  1  0.25181961  0.24758208  0.66879134  1
  Al0+  Al63  1  0.24699025  0.75170405  -0.00289808  1
  Al0+  Al64  1  0.24717655  0.74993428  0.34098972  1
  Al0+  Al65  1  0.24695255  0.75179926  0.66555473  1
  Al0+  Al66  1  0.75263897  0.24790598  -0.00142481  1
  Al0+  Al67  1  0.75413688  0.24973145  0.33012589  1
  Al0+  Al68  1  0.75124727  0.24811658  0.66943847  1
  Al0+  Al69  1  0.74652753  0.75221845  -0.00122420  1
  Al0+  Al70  1  0.74892122  0.75142244  0.32665266  1
  Al0+  Al71  1  0.74828264  0.74857493  0.65951319  1
  Al0+  Al72  1  0.17821866  0.92967096  0.34729942  1
  Al0+  Al73  1  0.17751599  0.42658924  0.35078823  1
  Al0+  Al74  1  0.42706596  0.81940416  0.98560344  1
  Al0+  Al75  1  0.32196464  0.06976203  0.68142113  1
  Al0+  Al76  1  0.93023785  0.82215901  0.31909805  1
  Al0+  Al77  1  0.92722935  0.82215530  0.98621896  1
  Al0+  Al78  1  0.93121430  0.32285846  0.31793447  1
  Al0+  Al79  1  0.92931266  0.81992879  0.65266269  1
  Al0+  Al80  1  0.32164914  0.56983987  0.35066708  1
  Al0+  Al81  1  0.32046148  0.57376789  0.01382505  1
  Al0+  Al82  1  0.42641137  0.81913307  0.31941224  1
  Al0+  Al83  1  0.42763817  0.82262410  0.65117323  1
  Al0+  Al84  1  0.42721660  0.32100347  0.31884986  1
  Al0+  Al85  1  0.67950404  0.42738849  0.68096811  1
  Al0+  Al86  1  0.57318258  0.17849221  0.32003782  1
  Al0+  Al87  1  0.17802354  0.42656714  0.01355746  1
  Al0+  Al88  1  0.92807863  0.32269351  0.65262146  1
  Al0+  Al89  1  0.81887339  0.57450863  0.01512689  1
  Al0+  Al90  1  0.56841902  0.67572790  0.65236798  1
  Al0+  Al91  1  0.68250480  0.42909820  0.34755067  1
  Al0+  Al92  1  0.68019508  0.42578549  0.01734991  1
  Al0+  Al93  1  0.57064276  0.67655614  0.31624313  1
  Al0+  Al94  1  0.07419080  0.18077851  0.65105179  1
  Al0+  Al95  1  0.57169127  0.18183718  0.98377383  1
  Si0+  Si96  1  0.17781079  0.93219003  0.01283041  1
  Si0+  Si97  1  0.07254135  0.17760811  0.98539877  1
  Si0+  Si98  1  0.06937496  0.67899976  0.98361964  1
  Si0+  Si99  1  0.32016983  0.57133503  0.68155126  1
  Si0+  Si100  1  0.82138003  0.07073649  0.34966532  1
  Si0+  Si101  1  0.68011913  0.92814222  0.68138402  1
  Si0+  Si102  1  0.42626122  0.32176715  0.98327453  1
  Si0+  Si103  1  0.07327181  0.67665406  0.64841467  1
  Si0+  Si104  1  0.32391482  0.06961764  0.01645465  1
  Si0+  Si105  1  0.82204447  0.57403401  0.68152696  1
  Si0+  Si106  1  0.67899960  0.92865715  0.34808000  1
  Si0+  Si107  1  0.17811908  0.42954965  0.67911447  1
  Si0+  Si108  1  0.57202300  0.17840889  0.65389533  1
  Si0+  Si109  1  0.82193917  0.06945632  0.68258415  1
  Si0+  Si110  1  0.93192699  0.32168760  0.98585195  1
  Si0+  Si111  1  0.17558941  0.92829675  0.68601637  1
  Si0+  Si112  1  0.07175283  0.17821662  0.31596782  1
  Si0+  Si113  1  0.57121436  0.67572536  0.98330722  1
  Si0+  Si114  1  0.42980612  0.31989216  0.65554582  1
  Si0+  Si115  1  0.82309617  0.06871258  0.01484641  1
  Si0+  Si116  1  0.67787260  0.93125921  0.01462040  1
  Si0+  Si117  1  0.32451805  0.06975604  0.34862924  1
  Si0+  Si118  1  0.07164492  0.67857617  0.31549121  1
  Si0+  Si119  1  0.82137686  0.57547899  0.35086290  1
  O2-  O120  1  0.25308242  -0.00231616  0.05691366  1
  O2-  O121  1  0.25635434  0.00099628  0.39322741  1
  O2-  O122  1  0.24877490  -0.00693963  0.72965144  1
  O2-  O123  1  0.25333754  0.49591412  0.06157335  1
  O2-  O124  1  0.25314922  0.49402150  0.40170670  1
  O2-  O125  1  0.24622490  0.50254472  0.72295552  1
  O2-  O126  1  0.75238789  -0.00165700  0.05797425  1
  O2-  O127  1  0.74973263  0.00000932  0.39144802  1
  O2-  O128  1  0.75275763  -0.00292124  0.72588735  1
  O2-  O129  1  0.74800529  0.50231962  0.06599050  1
  O2-  O130  1  0.75472089  0.50560319  0.39618007  1
  O2-  O131  1  0.75607212  0.50202215  0.72468251  1
  O2-  O132  1  0.01076131  0.25306088  0.27030993  1
  O2-  O133  1  0.00446509  0.25530851  0.60255437  1
  O2-  O134  1  0.00875402  0.25601215  0.94462726  1
  O2-  O135  1  0.00204385  0.74653400  0.27096731  1
  O2-  O136  1  0.00494411  0.74694049  0.60611475  1
  O2-  O137  1  -0.00275175  0.74407746  0.93851152  1
  O2-  O138  1  0.50194172  0.25076319  0.27002237  1
  O2-  O139  1  0.50312036  0.25105516  0.61316823  1
  O2-  O140  1  0.49912879  0.25828609  0.93644954  1
  O2-  O141  1  0.49433594  0.74481955  0.26747510  1
  O2-  O142  1  0.49445954  0.74585827  0.60284164  1
  O2-  O143  1  0.49739198  0.73993810  0.93988346  1
  O2-  O144  1  0.06829695  0.16983691  0.08971500  1
  O2-  O145  1  0.06738524  0.17543772  0.42106894  1
  O2-  O146  1  0.07237932  0.18263299  0.76565572  1
  O2-  O147  1  0.07153425  0.68305282  0.08852743  1
  O2-  O148  1  0.06919242  0.67942131  0.42141866  1
  O2-  O149  1  0.07410223  0.67548293  0.75416724  1
  O2-  O150  1  0.57020758  0.17858498  0.09609114  1
  O2-  O151  1  0.57225611  0.17744922  0.43433955  1
  O2-  O152  1  0.57208303  0.17792290  0.75898432  1
  O2-  O153  1  0.57486025  0.68089488  0.08811352  1
  O2-  O154  1  0.57175542  0.67982501  0.42996370  1
  O2-  O155  1  0.56783001  0.67650619  0.76646100  1
  O2-  O156  1  0.17839061  0.43178921  0.23741708  1
  O2-  O157  1  0.17970661  0.42940648  0.57479689  1
  O2-  O158  1  0.17777271  0.42783966  0.89868895  1
  O2-  O159  1  0.17558494  0.93310516  0.23338809  1
  O2-  O160  1  0.17265097  0.93102066  0.58092247  1
  O2-  O161  1  0.17480960  0.93604479  0.90801398  1
  O2-  O162  1  0.68636227  0.42714017  0.23498742  1
  O2-  O163  1  0.67864317  0.42470968  0.56833166  1
  O2-  O164  1  0.68487350  0.42473415  0.90320243  1
  O2-  O165  1  0.68032868  0.93031363  0.24293126  1
  O2-  O166  1  0.68071250  0.93159138  0.57645005  1
  O2-  O167  1  0.67947461  0.93350181  0.90914316  1
  O2-  O168  1  0.42295646  0.31596440  0.08789462  1
  O2-  O169  1  0.42941267  0.31781834  0.43355781  1
  O2-  O170  1  0.42860474  0.31894294  0.76067114  1
  O2-  O171  1  0.42781940  0.82204104  0.09815372  1
  O2-  O172  1  0.43090212  0.82168823  0.43262507  1
  O2-  O173  1  0.43158306  0.82145278  0.76523047  1
  O2-  O174  1  0.93066536  0.31802101  0.09059661  1
  O2-  O175  1  0.92852717  0.31770100  0.43076181  1
  O2-  O176  1  0.92972379  0.32055828  0.76700925  1
  O2-  O177  1  0.93227987  0.82671528  0.09866874  1
  O2-  O178  1  0.93122157  0.82246665  0.43225248  1
  O2-  O179  1  0.92939104  0.81934937  0.76607294  1
  O2-  O180  1  0.32318835  0.06820727  0.24261053  1
  O2-  O181  1  0.32286599  0.07028227  0.56872238  1
  O2-  O182  1  0.32283377  0.07069765  0.91123684  1
  O2-  O183  1  0.31714652  0.57223305  0.23737509  1
  O2-  O184  1  0.32212227  0.56906041  0.57719221  1
  O2-  O185  1  0.31608310  0.57358004  0.89906520  1
  O2-  O186  1  0.82362023  0.06951968  0.24415257  1
  O2-  O187  1  0.81932753  0.07064546  0.57769964  1
  O2-  O188  1  0.82376629  0.06790623  0.90957909  1
  O2-  O189  1  0.81971709  0.57563024  0.24529899  1
  O2-  O190  1  0.82291811  0.57658732  0.57642998  1
  O2-  O191  1  0.81854538  0.57277814  0.90090290  1
  O2-  O192  1  0.03676555  0.08833243  0.26735708  1
  O2-  O193  1  0.04296698  0.08383003  0.59822966  1
  O2-  O194  1  0.03693386  0.09097468  0.93237940  1
  O2-  O195  1  0.04794979  0.58534367  0.26902243  1
  O2-  O196  1  0.04686983  0.58468423  0.60005439  1
  O2-  O197  1  0.04651208  0.58411378  0.93816302  1
  O2-  O198  1  0.54551072  0.08086108  0.26508973  1
  O2-  O199  1  0.54322616  0.08718746  0.60684888  1
  O2-  O200  1  0.53908581  0.08645763  0.92736850  1
  O2-  O201  1  0.54824993  0.57696066  0.26568781  1
  O2-  O202  1  0.54027341  0.57628500  0.60191680  1
  O2-  O203  1  0.55213903  0.57891270  0.94116826  1
  O2-  O204  1  0.16797656  0.19267970  0.27175572  1
  O2-  O205  1  0.17388726  0.20412320  0.59988747  1
  O2-  O206  1  0.16750184  0.19748251  0.94062530  1
  O2-  O207  1  0.16432303  0.70736140  0.27096137  1
  O2-  O208  1  0.16630482  0.70163273  0.60161334  1
  O2-  O209  1  0.15988929  0.70913379  0.93317359  1
  O2-  O210  1  0.67176670  0.20459399  0.26678220  1
  O2-  O211  1  0.66518861  0.20176979  0.60793377  1
  O2-  O212  1  0.67077809  0.20741652  0.93005899  1
  O2-  O213  1  0.66635723  0.71115614  0.26174982  1
  O2-  O214  1  0.66526748  0.70511957  0.59792520  1
  O2-  O215  1  0.66160891  0.70855552  0.93402405  1
  O2-  O216  1  0.08093007  0.45720644  0.06657537  1
  O2-  O217  1  0.07948562  0.46002120  0.40305899  1
  O2-  O218  1  0.08464628  0.45606764  0.72517195  1
  O2-  O219  1  0.08785362  0.96580224  0.06113956  1
  O2-  O220  1  0.08344402  0.96598740  0.40260585  1
  O2-  O221  1  0.08334537  0.95968342  0.73312385  1
  O2-  O222  1  0.57905013  0.44572524  0.06677652  1
  O2-  O223  1  0.58421031  0.45506739  0.40007277  1
  O2-  O224  1  0.58346597  0.45695202  0.73818405  1
  O2-  O225  1  0.58795897  0.96505824  0.06142958  1
  O2-  O226  1  0.58768291  0.95731857  0.39623351  1
  O2-  O227  1  0.59016987  0.95866845  0.73092057  1
  O2-  O228  1  0.19973199  0.32598479  0.06544321  1
  O2-  O229  1  0.19804961  0.32404809  0.39852165  1
  O2-  O230  1  0.20733739  0.33837163  0.72710912  1
  O2-  O231  1  0.19971743  0.83865244  0.05819987  1
  O2-  O232  1  0.20102642  0.83331018  0.40417603  1
  O2-  O233  1  0.19441803  0.83223311  0.73062828  1
  O2-  O234  1  0.71453512  0.32779370  0.06771931  1
  O2-  O235  1  0.71617601  0.33165498  0.39991042  1
  O2-  O236  1  0.71106065  0.33055116  0.73575889  1
  O2-  O237  1  0.70061911  0.83859181  0.06106226  1
  O2-  O238  1  0.70870142  0.83744176  0.39529323  1
  O2-  O239  1  0.70706731  0.83525162  0.72716502  1
  O2-  O240  1  0.45354626  0.41909135  0.26703987  1
  O2-  O241  1  0.45595628  0.41204099  0.60927843  1
  O2-  O242  1  0.44619780  0.41838644  0.94081111  1
  O2-  O243  1  0.45807688  0.91597015  0.26489356  1
  O2-  O244  1  0.46134397  0.92001347  0.60008464  1
  O2-  O245  1  0.46364826  0.91437297  0.93115938  1
  O2-  O246  1  0.95681907  0.42124999  0.26539402  1
  O2-  O247  1  0.94882544  0.42259118  0.60073565  1
  O2-  O248  1  0.95378441  0.41575520  0.94033219  1
  O2-  O249  1  0.96187841  0.91937423  0.26660739  1
  O2-  O250  1  0.95813018  0.91711466  0.59960663  1
  O2-  O251  1  0.96247771  0.91721710  0.93035356  1
  O2-  O252  1  0.32940623  0.29099770  0.26534366  1
  O2-  O253  1  0.33964327  0.29026464  0.60739399  1
  O2-  O254  1  0.33380198  0.29043997  0.93596590  1
  O2-  O255  1  0.32490545  0.79551335  0.27128916  1
  O2-  O256  1  0.32496182  0.80382329  0.60475058  1
  O2-  O257  1  0.32854113  0.79560688  0.93094404  1
  O2-  O258  1  0.83904877  0.28384733  0.26154531  1
  O2-  O259  1  0.83219175  0.28494938  0.60027354  1
  O2-  O260  1  0.84337865  0.28641165  0.93675788  1
  O2-  O261  1  0.83339554  0.79540047  0.26454407  1
  O2-  O262  1  0.83319326  0.79130133  0.59749988  1
  O2-  O263  1  0.82858742  0.79691188  0.93297504  1
  O2-  O264  1  0.41646082  0.04185155  0.06114848  1
  O2-  O265  1  0.41868980  0.04455515  0.39411591  1
  O2-  O266  1  0.41875688  0.04019473  0.73805167  1
  O2-  O267  1  0.42032632  0.55326005  0.06527452  1
  O2-  O268  1  0.42074883  0.54269865  0.40290090  1
  O2-  O269  1  0.40947901  0.54061855  0.73206326  1
  O2-  O270  1  0.91451652  0.04046273  0.06298732  1
  O2-  O271  1  0.91165505  0.04153346  0.39878903  1
  O2-  O272  1  0.91488877  0.04312942  0.72884949  1
  O2-  O273  1  0.91766202  0.54943425  0.06827751  1
  O2-  O274  1  0.91648044  0.55318519  0.39461258  1
  O2-  O275  1  0.91715175  0.55311761  0.72805310  1
  O2-  O276  1  0.29542932  0.16004863  0.06541271  1
  O2-  O277  1  0.29876134  0.16305221  0.39478899  1
  O2-  O278  1  0.29008709  0.16551746  0.73918826  1
  O2-  O279  1  0.28586942  0.67108217  0.06564696  1
  O2-  O280  1  0.28834980  0.66602730  0.40615008  1
  O2-  O281  1  0.29336537  0.66477689  0.72694423  1
  O2-  O282  1  0.79567141  0.16034321  0.06211063  1
  O2-  O283  1  0.79362109  0.16184635  0.39759779  1
  O2-  O284  1  0.79274685  0.15952332  0.73313983  1
  O2-  O285  1  0.79240965  0.67463295  0.06616173  1
  O2-  O286  1  0.79495724  0.67012830  0.39499949  1
  O2-  O287  1  0.79212180  0.66664607  0.72860390  1
