# generated using pymatgen
data_Ca2Al2SiO7
_symmetry_space_group_name_H-M   'P 1'
_cell_length_a   15.46149508
_cell_length_b   15.46227984
_cell_length_c   15.28714259
_cell_angle_alpha   90.00192496
_cell_angle_beta   90.00126695
_cell_angle_gamma   89.98903744
_symmetry_Int_Tables_number   1
_chemical_formula_structural   Ca2Al2SiO7
_chemical_formula_sum   'Ca48 Al48 Si24 O168'
_cell_volume   3654.69655354
_cell_formula_units_Z   24
loop_
 _symmetry_equiv_pos_site_id
 _symmetry_equiv_pos_as_xyz
  1  'x, y, z'
loop_
 _atom_type_symbol
 _atom_type_oxidation_number
  Ca2+  2.0
  Al0+  0.0
  Si0+  0.0
  O2-  -2.0
loop_
 _atom_site_type_symbol
 _atom_site_label
 _atom_site_symmetry_multiplicity
 _atom_site_fract_x
 _atom_site_fract_y
 _atom_site_fract_z
 _atom_site_occupancy
  Ca2+  Ca0  1  0.16954990  0.07767080  0.17422078  1
  Ca2+  Ca1  1  0.17282246  0.08048986  0.50652723  1
  Ca2+  Ca2  1  0.17391823  0.09136117  0.83005516  1
  Ca2+  Ca3  1  0.18149842  0.57113142  0.17479682  1
  Ca2+  Ca4  1  0.17490945  0.57667405  0.50873167  1
  Ca2+  Ca5  1  0.17253082  0.57822440  0.83674322  1
  Ca2+  Ca6  1  0.66992151  0.09394541  0.16803348  1
  Ca2+  Ca7  1  0.66129156  0.07898417  0.51113055  1
  Ca2+  Ca8  1  0.66559605  0.08142023  0.83631946  1
  Ca2+  Ca9  1  0.65957678  0.58028219  0.17572138  1
  Ca2+  Ca10  1  0.66049589  0.57748034  0.49927307  1
  Ca2+  Ca11  1  0.66778118  0.58479785  0.83808291  1
  Ca2+  Ca12  1  0.08745955  0.34012627  0.16502107  1
  Ca2+  Ca13  1  0.08786346  0.33543330  0.50151734  1
  Ca2+  Ca14  1  0.08039101  0.33602393  0.82174686  1
  Ca2+  Ca15  1  0.08100503  0.83724859  0.16707969  1
  Ca2+  Ca16  1  0.07775188  0.83283570  0.49493469  1
  Ca2+  Ca17  1  0.07665066  0.82531489  0.82037783  1
  Ca2+  Ca18  1  0.57098141  0.33493161  0.16420232  1
  Ca2+  Ca19  1  0.57815723  0.32302887  0.48910139  1
  Ca2+  Ca20  1  0.57617097  0.32262068  0.83160562  1
  Ca2+  Ca21  1  0.58196165  0.81878926  0.16396936  1
  Ca2+  Ca22  1  0.57653151  0.83097210  0.49924618  1
  Ca2+  Ca23  1  0.57959057  0.82941479  0.82559396  1
  Ca2+  Ca24  1  0.33520104  0.41931312  0.17379440  1
  Ca2+  Ca25  1  0.33179763  0.42555756  0.50549617  1
  Ca2+  Ca26  1  0.32491639  0.42339489  0.84010208  1
  Ca2+  Ca27  1  0.32687280  0.91845460  0.17273702  1
  Ca2+  Ca28  1  0.33279044  0.91988753  0.50945520  1
  Ca2+  Ca29  1  0.33900910  0.92122212  0.82915934  1
  Ca2+  Ca30  1  0.82234198  0.42030198  0.17399761  1
  Ca2+  Ca31  1  0.82618102  0.41097367  0.50438632  1
  Ca2+  Ca32  1  0.83428805  0.41281885  0.83431814  1
  Ca2+  Ca33  1  0.83434010  0.92375638  0.17172302  1
  Ca2+  Ca34  1  0.82807897  0.91087636  0.50622665  1
  Ca2+  Ca35  1  0.82932779  0.92039546  0.83535424  1
  Ca2+  Ca36  1  0.42546487  0.17964579  0.16119693  1
  Ca2+  Ca37  1  0.42470552  0.16732665  0.49441879  1
  Ca2+  Ca38  1  0.42044305  0.16993609  0.82530391  1
  Ca2+  Ca39  1  0.42317790  0.65368148  0.16527320  1
  Ca2+  Ca40  1  0.41307893  0.66682369  0.49664924  1
  Ca2+  Ca41  1  0.41436058  0.66747487  0.83073560  1
  Ca2+  Ca42  1  0.91756298  0.16721838  0.16154742  1
  Ca2+  Ca43  1  0.92342044  0.17075235  0.50323608  1
  Ca2+  Ca44  1  0.92324494  0.17030158  0.82543143  1
  Ca2+  Ca45  1  0.91644202  0.67458649  0.16534109  1
  Ca2+  Ca46  1  0.92410246  0.67513900  0.49923558  1
  Ca2+  Ca47  1  0.92585839  0.67061051  0.81946952  1
  Al0+  Al48  1  -0.00294640  0.00176591  0.00266678  1
  Al0+  Al49  1  -0.00068259  0.00075623  0.33353500  1
  Al0+  Al50  1  -0.00165158  0.00186262  0.65989828  1
  Al0+  Al51  1  -0.00052602  0.50169164  0.00440744  1
  Al0+  Al52  1  0.00059919  0.50183382  0.33458790  1
  Al0+  Al53  1  -0.00284462  0.50103235  0.66020962  1
  Al0+  Al54  1  0.50061927  -0.00289355  0.00145515  1
  Al0+  Al55  1  0.50275478  -0.00139071  0.32593509  1
  Al0+  Al56  1  0.50032357  -0.00309599  0.66863675  1
  Al0+  Al57  1  0.50057536  0.49950707  -0.00823502  1
  Al0+  Al58  1  0.50130484  0.49895163  0.33678420  1
  Al0+  Al59  1  0.50088538  0.49852077  0.67381055  1
  Al0+  Al60  1  0.24876914  0.24862940  0.00085707  1
  Al0+  Al61  1  0.25016095  0.24874640  0.33208355  1
  Al0+  Al62  1  0.25021495  0.25029391  0.67018654  1
  Al0+  Al63  1  0.24948552  0.74902652  0.00472459  1
  Al0+  Al64  1  0.24751666  0.75011417  0.33898678  1
  Al0+  Al65  1  0.25103383  0.74997896  0.66349674  1
  Al0+  Al66  1  0.75150506  0.24976742  0.00088860  1
  Al0+  Al67  1  0.75416170  0.25024544  0.33532381  1
  Al0+  Al68  1  0.75032018  0.24793910  0.66154647  1
  Al0+  Al69  1  0.74917669  0.75206043  -0.00317659  1
  Al0+  Al70  1  0.75139268  0.75310660  0.32503090  1
  Al0+  Al71  1  0.74857209  0.74857236  0.66828978  1
  Al0+  Al72  1  0.07453716  0.17969962  0.65121139  1
  Al0+  Al73  1  0.17765016  0.42628279  0.35120614  1
  Al0+  Al74  1  0.93091599  0.82156448  0.31675172  1
  Al0+  Al75  1  0.42628985  0.32047498  0.98189445  1
  Al0+  Al76  1  0.32284994  0.57337113  0.68486602  1
  Al0+  Al77  1  0.17818074  0.93038189  0.34741963  1
  Al0+  Al78  1  0.17694410  0.42735512  0.01556077  1
  Al0+  Al79  1  0.32307761  0.56962232  0.35033786  1
  Al0+  Al80  1  0.57470531  0.17623310  0.31766531  1
  Al0+  Al81  1  0.17741067  0.43032903  0.68211186  1
  Al0+  Al82  1  0.68100634  0.42939611  0.34689316  1
  Al0+  Al83  1  0.57268102  0.17855512  0.98404935  1
  Al0+  Al84  1  0.92674391  0.82173869  0.65253428  1
  Al0+  Al85  1  0.57085463  0.67914310  0.98516572  1
  Al0+  Al86  1  0.81894781  0.06995488  0.01376728  1
  Al0+  Al87  1  0.32223033  0.57038727  0.01668683  1
  Al0+  Al88  1  0.67945147  0.92780974  0.68007892  1
  Al0+  Al89  1  0.56858666  0.17839088  0.65418438  1
  Al0+  Al90  1  0.42898278  0.31994996  0.32052262  1
  Al0+  Al91  1  0.43041021  0.81904854  0.65430149  1
  Al0+  Al92  1  0.32116005  0.06987695  0.67885971  1
  Al0+  Al93  1  0.56873840  0.68087064  0.32269532  1
  Al0+  Al94  1  0.07263697  0.67889225  0.65075656  1
  Al0+  Al95  1  0.92833835  0.32185247  0.65105664  1
  Si0+  Si96  1  0.82171901  0.57560046  0.34940219  1
  Si0+  Si97  1  0.42855270  0.32287764  0.65075846  1
  Si0+  Si98  1  0.67715091  0.92595421  0.01971175  1
  Si0+  Si99  1  0.42470901  0.82256989  0.31642102  1
  Si0+  Si100  1  0.57243348  0.67514234  0.65060961  1
  Si0+  Si101  1  0.06952379  0.17986335  0.31740857  1
  Si0+  Si102  1  0.92950533  0.32328027  0.31654706  1
  Si0+  Si103  1  0.32393513  0.06951667  0.34744605  1
  Si0+  Si104  1  0.17559429  0.92873968  0.68203498  1
  Si0+  Si105  1  0.67938346  0.42500888  0.68351347  1
  Si0+  Si106  1  0.06934936  0.68054169  0.98704715  1
  Si0+  Si107  1  0.17782445  0.93017853  0.01275120  1
  Si0+  Si108  1  0.82169359  0.07164021  0.35065233  1
  Si0+  Si109  1  0.68045841  0.92916677  0.34660941  1
  Si0+  Si110  1  0.07310457  0.67746474  0.31343661  1
  Si0+  Si111  1  0.81815795  0.56979909  0.68050249  1
  Si0+  Si112  1  0.93055714  0.32226613  0.98835702  1
  Si0+  Si113  1  0.68161578  0.43036310  0.01278134  1
  Si0+  Si114  1  0.92992085  0.82341005  0.98410546  1
  Si0+  Si115  1  0.82195356  0.07264439  0.68278722  1
  Si0+  Si116  1  0.82142389  0.57431496  0.01440489  1
  Si0+  Si117  1  0.32269977  0.07092991  0.01553553  1
  Si0+  Si118  1  0.06980949  0.17686933  0.98717682  1
  Si0+  Si119  1  0.42490195  0.82187996  0.98396841  1
  O2-  O120  1  0.25044818  -0.00046796  0.05571187  1
  O2-  O121  1  0.25824495  -0.00106344  0.39300560  1
  O2-  O122  1  0.24288634  -0.00175180  0.72739859  1
  O2-  O123  1  0.25403020  0.49386153  0.06518249  1
  O2-  O124  1  0.24952865  0.49874920  0.39916977  1
  O2-  O125  1  0.24923679  0.50175927  0.73293517  1
  O2-  O126  1  0.74209079  -0.00119303  0.06321949  1
  O2-  O127  1  0.74501759  0.00560857  0.38976478  1
  O2-  O128  1  0.75515704  0.00198521  0.72649967  1
  O2-  O129  1  0.74780018  0.50615903  0.05623906  1
  O2-  O130  1  0.75536218  0.50502064  0.39403726  1
  O2-  O131  1  0.74963039  0.49745832  0.72523163  1
  O2-  O132  1  0.00357046  0.25548324  0.27392249  1
  O2-  O133  1  0.00462209  0.25412005  0.60148933  1
  O2-  O134  1  0.00588915  0.25546827  0.94758795  1
  O2-  O135  1  0.00525104  0.74739873  0.26812471  1
  O2-  O136  1  0.00369050  0.75550446  0.60262157  1
  O2-  O137  1  -0.00126614  0.75095795  0.94226892  1
  O2-  O138  1  0.50238155  0.24871365  0.27001228  1
  O2-  O139  1  0.49619695  0.25358585  0.60600490  1
  O2-  O140  1  0.49569717  0.24435134  0.93335086  1
  O2-  O141  1  0.49018753  0.75039091  0.27324226  1
  O2-  O142  1  0.50002702  0.73979929  0.60746955  1
  O2-  O143  1  0.49464360  0.75329622  0.94144203  1
  O2-  O144  1  0.06622554  0.17127438  0.09240195  1
  O2-  O145  1  0.06670739  0.17715639  0.42168539  1
  O2-  O146  1  0.07046241  0.17793302  0.76556280  1
  O2-  O147  1  0.06612608  0.68329199  0.09189186  1
  O2-  O148  1  0.07047467  0.67805741  0.41842203  1
  O2-  O149  1  0.06850794  0.67982116  0.76564936  1
  O2-  O150  1  0.57348428  0.18467967  0.09727514  1
  O2-  O151  1  0.57238605  0.17441972  0.43130956  1
  O2-  O152  1  0.56900277  0.17994262  0.76721691  1
  O2-  O153  1  0.57371267  0.68013088  0.09836849  1
  O2-  O154  1  0.57192886  0.68469108  0.43534801  1
  O2-  O155  1  0.57560578  0.67803745  0.75628135  1
  O2-  O156  1  0.17732866  0.42884694  0.23745407  1
  O2-  O157  1  0.18028043  0.43097377  0.56900028  1
  O2-  O158  1  0.17007326  0.43209398  0.90280456  1
  O2-  O159  1  0.17776792  0.93465601  0.23314555  1
  O2-  O160  1  0.17719437  0.93062936  0.57659723  1
  O2-  O161  1  0.17527923  0.93042832  0.90811053  1
  O2-  O162  1  0.68251920  0.43115189  0.23310026  1
  O2-  O163  1  0.67912014  0.42547581  0.57854310  1
  O2-  O164  1  0.68710205  0.42927421  0.90759644  1
  O2-  O165  1  0.68389423  0.92703761  0.24155639  1
  O2-  O166  1  0.67983685  0.92832784  0.56645344  1
  O2-  O167  1  0.68034523  0.92303202  0.91436570  1
  O2-  O168  1  0.42872502  0.32087192  0.09559014  1
  O2-  O169  1  0.43074403  0.31746436  0.43404833  1
  O2-  O170  1  0.43125559  0.32134718  0.75640303  1
  O2-  O171  1  0.42403304  0.82455012  0.08959484  1
  O2-  O172  1  0.42845925  0.82735014  0.42158541  1
  O2-  O173  1  0.43372905  0.82113090  0.76754740  1
  O2-  O174  1  0.92831614  0.32124534  0.09357735  1
  O2-  O175  1  0.92580743  0.32028697  0.42081358  1
  O2-  O176  1  0.92616678  0.31914016  0.76553694  1
  O2-  O177  1  0.93158887  0.82401066  0.08928432  1
  O2-  O178  1  0.92954767  0.82003520  0.42912364  1
  O2-  O179  1  0.92737479  0.81849543  0.76700098  1
  O2-  O180  1  0.32019835  0.06809513  0.24124550  1
  O2-  O181  1  0.32272489  0.06656123  0.56586106  1
  O2-  O182  1  0.32232032  0.07046249  0.91055174  1
  O2-  O183  1  0.32353324  0.56784604  0.23657332  1
  O2-  O184  1  0.32540408  0.57068120  0.57167614  1
  O2-  O185  1  0.31664364  0.57471377  0.90382612  1
  O2-  O186  1  0.82430859  0.07084298  0.24507592  1
  O2-  O187  1  0.82003084  0.07438198  0.57719678  1
  O2-  O188  1  0.82393422  0.06657033  0.90136704  1
  O2-  O189  1  0.82027732  0.57398258  0.24294230  1
  O2-  O190  1  0.81456995  0.57179740  0.57577013  1
  O2-  O191  1  0.82393881  0.57302051  0.90937758  1
  O2-  O192  1  0.03535389  0.09059948  0.26798423  1
  O2-  O193  1  0.04354444  0.08306327  0.59578340  1
  O2-  O194  1  0.03402568  0.08886326  0.93739435  1
  O2-  O195  1  0.04480491  0.58450479  0.26669979  1
  O2-  O196  1  0.03721444  0.58477219  0.59538596  1
  O2-  O197  1  0.03910808  0.58913498  0.94044854  1
  O2-  O198  1  0.54949320  0.07798059  0.26174116  1
  O2-  O199  1  0.53749829  0.08180735  0.60170558  1
  O2-  O200  1  0.55126539  0.07515970  0.93871469  1
  O2-  O201  1  0.54287489  0.58278851  0.26943325  1
  O2-  O202  1  0.55166408  0.57876455  0.60865124  1
  O2-  O203  1  0.54653978  0.58284711  0.92864325  1
  O2-  O204  1  0.16282349  0.20080607  0.26945930  1
  O2-  O205  1  0.17408183  0.20359848  0.59898780  1
  O2-  O206  1  0.16400875  0.19547960  0.94198306  1
  O2-  O207  1  0.16681106  0.70460233  0.26830247  1
  O2-  O208  1  0.17094255  0.70382554  0.59831879  1
  O2-  O209  1  0.16135579  0.70890409  0.94114898  1
  O2-  O210  1  0.67529579  0.20479589  0.26938776  1
  O2-  O211  1  0.66548281  0.20616218  0.60026013  1
  O2-  O212  1  0.67090070  0.21092382  0.93201638  1
  O2-  O213  1  0.66324879  0.71453822  0.26490216  1
  O2-  O214  1  0.66427779  0.70384170  0.60376297  1
  O2-  O215  1  0.66784102  0.71114322  0.93043595  1
  O2-  O216  1  0.07955593  0.46023020  0.07076583  1
  O2-  O217  1  0.07700628  0.45363097  0.40044713  1
  O2-  O218  1  0.07562826  0.45766119  0.73000356  1
  O2-  O219  1  0.08736521  0.96111005  0.06203407  1
  O2-  O220  1  0.08331709  0.96626587  0.40070890  1
  O2-  O221  1  0.08031798  0.95256564  0.72617937  1
  O2-  O222  1  0.58817123  0.45550125  0.05659540  1
  O2-  O223  1  0.58657815  0.45942978  0.40364728  1
  O2-  O224  1  0.58880837  0.45148342  0.73355551  1
  O2-  O225  1  0.58150866  0.94417572  0.06456709  1
  O2-  O226  1  0.58562797  0.95060427  0.39111987  1
  O2-  O227  1  0.58515592  0.95976854  0.73694392  1
  O2-  O228  1  0.19637956  0.32492613  0.06494718  1
  O2-  O229  1  0.20182506  0.32491216  0.39933944  1
  O2-  O230  1  0.20261459  0.33071530  0.73450183  1
  O2-  O231  1  0.20362648  0.83896924  0.06274874  1
  O2-  O232  1  0.19962622  0.83213130  0.40044101  1
  O2-  O233  1  0.20243580  0.83554093  0.72776512  1
  O2-  O234  1  0.71512292  0.34156957  0.06200770  1
  O2-  O235  1  0.71516609  0.33381109  0.40146645  1
  O2-  O236  1  0.71136308  0.33421326  0.73050859  1
  O2-  O237  1  0.70924190  0.83413247  0.06686090  1
  O2-  O238  1  0.71481190  0.83951295  0.39382369  1
  O2-  O239  1  0.70952404  0.83136489  0.73582724  1
  O2-  O240  1  0.46116791  0.41739066  0.26785452  1
  O2-  O241  1  0.45735333  0.41647055  0.60700109  1
  O2-  O242  1  0.45845715  0.41647715  0.92736368  1
  O2-  O243  1  0.45411185  0.91338109  0.26584890  1
  O2-  O244  1  0.46663238  0.91259287  0.59813278  1
  O2-  O245  1  0.45099959  0.91539231  0.93773088  1
  O2-  O246  1  0.95182582  0.41728745  0.27006196  1
  O2-  O247  1  0.94701088  0.42112786  0.59723574  1
  O2-  O248  1  0.95278097  0.41616539  0.94179125  1
  O2-  O249  1  0.96337286  0.91842820  0.26269415  1
  O2-  O250  1  0.94662854  0.92156594  0.60027363  1
  O2-  O251  1  0.95988159  0.91451291  0.93716053  1
  O2-  O252  1  0.33120431  0.29070831  0.26538600  1
  O2-  O253  1  0.33424305  0.29902460  0.60788891  1
  O2-  O254  1  0.32613318  0.29284155  0.93175918  1
  O2-  O255  1  0.32864606  0.80193110  0.27344636  1
  O2-  O256  1  0.33276661  0.79692375  0.59946905  1
  O2-  O257  1  0.33094526  0.79634539  0.93832564  1
  O2-  O258  1  0.83980585  0.29125886  0.26680958  1
  O2-  O259  1  0.83277666  0.28762340  0.59527137  1
  O2-  O260  1  0.84111339  0.29074766  0.93917992  1
  O2-  O261  1  0.83623246  0.79076782  0.25825638  1
  O2-  O262  1  0.83024837  0.78639821  0.59995670  1
  O2-  O263  1  0.83695759  0.79835854  0.93879912  1
  O2-  O264  1  0.41373858  0.04223283  0.06407900  1
  O2-  O265  1  0.41966874  0.04577405  0.38969808  1
  O2-  O266  1  0.41426031  0.03329520  0.73606242  1
  O2-  O267  1  0.42426858  0.54405335  0.06320989  1
  O2-  O268  1  0.42097308  0.54265589  0.40412365  1
  O2-  O269  1  0.42187118  0.54524332  0.73828530  1
  O2-  O270  1  0.91392780  0.03622130  0.07175363  1
  O2-  O271  1  0.91085864  0.03772141  0.39824881  1
  O2-  O272  1  0.91679506  0.04897622  0.72777473  1
  O2-  O273  1  0.91078602  0.54492946  0.06559806  1
  O2-  O274  1  0.91614758  0.55273078  0.39350199  1
  O2-  O275  1  0.91046915  0.54411637  0.72799217  1
  O2-  O276  1  0.29359309  0.16137274  0.06431902  1
  O2-  O277  1  0.29573723  0.16179924  0.39298655  1
  O2-  O278  1  0.29243138  0.16573072  0.73590448  1
  O2-  O279  1  0.29176091  0.66849967  0.07107046  1
  O2-  O280  1  0.29618737  0.66981235  0.40011508  1
  O2-  O281  1  0.29561811  0.67365336  0.73503885  1
  O2-  O282  1  0.79222723  0.16775307  0.06916530  1
  O2-  O283  1  0.80186869  0.16510981  0.39736603  1
  O2-  O284  1  0.79421385  0.16539891  0.72990014  1
  O2-  O285  1  0.79640690  0.66772727  0.06039114  1
  O2-  O286  1  0.79377145  0.66939314  0.39261380  1
  O2-  O287  1  0.78912170  0.65962462  0.73200741  1
