# generated using pymatgen
data_Ca2Al2SiO7
_symmetry_space_group_name_H-M   'P 1'
_cell_length_a   15.46776475
_cell_length_b   15.47061440
_cell_length_c   15.29223169
_cell_angle_alpha   89.99482090
_cell_angle_beta   89.99715042
_cell_angle_gamma   89.96997376
_symmetry_Int_Tables_number   1
_chemical_formula_structural   Ca2Al2SiO7
_chemical_formula_sum   'Ca48 Al48 Si24 O168'
_cell_volume   3659.36666110
_cell_formula_units_Z   24
loop_
 _symmetry_equiv_pos_site_id
 _symmetry_equiv_pos_as_xyz
  1  'x, y, z'
loop_
 _atom_type_symbol
 _atom_type_oxidation_number
  Ca2+  2.0
  Al0+  0.0
  Si0+  0.0
  O2-  -2.0
loop_
 _atom_site_type_symbol
 _atom_site_label
 _atom_site_symmetry_multiplicity
 _atom_site_fract_x
 _atom_site_fract_y
 _atom_site_fract_z
 _atom_site_occupancy
  Ca2+  Ca0  1  0.17392352  0.08612219  0.17367664  1
  Ca2+  Ca1  1  0.16639358  0.08805241  0.49637426  1
  Ca2+  Ca2  1  0.16986190  0.08996280  0.84101874  1
  Ca2+  Ca3  1  0.16800405  0.58410165  0.17516350  1
  Ca2+  Ca4  1  0.16971302  0.57875826  0.50306367  1
  Ca2+  Ca5  1  0.16263524  0.57395983  0.83816209  1
  Ca2+  Ca6  1  0.67519039  0.08611703  0.17558865  1
  Ca2+  Ca7  1  0.66728872  0.07816465  0.49978210  1
  Ca2+  Ca8  1  0.67064333  0.08019682  0.84231676  1
  Ca2+  Ca9  1  0.66289360  0.58311994  0.17029705  1
  Ca2+  Ca10  1  0.67027800  0.58074716  0.50377508  1
  Ca2+  Ca11  1  0.66431196  0.58164503  0.84030296  1
  Ca2+  Ca12  1  0.08489518  0.31946366  0.16488979  1
  Ca2+  Ca13  1  0.08394715  0.32534453  0.50164978  1
  Ca2+  Ca14  1  0.08255954  0.32143413  0.82437744  1
  Ca2+  Ca15  1  0.07684767  0.83586326  0.16394407  1
  Ca2+  Ca16  1  0.07940098  0.83110533  0.48381399  1
  Ca2+  Ca17  1  0.07821191  0.83186667  0.83361174  1
  Ca2+  Ca18  1  0.57262729  0.31955073  0.16452935  1
  Ca2+  Ca19  1  0.57293477  0.32708387  0.49079353  1
  Ca2+  Ca20  1  0.57230034  0.32575303  0.83272857  1
  Ca2+  Ca21  1  0.58614402  0.83076918  0.16396076  1
  Ca2+  Ca22  1  0.58197322  0.84181210  0.49867241  1
  Ca2+  Ca23  1  0.58060594  0.83300958  0.82745396  1
  Ca2+  Ca24  1  0.34030133  0.42053236  0.17287876  1
  Ca2+  Ca25  1  0.33291460  0.41732551  0.50370662  1
  Ca2+  Ca26  1  0.33025157  0.40718508  0.83613038  1
  Ca2+  Ca27  1  0.32732343  0.93019696  0.17540321  1
  Ca2+  Ca28  1  0.32916112  0.92155123  0.50090388  1
  Ca2+  Ca29  1  0.33297598  0.92351259  0.83842718  1
  Ca2+  Ca30  1  0.83071882  0.41917431  0.17200029  1
  Ca2+  Ca31  1  0.83721420  0.41655536  0.50696456  1
  Ca2+  Ca32  1  0.83596045  0.41471194  0.83691607  1
  Ca2+  Ca33  1  0.83224703  0.92184883  0.17399501  1
  Ca2+  Ca34  1  0.82625631  0.91876624  0.49781582  1
  Ca2+  Ca35  1  0.82953970  0.92104509  0.84079277  1
  Ca2+  Ca36  1  0.42125764  0.16529182  0.16113409  1
  Ca2+  Ca37  1  0.41754541  0.17641878  0.48930459  1
  Ca2+  Ca38  1  0.41354303  0.17339012  0.83152777  1
  Ca2+  Ca39  1  0.41823978  0.66805751  0.16307335  1
  Ca2+  Ca40  1  0.41205852  0.67287508  0.49596560  1
  Ca2+  Ca41  1  0.42207456  0.67477185  0.83033874  1
  Ca2+  Ca42  1  0.92639340  0.15072212  0.16424193  1
  Ca2+  Ca43  1  0.92559465  0.16458750  0.49350380  1
  Ca2+  Ca44  1  0.92731478  0.16377206  0.82980390  1
  Ca2+  Ca45  1  0.92807082  0.68064868  0.16269218  1
  Ca2+  Ca46  1  0.92548495  0.67447962  0.48867307  1
  Ca2+  Ca47  1  0.92000009  0.67163408  0.83554587  1
  Al0+  Al48  1  -0.00165235  -0.00130682  -0.00686695  1
  Al0+  Al49  1  -0.00148715  0.00061630  0.33336679  1
  Al0+  Al50  1  0.00074602  -0.00221850  0.66266557  1
  Al0+  Al51  1  -0.00047087  0.50087376  0.00091043  1
  Al0+  Al52  1  -0.00002739  0.50073655  0.33100198  1
  Al0+  Al53  1  0.00211911  0.49946890  0.66938644  1
  Al0+  Al54  1  0.50012470  -0.00063499  0.00129043  1
  Al0+  Al55  1  0.50023528  0.00034343  0.33601443  1
  Al0+  Al56  1  0.50003636  -0.00191231  0.66798698  1
  Al0+  Al57  1  0.49871925  0.50013320  -0.00750102  1
  Al0+  Al58  1  0.49953958  0.50078808  0.33662792  1
  Al0+  Al59  1  0.50227992  0.50143198  0.66532077  1
  Al0+  Al60  1  0.24787669  0.25051454  -0.00064218  1
  Al0+  Al61  1  0.24728273  0.25435084  0.33026018  1
  Al0+  Al62  1  0.25050158  0.25109471  0.66265712  1
  Al0+  Al63  1  0.24917331  0.74715116  -0.00432386  1
  Al0+  Al64  1  0.25228709  0.74831298  0.33690339  1
  Al0+  Al65  1  0.25250961  0.75048978  0.66539755  1
  Al0+  Al66  1  0.74788002  0.25045994  0.00284754  1
  Al0+  Al67  1  0.74812263  0.25120033  0.33591266  1
  Al0+  Al68  1  0.75148587  0.25096938  0.66667862  1
  Al0+  Al69  1  0.75061962  0.74815682  -0.00717271  1
  Al0+  Al70  1  0.75080585  0.74951108  0.33419734  1
  Al0+  Al71  1  0.75138618  0.74967643  0.67141986  1
  Al0+  Al72  1  0.92884648  0.32220502  0.65319334  1
  Al0+  Al73  1  0.42854969  0.31949021  0.98462058  1
  Al0+  Al74  1  0.32223991  0.57019797  0.34700089  1
  Al0+  Al75  1  0.07103234  0.17677991  0.64972319  1
  Al0+  Al76  1  0.82122636  0.07319956  0.34965234  1
  Al0+  Al77  1  0.57004570  0.67953129  0.98748230  1
  Al0+  Al78  1  0.43064117  0.32111872  0.65165637  1
  Al0+  Al79  1  0.32071358  0.07477771  0.34860439  1
  Al0+  Al80  1  0.06878065  0.17979078  0.98741989  1
  Al0+  Al81  1  0.18198398  0.43015823  0.68157038  1
  Al0+  Al82  1  0.42981975  0.82116660  0.65182512  1
  Al0+  Al83  1  0.17956524  0.92994953  0.34604436  1
  Al0+  Al84  1  0.92949212  0.82102867  0.98243775  1
  Al0+  Al85  1  0.82038382  0.07091462  0.01264844  1
  Al0+  Al86  1  0.92827648  0.82138902  0.31862148  1
  Al0+  Al87  1  0.67976883  0.93041942  0.68302209  1
  Al0+  Al88  1  0.57038894  0.17671246  0.31922345  1
  Al0+  Al89  1  0.57284221  0.17612084  0.98475482  1
  Al0+  Al90  1  0.07432838  0.67830583  0.31940927  1
  Al0+  Al91  1  0.06855443  0.18033011  0.31827208  1
  Al0+  Al92  1  0.31999946  0.07156416  0.01248570  1
  Al0+  Al93  1  0.42810690  0.32283218  0.31859214  1
  Al0+  Al94  1  0.67862539  0.92640849  0.34759319  1
  Al0+  Al95  1  0.07304996  0.67693053  0.98299476  1
  Si0+  Si96  1  0.82070773  0.57118119  0.01668670  1
  Si0+  Si97  1  0.07138180  0.67914767  0.65210382  1
  Si0+  Si98  1  0.67827333  0.92559553  0.01554172  1
  Si0+  Si99  1  0.17476475  0.42946822  0.35072525  1
  Si0+  Si100  1  0.32416880  0.57365687  0.68626918  1
  Si0+  Si101  1  0.82387031  0.07210566  0.68381578  1
  Si0+  Si102  1  0.17801378  0.92601837  0.68172112  1
  Si0+  Si103  1  0.31898671  0.07018456  0.68044575  1
  Si0+  Si104  1  0.82160644  0.56972984  0.68331940  1
  Si0+  Si105  1  0.57414009  0.67938631  0.64887310  1
  Si0+  Si106  1  0.82109583  0.56995966  0.34804316  1
  Si0+  Si107  1  0.17800169  0.42947904  0.01636087  1
  Si0+  Si108  1  0.67647435  0.43077113  0.01580892  1
  Si0+  Si109  1  0.17807271  0.92589943  0.01341620  1
  Si0+  Si110  1  0.42714350  0.82256123  0.98503697  1
  Si0+  Si111  1  0.92642114  0.32409337  0.98670626  1
  Si0+  Si112  1  0.57105213  0.67915568  0.32131000  1
  Si0+  Si113  1  0.67804527  0.42856621  0.68342441  1
  Si0+  Si114  1  0.92878191  0.81916515  0.65014484  1
  Si0+  Si115  1  0.32125511  0.57040294  0.01346151  1
  Si0+  Si116  1  0.92549550  0.32359194  0.31677670  1
  Si0+  Si117  1  0.42884164  0.82155407  0.31875519  1
  Si0+  Si118  1  0.67902413  0.43065551  0.34935981  1
  Si0+  Si119  1  0.57289915  0.17687117  0.65127135  1
  O2-  O120  1  0.24659392  -0.00548914  0.05702274  1
  O2-  O121  1  0.24905699  0.00262582  0.39965532  1
  O2-  O122  1  0.24596061  0.00050045  0.72308193  1
  O2-  O123  1  0.24929502  0.50124434  0.05676424  1
  O2-  O124  1  0.24574530  0.49730855  0.39284716  1
  O2-  O125  1  0.25811261  0.50296770  0.73102452  1
  O2-  O126  1  0.74345951  -0.00251654  0.05860200  1
  O2-  O127  1  0.74791700  0.00115004  0.39769129  1
  O2-  O128  1  0.75274852  0.00652268  0.72927146  1
  O2-  O129  1  0.74958269  0.50008467  0.05889677  1
  O2-  O130  1  0.75357949  0.49735339  0.39285895  1
  O2-  O131  1  0.75121467  0.49786188  0.72593540  1
  O2-  O132  1  -0.00960305  0.25248782  0.27188493  1
  O2-  O133  1  -0.00432309  0.24703284  0.60213164  1
  O2-  O134  1  -0.00826472  0.25293471  0.94249124  1
  O2-  O135  1  0.00621987  0.75425821  0.27072899  1
  O2-  O136  1  0.00364564  0.75209271  0.60853183  1
  O2-  O137  1  0.00295484  0.74997095  0.93221509  1
  O2-  O138  1  0.49273575  0.24362786  0.27020104  1
  O2-  O139  1  0.50649851  0.24740594  0.60663255  1
  O2-  O140  1  0.49716232  0.24407900  0.93452395  1
  O2-  O141  1  0.50256892  0.75181760  0.27844061  1
  O2-  O142  1  0.50503517  0.74666663  0.60441435  1
  O2-  O143  1  0.49896810  0.75687464  0.94078434  1
  O2-  O144  1  0.06974521  0.18094977  0.10012792  1
  O2-  O145  1  0.06898587  0.18365932  0.43099746  1
  O2-  O146  1  0.07104123  0.17778786  0.76371820  1
  O2-  O147  1  0.07223530  0.67566257  0.09582489  1
  O2-  O148  1  0.06951218  0.67627309  0.43370981  1
  O2-  O149  1  0.06877675  0.67958462  0.75708451  1
  O2-  O150  1  0.57411444  0.17928115  0.09770064  1
  O2-  O151  1  0.57202647  0.18195777  0.43323129  1
  O2-  O152  1  0.57168457  0.17812762  0.75695700  1
  O2-  O153  1  0.56836442  0.67816028  0.10092304  1
  O2-  O154  1  0.57136612  0.67701707  0.42625559  1
  O2-  O155  1  0.57348432  0.67932446  0.75455601  1
  O2-  O156  1  0.17120075  0.43125169  0.24505611  1
  O2-  O157  1  0.18117904  0.43397717  0.56884706  1
  O2-  O158  1  0.17775140  0.42982548  0.91114512  1
  O2-  O159  1  0.18268503  0.92907153  0.23221911  1
  O2-  O160  1  0.17905045  0.92153051  0.57734234  1
  O2-  O161  1  0.18065703  0.92557698  0.90714608  1
  O2-  O162  1  0.67879817  0.43461891  0.24419628  1
  O2-  O163  1  0.67700226  0.43224558  0.57836337  1
  O2-  O164  1  0.67774376  0.43275006  0.91043501  1
  O2-  O165  1  0.68099190  0.92039874  0.23428553  1
  O2-  O166  1  0.68192125  0.92879732  0.57053376  1
  O2-  O167  1  0.67988935  0.92516234  0.90962802  1
  O2-  O168  1  0.43181747  0.32401304  0.09737926  1
  O2-  O169  1  0.43315898  0.32512637  0.43234000  1
  O2-  O170  1  0.43081480  0.31889838  0.76467065  1
  O2-  O171  1  0.42547971  0.81990508  0.09049491  1
  O2-  O172  1  0.42809938  0.81954114  0.42385451  1
  O2-  O173  1  0.43004964  0.81941236  0.76525946  1
  O2-  O174  1  0.92890787  0.32948574  0.09197122  1
  O2-  O175  1  0.92775576  0.32702304  0.42212082  1
  O2-  O176  1  0.93026040  0.32327993  0.76690669  1
  O2-  O177  1  0.92870602  0.81938448  0.09541018  1
  O2-  O178  1  0.92633346  0.81551255  0.43284781  1
  O2-  O179  1  0.92885479  0.81754835  0.75509600  1
  O2-  O180  1  0.32021292  0.07136551  0.23486835  1
  O2-  O181  1  0.31961154  0.06909907  0.57582031  1
  O2-  O182  1  0.31810249  0.07069831  0.89855010  1
  O2-  O183  1  0.32597387  0.56886844  0.23350418  1
  O2-  O184  1  0.32221930  0.57481911  0.58081786  1
  O2-  O185  1  0.32179812  0.57053526  0.90854189  1
  O2-  O186  1  0.81986189  0.07163386  0.23591155  1
  O2-  O187  1  0.82413242  0.07033816  0.57873098  1
  O2-  O188  1  0.82020104  0.06941614  0.89909861  1
  O2-  O189  1  0.81814175  0.56892018  0.24304113  1
  O2-  O190  1  0.81998231  0.57042922  0.57802333  1
  O2-  O191  1  0.82084281  0.56907672  0.91122584  1
  O2-  O192  1  0.04092675  0.08293766  0.26533282  1
  O2-  O193  1  0.04644674  0.07697580  0.59779319  1
  O2-  O194  1  0.04168211  0.08381984  0.93101549  1
  O2-  O195  1  0.04058327  0.58198508  0.26535834  1
  O2-  O196  1  0.04071248  0.58832232  0.60576024  1
  O2-  O197  1  0.03883481  0.57958414  0.93016506  1
  O2-  O198  1  0.54900806  0.07643414  0.26760010  1
  O2-  O199  1  0.54569512  0.08373626  0.60680882  1
  O2-  O200  1  0.54975329  0.07546086  0.93417666  1
  O2-  O201  1  0.54120541  0.58868806  0.27287488  1
  O2-  O202  1  0.55109260  0.58512054  0.60330190  1
  O2-  O203  1  0.53691861  0.58616773  0.92867420  1
  O2-  O204  1  0.16361914  0.21454346  0.26339063  1
  O2-  O205  1  0.16764133  0.21003440  0.59740209  1
  O2-  O206  1  0.16320149  0.21426120  0.93207149  1
  O2-  O207  1  0.17511857  0.70002467  0.26965184  1
  O2-  O208  1  0.16514725  0.70297663  0.60777019  1
  O2-  O209  1  0.17179480  0.70066702  0.92803387  1
  O2-  O210  1  0.66718176  0.21284752  0.26708797  1
  O2-  O211  1  0.66781854  0.20040682  0.60770793  1
  O2-  O212  1  0.66950188  0.21066756  0.93101394  1
  O2-  O213  1  0.66317400  0.70341071  0.27301149  1
  O2-  O214  1  0.66884370  0.70428414  0.60477660  1
  O2-  O215  1  0.66658779  0.70391190  0.93072554  1
  O2-  O216  1  0.08623084  0.45749926  0.06378515  1
  O2-  O217  1  0.08211005  0.45757919  0.39843144  1
  O2-  O218  1  0.08593252  0.46279778  0.73717392  1
  O2-  O219  1  0.08343814  0.95103345  0.05551205  1
  O2-  O220  1  0.08031608  0.95452330  0.39832821  1
  O2-  O221  1  0.08430304  0.95009727  0.72771372  1
  O2-  O222  1  0.58602920  0.46470545  0.06156318  1
  O2-  O223  1  0.59059300  0.46455190  0.39941534  1
  O2-  O224  1  0.58790285  0.46045774  0.73249840  1
  O2-  O225  1  0.58250516  0.94390546  0.05966468  1
  O2-  O226  1  0.57972004  0.95195231  0.40093656  1
  O2-  O227  1  0.58159248  0.95748358  0.73672972  1
  O2-  O228  1  0.20625637  0.33857586  0.06424550  1
  O2-  O229  1  0.19950265  0.33651454  0.39707693  1
  O2-  O230  1  0.21231822  0.33244638  0.73453760  1
  O2-  O231  1  0.20244921  0.83116329  0.05785288  1
  O2-  O232  1  0.20914927  0.83183932  0.40003295  1
  O2-  O233  1  0.20942189  0.83574795  0.73110231  1
  O2-  O234  1  0.70218521  0.33950727  0.06450735  1
  O2-  O235  1  0.70285354  0.33916980  0.39819147  1
  O2-  O236  1  0.70325851  0.33607816  0.73094805  1
  O2-  O237  1  0.70634614  0.83123356  0.05900653  1
  O2-  O238  1  0.70870704  0.82835758  0.40315235  1
  O2-  O239  1  0.71112166  0.83275450  0.73632553  1
  O2-  O240  1  0.46611491  0.41911446  0.26656528  1
  O2-  O241  1  0.46028910  0.41969215  0.60084452  1
  O2-  O242  1  0.45992736  0.41590714  0.92874885  1
  O2-  O243  1  0.45469685  0.91321690  0.27131900  1
  O2-  O244  1  0.46045161  0.91738093  0.59797453  1
  O2-  O245  1  0.45040746  0.91598805  0.93821730  1
  O2-  O246  1  0.95242679  0.41657921  0.26941776  1
  O2-  O247  1  0.95982817  0.42057079  0.60045441  1
  O2-  O248  1  0.95332732  0.41658798  0.93894972  1
  O2-  O249  1  0.95165254  0.92047065  0.26711044  1
  O2-  O250  1  0.95244651  0.91163188  0.60362140  1
  O2-  O251  1  0.95755662  0.91708303  0.92492112  1
  O2-  O252  1  0.32647941  0.30741766  0.26939480  1
  O2-  O253  1  0.33478825  0.29123245  0.59775516  1
  O2-  O254  1  0.32944467  0.29266282  0.93278032  1
  O2-  O255  1  0.33959080  0.78937348  0.27011758  1
  O2-  O256  1  0.33377004  0.78932502  0.59698676  1
  O2-  O257  1  0.33588689  0.79335229  0.93611320  1
  O2-  O258  1  0.82956346  0.30458746  0.27354619  1
  O2-  O259  1  0.82733975  0.30293114  0.60209190  1
  O2-  O260  1  0.83098664  0.30348791  0.94299436  1
  O2-  O261  1  0.83264196  0.78460315  0.26522549  1
  O2-  O262  1  0.83802793  0.78581143  0.60466746  1
  O2-  O263  1  0.83346050  0.78757232  0.92703764  1
  O2-  O264  1  0.41737511  0.04193018  0.06597943  1
  O2-  O265  1  0.41909068  0.04660069  0.40091816  1
  O2-  O266  1  0.40998360  0.04018907  0.72853052  1
  O2-  O267  1  0.41341131  0.54144044  0.05997063  1
  O2-  O268  1  0.41772740  0.53987933  0.40466421  1
  O2-  O269  1  0.42040924  0.55157433  0.72887615  1
  O2-  O270  1  0.91744679  0.03672056  0.06382597  1
  O2-  O271  1  0.91855758  0.04343042  0.40299939  1
  O2-  O272  1  0.91720676  0.04172858  0.72882363  1
  O2-  O273  1  0.91197965  0.54321356  0.06500812  1
  O2-  O274  1  0.91335767  0.54402454  0.39576927  1
  O2-  O275  1  0.91302142  0.54275265  0.73164520  1
  O2-  O276  1  0.28718489  0.16740746  0.06613855  1
  O2-  O277  1  0.29136605  0.17442035  0.39857647  1
  O2-  O278  1  0.29181518  0.16246731  0.72698995  1
  O2-  O279  1  0.29588722  0.66324169  0.06067086  1
  O2-  O280  1  0.29442614  0.66601483  0.40403743  1
  O2-  O281  1  0.29666161  0.66711151  0.73212893  1
  O2-  O282  1  0.79447917  0.16902963  0.06645231  1
  O2-  O283  1  0.79442061  0.17266674  0.40259636  1
  O2-  O284  1  0.80287816  0.16799561  0.72793105  1
  O2-  O285  1  0.79072581  0.66282876  0.06211788  1
  O2-  O286  1  0.79008806  0.65932770  0.39791331  1
  O2-  O287  1  0.79237041  0.66020667  0.73268970  1
