# generated using pymatgen
data_Ca2Al2SiO7
_symmetry_space_group_name_H-M   'P 1'
_cell_length_a   15.46500503
_cell_length_b   15.46468305
_cell_length_c   15.28805965
_cell_angle_alpha   90.01364908
_cell_angle_beta   90.01476044
_cell_angle_gamma   90.01524359
_symmetry_Int_Tables_number   1
_chemical_formula_structural   Ca2Al2SiO7
_chemical_formula_sum   'Ca48 Al48 Si24 O168'
_cell_volume   3656.31341288
_cell_formula_units_Z   24
loop_
 _symmetry_equiv_pos_site_id
 _symmetry_equiv_pos_as_xyz
  1  'x, y, z'
loop_
 _atom_type_symbol
 _atom_type_oxidation_number
  Ca2+  2.0
  Al0+  0.0
  Si0+  0.0
  O2-  -2.0
loop_
 _atom_site_type_symbol
 _atom_site_label
 _atom_site_symmetry_multiplicity
 _atom_site_fract_x
 _atom_site_fract_y
 _atom_site_fract_z
 _atom_site_occupancy
  Ca2+  Ca0  1  0.17703899  0.07725647  0.17876840  1
  Ca2+  Ca1  1  0.17729224  0.07245799  0.50606188  1
  Ca2+  Ca2  1  0.17318473  0.07827044  0.83171904  1
  Ca2+  Ca3  1  0.17305935  0.57381172  0.17548256  1
  Ca2+  Ca4  1  0.16370158  0.58325863  0.50341266  1
  Ca2+  Ca5  1  0.16197215  0.57436798  0.83552799  1
  Ca2+  Ca6  1  0.66508718  0.08219338  0.16181700  1
  Ca2+  Ca7  1  0.66630680  0.07730320  0.51072105  1
  Ca2+  Ca8  1  0.66052342  0.07700474  0.83662194  1
  Ca2+  Ca9  1  0.67242986  0.58071586  0.17280030  1
  Ca2+  Ca10  1  0.66389540  0.57243695  0.50817784  1
  Ca2+  Ca11  1  0.66924039  0.58282478  0.83532278  1
  Ca2+  Ca12  1  0.09038029  0.33473359  0.16143273  1
  Ca2+  Ca13  1  0.08081492  0.34159985  0.49884127  1
  Ca2+  Ca14  1  0.07770523  0.33914461  0.82446956  1
  Ca2+  Ca15  1  0.08422645  0.83060006  0.16795639  1
  Ca2+  Ca16  1  0.08792652  0.82839630  0.49194820  1
  Ca2+  Ca17  1  0.08174784  0.82603554  0.82192309  1
  Ca2+  Ca18  1  0.57534565  0.32937141  0.15739278  1
  Ca2+  Ca19  1  0.58953697  0.32837485  0.49578470  1
  Ca2+  Ca20  1  0.58576493  0.32235632  0.82594482  1
  Ca2+  Ca21  1  0.57435362  0.83481844  0.15600385  1
  Ca2+  Ca22  1  0.57995793  0.83201879  0.50440482  1
  Ca2+  Ca23  1  0.57815909  0.83627519  0.82454628  1
  Ca2+  Ca24  1  0.32731666  0.41736599  0.17463273  1
  Ca2+  Ca25  1  0.32166781  0.42427217  0.50350416  1
  Ca2+  Ca26  1  0.32185548  0.40995529  0.83729273  1
  Ca2+  Ca27  1  0.33121026  0.92092483  0.17462361  1
  Ca2+  Ca28  1  0.32947191  0.92297395  0.50856648  1
  Ca2+  Ca29  1  0.33874858  0.91544976  0.83099710  1
  Ca2+  Ca30  1  0.82651588  0.42367082  0.16861883  1
  Ca2+  Ca31  1  0.82474418  0.41400638  0.50762395  1
  Ca2+  Ca32  1  0.82933333  0.41931524  0.83370726  1
  Ca2+  Ca33  1  0.83021499  0.91882912  0.16812378  1
  Ca2+  Ca34  1  0.83088342  0.91417585  0.50521299  1
  Ca2+  Ca35  1  0.81862562  0.92109209  0.84214640  1
  Ca2+  Ca36  1  0.41934007  0.17123536  0.15728707  1
  Ca2+  Ca37  1  0.41669305  0.16025864  0.50152403  1
  Ca2+  Ca38  1  0.42494489  0.16895492  0.82919704  1
  Ca2+  Ca39  1  0.41244328  0.67068657  0.16313313  1
  Ca2+  Ca40  1  0.41675694  0.66695119  0.49961024  1
  Ca2+  Ca41  1  0.42217793  0.68025070  0.82436112  1
  Ca2+  Ca42  1  0.91902051  0.16644631  0.16078401  1
  Ca2+  Ca43  1  0.91654550  0.17437462  0.49916225  1
  Ca2+  Ca44  1  0.91465466  0.17126285  0.82796329  1
  Ca2+  Ca45  1  0.92061923  0.66755676  0.16662915  1
  Ca2+  Ca46  1  0.93049433  0.67404531  0.49352418  1
  Ca2+  Ca47  1  0.92070903  0.66196105  0.82620161  1
  Al0+  Al48  1  -0.00108350  -0.00127586  0.00170578  1
  Al0+  Al49  1  -0.00121014  0.00217531  0.33232673  1
  Al0+  Al50  1  0.00168860  0.00222487  0.66961376  1
  Al0+  Al51  1  -0.00015613  0.49884199  0.00955418  1
  Al0+  Al52  1  -0.00244604  0.50169316  0.33007891  1
  Al0+  Al53  1  -0.00126395  0.50076470  0.66040973  1
  Al0+  Al54  1  0.49870851  0.00032577  -0.00268350  1
  Al0+  Al55  1  0.50326098  -0.00005582  0.33499050  1
  Al0+  Al56  1  0.50126231  0.00176989  0.66529359  1
  Al0+  Al57  1  0.49654970  0.50130439  -0.00553966  1
  Al0+  Al58  1  0.50003260  0.49810785  0.33912811  1
  Al0+  Al59  1  0.49883191  0.49840632  0.66993216  1
  Al0+  Al60  1  0.24848109  0.24688843  -0.00076466  1
  Al0+  Al61  1  0.25108963  0.25088331  0.34118921  1
  Al0+  Al62  1  0.25004533  0.24909113  0.67383819  1
  Al0+  Al63  1  0.24877716  0.74783823  -0.00548572  1
  Al0+  Al64  1  0.25120941  0.74898952  0.33295769  1
  Al0+  Al65  1  0.25030032  0.75039664  0.66272445  1
  Al0+  Al66  1  0.75178326  0.24978352  0.00032324  1
  Al0+  Al67  1  0.75062100  0.24811768  0.33280829  1
  Al0+  Al68  1  0.75007480  0.25147947  0.66188593  1
  Al0+  Al69  1  0.75081588  0.75028399  0.00948559  1
  Al0+  Al70  1  0.75058309  0.75029338  0.32977293  1
  Al0+  Al71  1  0.75010377  0.74949865  0.66622655  1
  Al0+  Al72  1  0.57165411  0.18168512  0.98440804  1
  Al0+  Al73  1  0.67722734  0.42739528  0.68132237  1
  Al0+  Al74  1  0.82060173  0.57056463  0.01409621  1
  Al0+  Al75  1  0.82249612  0.07223091  0.01545018  1
  Al0+  Al76  1  0.42490008  0.32292601  0.98494579  1
  Al0+  Al77  1  0.42840807  0.81942450  0.98704321  1
  Al0+  Al78  1  0.56957929  0.18181870  0.65090269  1
  Al0+  Al79  1  0.68120959  0.42881292  0.34542977  1
  Al0+  Al80  1  0.18124648  0.42808983  0.01349705  1
  Al0+  Al81  1  0.57303464  0.67633032  0.65180734  1
  Al0+  Al82  1  0.68190158  0.92869935  0.67864555  1
  Al0+  Al83  1  0.17826860  0.92948611  0.34628408  1
  Al0+  Al84  1  0.67645833  0.93047902  0.01644315  1
  Al0+  Al85  1  0.32230052  0.57162323  0.34838731  1
  Al0+  Al86  1  0.32475590  0.07131721  0.34801735  1
  Al0+  Al87  1  0.32233222  0.07011110  0.68551776  1
  Al0+  Al88  1  0.17853023  0.92629080  0.68296949  1
  Al0+  Al89  1  0.07013679  0.68003657  0.65404739  1
  Al0+  Al90  1  0.07333759  0.67872015  0.31434245  1
  Al0+  Al91  1  0.17801872  0.43244040  0.68052884  1
  Al0+  Al92  1  0.43074323  0.82148154  0.64896286  1
  Al0+  Al93  1  0.17648683  0.42940455  0.34927253  1
  Al0+  Al94  1  0.92808148  0.82358283  0.31604048  1
  Al0+  Al95  1  0.93060165  0.31990048  0.65308961  1
  Si0+  Si96  1  0.32079075  0.57397657  0.01402046  1
  Si0+  Si97  1  0.82092685  0.07125586  0.34927849  1
  Si0+  Si98  1  0.07147307  0.18226939  0.31951582  1
  Si0+  Si99  1  0.42436939  0.32201432  0.64847959  1
  Si0+  Si100  1  0.57564099  0.67778828  0.98570016  1
  Si0+  Si101  1  0.92668718  0.32063027  0.31597576  1
  Si0+  Si102  1  0.82079782  0.57407146  0.35193227  1
  Si0+  Si103  1  0.92800948  0.82462314  0.65364640  1
  Si0+  Si104  1  0.43212299  0.82178841  0.31871540  1
  Si0+  Si105  1  0.17787408  0.92585238  0.01419568  1
  Si0+  Si106  1  0.42992281  0.32012943  0.32094298  1
  Si0+  Si107  1  0.07404801  0.17704769  0.64935628  1
  Si0+  Si108  1  0.07074984  0.17564100  0.98526606  1
  Si0+  Si109  1  0.31893956  0.06849941  0.01477205  1
  Si0+  Si110  1  0.57282423  0.17770946  0.31697738  1
  Si0+  Si111  1  0.92787934  0.82174700  0.98435070  1
  Si0+  Si112  1  0.06737159  0.67853813  0.98491040  1
  Si0+  Si113  1  0.67980815  0.92799690  0.34881822  1
  Si0+  Si114  1  0.67572330  0.42795944  0.01409177  1
  Si0+  Si115  1  0.57028342  0.67621319  0.31856893  1
  Si0+  Si116  1  0.93176641  0.32149138  0.98675131  1
  Si0+  Si117  1  0.32295067  0.57327322  0.68562074  1
  Si0+  Si118  1  0.82025001  0.57026135  0.68041249  1
  Si0+  Si119  1  0.82263397  0.07400511  0.68129334  1
  O2-  O120  1  0.24907391  -0.00362780  0.05695072  1
  O2-  O121  1  0.25328826  -0.00194409  0.39582054  1
  O2-  O122  1  0.25156399  -0.00395524  0.73506922  1
  O2-  O123  1  0.26030621  0.49831875  0.05882202  1
  O2-  O124  1  0.24430007  0.50573076  0.39786543  1
  O2-  O125  1  0.25363548  0.50465175  0.72965573  1
  O2-  O126  1  0.74945889  0.00193745  0.06681462  1
  O2-  O127  1  0.75313228  -0.00287104  0.39004584  1
  O2-  O128  1  0.75822914  0.00179798  0.72498868  1
  O2-  O129  1  0.73983871  0.50072220  0.05907349  1
  O2-  O130  1  0.75419317  0.50341492  0.39509975  1
  O2-  O131  1  0.74829141  0.50603875  0.72646341  1
  O2-  O132  1  0.00401582  0.25597496  0.27426397  1
  O2-  O133  1  0.00609046  0.24652807  0.60506273  1
  O2-  O134  1  0.00018338  0.24804132  0.94447240  1
  O2-  O135  1  0.00156010  0.75267078  0.26548948  1
  O2-  O136  1  0.00154429  0.76161582  0.60956654  1
  O2-  O137  1  -0.00333587  0.74923652  0.94131409  1
  O2-  O138  1  0.49930323  0.24739928  0.27756038  1
  O2-  O139  1  0.49599655  0.25699963  0.60273061  1
  O2-  O140  1  0.50299003  0.25742072  0.93523008  1
  O2-  O141  1  0.50089748  0.74858391  0.27548600  1
  O2-  O142  1  0.50030939  0.74632728  0.59952452  1
  O2-  O143  1  0.50690194  0.74696877  0.94316156  1
  O2-  O144  1  0.07192640  0.17600560  0.09078861  1
  O2-  O145  1  0.06753347  0.18165461  0.42407012  1
  O2-  O146  1  0.07125870  0.17657133  0.75534914  1
  O2-  O147  1  0.06809470  0.68062506  0.08952975  1
  O2-  O148  1  0.06955618  0.67886166  0.42777652  1
  O2-  O149  1  0.06453620  0.67654685  0.76792469  1
  O2-  O150  1  0.56873426  0.18217555  0.09900013  1
  O2-  O151  1  0.57658506  0.17763460  0.42162215  1
  O2-  O152  1  0.57139234  0.18253179  0.76363818  1
  O2-  O153  1  0.57424114  0.67705609  0.09188345  1
  O2-  O154  1  0.57104944  0.67645199  0.42303630  1
  O2-  O155  1  0.57370387  0.67900191  0.76571032  1
  O2-  O156  1  0.18233536  0.42562847  0.23540661  1
  O2-  O157  1  0.17730049  0.43485675  0.56798179  1
  O2-  O158  1  0.17586201  0.43130448  0.90068115  1
  O2-  O159  1  0.18088064  0.93295893  0.23157443  1
  O2-  O160  1  0.17667959  0.92945933  0.56969554  1
  O2-  O161  1  0.17618503  0.92652166  0.90967704  1
  O2-  O162  1  0.68183644  0.43065805  0.23184464  1
  O2-  O163  1  0.68208395  0.42582157  0.56809837  1
  O2-  O164  1  0.68041037  0.42694760  0.90887028  1
  O2-  O165  1  0.67639134  0.93031945  0.24396107  1
  O2-  O166  1  0.68476087  0.93007493  0.56488658  1
  O2-  O167  1  0.67843312  0.93021442  0.90308108  1
  O2-  O168  1  0.42487773  0.31931914  0.09956187  1
  O2-  O169  1  0.43169209  0.32083032  0.42550009  1
  O2-  O170  1  0.42411037  0.31894706  0.75406415  1
  O2-  O171  1  0.42673338  0.81801222  0.10101172  1
  O2-  O172  1  0.43615335  0.82466649  0.42292483  1
  O2-  O173  1  0.43357122  0.82033696  0.76291635  1
  O2-  O174  1  0.93319516  0.32133640  0.09215910  1
  O2-  O175  1  0.92310990  0.31649822  0.42074295  1
  O2-  O176  1  0.93118807  0.32007366  0.76678392  1
  O2-  O177  1  0.93077565  0.82314481  0.08913725  1
  O2-  O178  1  0.92519270  0.82172737  0.42973358  1
  O2-  O179  1  0.92657908  0.82146251  0.75948625  1
  O2-  O180  1  0.32410840  0.07099871  0.23340710  1
  O2-  O181  1  0.31992725  0.06914157  0.57186381  1
  O2-  O182  1  0.31739139  0.06924337  0.91040026  1
  O2-  O183  1  0.32528719  0.56713897  0.23414990  1
  O2-  O184  1  0.32253506  0.57119945  0.58006422  1
  O2-  O185  1  0.31471362  0.57896648  0.90923823  1
  O2-  O186  1  0.81963031  0.07484069  0.24444881  1
  O2-  O187  1  0.82148700  0.07389982  0.57515649  1
  O2-  O188  1  0.82688909  0.06956906  0.90231561  1
  O2-  O189  1  0.81823361  0.57278182  0.24580595  1
  O2-  O190  1  0.82047690  0.56794661  0.57512921  1
  O2-  O191  1  0.82392448  0.56769021  0.90104799  1
  O2-  O192  1  0.04094066  0.09207567  0.26993971  1
  O2-  O193  1  0.04695147  0.08413923  0.60199851  1
  O2-  O194  1  0.04183472  0.08450780  0.93713662  1
  O2-  O195  1  0.04126383  0.58030609  0.26087709  1
  O2-  O196  1  0.03299035  0.58787968  0.59636586  1
  O2-  O197  1  0.03670092  0.58570456  0.94112949  1
  O2-  O198  1  0.54631662  0.08536578  0.26953602  1
  O2-  O199  1  0.53976632  0.08568825  0.59606044  1
  O2-  O200  1  0.53949667  0.08412553  0.93304217  1
  O2-  O201  1  0.54152194  0.58445807  0.27094277  1
  O2-  O202  1  0.54583993  0.57591875  0.60153315  1
  O2-  O203  1  0.55279071  0.58401475  0.93870171  1
  O2-  O204  1  0.16523858  0.20739546  0.27336596  1
  O2-  O205  1  0.16819033  0.20252340  0.60604576  1
  O2-  O206  1  0.16189679  0.20185951  0.93700784  1
  O2-  O207  1  0.17327142  0.70428249  0.26158316  1
  O2-  O208  1  0.16772193  0.70359493  0.60028309  1
  O2-  O209  1  0.15849391  0.70522281  0.93615584  1
  O2-  O210  1  0.66371435  0.20769588  0.26840806  1
  O2-  O211  1  0.66598320  0.21207989  0.59552457  1
  O2-  O212  1  0.67246301  0.20532184  0.93358277  1
  O2-  O213  1  0.66263646  0.70287723  0.27119341  1
  O2-  O214  1  0.67138138  0.70512443  0.59783790  1
  O2-  O215  1  0.67052944  0.70229331  0.94213599  1
  O2-  O216  1  0.08724782  0.46124914  0.07082087  1
  O2-  O217  1  0.07429103  0.45230569  0.39595766  1
  O2-  O218  1  0.08047313  0.46508203  0.73266769  1
  O2-  O219  1  0.08649878  0.95387570  0.06184382  1
  O2-  O220  1  0.08012867  0.96031480  0.39762602  1
  O2-  O221  1  0.07991767  0.95657396  0.73683903  1
  O2-  O222  1  0.57896054  0.44832338  0.05643496  1
  O2-  O223  1  0.58545159  0.45651918  0.40071139  1
  O2-  O224  1  0.57938684  0.45124406  0.73537223  1
  O2-  O225  1  0.57820991  0.96115665  0.06971767  1
  O2-  O226  1  0.59032410  0.95891962  0.39798904  1
  O2-  O227  1  0.58670514  0.96279269  0.73120809  1
  O2-  O228  1  0.20678356  0.32887260  0.06563357  1
  O2-  O229  1  0.20643389  0.33286657  0.40411930  1
  O2-  O230  1  0.20458728  0.33449632  0.73407028  1
  O2-  O231  1  0.20625479  0.83351041  0.06001880  1
  O2-  O232  1  0.20242604  0.82949748  0.39487713  1
  O2-  O233  1  0.20417268  0.82652755  0.73436255  1
  O2-  O234  1  0.70615183  0.33663551  0.06190809  1
  O2-  O235  1  0.71393609  0.33196637  0.39805919  1
  O2-  O236  1  0.71606296  0.33314784  0.73441857  1
  O2-  O237  1  0.70382485  0.83261012  0.07113739  1
  O2-  O238  1  0.70552569  0.83494016  0.39405389  1
  O2-  O239  1  0.71005072  0.83184885  0.73362346  1
  O2-  O240  1  0.46019788  0.41090783  0.27212342  1
  O2-  O241  1  0.44568182  0.41773903  0.60629763  1
  O2-  O242  1  0.44104020  0.42472379  0.93396496  1
  O2-  O243  1  0.46374982  0.91264372  0.26967641  1
  O2-  O244  1  0.46326759  0.91844340  0.59650584  1
  O2-  O245  1  0.45660397  0.91630404  0.93380315  1
  O2-  O246  1  0.94546160  0.41528963  0.27085878  1
  O2-  O247  1  0.95982731  0.41497171  0.59592936  1
  O2-  O248  1  0.96323919  0.41250075  0.94023482  1
  O2-  O249  1  0.95337036  0.92387976  0.26388775  1
  O2-  O250  1  0.94705700  0.92084295  0.60992474  1
  O2-  O251  1  0.95650004  0.91300411  0.93648761  1
  O2-  O252  1  0.33697750  0.29341164  0.27441645  1
  O2-  O253  1  0.33131189  0.29258758  0.60324479  1
  O2-  O254  1  0.32880488  0.28704080  0.93142482  1
  O2-  O255  1  0.33943781  0.79734410  0.27157402  1
  O2-  O256  1  0.33128080  0.79614192  0.59763630  1
  O2-  O257  1  0.33321462  0.78706939  0.93073429  1
  O2-  O258  1  0.83817708  0.28492664  0.26613728  1
  O2-  O259  1  0.83644731  0.28685435  0.59558606  1
  O2-  O260  1  0.83906692  0.29721896  0.93978461  1
  O2-  O261  1  0.82971449  0.79302747  0.26170972  1
  O2-  O262  1  0.83704363  0.79472494  0.60498583  1
  O2-  O263  1  0.83402629  0.79518346  0.94108759  1
  O2-  O264  1  0.41088199  0.04254520  0.06209405  1
  O2-  O265  1  0.42349377  0.04342296  0.39992082  1
  O2-  O266  1  0.42135990  0.04253511  0.73619615  1
  O2-  O267  1  0.41807425  0.55819988  0.05685157  1
  O2-  O268  1  0.41765100  0.53853965  0.40427958  1
  O2-  O269  1  0.41615732  0.54886400  0.73276498  1
  O2-  O270  1  0.92036178  0.04167549  0.07045094  1
  O2-  O271  1  0.91334089  0.04803478  0.39688911  1
  O2-  O272  1  0.91795242  0.05597389  0.72641672  1
  O2-  O273  1  0.91251801  0.53332391  0.07343849  1
  O2-  O274  1  0.91537074  0.54994155  0.39470116  1
  O2-  O275  1  0.91165351  0.53881185  0.72751190  1
  O2-  O276  1  0.28867038  0.15907755  0.06364885  1
  O2-  O277  1  0.29632788  0.16816728  0.40216118  1
  O2-  O278  1  0.29150206  0.16715089  0.74008464  1
  O2-  O279  1  0.28732530  0.66414271  0.06372501  1
  O2-  O280  1  0.30189204  0.67223251  0.39868682  1
  O2-  O281  1  0.29772085  0.66756193  0.72908451  1
  O2-  O282  1  0.79736724  0.17184882  0.06908467  1
  O2-  O283  1  0.78962912  0.16133753  0.39791253  1
  O2-  O284  1  0.79314806  0.16615827  0.72688487  1
  O2-  O285  1  0.79618412  0.66689103  0.07174573  1
  O2-  O286  1  0.79442606  0.66766867  0.39639098  1
  O2-  O287  1  0.79957482  0.66464083  0.72720515  1
