# generated using pymatgen
data_Ca2Al2SiO7
_symmetry_space_group_name_H-M   'P 1'
_cell_length_a   15.45822984
_cell_length_b   15.45742728
_cell_length_c   15.28401302
_cell_angle_alpha   89.99208979
_cell_angle_beta   90.01033234
_cell_angle_gamma   89.98889194
_symmetry_Int_Tables_number   1
_chemical_formula_structural   Ca2Al2SiO7
_chemical_formula_sum   'Ca48 Al48 Si24 O168'
_cell_volume   3652.03012935
_cell_formula_units_Z   24
loop_
 _symmetry_equiv_pos_site_id
 _symmetry_equiv_pos_as_xyz
  1  'x, y, z'
loop_
 _atom_type_symbol
 _atom_type_oxidation_number
  Ca2+  2.0
  Al0+  0.0
  Si0+  0.0
  O2-  -2.0
loop_
 _atom_site_type_symbol
 _atom_site_label
 _atom_site_symmetry_multiplicity
 _atom_site_fract_x
 _atom_site_fract_y
 _atom_site_fract_z
 _atom_site_occupancy
  Ca2+  Ca0  1  0.16537298  0.07731566  0.17156413  1
  Ca2+  Ca1  1  0.17171931  0.07761611  0.50625885  1
  Ca2+  Ca2  1  0.15228416  0.07340410  0.83654237  1
  Ca2+  Ca3  1  0.15871566  0.57391152  0.16926230  1
  Ca2+  Ca4  1  0.15666299  0.58016642  0.50108129  1
  Ca2+  Ca5  1  0.16997374  0.58521826  0.84609487  1
  Ca2+  Ca6  1  0.67174657  0.07968890  0.17677597  1
  Ca2+  Ca7  1  0.67028466  0.07912606  0.50054392  1
  Ca2+  Ca8  1  0.66461501  0.08612468  0.83932214  1
  Ca2+  Ca9  1  0.67142605  0.59049916  0.17455851  1
  Ca2+  Ca10  1  0.68059539  0.59695797  0.49968197  1
  Ca2+  Ca11  1  0.67510498  0.58719571  0.83849500  1
  Ca2+  Ca12  1  0.08178710  0.33092207  0.15856717  1
  Ca2+  Ca13  1  0.08828209  0.32799144  0.49446215  1
  Ca2+  Ca14  1  0.08555873  0.32813737  0.83486296  1
  Ca2+  Ca15  1  0.08202367  0.82602183  0.16233539  1
  Ca2+  Ca16  1  0.07633026  0.82394990  0.49513567  1
  Ca2+  Ca17  1  0.08516401  0.82724201  0.82488437  1
  Ca2+  Ca18  1  0.57521413  0.32941053  0.16108517  1
  Ca2+  Ca19  1  0.57690388  0.32788129  0.49444042  1
  Ca2+  Ca20  1  0.58299045  0.32195301  0.82977904  1
  Ca2+  Ca21  1  0.58298202  0.82763539  0.16950281  1
  Ca2+  Ca22  1  0.57894667  0.83235534  0.48704535  1
  Ca2+  Ca23  1  0.58031441  0.82797489  0.83365123  1
  Ca2+  Ca24  1  0.32361741  0.41822117  0.17201317  1
  Ca2+  Ca25  1  0.32999988  0.41476407  0.49736057  1
  Ca2+  Ca26  1  0.32468112  0.42492119  0.84346523  1
  Ca2+  Ca27  1  0.33009820  0.92066629  0.17169755  1
  Ca2+  Ca28  1  0.33070356  0.91728043  0.50188516  1
  Ca2+  Ca29  1  0.31743067  0.91641227  0.83884682  1
  Ca2+  Ca30  1  0.83366235  0.42040464  0.17342862  1
  Ca2+  Ca31  1  0.83446325  0.43256164  0.50363961  1
  Ca2+  Ca32  1  0.83859966  0.42105355  0.83668615  1
  Ca2+  Ca33  1  0.82917091  0.92134465  0.17936408  1
  Ca2+  Ca34  1  0.83389506  0.91168014  0.49861135  1
  Ca2+  Ca35  1  0.83724561  0.91658913  0.83420671  1
  Ca2+  Ca36  1  0.41588545  0.16830444  0.16713234  1
  Ca2+  Ca37  1  0.41795966  0.16815667  0.49124312  1
  Ca2+  Ca38  1  0.42778367  0.16224392  0.83041593  1
  Ca2+  Ca39  1  0.42491884  0.66632271  0.16265829  1
  Ca2+  Ca40  1  0.42450889  0.67548431  0.48728901  1
  Ca2+  Ca41  1  0.41859079  0.66098098  0.83470678  1
  Ca2+  Ca42  1  0.91761431  0.17340378  0.15775068  1
  Ca2+  Ca43  1  0.92354467  0.16192602  0.49715711  1
  Ca2+  Ca44  1  0.92743009  0.17346919  0.83313053  1
  Ca2+  Ca45  1  0.92473185  0.66691206  0.16808052  1
  Ca2+  Ca46  1  0.91904878  0.67318315  0.49289353  1
  Ca2+  Ca47  1  0.93064349  0.66988930  0.82495381  1
  Al0+  Al48  1  -0.00245701  0.00127923  0.00354906  1
  Al0+  Al49  1  0.00096390  -0.00136732  0.33440565  1
  Al0+  Al50  1  -0.00149662  0.00089560  0.66316276  1
  Al0+  Al51  1  -0.00063750  0.50263484  -0.00383446  1
  Al0+  Al52  1  -0.00085658  0.49733168  0.33942032  1
  Al0+  Al53  1  -0.00017609  0.49898413  0.67048503  1
  Al0+  Al54  1  0.49928558  -0.00179224  -0.00347103  1
  Al0+  Al55  1  0.49990142  0.00023955  0.33684079  1
  Al0+  Al56  1  0.50145381  0.00041902  0.66428291  1
  Al0+  Al57  1  0.50194566  0.50006138  -0.00231607  1
  Al0+  Al58  1  0.49794843  0.49743381  0.32609438  1
  Al0+  Al59  1  0.50026363  0.49828411  0.66706577  1
  Al0+  Al60  1  0.25052813  0.24924510  -0.00228157  1
  Al0+  Al61  1  0.25055874  0.24942684  0.33716096  1
  Al0+  Al62  1  0.25190954  0.25049865  0.66585624  1
  Al0+  Al63  1  0.25152013  0.75224228  0.00630259  1
  Al0+  Al64  1  0.25086281  0.74752311  0.32538667  1
  Al0+  Al65  1  0.25064535  0.74955088  0.66632100  1
  Al0+  Al66  1  0.75004181  0.25187206  -0.00773254  1
  Al0+  Al67  1  0.75106559  0.24986606  0.33978440  1
  Al0+  Al68  1  0.74888905  0.24959286  0.66213111  1
  Al0+  Al69  1  0.74798238  0.75134358  -0.00342146  1
  Al0+  Al70  1  0.75100483  0.75171318  0.33380864  1
  Al0+  Al71  1  0.75054286  0.75071237  0.67212931  1
  Al0+  Al72  1  0.32390913  0.57199857  0.01722892  1
  Al0+  Al73  1  0.57141097  0.17766284  0.64952567  1
  Al0+  Al74  1  0.17961339  0.93050917  0.67841152  1
  Al0+  Al75  1  0.42753627  0.82438010  0.31712680  1
  Al0+  Al76  1  0.81913935  0.56963997  0.34526170  1
  Al0+  Al77  1  0.07101984  0.18025272  0.65159584  1
  Al0+  Al78  1  0.31883348  0.06960528  0.34627329  1
  Al0+  Al79  1  0.82410667  0.07337283  0.34946395  1
  Al0+  Al80  1  0.17776699  0.42920606  0.01479854  1
  Al0+  Al81  1  0.92893536  0.32348273  0.98552661  1
  Al0+  Al82  1  0.07379457  0.67736090  0.65196297  1
  Al0+  Al83  1  0.92783200  0.82085634  0.65156859  1
  Al0+  Al84  1  0.17634036  0.93075048  0.01479489  1
  Al0+  Al85  1  0.82036776  0.57161037  0.68378911  1
  Al0+  Al86  1  0.57163651  0.67912011  0.31968237  1
  Al0+  Al87  1  0.17973574  0.43003009  0.34826604  1
  Al0+  Al88  1  0.93011185  0.82200571  0.31658691  1
  Al0+  Al89  1  0.57139520  0.67864710  0.98436368  1
  Al0+  Al90  1  0.07024909  0.67494148  0.31717008  1
  Al0+  Al91  1  0.07262418  0.17737782  0.98717868  1
  Al0+  Al92  1  0.68032780  0.93002215  0.34839226  1
  Al0+  Al93  1  0.56950118  0.17882962  0.98875906  1
  Al0+  Al94  1  0.07143019  0.68211959  0.98716946  1
  Al0+  Al95  1  0.42724376  0.31940859  0.31849965  1
  Si0+  Si96  1  0.81799189  0.07228887  0.01272448  1
  Si0+  Si97  1  0.67446874  0.42647871  0.34914588  1
  Si0+  Si98  1  0.67738723  0.42709884  0.68421445  1
  Si0+  Si99  1  0.32250659  0.57079187  0.68002485  1
  Si0+  Si100  1  0.42830544  0.82212279  0.98132644  1
  Si0+  Si101  1  0.42949619  0.81992445  0.65333859  1
  Si0+  Si102  1  0.17987578  0.42735566  0.68258380  1
  Si0+  Si103  1  0.67760816  0.92894538  0.01441971  1
  Si0+  Si104  1  0.92872653  0.31961873  0.32167257  1
  Si0+  Si105  1  0.81925542  0.57222722  0.01486362  1
  Si0+  Si106  1  0.67749528  0.92993619  0.68480388  1
  Si0+  Si107  1  0.68051163  0.42723345  0.01385693  1
  Si0+  Si108  1  0.32490288  0.07087464  0.01494548  1
  Si0+  Si109  1  0.42748825  0.32257141  0.98195971  1
  Si0+  Si110  1  0.82018113  0.07266352  0.68404696  1
  Si0+  Si111  1  0.92694482  0.82293244  0.98413820  1
  Si0+  Si112  1  0.92791504  0.32237243  0.64785103  1
  Si0+  Si113  1  0.32324396  0.07297678  0.68438928  1
  Si0+  Si114  1  0.17793567  0.92395183  0.35023143  1
  Si0+  Si115  1  0.32397622  0.57164907  0.34956138  1
  Si0+  Si116  1  0.57309750  0.17929404  0.31772010  1
  Si0+  Si117  1  0.07157597  0.17923802  0.32045223  1
  Si0+  Si118  1  0.42907250  0.32239721  0.64935293  1
  Si0+  Si119  1  0.57063819  0.67830997  0.65360271  1
  O2-  O120  1  0.25004571  0.00864220  0.05804142  1
  O2-  O121  1  0.24854762  -0.00865861  0.39395833  1
  O2-  O122  1  0.25199541  0.00720536  0.72833429  1
  O2-  O123  1  0.24990108  0.50083478  0.06568983  1
  O2-  O124  1  0.25193040  0.50742225  0.39578902  1
  O2-  O125  1  0.24796628  0.50280756  0.72178948  1
  O2-  O126  1  0.74746012  0.00132624  0.05502575  1
  O2-  O127  1  0.75310011  0.00057520  0.40012522  1
  O2-  O128  1  0.74860079  0.00150060  0.72666492  1
  O2-  O129  1  0.74901979  0.49998822  0.05691468  1
  O2-  O130  1  0.73954783  0.49903615  0.39247535  1
  O2-  O131  1  0.74573718  0.49537065  0.72985412  1
  O2-  O132  1  -0.00508567  0.24452280  0.27935983  1
  O2-  O133  1  -0.00189163  0.25577299  0.60285188  1
  O2-  O134  1  0.00455493  0.25376708  0.93752930  1
  O2-  O135  1  0.00298222  0.75124865  0.26670120  1
  O2-  O136  1  -0.00070425  0.74741463  0.60339141  1
  O2-  O137  1  -0.00121177  0.75832125  0.93954051  1
  O2-  O138  1  0.50514691  0.24767834  0.27252273  1
  O2-  O139  1  0.49585224  0.25193133  0.60523227  1
  O2-  O140  1  0.49404182  0.25104841  0.93856731  1
  O2-  O141  1  0.49806914  0.74947297  0.26933097  1
  O2-  O142  1  0.50034595  0.74899176  0.61116766  1
  O2-  O143  1  0.49334076  0.74939797  0.93679453  1
  O2-  O144  1  0.06798705  0.17586383  0.10100329  1
  O2-  O145  1  0.07243986  0.18209501  0.42585671  1
  O2-  O146  1  0.06869960  0.18112618  0.76448996  1
  O2-  O147  1  0.06609732  0.67929081  0.09956853  1
  O2-  O148  1  0.06690633  0.67498083  0.43084467  1
  O2-  O149  1  0.07613865  0.67987703  0.76585719  1
  O2-  O150  1  0.57061081  0.18079907  0.10139824  1
  O2-  O151  1  0.57205516  0.18131147  0.42346888  1
  O2-  O152  1  0.57002227  0.17815557  0.76314738  1
  O2-  O153  1  0.57578091  0.68239202  0.09648689  1
  O2-  O154  1  0.57020121  0.68078933  0.43422841  1
  O2-  O155  1  0.56857333  0.67890554  0.75884651  1
  O2-  O156  1  0.17866191  0.42726998  0.23572146  1
  O2-  O157  1  0.18202761  0.42478065  0.57749760  1
  O2-  O158  1  0.18019115  0.43063514  0.90053841  1
  O2-  O159  1  0.17633949  0.92851684  0.24459677  1
  O2-  O160  1  0.18503908  0.93072045  0.56574297  1
  O2-  O161  1  0.17659725  0.93078955  0.90112549  1
  O2-  O162  1  0.67832938  0.42189465  0.24342567  1
  O2-  O163  1  0.67582228  0.42815615  0.57882002  1
  O2-  O164  1  0.68174860  0.42654852  0.90863071  1
  O2-  O165  1  0.68055723  0.93310560  0.23421432  1
  O2-  O166  1  0.67472565  0.92926698  0.58043838  1
  O2-  O167  1  0.67773701  0.92901302  0.90883210  1
  O2-  O168  1  0.42921363  0.32225679  0.08732106  1
  O2-  O169  1  0.42869384  0.31729803  0.43199798  1
  O2-  O170  1  0.43061176  0.32402511  0.75486101  1
  O2-  O171  1  0.43269184  0.82727115  0.08602855  1
  O2-  O172  1  0.42910453  0.82236031  0.43192077  1
  O2-  O173  1  0.43013944  0.81949335  0.75844701  1
  O2-  O174  1  0.92385878  0.31989467  0.09939774  1
  O2-  O175  1  0.93094601  0.32102345  0.42673386  1
  O2-  O176  1  0.92793384  0.32091695  0.75343078  1
  O2-  O177  1  0.92401425  0.82151994  0.08918828  1
  O2-  O178  1  0.93066870  0.82031854  0.43008905  1
  O2-  O179  1  0.92872794  0.82032759  0.76576232  1
  O2-  O180  1  0.31514305  0.07194777  0.23299262  1
  O2-  O181  1  0.32400273  0.07187387  0.57889166  1
  O2-  O182  1  0.33147013  0.06563817  0.90944304  1
  O2-  O183  1  0.32708302  0.56728883  0.24474455  1
  O2-  O184  1  0.32786672  0.56930929  0.57541744  1
  O2-  O185  1  0.32326099  0.56916130  0.90222324  1
  O2-  O186  1  0.82008661  0.07767119  0.23534688  1
  O2-  O187  1  0.81900475  0.07330757  0.57943350  1
  O2-  O188  1  0.81730163  0.07110315  0.90735680  1
  O2-  O189  1  0.81970416  0.56569129  0.23185588  1
  O2-  O190  1  0.81747597  0.57192698  0.57075905  1
  O2-  O191  1  0.81678948  0.57204998  0.90967775  1
  O2-  O192  1  0.05037570  0.08525471  0.27554098  1
  O2-  O193  1  0.03870283  0.08511602  0.59677478  1
  O2-  O194  1  0.03500781  0.08176793  0.93297062  1
  O2-  O195  1  0.03485488  0.57700257  0.26684122  1
  O2-  O196  1  0.04710749  0.57643922  0.60419330  1
  O2-  O197  1  0.03959834  0.58696555  0.93113944  1
  O2-  O198  1  0.54712316  0.08580458  0.27339314  1
  O2-  O199  1  0.54151938  0.08083916  0.59613118  1
  O2-  O200  1  0.54067245  0.08217112  0.93240025  1
  O2-  O201  1  0.54728620  0.57971284  0.26696011  1
  O2-  O202  1  0.54481282  0.58569292  0.60758942  1
  O2-  O203  1  0.54592334  0.58072067  0.92953839  1
  O2-  O204  1  0.16059390  0.21272103  0.27286697  1
  O2-  O205  1  0.16967672  0.20908875  0.60009801  1
  O2-  O206  1  0.17270003  0.19774786  0.93348393  1
  O2-  O207  1  0.17084434  0.69486991  0.26639657  1
  O2-  O208  1  0.17225560  0.70511349  0.59851568  1
  O2-  O209  1  0.17071837  0.71025892  0.93716229  1
  O2-  O210  1  0.66773949  0.20518051  0.27386574  1
  O2-  O211  1  0.66740862  0.20865227  0.59535708  1
  O2-  O212  1  0.66349004  0.21169921  0.93045973  1
  O2-  O213  1  0.66889376  0.70957707  0.26658517  1
  O2-  O214  1  0.66271026  0.70792924  0.60954742  1
  O2-  O215  1  0.66533156  0.71534742  0.92715198  1
  O2-  O216  1  0.07791312  0.45782580  0.06549148  1
  O2-  O217  1  0.08363710  0.45709966  0.40542862  1
  O2-  O218  1  0.08625534  0.44839765  0.72869737  1
  O2-  O219  1  0.07986664  0.96068838  0.07018858  1
  O2-  O220  1  0.08565726  0.95186286  0.39703910  1
  O2-  O221  1  0.08189055  0.96116790  0.73097980  1
  O2-  O222  1  0.58745754  0.45164476  0.05956527  1
  O2-  O223  1  0.57871853  0.44707345  0.39253449  1
  O2-  O224  1  0.58344839  0.45205848  0.73116491  1
  O2-  O225  1  0.58546639  0.95603840  0.06050933  1
  O2-  O226  1  0.58268763  0.95900497  0.40311498  1
  O2-  O227  1  0.58567757  0.95889149  0.73302789  1
  O2-  O228  1  0.20415894  0.32819998  0.06457299  1
  O2-  O229  1  0.21526403  0.33550304  0.40413530  1
  O2-  O230  1  0.21249453  0.33725444  0.73142951  1
  O2-  O231  1  0.20970053  0.83660682  0.07051362  1
  O2-  O232  1  0.20256226  0.82880632  0.39321148  1
  O2-  O233  1  0.21375324  0.83433038  0.73315925  1
  O2-  O234  1  0.70994609  0.33608468  0.06192168  1
  O2-  O235  1  0.70320357  0.33552387  0.39931542  1
  O2-  O236  1  0.70318009  0.33235299  0.72877797  1
  O2-  O237  1  0.70688052  0.83757850  0.06132101  1
  O2-  O238  1  0.70700645  0.83183170  0.40262650  1
  O2-  O239  1  0.70493594  0.83871540  0.73430802  1
  O2-  O240  1  0.45446447  0.41479584  0.26153473  1
  O2-  O241  1  0.45702694  0.41508340  0.60156371  1
  O2-  O242  1  0.45749363  0.41406635  0.93401678  1
  O2-  O243  1  0.45821368  0.92248918  0.26503491  1
  O2-  O244  1  0.45755140  0.91167903  0.60644436  1
  O2-  O245  1  0.45940597  0.91241337  0.93067394  1
  O2-  O246  1  0.95944943  0.40933438  0.27314534  1
  O2-  O247  1  0.95254284  0.41700312  0.60423378  1
  O2-  O248  1  0.95412066  0.42143644  0.93084996  1
  O2-  O249  1  0.95604646  0.92203997  0.26447930  1
  O2-  O250  1  0.95301185  0.91962730  0.59948947  1
  O2-  O251  1  0.94844355  0.91846194  0.94049066  1
  O2-  O252  1  0.33236879  0.28354624  0.26480641  1
  O2-  O253  1  0.33543930  0.29818535  0.60332907  1
  O2-  O254  1  0.33370787  0.30023518  0.93506667  1
  O2-  O255  1  0.32944394  0.79957441  0.26321061  1
  O2-  O256  1  0.33906880  0.79200315  0.60450115  1
  O2-  O257  1  0.33363961  0.79917404  0.93689681  1
  O2-  O258  1  0.83493179  0.29619210  0.27528666  1
  O2-  O259  1  0.83425679  0.29708317  0.60248740  1
  O2-  O260  1  0.83344783  0.29170185  0.92746612  1
  O2-  O261  1  0.83138047  0.79427711  0.26508422  1
  O2-  O262  1  0.82755808  0.79269244  0.60193074  1
  O2-  O263  1  0.83434224  0.79579569  0.93621150  1
  O2-  O264  1  0.41576718  0.03895253  0.06408134  1
  O2-  O265  1  0.41657111  0.04457379  0.40102637  1
  O2-  O266  1  0.41678260  0.04350121  0.72950886  1
  O2-  O267  1  0.42374721  0.54226337  0.06668690  1
  O2-  O268  1  0.41644763  0.54130613  0.39703000  1
  O2-  O269  1  0.41318096  0.53976700  0.72997732  1
  O2-  O270  1  0.90864633  0.04639076  0.06253872  1
  O2-  O271  1  0.92311929  0.04575546  0.40178640  1
  O2-  O272  1  0.91173177  0.04414473  0.73140280  1
  O2-  O273  1  0.91136655  0.54558805  0.06060344  1
  O2-  O274  1  0.91155563  0.53308592  0.40323595  1
  O2-  O275  1  0.91713398  0.53973297  0.73780889  1
  O2-  O276  1  0.30722447  0.16770137  0.05643897  1
  O2-  O277  1  0.28539527  0.16354292  0.40409980  1
  O2-  O278  1  0.30282912  0.16849662  0.72884783  1
  O2-  O279  1  0.30323343  0.67244102  0.06721913  1
  O2-  O280  1  0.30372995  0.66803333  0.39238440  1
  O2-  O281  1  0.29852802  0.66318110  0.72822903  1
  O2-  O282  1  0.78904804  0.16472825  0.05810384  1
  O2-  O283  1  0.79585420  0.17074505  0.40607653  1
  O2-  O284  1  0.79112559  0.16507231  0.73024438  1
  O2-  O285  1  0.78793656  0.66393123  0.06040877  1
  O2-  O286  1  0.79046071  0.66627561  0.39997176  1
  O2-  O287  1  0.78736309  0.66679490  0.73999953  1
