# generated using pymatgen
data_Ca2Al2SiO7
_symmetry_space_group_name_H-M   'P 1'
_cell_length_a   15.46509403
_cell_length_b   15.46487430
_cell_length_c   15.28903533
_cell_angle_alpha   89.99876931
_cell_angle_beta   90.00926605
_cell_angle_gamma   89.97998271
_symmetry_Int_Tables_number   1
_chemical_formula_structural   Ca2Al2SiO7
_chemical_formula_sum   'Ca48 Al48 Si24 O168'
_cell_volume   3656.61310389
_cell_formula_units_Z   24
loop_
 _symmetry_equiv_pos_site_id
 _symmetry_equiv_pos_as_xyz
  1  'x, y, z'
loop_
 _atom_type_symbol
 _atom_type_oxidation_number
  Ca2+  2.0
  Al0+  0.0
  Si0+  0.0
  O2-  -2.0
loop_
 _atom_site_type_symbol
 _atom_site_label
 _atom_site_symmetry_multiplicity
 _atom_site_fract_x
 _atom_site_fract_y
 _atom_site_fract_z
 _atom_site_occupancy
  Ca2+  Ca0  1  0.16845232  0.08497306  0.17213890  1
  Ca2+  Ca1  1  0.16866712  0.09276931  0.50204194  1
  Ca2+  Ca2  1  0.16017446  0.08077370  0.84028818  1
  Ca2+  Ca3  1  0.17739822  0.57734751  0.17626003  1
  Ca2+  Ca4  1  0.17798683  0.57899497  0.51278726  1
  Ca2+  Ca5  1  0.16588832  0.57813625  0.83064834  1
  Ca2+  Ca6  1  0.65916841  0.07968844  0.17609212  1
  Ca2+  Ca7  1  0.65576556  0.07863317  0.50396930  1
  Ca2+  Ca8  1  0.66578860  0.08935023  0.83703799  1
  Ca2+  Ca9  1  0.65989503  0.57723838  0.16528034  1
  Ca2+  Ca10  1  0.67135694  0.57614063  0.51347425  1
  Ca2+  Ca11  1  0.66293471  0.57306816  0.83139644  1
  Ca2+  Ca12  1  0.08714576  0.31978718  0.16341771  1
  Ca2+  Ca13  1  0.08472448  0.33231190  0.50129695  1
  Ca2+  Ca14  1  0.08205421  0.32537296  0.82133879  1
  Ca2+  Ca15  1  0.07832781  0.83917231  0.16356138  1
  Ca2+  Ca16  1  0.07235250  0.82769264  0.50045038  1
  Ca2+  Ca17  1  0.08023323  0.82834803  0.82316231  1
  Ca2+  Ca18  1  0.57206555  0.32824842  0.15781382  1
  Ca2+  Ca19  1  0.57528716  0.33169827  0.49676297  1
  Ca2+  Ca20  1  0.57802082  0.33402946  0.82615702  1
  Ca2+  Ca21  1  0.58364644  0.82866366  0.16335446  1
  Ca2+  Ca22  1  0.58714326  0.82664826  0.49825114  1
  Ca2+  Ca23  1  0.58551971  0.81888436  0.82827684  1
  Ca2+  Ca24  1  0.34114671  0.41728562  0.17182254  1
  Ca2+  Ca25  1  0.33478739  0.42038631  0.50815525  1
  Ca2+  Ca26  1  0.33772531  0.41485448  0.82826749  1
  Ca2+  Ca27  1  0.32621703  0.92550036  0.17449337  1
  Ca2+  Ca28  1  0.33666378  0.92953819  0.50411973  1
  Ca2+  Ca29  1  0.32426185  0.92062552  0.83997266  1
  Ca2+  Ca30  1  0.82277496  0.41374911  0.16787955  1
  Ca2+  Ca31  1  0.82833591  0.41923352  0.51578757  1
  Ca2+  Ca32  1  0.82261301  0.41044926  0.83258570  1
  Ca2+  Ca33  1  0.82631770  0.91876824  0.17633643  1
  Ca2+  Ca34  1  0.83441588  0.91397447  0.50138718  1
  Ca2+  Ca35  1  0.83636777  0.91743509  0.83405923  1
  Ca2+  Ca36  1  0.42163342  0.17297414  0.16387291  1
  Ca2+  Ca37  1  0.42131271  0.17861335  0.49405501  1
  Ca2+  Ca38  1  0.42682118  0.17878388  0.82744038  1
  Ca2+  Ca39  1  0.41994750  0.66579783  0.16146298  1
  Ca2+  Ca40  1  0.42051158  0.65604442  0.50002258  1
  Ca2+  Ca41  1  0.42558167  0.66184029  0.82690254  1
  Ca2+  Ca42  1  0.92821345  0.16163645  0.16499634  1
  Ca2+  Ca43  1  0.92738813  0.17247267  0.50230916  1
  Ca2+  Ca44  1  0.92713026  0.17158448  0.82537369  1
  Ca2+  Ca45  1  0.91488210  0.67426746  0.16623931  1
  Ca2+  Ca46  1  0.91557349  0.67036686  0.50033629  1
  Ca2+  Ca47  1  0.91943285  0.67259499  0.81870611  1
  Al0+  Al48  1  -0.00138526  -0.00073775  0.00152900  1
  Al0+  Al49  1  -0.00252138  -0.00151498  0.32681854  1
  Al0+  Al50  1  -0.00065175  -0.00031513  0.65940692  1
  Al0+  Al51  1  0.00025063  0.50178628  0.00519949  1
  Al0+  Al52  1  -0.00068177  0.50113334  0.33070575  1
  Al0+  Al53  1  0.00225365  0.50103567  0.66724654  1
  Al0+  Al54  1  0.49849569  -0.00005670  -0.00210754  1
  Al0+  Al55  1  0.49791493  -0.00278593  0.33942890  1
  Al0+  Al56  1  0.49989723  -0.00135759  0.67003760  1
  Al0+  Al57  1  0.50096653  0.50098378  -0.00252963  1
  Al0+  Al58  1  0.50127428  0.49964086  0.33344545  1
  Al0+  Al59  1  0.50083284  0.50088086  0.66617910  1
  Al0+  Al60  1  0.25034667  0.24995533  -0.00769190  1
  Al0+  Al61  1  0.24935056  0.25024484  0.32899866  1
  Al0+  Al62  1  0.25417991  0.25027276  0.66534909  1
  Al0+  Al63  1  0.24763010  0.75077217  0.00656942  1
  Al0+  Al64  1  0.25013276  0.74870182  0.33803289  1
  Al0+  Al65  1  0.25033541  0.75304335  0.66720485  1
  Al0+  Al66  1  0.75140545  0.25028523  0.00623952  1
  Al0+  Al67  1  0.75133567  0.24757887  0.33210159  1
  Al0+  Al68  1  0.75248774  0.24573176  0.66417686  1
  Al0+  Al69  1  0.75059464  0.75124167  -0.00254659  1
  Al0+  Al70  1  0.75001455  0.75059707  0.33181191  1
  Al0+  Al71  1  0.74790741  0.75089839  0.66348425  1
  Al0+  Al72  1  0.92789443  0.82067305  0.65137976  1
  Al0+  Al73  1  0.42954801  0.32238617  0.98220723  1
  Al0+  Al74  1  0.57340470  0.17676068  0.98595606  1
  Al0+  Al75  1  0.92927867  0.32255782  0.65424296  1
  Al0+  Al76  1  0.32236122  0.57043126  0.34705738  1
  Al0+  Al77  1  0.07391952  0.67763083  0.65248251  1
  Al0+  Al78  1  0.67882294  0.92923154  0.34776327  1
  Al0+  Al79  1  0.06916670  0.18126095  0.31898368  1
  Al0+  Al80  1  0.56855108  0.67999033  0.65190489  1
  Al0+  Al81  1  0.57077723  0.17559025  0.31898929  1
  Al0+  Al82  1  0.31844700  0.07119478  0.34726096  1
  Al0+  Al83  1  0.32167769  0.57340633  0.68394804  1
  Al0+  Al84  1  0.82214666  0.57337558  0.68042740  1
  Al0+  Al85  1  0.68062705  0.42606251  0.68034868  1
  Al0+  Al86  1  0.06869274  0.17919779  0.98613592  1
  Al0+  Al87  1  0.43073122  0.32218200  0.31711389  1
  Al0+  Al88  1  0.92952299  0.81809734  0.31701061  1
  Al0+  Al89  1  0.67886121  0.42971579  0.01513920  1
  Al0+  Al90  1  0.18002681  0.42740853  0.68182417  1
  Al0+  Al91  1  0.57043246  0.68146274  0.98640617  1
  Al0+  Al92  1  0.07329671  0.17885656  0.65206501  1
  Al0+  Al93  1  0.57326860  0.17611786  0.65176226  1
  Al0+  Al94  1  0.17777944  0.92942888  0.01433950  1
  Al0+  Al95  1  0.43210523  0.32159369  0.64968904  1
  Si0+  Si96  1  0.42656515  0.82104524  0.31948989  1
  Si0+  Si97  1  0.32295712  0.07127485  0.68390542  1
  Si0+  Si98  1  0.42449157  0.82174956  0.98532661  1
  Si0+  Si99  1  0.82095809  0.07027086  0.01558319  1
  Si0+  Si100  1  0.31986584  0.57016564  0.01480231  1
  Si0+  Si101  1  0.68069481  0.42803394  0.34725790  1
  Si0+  Si102  1  0.57034833  0.68029484  0.31825623  1
  Si0+  Si103  1  0.92617265  0.32577533  0.31525368  1
  Si0+  Si104  1  0.82263150  0.57488036  0.01817614  1
  Si0+  Si105  1  0.07373418  0.67751751  0.31508753  1
  Si0+  Si106  1  0.17703874  0.42763344  0.01575526  1
  Si0+  Si107  1  0.82354941  0.07145356  0.35152469  1
  Si0+  Si108  1  0.93010867  0.81955532  0.98497022  1
  Si0+  Si109  1  0.07217754  0.67837754  0.98724790  1
  Si0+  Si110  1  0.92844010  0.32486604  0.98577121  1
  Si0+  Si111  1  0.17494881  0.92778648  0.35204978  1
  Si0+  Si112  1  0.82310133  0.06803499  0.68160394  1
  Si0+  Si113  1  0.67790167  0.92900225  0.68417627  1
  Si0+  Si114  1  0.67909860  0.92839371  0.01376927  1
  Si0+  Si115  1  0.32126664  0.07261484  0.01630094  1
  Si0+  Si116  1  0.82010943  0.57108137  0.34634620  1
  Si0+  Si117  1  0.42720493  0.82325354  0.65043352  1
  Si0+  Si118  1  0.17682772  0.42820292  0.34792898  1
  Si0+  Si119  1  0.17807817  0.93263998  0.68003537  1
  O2-  O120  1  0.25225955  0.00394204  0.06108052  1
  O2-  O121  1  0.24226137  -0.00242365  0.39590046  1
  O2-  O122  1  0.24707592  0.00424891  0.72472754  1
  O2-  O123  1  0.25062971  0.49707025  0.05721319  1
  O2-  O124  1  0.24533510  0.49733507  0.39061829  1
  O2-  O125  1  0.24936006  0.50168228  0.73405962  1
  O2-  O126  1  0.74338080  0.00514539  0.05651240  1
  O2-  O127  1  0.74914476  0.00816969  0.39464497  1
  O2-  O128  1  0.74905276  0.00029191  0.72534320  1
  O2-  O129  1  0.75464423  0.50498816  0.06203000  1
  O2-  O130  1  0.75675285  0.49396766  0.38812443  1
  O2-  O131  1  0.75441788  0.49738154  0.73046399  1
  O2-  O132  1  -0.00499240  0.25672301  0.27152858  1
  O2-  O133  1  0.00583506  0.25573228  0.60374034  1
  O2-  O134  1  -0.00215013  0.25754875  0.94133797  1
  O2-  O135  1  0.00661732  0.74672400  0.26843444  1
  O2-  O136  1  -0.00354806  0.74446437  0.60321026  1
  O2-  O137  1  0.00004894  0.74768307  0.94441053  1
  O2-  O138  1  0.50241810  0.24962620  0.26740190  1
  O2-  O139  1  0.50554270  0.25064577  0.60112544  1
  O2-  O140  1  0.50470472  0.25122600  0.93604513  1
  O2-  O141  1  0.49667579  0.74914488  0.27651384  1
  O2-  O142  1  0.49130462  0.75149158  0.60452781  1
  O2-  O143  1  0.49443529  0.75538192  0.94045073  1
  O2-  O144  1  0.06723189  0.17838883  0.09942066  1
  O2-  O145  1  0.06817837  0.18222169  0.43132947  1
  O2-  O146  1  0.06787215  0.17441653  0.76574072  1
  O2-  O147  1  0.07174662  0.67943744  0.09254845  1
  O2-  O148  1  0.07224253  0.67712352  0.41977567  1
  O2-  O149  1  0.07527034  0.68433875  0.76693570  1
  O2-  O150  1  0.56989194  0.17422277  0.09934620  1
  O2-  O151  1  0.56862667  0.17708028  0.43180148  1
  O2-  O152  1  0.57004651  0.17427933  0.76539208  1
  O2-  O153  1  0.56896408  0.68343617  0.10037697  1
  O2-  O154  1  0.57167148  0.68089922  0.42281824  1
  O2-  O155  1  0.56924795  0.68288500  0.76511253  1
  O2-  O156  1  0.17590769  0.43057113  0.24151588  1
  O2-  O157  1  0.18277348  0.42727648  0.56799189  1
  O2-  O158  1  0.17121378  0.43029280  0.91181136  1
  O2-  O159  1  0.17716842  0.92793886  0.24588414  1
  O2-  O160  1  0.17921267  0.93315017  0.57517654  1
  O2-  O161  1  0.17792949  0.92869603  0.90108106  1
  O2-  O162  1  0.67972388  0.43179942  0.24176814  1
  O2-  O163  1  0.68126642  0.42887398  0.56616547  1
  O2-  O164  1  0.68019181  0.42940283  0.90290597  1
  O2-  O165  1  0.68082061  0.92655156  0.23380262  1
  O2-  O166  1  0.67619697  0.92895595  0.57926627  1
  O2-  O167  1  0.68352765  0.92449986  0.90904239  1
  O2-  O168  1  0.42911513  0.32215523  0.09601471  1
  O2-  O169  1  0.43253623  0.32483841  0.42975902  1
  O2-  O170  1  0.43242241  0.31922996  0.76314123  1
  O2-  O171  1  0.42482909  0.82031003  0.09132729  1
  O2-  O172  1  0.42714410  0.82189967  0.42407539  1
  O2-  O173  1  0.43000297  0.82550747  0.75632913  1
  O2-  O174  1  0.93009088  0.32376588  0.09180578  1
  O2-  O175  1  0.92616757  0.32841642  0.42013256  1
  O2-  O176  1  0.92695137  0.31595521  0.76808505  1
  O2-  O177  1  0.92861138  0.81887347  0.09014855  1
  O2-  O178  1  0.92836067  0.81488035  0.42915630  1
  O2-  O179  1  0.93160458  0.82399066  0.76566235  1
  O2-  O180  1  0.31737158  0.06770004  0.23380338  1
  O2-  O181  1  0.32484404  0.06808212  0.57886384  1
  O2-  O182  1  0.32079793  0.06891676  0.91076906  1
  O2-  O183  1  0.32183484  0.57137773  0.23297864  1
  O2-  O184  1  0.32077718  0.57195652  0.57033067  1
  O2-  O185  1  0.31768764  0.57430753  0.91068697  1
  O2-  O186  1  0.82554128  0.06759192  0.24533464  1
  O2-  O187  1  0.82655963  0.06488299  0.57703237  1
  O2-  O188  1  0.82501695  0.06659546  0.91064078  1
  O2-  O189  1  0.81783257  0.57258548  0.24079099  1
  O2-  O190  1  0.81688161  0.57433560  0.56610634  1
  O2-  O191  1  0.82492533  0.57802378  0.91373011  1
  O2-  O192  1  0.03727298  0.08469100  0.26445209  1
  O2-  O193  1  0.03913947  0.08396531  0.59623812  1
  O2-  O194  1  0.03367346  0.08287674  0.93401255  1
  O2-  O195  1  0.04678567  0.58456180  0.26696000  1
  O2-  O196  1  0.05393061  0.57805605  0.60041725  1
  O2-  O197  1  0.04657516  0.58540785  0.94190007  1
  O2-  O198  1  0.53995086  0.07585808  0.26925756  1
  O2-  O199  1  0.53995685  0.07750300  0.60189983  1
  O2-  O200  1  0.54618170  0.07750775  0.93285526  1
  O2-  O201  1  0.54323253  0.58859761  0.27042662  1
  O2-  O202  1  0.54098195  0.58396206  0.59687445  1
  O2-  O203  1  0.54029523  0.58593501  0.93289666  1
  O2-  O204  1  0.16464854  0.21097862  0.26195172  1
  O2-  O205  1  0.17332318  0.20176542  0.60227281  1
  O2-  O206  1  0.16588682  0.20413248  0.93248141  1
  O2-  O207  1  0.16848019  0.70241872  0.27014701  1
  O2-  O208  1  0.16970040  0.71354065  0.59843145  1
  O2-  O209  1  0.16339202  0.70818063  0.94093067  1
  O2-  O210  1  0.67313631  0.19650314  0.26991106  1
  O2-  O211  1  0.67438541  0.19323627  0.60164791  1
  O2-  O212  1  0.67580524  0.20015980  0.93962073  1
  O2-  O213  1  0.66011459  0.71138169  0.26886871  1
  O2-  O214  1  0.66277129  0.71484095  0.59651700  1
  O2-  O215  1  0.66607444  0.71507745  0.93296389  1
  O2-  O216  1  0.08718314  0.45707664  0.06775010  1
  O2-  O217  1  0.08211382  0.45328430  0.39232112  1
  O2-  O218  1  0.08072333  0.45242944  0.73533236  1
  O2-  O219  1  0.08116946  0.96031535  0.06902799  1
  O2-  O220  1  0.07963679  0.95220466  0.39362874  1
  O2-  O221  1  0.08549492  0.95949678  0.72706462  1
  O2-  O222  1  0.58325634  0.46525182  0.06964932  1
  O2-  O223  1  0.59144087  0.46180959  0.39465007  1
  O2-  O224  1  0.58416118  0.46016197  0.73286397  1
  O2-  O225  1  0.58381972  0.94840688  0.05855758  1
  O2-  O226  1  0.58142994  0.95216827  0.40323737  1
  O2-  O227  1  0.58655163  0.95483057  0.73407758  1
  O2-  O228  1  0.20466524  0.33422615  0.06023771  1
  O2-  O229  1  0.20059743  0.33422465  0.39168193  1
  O2-  O230  1  0.21071379  0.32903546  0.73528832  1
  O2-  O231  1  0.20679642  0.83357175  0.07230222  1
  O2-  O232  1  0.20063656  0.83390869  0.39658054  1
  O2-  O233  1  0.20660715  0.84189063  0.72943228  1
  O2-  O234  1  0.71031571  0.33406687  0.07259614  1
  O2-  O235  1  0.70309788  0.33388522  0.39160219  1
  O2-  O236  1  0.70866495  0.32639345  0.73209551  1
  O2-  O237  1  0.71297730  0.83912720  0.06376249  1
  O2-  O238  1  0.71463878  0.83344744  0.40082985  1
  O2-  O239  1  0.70757027  0.83793846  0.73170101  1
  O2-  O240  1  0.46270322  0.42021600  0.26317342  1
  O2-  O241  1  0.45828645  0.42047661  0.59834757  1
  O2-  O242  1  0.45680192  0.42129855  0.93146809  1
  O2-  O243  1  0.45596787  0.91122477  0.27036892  1
  O2-  O244  1  0.45886956  0.91446548  0.60347864  1
  O2-  O245  1  0.44681033  0.91571306  0.93939602  1
  O2-  O246  1  0.94967341  0.41955254  0.26706126  1
  O2-  O247  1  0.95095539  0.42238715  0.60241087  1
  O2-  O248  1  0.95134572  0.42019975  0.94298860  1
  O2-  O249  1  0.95713270  0.91447405  0.26071545  1
  O2-  O250  1  0.96144064  0.91530286  0.59485511  1
  O2-  O251  1  0.95867029  0.91098019  0.93833800  1
  O2-  O252  1  0.33134886  0.29605876  0.26522244  1
  O2-  O253  1  0.33471324  0.29110213  0.59708201  1
  O2-  O254  1  0.33170632  0.29415502  0.92896853  1
  O2-  O255  1  0.33415353  0.79428419  0.27171456  1
  O2-  O256  1  0.33227005  0.80555692  0.60524836  1
  O2-  O257  1  0.33067987  0.79468646  0.94053684  1
  O2-  O258  1  0.83308198  0.29845399  0.26849344  1
  O2-  O259  1  0.83469892  0.28771890  0.59769606  1
  O2-  O260  1  0.83475127  0.29764406  0.94256811  1
  O2-  O261  1  0.83383571  0.78402414  0.26147157  1
  O2-  O262  1  0.82856941  0.79761810  0.59929139  1
  O2-  O263  1  0.83844051  0.79404173  0.93676720  1
  O2-  O264  1  0.41475541  0.04546544  0.06280706  1
  O2-  O265  1  0.41216016  0.03595962  0.40363961  1
  O2-  O266  1  0.41123475  0.03626415  0.73433819  1
  O2-  O267  1  0.41256225  0.54461141  0.06169280  1
  O2-  O268  1  0.41937532  0.54005398  0.39987106  1
  O2-  O269  1  0.42025437  0.54405930  0.73545693  1
  O2-  O270  1  0.90875615  0.03386666  0.06625456  1
  O2-  O271  1  0.91452248  0.03730933  0.39733707  1
  O2-  O272  1  0.91333834  0.03516396  0.73070309  1
  O2-  O273  1  0.91637609  0.55139035  0.06714411  1
  O2-  O274  1  0.91535327  0.55150259  0.39035229  1
  O2-  O275  1  0.92345266  0.55472756  0.73032342  1
  O2-  O276  1  0.29437379  0.16667133  0.06027827  1
  O2-  O277  1  0.28778696  0.16847761  0.39936581  1
  O2-  O278  1  0.30015686  0.16392305  0.73011735  1
  O2-  O279  1  0.29054066  0.66088862  0.06528896  1
  O2-  O280  1  0.29520979  0.66771699  0.40146679  1
  O2-  O281  1  0.29604729  0.67425392  0.73498517  1
  O2-  O282  1  0.80346955  0.16348533  0.06441804  1
  O2-  O283  1  0.80692450  0.16808836  0.39440708  1
  O2-  O284  1  0.79922538  0.15977264  0.73058096  1
  O2-  O285  1  0.79337005  0.66817442  0.06513773  1
  O2-  O286  1  0.78647037  0.66040702  0.39355546  1
  O2-  O287  1  0.78935062  0.67145047  0.73302532  1
