# generated using pymatgen
data_Ca2Al2SiO7
_symmetry_space_group_name_H-M   'P 1'
_cell_length_a   15.45785068
_cell_length_b   15.45828238
_cell_length_c   15.28452960
_cell_angle_alpha   89.99387413
_cell_angle_beta   89.99805738
_cell_angle_gamma   89.99332664
_symmetry_Int_Tables_number   1
_chemical_formula_structural   Ca2Al2SiO7
_chemical_formula_sum   'Ca48 Al48 Si24 O168'
_cell_volume   3652.26612997
_cell_formula_units_Z   24
loop_
 _symmetry_equiv_pos_site_id
 _symmetry_equiv_pos_as_xyz
  1  'x, y, z'
loop_
 _atom_type_symbol
 _atom_type_oxidation_number
  Ca2+  2.0
  Al0+  0.0
  Si0+  0.0
  O2-  -2.0
loop_
 _atom_site_type_symbol
 _atom_site_label
 _atom_site_symmetry_multiplicity
 _atom_site_fract_x
 _atom_site_fract_y
 _atom_site_fract_z
 _atom_site_occupancy
  Ca2+  Ca0  1  0.15802103  0.07639317  0.16971157  1
  Ca2+  Ca1  1  0.16047120  0.07889039  0.49836136  1
  Ca2+  Ca2  1  0.17378545  0.08002878  0.84639433  1
  Ca2+  Ca3  1  0.17584786  0.58287026  0.17510385  1
  Ca2+  Ca4  1  0.17615337  0.57291880  0.50144136  1
  Ca2+  Ca5  1  0.17702722  0.58295429  0.84073050  1
  Ca2+  Ca6  1  0.67391721  0.08504161  0.17657600  1
  Ca2+  Ca7  1  0.67559741  0.10089715  0.50261908  1
  Ca2+  Ca8  1  0.67174911  0.08923987  0.83304445  1
  Ca2+  Ca9  1  0.66458856  0.58124724  0.17586178  1
  Ca2+  Ca10  1  0.66089876  0.57108965  0.50043639  1
  Ca2+  Ca11  1  0.66113024  0.57611781  0.83724147  1
  Ca2+  Ca12  1  0.08916060  0.32496386  0.16597089  1
  Ca2+  Ca13  1  0.07214781  0.33060843  0.48780532  1
  Ca2+  Ca14  1  0.08029964  0.32545331  0.82761475  1
  Ca2+  Ca15  1  0.08266717  0.83424447  0.15853917  1
  Ca2+  Ca16  1  0.08489861  0.83335962  0.49423130  1
  Ca2+  Ca17  1  0.08823243  0.83158032  0.83835376  1
  Ca2+  Ca18  1  0.57989577  0.33289156  0.17327699  1
  Ca2+  Ca19  1  0.58020165  0.33269792  0.49535960  1
  Ca2+  Ca20  1  0.57766981  0.32862220  0.82181174  1
  Ca2+  Ca21  1  0.58454420  0.81827123  0.16116632  1
  Ca2+  Ca22  1  0.57451515  0.82674952  0.49458858  1
  Ca2+  Ca23  1  0.57500842  0.82514396  0.82735752  1
  Ca2+  Ca24  1  0.32986837  0.42532709  0.17635950  1
  Ca2+  Ca25  1  0.34407899  0.42397409  0.50107514  1
  Ca2+  Ca26  1  0.34084285  0.42603295  0.83627158  1
  Ca2+  Ca27  1  0.32157350  0.92268451  0.16969438  1
  Ca2+  Ca28  1  0.32952591  0.91442937  0.50321514  1
  Ca2+  Ca29  1  0.33191036  0.92252961  0.84206029  1
  Ca2+  Ca30  1  0.82739324  0.41432888  0.17644758  1
  Ca2+  Ca31  1  0.82310005  0.40278358  0.50345786  1
  Ca2+  Ca32  1  0.82733638  0.41001953  0.83097842  1
  Ca2+  Ca33  1  0.83671144  0.92089483  0.17366169  1
  Ca2+  Ca34  1  0.82860238  0.93101073  0.50360599  1
  Ca2+  Ca35  1  0.83449636  0.92012613  0.83717713  1
  Ca2+  Ca36  1  0.41096154  0.17351232  0.16458257  1
  Ca2+  Ca37  1  0.42848091  0.17926114  0.49127378  1
  Ca2+  Ca38  1  0.41982334  0.17145600  0.82181847  1
  Ca2+  Ca39  1  0.42348756  0.65575579  0.16495689  1
  Ca2+  Ca40  1  0.41453773  0.66555252  0.49613963  1
  Ca2+  Ca41  1  0.41303136  0.66771093  0.83009192  1
  Ca2+  Ca42  1  0.92514057  0.16855375  0.17045159  1
  Ca2+  Ca43  1  0.91468524  0.17277473  0.49246721  1
  Ca2+  Ca44  1  0.92251783  0.16754579  0.82752731  1
  Ca2+  Ca45  1  0.92651632  0.67382711  0.15445743  1
  Ca2+  Ca46  1  0.91780905  0.66963106  0.49466131  1
  Ca2+  Ca47  1  0.92343900  0.67222851  0.83450171  1
  Al0+  Al48  1  -0.00081925  0.00263086  -0.00498086  1
  Al0+  Al49  1  -0.00165257  0.00080995  0.34031637  1
  Al0+  Al50  1  -0.00118663  -0.00238673  0.67191742  1
  Al0+  Al51  1  -0.00253917  0.50044777  -0.00524078  1
  Al0+  Al52  1  0.00038618  0.50248301  0.33223057  1
  Al0+  Al53  1  0.00052461  0.49997667  0.66424552  1
  Al0+  Al54  1  0.50273229  -0.00011810  0.00548074  1
  Al0+  Al55  1  0.49910973  -0.00190391  0.32926882  1
  Al0+  Al56  1  0.50046879  -0.00315452  0.65772980  1
  Al0+  Al57  1  0.50041761  0.49790692  0.00053329  1
  Al0+  Al58  1  0.50145234  0.50059693  0.33333860  1
  Al0+  Al59  1  0.50115058  0.50024792  0.67377098  1
  Al0+  Al60  1  0.25066075  0.25273884  -0.00399567  1
  Al0+  Al61  1  0.24872701  0.24858064  0.32996131  1
  Al0+  Al62  1  0.24946775  0.24894326  0.66145968  1
  Al0+  Al63  1  0.25157883  0.75076009  0.00540313  1
  Al0+  Al64  1  0.24938145  0.75154365  0.34076565  1
  Al0+  Al65  1  0.25004918  0.74829062  0.66684953  1
  Al0+  Al66  1  0.74820722  0.24994628  0.00168842  1
  Al0+  Al67  1  0.75029913  0.25110484  0.33152185  1
  Al0+  Al68  1  0.75247861  0.25003913  0.67298565  1
  Al0+  Al69  1  0.74964098  0.74838852  -0.00952511  1
  Al0+  Al70  1  0.74851285  0.75188484  0.33186058  1
  Al0+  Al71  1  0.75153311  0.75025050  0.66644201  1
  Al0+  Al72  1  0.17645334  0.42578196  0.34751518  1
  Al0+  Al73  1  0.68158503  0.43099753  0.68161967  1
  Al0+  Al74  1  0.68203984  0.43102950  0.34636078  1
  Al0+  Al75  1  0.17889710  0.93181077  0.01488768  1
  Al0+  Al76  1  0.92913394  0.82268547  0.98450244  1
  Al0+  Al77  1  0.57211312  0.17823473  0.31660596  1
  Al0+  Al78  1  0.32053290  0.57028680  0.01496822  1
  Al0+  Al79  1  0.42740284  0.81949210  0.65349879  1
  Al0+  Al80  1  0.07114904  0.18149133  0.98514465  1
  Al0+  Al81  1  0.81889664  0.06999262  0.68281793  1
  Al0+  Al82  1  0.32444518  0.07472746  0.01393095  1
  Al0+  Al83  1  0.07467645  0.67808674  0.98560283  1
  Al0+  Al84  1  0.31945822  0.56891491  0.68231333  1
  Al0+  Al85  1  0.32120155  0.56890303  0.34989179  1
  Al0+  Al86  1  0.92865597  0.32366613  0.31763406  1
  Al0+  Al87  1  0.93145388  0.32020365  0.65386682  1
  Al0+  Al88  1  0.17935608  0.93175112  0.34853803  1
  Al0+  Al89  1  0.57190393  0.17822131  0.65318867  1
  Al0+  Al90  1  0.81751904  0.06941723  0.34635800  1
  Al0+  Al91  1  0.42865323  0.32178571  0.31680600  1
  Al0+  Al92  1  0.56987490  0.67660263  0.98473549  1
  Al0+  Al93  1  0.42821141  0.32325308  0.65213100  1
  Al0+  Al94  1  0.56913723  0.68090117  0.32094182  1
  Al0+  Al95  1  0.07029624  0.17736732  0.31946013  1
  Si0+  Si96  1  0.81961471  0.07065894  0.01568764  1
  Si0+  Si97  1  0.92897302  0.82154239  0.64962460  1
  Si0+  Si98  1  0.92442489  0.32163342  0.98240555  1
  Si0+  Si99  1  0.82054321  0.57228582  0.01344141  1
  Si0+  Si100  1  0.43015070  0.82314162  0.98562873  1
  Si0+  Si101  1  0.82510582  0.57554994  0.68483966  1
  Si0+  Si102  1  0.32205015  0.06988332  0.67792285  1
  Si0+  Si103  1  0.57209621  0.17771095  0.98553615  1
  Si0+  Si104  1  0.07222324  0.17480601  0.65006259  1
  Si0+  Si105  1  0.07127573  0.68019740  0.65043634  1
  Si0+  Si106  1  0.57280476  0.67772520  0.65051624  1
  Si0+  Si107  1  0.67580826  0.92531575  0.34959390  1
  Si0+  Si108  1  0.43024403  0.31966313  0.98443139  1
  Si0+  Si109  1  0.17960625  0.92834499  0.68338422  1
  Si0+  Si110  1  0.67652764  0.92479651  0.68364339  1
  Si0+  Si111  1  0.17447485  0.42904173  0.01416592  1
  Si0+  Si112  1  0.17551270  0.42629894  0.68320100  1
  Si0+  Si113  1  0.82306234  0.57623432  0.34786282  1
  Si0+  Si114  1  0.68015622  0.42942377  0.01679128  1
  Si0+  Si115  1  0.32479681  0.07294593  0.35155824  1
  Si0+  Si116  1  0.42399757  0.82174780  0.31426471  1
  Si0+  Si117  1  0.68000355  0.92600576  0.01427664  1
  Si0+  Si118  1  0.92972326  0.82089274  0.32148358  1
  Si0+  Si119  1  0.07165902  0.68051670  0.32010172  1
  O2-  O120  1  0.24939055  0.00572090  0.06420744  1
  O2-  O121  1  0.25474105  0.00517014  0.39635921  1
  O2-  O122  1  0.24939264  0.00152686  0.72305851  1
  O2-  O123  1  0.23928630  0.50123170  0.05836754  1
  O2-  O124  1  0.25240569  0.49297549  0.39914326  1
  O2-  O125  1  0.24803868  0.49039560  0.72866452  1
  O2-  O126  1  0.75166715  -0.00378517  0.05684424  1
  O2-  O127  1  0.73698272  0.00047967  0.39359445  1
  O2-  O128  1  0.74222187  -0.00391068  0.72889761  1
  O2-  O129  1  0.75226026  0.50004367  0.05727181  1
  O2-  O130  1  0.75930629  0.50393173  0.39282494  1
  O2-  O131  1  0.75545944  0.50749303  0.72871386  1
  O2-  O132  1  0.00508205  0.25572988  0.26868732  1
  O2-  O133  1  0.00706465  0.24684490  0.60731961  1
  O2-  O134  1  -0.00285511  0.25722197  0.93865757  1
  O2-  O135  1  -0.00292042  0.74776982  0.27850035  1
  O2-  O136  1  -0.00176594  0.74931734  0.60728332  1
  O2-  O137  1  0.00384766  0.75213156  0.93525541  1
  O2-  O138  1  0.49613846  0.24537170  0.26521911  1
  O2-  O139  1  0.49892548  0.24926458  0.60418356  1
  O2-  O140  1  0.49567956  0.24246286  0.94382565  1
  O2-  O141  1  0.49486526  0.75473197  0.27135472  1
  O2-  O142  1  0.50362520  0.74598351  0.60722792  1
  O2-  O143  1  0.49541798  0.75199023  0.93949786  1
  O2-  O144  1  0.06827031  0.18031031  0.09757147  1
  O2-  O145  1  0.06390617  0.17315810  0.43306029  1
  O2-  O146  1  0.07234178  0.17459558  0.75596371  1
  O2-  O147  1  0.07054223  0.67796277  0.09933578  1
  O2-  O148  1  0.07019614  0.68251430  0.42566744  1
  O2-  O149  1  0.07138883  0.68252659  0.75537300  1
  O2-  O150  1  0.57691884  0.18066212  0.08987885  1
  O2-  O151  1  0.57283048  0.18249533  0.42988177  1
  O2-  O152  1  0.56864090  0.17825991  0.76786157  1
  O2-  O153  1  0.57137631  0.67742647  0.09773463  1
  O2-  O154  1  0.57105044  0.68325079  0.43394386  1
  O2-  O155  1  0.57265499  0.67965977  0.75637691  1
  O2-  O156  1  0.17583891  0.43220541  0.23354928  1
  O2-  O157  1  0.17096771  0.43060601  0.57843064  1
  O2-  O158  1  0.17651915  0.42802701  0.90821705  1
  O2-  O159  1  0.17734685  0.93057689  0.23597626  1
  O2-  O160  1  0.17808666  0.92807153  0.57825723  1
  O2-  O161  1  0.18207877  0.93227583  0.90068251  1
  O2-  O162  1  0.68264559  0.43374061  0.23265367  1
  O2-  O163  1  0.68251586  0.43230445  0.56894162  1
  O2-  O164  1  0.68076648  0.42836424  0.91163367  1
  O2-  O165  1  0.68258500  0.92014108  0.24392622  1
  O2-  O166  1  0.68052756  0.91838633  0.57862087  1
  O2-  O167  1  0.67837317  0.92814541  0.90918770  1
  O2-  O168  1  0.43189849  0.32231942  0.08899208  1
  O2-  O169  1  0.43352841  0.32334730  0.43014175  1
  O2-  O170  1  0.42981017  0.32094926  0.76665165  1
  O2-  O171  1  0.43414137  0.82508974  0.09074879  1
  O2-  O172  1  0.42448707  0.82032901  0.42022837  1
  O2-  O173  1  0.42776360  0.81984737  0.76692281  1
  O2-  O174  1  0.92005060  0.32028932  0.08731719  1
  O2-  O175  1  0.92698852  0.31953082  0.43119921  1
  O2-  O176  1  0.93317678  0.31798550  0.76757839  1
  O2-  O177  1  0.92676472  0.82019915  0.09856639  1
  O2-  O178  1  0.93044233  0.81916828  0.42696142  1
  O2-  O179  1  0.92934058  0.82197744  0.75436140  1
  O2-  O180  1  0.32552791  0.06963157  0.24604313  1
  O2-  O181  1  0.32010930  0.06736246  0.57334914  1
  O2-  O182  1  0.32530946  0.07202974  0.89923071  1
  O2-  O183  1  0.31949717  0.57021329  0.23618602  1
  O2-  O184  1  0.31758180  0.57120475  0.56982481  1
  O2-  O185  1  0.32159602  0.56737663  0.90158343  1
  O2-  O186  1  0.81949704  0.06484989  0.23275384  1
  O2-  O187  1  0.81981937  0.06775033  0.57004910  1
  O2-  O188  1  0.81672666  0.07223402  0.91049202  1
  O2-  O189  1  0.82013896  0.58019246  0.24216708  1
  O2-  O190  1  0.82522382  0.58018249  0.57948082  1
  O2-  O191  1  0.81987037  0.57171553  0.90841286  1
  O2-  O192  1  0.03181382  0.08090854  0.26700518  1
  O2-  O193  1  0.04274622  0.08080460  0.60697025  1
  O2-  O194  1  0.03921692  0.08655543  0.92880594  1
  O2-  O195  1  0.04806121  0.58904891  0.27122752  1
  O2-  O196  1  0.04489349  0.58814665  0.60337747  1
  O2-  O197  1  0.04306585  0.58118300  0.92981536  1
  O2-  O198  1  0.55248367  0.07559247  0.26742599  1
  O2-  O199  1  0.55014566  0.07909826  0.59960902  1
  O2-  O200  1  0.55246558  0.08269995  0.94100073  1
  O2-  O201  1  0.53999161  0.58521379  0.26536353  1
  O2-  O202  1  0.54635086  0.58399779  0.60743348  1
  O2-  O203  1  0.53864767  0.57983916  0.93142797  1
  O2-  O204  1  0.17072155  0.19493714  0.26659690  1
  O2-  O205  1  0.16679969  0.19412177  0.60404637  1
  O2-  O206  1  0.16787317  0.21141651  0.92908440  1
  O2-  O207  1  0.16232222  0.71307443  0.27428704  1
  O2-  O208  1  0.16075714  0.71204659  0.60198457  1
  O2-  O209  1  0.17365375  0.70700171  0.93352171  1
  O2-  O210  1  0.66840967  0.21117134  0.26220005  1
  O2-  O211  1  0.67065179  0.21035513  0.60555853  1
  O2-  O212  1  0.66152893  0.21208153  0.93619403  1
  O2-  O213  1  0.66597500  0.71277123  0.26533381  1
  O2-  O214  1  0.66721034  0.70276349  0.60581047  1
  O2-  O215  1  0.66497653  0.70634779  0.92782622  1
  O2-  O216  1  0.07804295  0.44816286  0.05709048  1
  O2-  O217  1  0.07945489  0.46068904  0.40144204  1
  O2-  O218  1  0.08375516  0.45656728  0.73169818  1
  O2-  O219  1  0.07837671  0.95980323  0.06443953  1
  O2-  O220  1  0.08387408  0.96190021  0.40616777  1
  O2-  O221  1  0.08712273  0.95294230  0.73090188  1
  O2-  O222  1  0.58913214  0.45839943  0.06374382  1
  O2-  O223  1  0.58731604  0.46509183  0.40070374  1
  O2-  O224  1  0.58638924  0.46101701  0.73958028  1
  O2-  O225  1  0.58985146  0.95269412  0.06492597  1
  O2-  O226  1  0.57838676  0.94120463  0.39069456  1
  O2-  O227  1  0.58063429  0.94707117  0.72657537  1
  O2-  O228  1  0.20491124  0.33691227  0.05959511  1
  O2-  O229  1  0.19474288  0.32364330  0.39621307  1
  O2-  O230  1  0.19629597  0.32939227  0.72543341  1
  O2-  O231  1  0.20629565  0.83370558  0.06840783  1
  O2-  O232  1  0.20925181  0.83609732  0.40584553  1
  O2-  O233  1  0.20948431  0.83712096  0.72993779  1
  O2-  O234  1  0.70835759  0.33755281  0.06407096  1
  O2-  O235  1  0.71173027  0.33452516  0.39997037  1
  O2-  O236  1  0.71460807  0.33642620  0.73917045  1
  O2-  O237  1  0.70807854  0.83286812  0.05913475  1
  O2-  O238  1  0.70886885  0.83567034  0.40005679  1
  O2-  O239  1  0.70650400  0.83285097  0.73238348  1
  O2-  O240  1  0.46302571  0.41833331  0.26346127  1
  O2-  O241  1  0.46060499  0.42183882  0.60314834  1
  O2-  O242  1  0.46635508  0.40818690  0.93576723  1
  O2-  O243  1  0.44631629  0.91592651  0.26872347  1
  O2-  O244  1  0.45619395  0.91377467  0.59414260  1
  O2-  O245  1  0.45965341  0.91608942  0.93865956  1
  O2-  O246  1  0.94933167  0.42544946  0.26711424  1
  O2-  O247  1  0.95561091  0.41876803  0.60052522  1
  O2-  O248  1  0.94306694  0.41704855  0.93713973  1
  O2-  O249  1  0.96085460  0.91127923  0.27484172  1
  O2-  O250  1  0.95961483  0.91275719  0.60274814  1
  O2-  O251  1  0.95409341  0.92095434  0.93018243  1
  O2-  O252  1  0.32865027  0.29773596  0.26481164  1
  O2-  O253  1  0.32876917  0.29877051  0.59984905  1
  O2-  O254  1  0.33741085  0.30027173  0.93528360  1
  O2-  O255  1  0.33022806  0.79437257  0.27017035  1
  O2-  O256  1  0.33161421  0.78744965  0.59847770  1
  O2-  O257  1  0.33547885  0.80002058  0.94141599  1
  O2-  O258  1  0.83300323  0.29013091  0.26294778  1
  O2-  O259  1  0.83517411  0.28621504  0.60314565  1
  O2-  O260  1  0.83238972  0.28949121  0.93529955  1
  O2-  O261  1  0.83703412  0.79768017  0.27386653  1
  O2-  O262  1  0.83666786  0.79540381  0.60213686  1
  O2-  O263  1  0.83329102  0.79095961  0.92746576  1
  O2-  O264  1  0.42219562  0.04623636  0.06853843  1
  O2-  O265  1  0.41833923  0.04464348  0.39721432  1
  O2-  O266  1  0.41426227  0.04026496  0.72406938  1
  O2-  O267  1  0.41596347  0.53274492  0.06742186  1
  O2-  O268  1  0.42048095  0.54326905  0.40183449  1
  O2-  O269  1  0.41681293  0.54293904  0.73764439  1
  O2-  O270  1  0.91246427  0.04576536  0.06077594  1
  O2-  O271  1  0.90974954  0.03276061  0.40434525  1
  O2-  O272  1  0.91476739  0.03527488  0.73778846  1
  O2-  O273  1  0.91393042  0.54804669  0.06003942  1
  O2-  O274  1  0.91867500  0.55805501  0.39221743  1
  O2-  O275  1  0.91880911  0.54852703  0.73038546  1
  O2-  O276  1  0.29867779  0.17535594  0.06226022  1
  O2-  O277  1  0.30149444  0.16747118  0.39535259  1
  O2-  O278  1  0.29686123  0.16319322  0.72482992  1
  O2-  O279  1  0.29828759  0.66854618  0.06864284  1
  O2-  O280  1  0.28942531  0.66639914  0.40290541  1
  O2-  O281  1  0.28420959  0.66493746  0.73599826  1
  O2-  O282  1  0.78703880  0.16106853  0.06311194  1
  O2-  O283  1  0.78988704  0.16708524  0.39888263  1
  O2-  O284  1  0.79035081  0.16491025  0.74102522  1
  O2-  O285  1  0.79135452  0.66427160  0.05964676  1
  O2-  O286  1  0.79397319  0.66844918  0.39642197  1
  O2-  O287  1  0.80064876  0.66965336  0.73156420  1
