# generated using pymatgen
data_Ca2Al2SiO7
_symmetry_space_group_name_H-M   'P 1'
_cell_length_a   15.45617224
_cell_length_b   15.45627517
_cell_length_c   15.28276491
_cell_angle_alpha   90.00887316
_cell_angle_beta   89.99509300
_cell_angle_gamma   89.99243416
_symmetry_Int_Tables_number   1
_chemical_formula_structural   Ca2Al2SiO7
_chemical_formula_sum   'Ca48 Al48 Si24 O168'
_cell_volume   3650.97376030
_cell_formula_units_Z   24
loop_
 _symmetry_equiv_pos_site_id
 _symmetry_equiv_pos_as_xyz
  1  'x, y, z'
loop_
 _atom_type_symbol
 _atom_type_oxidation_number
  Ca2+  2.0
  Al0+  0.0
  Si0+  0.0
  O2-  -2.0
loop_
 _atom_site_type_symbol
 _atom_site_label
 _atom_site_symmetry_multiplicity
 _atom_site_fract_x
 _atom_site_fract_y
 _atom_site_fract_z
 _atom_site_occupancy
  Ca2+  Ca0  1  0.16753823  0.07759573  0.17101951  1
  Ca2+  Ca1  1  0.17794149  0.07997136  0.51068835  1
  Ca2+  Ca2  1  0.15958507  0.07415690  0.83475882  1
  Ca2+  Ca3  1  0.15933411  0.57796247  0.16303487  1
  Ca2+  Ca4  1  0.16557867  0.58443739  0.50459180  1
  Ca2+  Ca5  1  0.15888487  0.58261476  0.84021425  1
  Ca2+  Ca6  1  0.67336973  0.08034660  0.17824616  1
  Ca2+  Ca7  1  0.66777573  0.08198953  0.49611259  1
  Ca2+  Ca8  1  0.67093078  0.08265968  0.83552431  1
  Ca2+  Ca9  1  0.67222415  0.57748580  0.17326650  1
  Ca2+  Ca10  1  0.67839804  0.58053407  0.50856631  1
  Ca2+  Ca11  1  0.67410821  0.57249861  0.83621391  1
  Ca2+  Ca12  1  0.07694433  0.32510722  0.15376920  1
  Ca2+  Ca13  1  0.07919198  0.32816475  0.50152800  1
  Ca2+  Ca14  1  0.07740543  0.32816807  0.82837566  1
  Ca2+  Ca15  1  0.07897402  0.83058252  0.15971312  1
  Ca2+  Ca16  1  0.07520531  0.83402799  0.50202923  1
  Ca2+  Ca17  1  0.08641542  0.82609393  0.82433478  1
  Ca2+  Ca18  1  0.58256123  0.33005776  0.16466929  1
  Ca2+  Ca19  1  0.57883298  0.32951450  0.49263907  1
  Ca2+  Ca20  1  0.58720340  0.33755867  0.82905315  1
  Ca2+  Ca21  1  0.57224897  0.84522847  0.16689992  1
  Ca2+  Ca22  1  0.57389494  0.84143487  0.49265510  1
  Ca2+  Ca23  1  0.56919834  0.83630488  0.82823025  1
  Ca2+  Ca24  1  0.32564386  0.41127691  0.17068590  1
  Ca2+  Ca25  1  0.33533440  0.41615415  0.50364541  1
  Ca2+  Ca26  1  0.32336919  0.42157096  0.84064840  1
  Ca2+  Ca27  1  0.32925019  0.91678000  0.17109841  1
  Ca2+  Ca28  1  0.33432761  0.92473676  0.50812480  1
  Ca2+  Ca29  1  0.32400539  0.91573448  0.83477351  1
  Ca2+  Ca30  1  0.83290962  0.41947776  0.17011477  1
  Ca2+  Ca31  1  0.83235684  0.42659184  0.51067499  1
  Ca2+  Ca32  1  0.83239492  0.41309807  0.83581454  1
  Ca2+  Ca33  1  0.82923868  0.92244558  0.18203305  1
  Ca2+  Ca34  1  0.83349836  0.91426243  0.50099579  1
  Ca2+  Ca35  1  0.83844476  0.91537483  0.83398728  1
  Ca2+  Ca36  1  0.42059668  0.16314096  0.17235651  1
  Ca2+  Ca37  1  0.41916479  0.16543111  0.48896058  1
  Ca2+  Ca38  1  0.41688459  0.16555888  0.82799836  1
  Ca2+  Ca39  1  0.41723409  0.67969691  0.16183160  1
  Ca2+  Ca40  1  0.41745427  0.68088761  0.49560339  1
  Ca2+  Ca41  1  0.41220599  0.67980731  0.82906898  1
  Ca2+  Ca42  1  0.92020510  0.16848838  0.15750059  1
  Ca2+  Ca43  1  0.91974037  0.16618440  0.49852977  1
  Ca2+  Ca44  1  0.92840680  0.17582158  0.82842993  1
  Ca2+  Ca45  1  0.91619396  0.67100885  0.16598463  1
  Ca2+  Ca46  1  0.91428374  0.67083647  0.49859534  1
  Ca2+  Ca47  1  0.92761378  0.66838670  0.82383363  1
  Al0+  Al48  1  0.00079356  0.00029790  0.00213739  1
  Al0+  Al49  1  -0.00012543  -0.00176459  0.33325839  1
  Al0+  Al50  1  0.00141886  -0.00077160  0.66342123  1
  Al0+  Al51  1  -0.00103548  0.50126145  -0.00106704  1
  Al0+  Al52  1  0.00037219  0.49845479  0.33753231  1
  Al0+  Al53  1  0.00054324  0.49998107  0.66255513  1
  Al0+  Al54  1  0.49969370  0.00154298  -0.00542524  1
  Al0+  Al55  1  0.49950860  0.00186164  0.33093265  1
  Al0+  Al56  1  0.50042023  0.00231242  0.66788964  1
  Al0+  Al57  1  0.50195107  0.50066085  0.00502913  1
  Al0+  Al58  1  0.49662608  0.50053941  0.32898414  1
  Al0+  Al59  1  0.50049673  0.50080196  0.67096648  1
  Al0+  Al60  1  0.25258249  0.24920869  0.00062308  1
  Al0+  Al61  1  0.24847672  0.24908625  0.33361827  1
  Al0+  Al62  1  0.25241677  0.25114918  0.66749482  1
  Al0+  Al63  1  0.24968336  0.75230754  -0.00194626  1
  Al0+  Al64  1  0.24925147  0.74626474  0.32848146  1
  Al0+  Al65  1  0.25085919  0.75156229  0.65958397  1
  Al0+  Al66  1  0.74888531  0.25009654  0.00113369  1
  Al0+  Al67  1  0.75020989  0.24972032  0.33387760  1
  Al0+  Al68  1  0.74930736  0.24902192  0.66607325  1
  Al0+  Al69  1  0.74685071  0.74942457  0.00082247  1
  Al0+  Al70  1  0.75009321  0.74883332  0.33673783  1
  Al0+  Al71  1  0.74972585  0.74846399  0.67202164  1
  Al0+  Al72  1  0.06853100  0.68147584  0.98802326  1
  Al0+  Al73  1  0.67875989  0.92965010  0.34800368  1
  Al0+  Al74  1  0.92637087  0.82116419  0.65208983  1
  Al0+  Al75  1  0.17933545  0.92928139  0.01488391  1
  Al0+  Al76  1  0.42660939  0.32250038  0.31716312  1
  Al0+  Al77  1  0.43094123  0.82207151  0.65155484  1
  Al0+  Al78  1  0.07225370  0.67806623  0.64980602  1
  Al0+  Al79  1  0.17858907  0.42861037  0.01263509  1
  Al0+  Al80  1  0.07425385  0.17681256  0.98545414  1
  Al0+  Al81  1  0.67944659  0.42801918  0.01741280  1
  Al0+  Al82  1  0.32305871  0.07298013  0.68336056  1
  Al0+  Al83  1  0.42894561  0.82171371  0.31876208  1
  Al0+  Al84  1  0.31761766  0.06904181  0.34555484  1
  Al0+  Al85  1  0.82365574  0.57169043  0.68511253  1
  Al0+  Al86  1  0.07353572  0.17874689  0.65028485  1
  Al0+  Al87  1  0.17933204  0.92926351  0.68078452  1
  Al0+  Al88  1  0.92918068  0.81982077  0.31928948  1
  Al0+  Al89  1  0.92788891  0.32051867  0.98617786  1
  Al0+  Al90  1  0.82402197  0.07284278  0.34932553  1
  Al0+  Al91  1  0.92782331  0.31968373  0.64991053  1
  Al0+  Al92  1  0.43051983  0.82135174  0.98452756  1
  Al0+  Al93  1  0.82103515  0.56931215  0.34785068  1
  Al0+  Al94  1  0.57197188  0.18042850  0.31739213  1
  Al0+  Al95  1  0.67922743  0.42780851  0.68114137  1
  Si0+  Si96  1  0.57276756  0.67551163  0.98221428  1
  Si0+  Si97  1  0.67695851  0.92934315  0.01296332  1
  Si0+  Si98  1  0.92476418  0.82301277  0.98601775  1
  Si0+  Si99  1  0.57225541  0.67761917  0.31701293  1
  Si0+  Si100  1  0.67568290  0.42825768  0.34939997  1
  Si0+  Si101  1  0.32177201  0.57285540  0.01710764  1
  Si0+  Si102  1  0.82187461  0.57311822  0.01831599  1
  Si0+  Si103  1  0.57031290  0.67715765  0.65160469  1
  Si0+  Si104  1  0.81968540  0.06884875  0.01290026  1
  Si0+  Si105  1  0.17979334  0.42871865  0.34926553  1
  Si0+  Si106  1  0.57011679  0.18076627  0.98345588  1
  Si0+  Si107  1  0.32128841  0.57163093  0.34807486  1
  Si0+  Si108  1  0.17754878  0.92359909  0.34981416  1
  Si0+  Si109  1  0.42955796  0.32354158  0.98453144  1
  Si0+  Si110  1  0.67810526  0.92918698  0.68282290  1
  Si0+  Si111  1  0.32144217  0.57199309  0.68027268  1
  Si0+  Si112  1  0.57137465  0.17901535  0.65185304  1
  Si0+  Si113  1  0.07140519  0.67514392  0.31427041  1
  Si0+  Si114  1  0.43022159  0.32307662  0.65456743  1
  Si0+  Si115  1  0.93038207  0.32175525  0.31936753  1
  Si0+  Si116  1  0.18017093  0.42963042  0.68075811  1
  Si0+  Si117  1  0.82170036  0.07067749  0.68216572  1
  Si0+  Si118  1  0.32518792  0.07203195  0.01841685  1
  Si0+  Si119  1  0.07059577  0.17869336  0.31880390  1
  O2-  O120  1  0.25265609  0.00631144  0.06071821  1
  O2-  O121  1  0.24711155  -0.00847543  0.39326578  1
  O2-  O122  1  0.24906981  0.00311096  0.73259298  1
  O2-  O123  1  0.25438174  0.50228641  0.06123136  1
  O2-  O124  1  0.25215592  0.49898196  0.39073813  1
  O2-  O125  1  0.24755889  0.50442048  0.72293120  1
  O2-  O126  1  0.75361532  -0.00667774  0.05491233  1
  O2-  O127  1  0.75272677  -0.00053049  0.39872628  1
  O2-  O128  1  0.75352653  -0.00385480  0.72501993  1
  O2-  O129  1  0.75374584  0.50345275  0.06267567  1
  O2-  O130  1  0.74427641  0.49604888  0.39385223  1
  O2-  O131  1  0.75387573  0.49598924  0.73291478  1
  O2-  O132  1  -0.00462123  0.24557025  0.27675062  1
  O2-  O133  1  -0.00070144  0.24771610  0.59863737  1
  O2-  O134  1  0.00441720  0.25229197  0.93775931  1
  O2-  O135  1  0.00453120  0.74618206  0.27155423  1
  O2-  O136  1  -0.00282034  0.74786569  0.60191220  1
  O2-  O137  1  -0.00675246  0.75516515  0.94161787  1
  O2-  O138  1  0.50138235  0.25386500  0.26652099  1
  O2-  O139  1  0.50037691  0.25149322  0.61300943  1
  O2-  O140  1  0.50026601  0.25287250  0.94105579  1
  O2-  O141  1  0.50574761  0.74844371  0.27207821  1
  O2-  O142  1  0.50722587  0.74914750  0.60463908  1
  O2-  O143  1  0.50456933  0.74502411  0.93857684  1
  O2-  O144  1  0.07022627  0.17670458  0.09988778  1
  O2-  O145  1  0.07324651  0.18209899  0.42344009  1
  O2-  O146  1  0.07207778  0.18130707  0.76379154  1
  O2-  O147  1  0.06676452  0.68154773  0.10137497  1
  O2-  O148  1  0.07297728  0.67319603  0.41926780  1
  O2-  O149  1  0.07373904  0.67881539  0.76357819  1
  O2-  O150  1  0.57026417  0.17893950  0.08793335  1
  O2-  O151  1  0.57001405  0.18154331  0.43122435  1
  O2-  O152  1  0.57197865  0.17769940  0.75755802  1
  O2-  O153  1  0.57317977  0.67537399  0.08780695  1
  O2-  O154  1  0.56808882  0.67519069  0.42251259  1
  O2-  O155  1  0.56520044  0.67689610  0.75728921  1
  O2-  O156  1  0.17821293  0.42945230  0.24403588  1
  O2-  O157  1  0.18452399  0.42792993  0.57530240  1
  O2-  O158  1  0.18112149  0.43030580  0.89947943  1
  O2-  O159  1  0.17795902  0.92515184  0.24367325  1
  O2-  O160  1  0.18245023  0.92924856  0.56707389  1
  O2-  O161  1  0.17979553  0.92696454  0.90241107  1
  O2-  O162  1  0.67766091  0.42972111  0.24348918  1
  O2-  O163  1  0.67487288  0.43087425  0.56768506  1
  O2-  O164  1  0.67863584  0.42868581  0.90480547  1
  O2-  O165  1  0.67999336  0.93231760  0.23349970  1
  O2-  O166  1  0.67422994  0.93187266  0.57837915  1
  O2-  O167  1  0.67566806  0.93234308  0.90755373  1
  O2-  O168  1  0.42968777  0.32300022  0.08920091  1
  O2-  O169  1  0.42745507  0.32305298  0.43120224  1
  O2-  O170  1  0.43065524  0.32469575  0.75993864  1
  O2-  O171  1  0.43274984  0.82213774  0.09777936  1
  O2-  O172  1  0.42938153  0.82004982  0.43167060  1
  O2-  O173  1  0.43124390  0.82018151  0.76491161  1
  O2-  O174  1  0.92756070  0.31698336  0.10067519  1
  O2-  O175  1  0.93434311  0.32396356  0.42394336  1
  O2-  O176  1  0.92879992  0.31746811  0.76347156  1
  O2-  O177  1  0.92377559  0.82202778  0.09168472  1
  O2-  O178  1  0.92988534  0.81879462  0.43162825  1
  O2-  O179  1  0.92763387  0.82063631  0.76629413  1
  O2-  O180  1  0.31437850  0.06933859  0.23226430  1
  O2-  O181  1  0.32532031  0.07215614  0.56963684  1
  O2-  O182  1  0.33029537  0.07033646  0.91328547  1
  O2-  O183  1  0.32012228  0.57348180  0.24314431  1
  O2-  O184  1  0.32427980  0.56802951  0.57502067  1
  O2-  O185  1  0.32213078  0.57123365  0.91111533  1
  O2-  O186  1  0.82381618  0.07222232  0.23485903  1
  O2-  O187  1  0.81830950  0.07266165  0.57758033  1
  O2-  O188  1  0.81709585  0.06902274  0.90747998  1
  O2-  O189  1  0.82176941  0.56625229  0.23430940  1
  O2-  O190  1  0.81964146  0.57126475  0.57127641  1
  O2-  O191  1  0.82027926  0.57521750  0.91336996  1
  O2-  O192  1  0.04743197  0.08520289  0.27256559  1
  O2-  O193  1  0.04773915  0.08011186  0.59817833  1
  O2-  O194  1  0.04072444  0.07973259  0.93278048  1
  O2-  O195  1  0.04223432  0.58144281  0.26929899  1
  O2-  O196  1  0.04829954  0.57889615  0.59648349  1
  O2-  O197  1  0.03997442  0.58477315  0.93364600  1
  O2-  O198  1  0.54074038  0.08384507  0.26218941  1
  O2-  O199  1  0.54251999  0.08849228  0.60359616  1
  O2-  O200  1  0.54181850  0.09026696  0.93305782  1
  O2-  O201  1  0.54343146  0.58575571  0.26811173  1
  O2-  O202  1  0.54017296  0.58528728  0.60413935  1
  O2-  O203  1  0.54662289  0.58176848  0.93675158  1
  O2-  O204  1  0.15970478  0.21137029  0.26942722  1
  O2-  O205  1  0.17166707  0.21224495  0.59838692  1
  O2-  O206  1  0.17468079  0.20079289  0.93558995  1
  O2-  O207  1  0.16555212  0.69685973  0.26717311  1
  O2-  O208  1  0.16967871  0.70663367  0.59444884  1
  O2-  O209  1  0.16587269  0.70942299  0.93464164  1
  O2-  O210  1  0.67147739  0.20675227  0.26403939  1
  O2-  O211  1  0.66245380  0.20495072  0.60327385  1
  O2-  O212  1  0.66182629  0.20791770  0.93558293  1
  O2-  O213  1  0.66670968  0.69948716  0.27188764  1
  O2-  O214  1  0.66615624  0.69824027  0.61006804  1
  O2-  O215  1  0.66629313  0.70104880  0.93560864  1
  O2-  O216  1  0.08243383  0.46062126  0.06775031  1
  O2-  O217  1  0.08981400  0.45819631  0.39890328  1
  O2-  O218  1  0.08727464  0.45376789  0.72612123  1
  O2-  O219  1  0.08181839  0.95808845  0.07013040  1
  O2-  O220  1  0.08421949  0.95002014  0.39440667  1
  O2-  O221  1  0.07951669  0.95467794  0.73339102  1
  O2-  O222  1  0.58254759  0.45826372  0.07218404  1
  O2-  O223  1  0.58013265  0.45315943  0.39190184  1
  O2-  O224  1  0.58174154  0.45959400  0.73688556  1
  O2-  O225  1  0.58758708  0.96471473  0.06026286  1
  O2-  O226  1  0.58136090  0.96236139  0.40022254  1
  O2-  O227  1  0.58963110  0.96413553  0.73314909  1
  O2-  O228  1  0.21041654  0.33210156  0.06751402  1
  O2-  O229  1  0.20753615  0.33760017  0.39744807  1
  O2-  O230  1  0.21259932  0.34051329  0.73021092  1
  O2-  O231  1  0.21261812  0.83354531  0.06982697  1
  O2-  O232  1  0.20134496  0.82817533  0.39196264  1
  O2-  O233  1  0.21201544  0.83037675  0.73150216  1
  O2-  O234  1  0.70918364  0.33067502  0.07100082  1
  O2-  O235  1  0.69928416  0.33398628  0.39372383  1
  O2-  O236  1  0.70310838  0.32742250  0.73341066  1
  O2-  O237  1  0.69504074  0.83461570  0.05864553  1
  O2-  O238  1  0.70176704  0.83004775  0.39994131  1
  O2-  O239  1  0.69961416  0.83637430  0.73136531  1
  O2-  O240  1  0.44897921  0.42226206  0.26331861  1
  O2-  O241  1  0.45819233  0.41478459  0.60622383  1
  O2-  O242  1  0.45690222  0.41641550  0.93870947  1
  O2-  O243  1  0.45918776  0.91747590  0.26364572  1
  O2-  O244  1  0.46385297  0.91915473  0.60034826  1
  O2-  O245  1  0.46460254  0.91637193  0.92927991  1
  O2-  O246  1  0.96410380  0.41121617  0.27051217  1
  O2-  O247  1  0.95803157  0.41725828  0.59727540  1
  O2-  O248  1  0.95199862  0.42023624  0.93574874  1
  O2-  O249  1  0.95837186  0.91720530  0.26442129  1
  O2-  O250  1  0.95364142  0.91931442  0.59861717  1
  O2-  O251  1  0.94910681  0.91725420  0.94181599  1
  O2-  O252  1  0.32860395  0.29033211  0.26469009  1
  O2-  O253  1  0.33876871  0.29832759  0.60579030  1
  O2-  O254  1  0.33809503  0.29647285  0.93622352  1
  O2-  O255  1  0.33345959  0.78648214  0.26417519  1
  O2-  O256  1  0.33709630  0.78942876  0.59523634  1
  O2-  O257  1  0.33483009  0.78878198  0.93105550  1
  O2-  O258  1  0.83585538  0.30101969  0.27475395  1
  O2-  O259  1  0.82870977  0.29173885  0.59816961  1
  O2-  O260  1  0.83058634  0.28774139  0.93351394  1
  O2-  O261  1  0.83159129  0.78905887  0.26615154  1
  O2-  O262  1  0.82548830  0.79504378  0.60244535  1
  O2-  O263  1  0.82964312  0.80005876  0.94086988  1
  O2-  O264  1  0.41793940  0.04130972  0.06462153  1
  O2-  O265  1  0.41605044  0.04299938  0.39697785  1
  O2-  O266  1  0.42138543  0.04359212  0.73704424  1
  O2-  O267  1  0.41585195  0.54961230  0.06323886  1
  O2-  O268  1  0.41341440  0.54581474  0.39621465  1
  O2-  O269  1  0.41061706  0.54169544  0.73156008  1
  O2-  O270  1  0.91223392  0.04667116  0.06109982  1
  O2-  O271  1  0.92264214  0.04469714  0.40153903  1
  O2-  O272  1  0.91413531  0.04525997  0.72885141  1
  O2-  O273  1  0.91514598  0.54828082  0.06484010  1
  O2-  O274  1  0.91680954  0.53659334  0.40229952  1
  O2-  O275  1  0.92401119  0.54436586  0.73400255  1
  O2-  O276  1  0.30555891  0.16760198  0.06265727  1
  O2-  O277  1  0.28639890  0.16571579  0.39996035  1
  O2-  O278  1  0.29978613  0.17374296  0.73454802  1
  O2-  O279  1  0.29364859  0.66555496  0.06299261  1
  O2-  O280  1  0.29106781  0.66223497  0.39715091  1
  O2-  O281  1  0.29636496  0.66512340  0.72514085  1
  O2-  O282  1  0.78674622  0.15845393  0.06117836  1
  O2-  O283  1  0.79492968  0.17136052  0.40216027  1
  O2-  O284  1  0.78836132  0.16000134  0.73133956  1
  O2-  O285  1  0.79333337  0.66667990  0.06523713  1
  O2-  O286  1  0.79143353  0.66537623  0.40215447  1
  O2-  O287  1  0.79285248  0.66879666  0.74028527  1
