# generated using pymatgen
data_Ca2Al2SiO7
_symmetry_space_group_name_H-M   'P 1'
_cell_length_a   15.46228314
_cell_length_b   15.46227761
_cell_length_c   15.28713141
_cell_angle_alpha   89.98863482
_cell_angle_beta   89.99027070
_cell_angle_gamma   89.99828963
_symmetry_Int_Tables_number   1
_chemical_formula_structural   Ca2Al2SiO7
_chemical_formula_sum   'Ca48 Al48 Si24 O168'
_cell_volume   3654.87957507
_cell_formula_units_Z   24
loop_
 _symmetry_equiv_pos_site_id
 _symmetry_equiv_pos_as_xyz
  1  'x, y, z'
loop_
 _atom_type_symbol
 _atom_type_oxidation_number
  Ca2+  2.0
  Al0+  0.0
  Si0+  0.0
  O2-  -2.0
loop_
 _atom_site_type_symbol
 _atom_site_label
 _atom_site_symmetry_multiplicity
 _atom_site_fract_x
 _atom_site_fract_y
 _atom_site_fract_z
 _atom_site_occupancy
  Ca2+  Ca0  1  0.17286785  0.08614937  0.17006271  1
  Ca2+  Ca1  1  0.17689570  0.08806835  0.50297371  1
  Ca2+  Ca2  1  0.17744966  0.07856259  0.84360941  1
  Ca2+  Ca3  1  0.17121632  0.58519259  0.17300085  1
  Ca2+  Ca4  1  0.17913493  0.57816891  0.50676468  1
  Ca2+  Ca5  1  0.16801125  0.58128482  0.83628531  1
  Ca2+  Ca6  1  0.66902199  0.07818480  0.17384755  1
  Ca2+  Ca7  1  0.67755555  0.09205444  0.50159105  1
  Ca2+  Ca8  1  0.67300272  0.07702522  0.83891639  1
  Ca2+  Ca9  1  0.65905967  0.57829826  0.17376728  1
  Ca2+  Ca10  1  0.65803286  0.57994798  0.50061241  1
  Ca2+  Ca11  1  0.66320483  0.58859625  0.83740678  1
  Ca2+  Ca12  1  0.07530450  0.32164181  0.16033828  1
  Ca2+  Ca13  1  0.07571340  0.33103364  0.49419562  1
  Ca2+  Ca14  1  0.07642424  0.33012220  0.82806956  1
  Ca2+  Ca15  1  0.08627640  0.82985737  0.15904960  1
  Ca2+  Ca16  1  0.08324613  0.83393845  0.49693597  1
  Ca2+  Ca17  1  0.09536851  0.82925331  0.83683418  1
  Ca2+  Ca18  1  0.58672278  0.32803932  0.17046916  1
  Ca2+  Ca19  1  0.58270540  0.32888166  0.49104310  1
  Ca2+  Ca20  1  0.57950949  0.33017253  0.83111798  1
  Ca2+  Ca21  1  0.57283988  0.83004676  0.15823738  1
  Ca2+  Ca22  1  0.57110284  0.82236943  0.49306795  1
  Ca2+  Ca23  1  0.57505220  0.83206341  0.82860315  1
  Ca2+  Ca24  1  0.33211041  0.42594420  0.17556870  1
  Ca2+  Ca25  1  0.33090064  0.42918593  0.50801201  1
  Ca2+  Ca26  1  0.32738111  0.42258367  0.83319416  1
  Ca2+  Ca27  1  0.33303693  0.91932696  0.16698753  1
  Ca2+  Ca28  1  0.34304742  0.92363369  0.50052846  1
  Ca2+  Ca29  1  0.33796606  0.92272157  0.84036466  1
  Ca2+  Ca30  1  0.83176497  0.41186417  0.17264149  1
  Ca2+  Ca31  1  0.82865916  0.40706832  0.50069885  1
  Ca2+  Ca32  1  0.83733888  0.41353624  0.83609217  1
  Ca2+  Ca33  1  0.82399408  0.91867853  0.17279539  1
  Ca2+  Ca34  1  0.83366551  0.93320875  0.50546433  1
  Ca2+  Ca35  1  0.82627014  0.92060089  0.83976454  1
  Ca2+  Ca36  1  0.41860778  0.15706706  0.16589927  1
  Ca2+  Ca37  1  0.42040341  0.16244870  0.49146673  1
  Ca2+  Ca38  1  0.41463743  0.15892183  0.82885945  1
  Ca2+  Ca39  1  0.42157830  0.67548203  0.16238664  1
  Ca2+  Ca40  1  0.41541559  0.67267155  0.49256886  1
  Ca2+  Ca41  1  0.42320444  0.67906474  0.82399449  1
  Ca2+  Ca42  1  0.92366006  0.17081177  0.16447143  1
  Ca2+  Ca43  1  0.91896320  0.17276413  0.48868446  1
  Ca2+  Ca44  1  0.92045150  0.17260091  0.82803413  1
  Ca2+  Ca45  1  0.92385661  0.66680329  0.15961943  1
  Ca2+  Ca46  1  0.91896744  0.66932429  0.49797047  1
  Ca2+  Ca47  1  0.92336712  0.66812510  0.83359026  1
  Al0+  Al48  1  0.00106922  0.00112351  -0.00063791  1
  Al0+  Al49  1  -0.00077025  -0.00041904  0.33332161  1
  Al0+  Al50  1  0.00133625  0.00129948  0.67212430  1
  Al0+  Al51  1  -0.00065757  0.50060604  -0.00596387  1
  Al0+  Al52  1  -0.00201395  0.50062037  0.33097256  1
  Al0+  Al53  1  -0.00299461  0.49894464  0.66475068  1
  Al0+  Al54  1  0.50288534  0.00009251  0.00337689  1
  Al0+  Al55  1  0.49882953  -0.00182422  0.32962943  1
  Al0+  Al56  1  0.50221912  -0.00178654  0.66506053  1
  Al0+  Al57  1  0.50092145  0.49860661  -0.00261654  1
  Al0+  Al58  1  0.50010163  0.49970404  0.33944154  1
  Al0+  Al59  1  0.50060679  0.49808519  0.67003373  1
  Al0+  Al60  1  0.24977527  0.25201242  0.00102937  1
  Al0+  Al61  1  0.24864937  0.24972606  0.33462226  1
  Al0+  Al62  1  0.24926376  0.25039084  0.67427874  1
  Al0+  Al63  1  0.25173891  0.75138624  -0.00482997  1
  Al0+  Al64  1  0.24959594  0.75075002  0.33467175  1
  Al0+  Al65  1  0.25115999  0.75036300  0.66400434  1
  Al0+  Al66  1  0.74860910  0.25188168  -0.00343611  1
  Al0+  Al67  1  0.74813091  0.25093415  0.33274818  1
  Al0+  Al68  1  0.75110356  0.25106357  0.67018816  1
  Al0+  Al69  1  0.75144675  0.74829341  0.00306012  1
  Al0+  Al70  1  0.74951873  0.74784527  0.33246476  1
  Al0+  Al71  1  0.75030736  0.74887659  0.66188839  1
  Al0+  Al72  1  0.07307371  0.17699625  0.31872015  1
  Al0+  Al73  1  0.07366026  0.17730661  0.98224470  1
  Al0+  Al74  1  0.68091673  0.43048996  0.34701994  1
  Al0+  Al75  1  0.31949510  0.57102923  0.34581154  1
  Al0+  Al76  1  0.92897609  0.31982579  0.64983765  1
  Al0+  Al77  1  0.92869599  0.31930534  0.98304120  1
  Al0+  Al78  1  0.07177709  0.68073659  0.98685024  1
  Al0+  Al79  1  0.32140532  0.07298098  0.01677732  1
  Al0+  Al80  1  0.17632188  0.43046526  0.68223713  1
  Al0+  Al81  1  0.68146249  0.92797118  0.01399547  1
  Al0+  Al82  1  0.32260538  0.06915761  0.67882722  1
  Al0+  Al83  1  0.82195958  0.07325746  0.68192556  1
  Al0+  Al84  1  0.92819943  0.32122739  0.31778424  1
  Al0+  Al85  1  0.32067224  0.07072290  0.34750799  1
  Al0+  Al86  1  0.56982505  0.17921140  0.32095728  1
  Al0+  Al87  1  0.81921109  0.06923677  0.34508021  1
  Al0+  Al88  1  0.42714643  0.82099685  0.31462410  1
  Al0+  Al89  1  0.57213036  0.67698445  0.64957229  1
  Al0+  Al90  1  0.57202089  0.67677818  0.98479688  1
  Al0+  Al91  1  0.57045679  0.67646064  0.31714474  1
  Al0+  Al92  1  0.43120097  0.82247766  0.98278900  1
  Al0+  Al93  1  0.42800142  0.82219237  0.64847416  1
  Al0+  Al94  1  0.17887888  0.92760961  0.01528459  1
  Al0+  Al95  1  0.32237328  0.57242174  0.68428352  1
  Si0+  Si96  1  0.57065870  0.17995900  0.65385313  1
  Si0+  Si97  1  0.56989352  0.17994227  0.98501461  1
  Si0+  Si98  1  0.82469036  0.57374458  0.35124338  1
  Si0+  Si99  1  0.82223424  0.56940982  0.01450523  1
  Si0+  Si100  1  0.92808130  0.82174398  0.31974493  1
  Si0+  Si101  1  0.06969448  0.68027376  0.32074599  1
  Si0+  Si102  1  0.17547845  0.42814417  0.34827231  1
  Si0+  Si103  1  0.32132725  0.56969285  0.01382210  1
  Si0+  Si104  1  0.07002337  0.67897556  0.65111997  1
  Si0+  Si105  1  0.67782755  0.42871750  0.01532523  1
  Si0+  Si106  1  0.42837457  0.32296116  0.98571697  1
  Si0+  Si107  1  0.67958060  0.42854565  0.68382178  1
  Si0+  Si108  1  0.42714446  0.32233612  0.31963294  1
  Si0+  Si109  1  0.17701037  0.43110311  0.01614217  1
  Si0+  Si110  1  0.17665403  0.92747303  0.68281400  1
  Si0+  Si111  1  0.68181731  0.92764245  0.68136985  1
  Si0+  Si112  1  0.92884304  0.82259333  0.65259363  1
  Si0+  Si113  1  0.67688405  0.92535473  0.35121780  1
  Si0+  Si114  1  0.42745769  0.31989363  0.65344045  1
  Si0+  Si115  1  0.82022007  0.57279074  0.68205682  1
  Si0+  Si116  1  0.82115918  0.07454846  0.01663147  1
  Si0+  Si117  1  0.17680852  0.92767902  0.35059363  1
  Si0+  Si118  1  0.92677397  0.82264900  0.98487620  1
  Si0+  Si119  1  0.07303831  0.17750027  0.64998845  1
  O2-  O120  1  0.24727638  0.00236066  0.06589629  1
  O2-  O121  1  0.24453940  -0.00274403  0.39437940  1
  O2-  O122  1  0.24842102  -0.00613982  0.72440104  1
  O2-  O123  1  0.24861841  0.50135243  0.05866240  1
  O2-  O124  1  0.24603996  0.49462445  0.39232229  1
  O2-  O125  1  0.24726801  0.50305157  0.73413464  1
  O2-  O126  1  0.75749997  0.00155918  0.06100415  1
  O2-  O127  1  0.74456556  -0.00447756  0.39532032  1
  O2-  O128  1  0.74973075  -0.00391099  0.72770195  1
  O2-  O129  1  0.74873907  0.50064480  0.05562432  1
  O2-  O130  1  0.75519583  0.50568323  0.39452269  1
  O2-  O131  1  0.74713833  0.50379365  0.72416688  1
  O2-  O132  1  0.00141998  0.25012815  0.26975775  1
  O2-  O133  1  0.00352327  0.24472298  0.60477583  1
  O2-  O134  1  -0.00063414  0.24708160  0.93204831  1
  O2-  O135  1  -0.00228730  0.74952432  0.27781810  1
  O2-  O136  1  0.00227292  0.75396567  0.60957134  1
  O2-  O137  1  0.00028298  0.75907875  0.94005139  1
  O2-  O138  1  0.49107408  0.24995951  0.27386675  1
  O2-  O139  1  0.49578569  0.24651446  0.61141050  1
  O2-  O140  1  0.49434560  0.24664129  0.94357508  1
  O2-  O141  1  0.50177001  0.75039527  0.26673527  1
  O2-  O142  1  0.49571707  0.74452722  0.60086269  1
  O2-  O143  1  0.50327679  0.75002073  0.93359009  1
  O2-  O144  1  0.07331678  0.18103716  0.09569065  1
  O2-  O145  1  0.07257752  0.17775941  0.43268443  1
  O2-  O146  1  0.07173725  0.17810856  0.75524613  1
  O2-  O147  1  0.06852195  0.67810864  0.10029813  1
  O2-  O148  1  0.06808241  0.68120631  0.42606939  1
  O2-  O149  1  0.06782458  0.67887939  0.75620669  1
  O2-  O150  1  0.57351158  0.18269757  0.08983466  1
  O2-  O151  1  0.57083946  0.18251670  0.43465373  1
  O2-  O152  1  0.57104456  0.18201998  0.75938940  1
  O2-  O153  1  0.56828653  0.67332992  0.09776845  1
  O2-  O154  1  0.56870061  0.67710407  0.43052606  1
  O2-  O155  1  0.57515986  0.68137894  0.76296866  1
  O2-  O156  1  0.17557364  0.43160025  0.24237413  1
  O2-  O157  1  0.17805067  0.43249048  0.56833190  1
  O2-  O158  1  0.17751792  0.43266754  0.91122656  1
  O2-  O159  1  0.17549103  0.92452946  0.24565262  1
  O2-  O160  1  0.17039462  0.92955364  0.57738838  1
  O2-  O161  1  0.18281339  0.92714769  0.90159494  1
  O2-  O162  1  0.68130677  0.43054931  0.23362324  1
  O2-  O163  1  0.68043540  0.42457749  0.57909597  1
  O2-  O164  1  0.67686482  0.42694330  0.91009621  1
  O2-  O165  1  0.68105540  0.92551103  0.24546333  1
  O2-  O166  1  0.68488684  0.92903829  0.57602249  1
  O2-  O167  1  0.68318295  0.93087123  0.90036381  1
  O2-  O168  1  0.43193173  0.32898380  0.09044730  1
  O2-  O169  1  0.42962248  0.32229273  0.42551815  1
  O2-  O170  1  0.43075284  0.32047550  0.75891579  1
  O2-  O171  1  0.43044325  0.82013650  0.09597838  1
  O2-  O172  1  0.42714197  0.81976411  0.42815451  1
  O2-  O173  1  0.43181380  0.82560495  0.76173686  1
  O2-  O174  1  0.92777781  0.31958139  0.09625587  1
  O2-  O175  1  0.92959963  0.32026508  0.43158078  1
  O2-  O176  1  0.92839208  0.31913307  0.76261782  1
  O2-  O177  1  0.92425309  0.81734047  0.09056450  1
  O2-  O178  1  0.92998527  0.82164014  0.42529628  1
  O2-  O179  1  0.92600079  0.81966078  0.75740461  1
  O2-  O180  1  0.31994209  0.07080589  0.23525882  1
  O2-  O181  1  0.32259882  0.07073866  0.56577812  1
  O2-  O182  1  0.32268802  0.07131404  0.90281648  1
  O2-  O183  1  0.31638518  0.56982503  0.23207800  1
  O2-  O184  1  0.32013759  0.56986733  0.57045326  1
  O2-  O185  1  0.32031764  0.56551016  0.90912641  1
  O2-  O186  1  0.81827150  0.06565218  0.23212672  1
  O2-  O187  1  0.82044266  0.07323569  0.56867862  1
  O2-  O188  1  0.81633047  0.07478104  0.91070905  1
  O2-  O189  1  0.82904221  0.57456584  0.24581827  1
  O2-  O190  1  0.82262769  0.57405785  0.57731371  1
  O2-  O191  1  0.82367388  0.56949100  0.90915535  1
  O2-  O192  1  0.04325583  0.07866045  0.26652907  1
  O2-  O193  1  0.04919457  0.08231292  0.60623404  1
  O2-  O194  1  0.04893129  0.07722067  0.93060631  1
  O2-  O195  1  0.04352659  0.58880645  0.27188830  1
  O2-  O196  1  0.03615602  0.59002367  0.60266130  1
  O2-  O197  1  0.03568875  0.58741166  0.92989910  1
  O2-  O198  1  0.54404003  0.08215565  0.26657764  1
  O2-  O199  1  0.54939401  0.08714850  0.60657809  1
  O2-  O200  1  0.54699666  0.08749158  0.93751295  1
  O2-  O201  1  0.54030691  0.57721562  0.26718295  1
  O2-  O202  1  0.54926773  0.57424491  0.60335144  1
  O2-  O203  1  0.54403404  0.57799396  0.93131964  1
  O2-  O204  1  0.17118733  0.20604673  0.26548448  1
  O2-  O205  1  0.16718313  0.20562280  0.60601783  1
  O2-  O206  1  0.17200065  0.20949356  0.93086690  1
  O2-  O207  1  0.16021235  0.70883732  0.27253057  1
  O2-  O208  1  0.16210081  0.70367729  0.60317214  1
  O2-  O209  1  0.16743552  0.70801486  0.92994370  1
  O2-  O210  1  0.66308817  0.21480152  0.26438229  1
  O2-  O211  1  0.66085524  0.21392809  0.60748249  1
  O2-  O212  1  0.65871119  0.21321944  0.93435862  1
  O2-  O213  1  0.67268420  0.69809406  0.26810503  1
  O2-  O214  1  0.67067248  0.70582239  0.59573542  1
  O2-  O215  1  0.67392606  0.70059114  0.93693366  1
  O2-  O216  1  0.08525210  0.46142471  0.06201008  1
  O2-  O217  1  0.08277440  0.45734474  0.39453709  1
  O2-  O218  1  0.07743147  0.46029635  0.73402040  1
  O2-  O219  1  0.07641464  0.94782209  0.06496867  1
  O2-  O220  1  0.08245327  0.95087557  0.39719332  1
  O2-  O221  1  0.08464193  0.95230938  0.73308628  1
  O2-  O222  1  0.58606624  0.45554074  0.06348420  1
  O2-  O223  1  0.58478792  0.45812478  0.40427280  1
  O2-  O224  1  0.58710039  0.45090700  0.73268098  1
  O2-  O225  1  0.58749357  0.96186945  0.06966827  1
  O2-  O226  1  0.58270348  0.95004451  0.39430599  1
  O2-  O227  1  0.58905112  0.95510916  0.72739442  1
  O2-  O228  1  0.20523074  0.33994373  0.06366764  1
  O2-  O229  1  0.19750183  0.33422992  0.39424146  1
  O2-  O230  1  0.20584964  0.33352290  0.73747940  1
  O2-  O231  1  0.20769672  0.82799671  0.06729256  1
  O2-  O232  1  0.20220711  0.83455512  0.39856620  1
  O2-  O233  1  0.19899470  0.83193927  0.72555046  1
  O2-  O234  1  0.70641547  0.33699990  0.06271411  1
  O2-  O235  1  0.71122402  0.33453133  0.40310316  1
  O2-  O236  1  0.71119666  0.33937936  0.73459695  1
  O2-  O237  1  0.71213072  0.83160127  0.06933143  1
  O2-  O238  1  0.70461656  0.83187638  0.39662063  1
  O2-  O239  1  0.70956403  0.83425084  0.72694495  1
  O2-  O240  1  0.45806777  0.41374939  0.27260555  1
  O2-  O241  1  0.45866423  0.41040484  0.60586596  1
  O2-  O242  1  0.46308187  0.41011254  0.93316997  1
  O2-  O243  1  0.45441213  0.91922507  0.26218570  1
  O2-  O244  1  0.46341795  0.91889524  0.59477733  1
  O2-  O245  1  0.46351806  0.92118711  0.93208534  1
  O2-  O246  1  0.95345197  0.42128226  0.26565522  1
  O2-  O247  1  0.95590114  0.41809728  0.59673846  1
  O2-  O248  1  0.95753741  0.41781554  0.93032292  1
  O2-  O249  1  0.95570446  0.91176806  0.27026181  1
  O2-  O250  1  0.95649311  0.91539197  0.60643344  1
  O2-  O251  1  0.94421553  0.91839013  0.94084096  1
  O2-  O252  1  0.33169942  0.30385318  0.27502994  1
  O2-  O253  1  0.33408110  0.29630341  0.60806963  1
  O2-  O254  1  0.33496172  0.30222168  0.93934302  1
  O2-  O255  1  0.32811413  0.79011779  0.26419619  1
  O2-  O256  1  0.32732036  0.79937815  0.59686659  1
  O2-  O257  1  0.33320759  0.79451180  0.92983714  1
  O2-  O258  1  0.83019813  0.29225949  0.26600179  1
  O2-  O259  1  0.83084277  0.28832904  0.59900720  1
  O2-  O260  1  0.82866719  0.29396084  0.93024099  1
  O2-  O261  1  0.83646962  0.79446879  0.27205440  1
  O2-  O262  1  0.83994189  0.79205773  0.60152796  1
  O2-  O263  1  0.83672276  0.78975507  0.93576104  1
  O2-  O264  1  0.42088068  0.04484387  0.06719491  1
  O2-  O265  1  0.41850550  0.03974465  0.40010863  1
  O2-  O266  1  0.42096623  0.04098150  0.73190987  1
  O2-  O267  1  0.41217430  0.53706269  0.06053080  1
  O2-  O268  1  0.41406072  0.53947254  0.40201328  1
  O2-  O269  1  0.41947186  0.53930161  0.73717553  1
  O2-  O270  1  0.91735727  0.05515847  0.05827072  1
  O2-  O271  1  0.91522575  0.03724445  0.40069814  1
  O2-  O272  1  0.91831393  0.04325680  0.73625815  1
  O2-  O273  1  0.91330951  0.53933256  0.06276465  1
  O2-  O274  1  0.91811283  0.54839750  0.39906606  1
  O2-  O275  1  0.91071276  0.54256507  0.73057057  1
  O2-  O276  1  0.29749623  0.17412551  0.06758612  1
  O2-  O277  1  0.29347722  0.16926078  0.40155514  1
  O2-  O278  1  0.29470526  0.16577011  0.73429522  1
  O2-  O279  1  0.29477416  0.66241371  0.05835304  1
  O2-  O280  1  0.28463898  0.66564195  0.40112909  1
  O2-  O281  1  0.29460392  0.67231492  0.73355474  1
  O2-  O282  1  0.78856789  0.16652770  0.06160592  1
  O2-  O283  1  0.78669714  0.16534620  0.39872396  1
  O2-  O284  1  0.78652524  0.16719893  0.73774756  1
  O2-  O285  1  0.79994185  0.66154015  0.06363250  1
  O2-  O286  1  0.80108568  0.66796741  0.39802859  1
  O2-  O287  1  0.79518414  0.66547295  0.72993889  1
