# generated using pymatgen
data_Ca2Al2SiO7
_symmetry_space_group_name_H-M   'P 1'
_cell_length_a   15.46322266
_cell_length_b   15.46202917
_cell_length_c   15.28681354
_cell_angle_alpha   90.01087693
_cell_angle_beta   89.99035794
_cell_angle_gamma   90.02876681
_symmetry_Int_Tables_number   1
_chemical_formula_structural   Ca2Al2SiO7
_chemical_formula_sum   'Ca48 Al48 Si24 O168'
_cell_volume   3654.96646965
_cell_formula_units_Z   24
loop_
 _symmetry_equiv_pos_site_id
 _symmetry_equiv_pos_as_xyz
  1  'x, y, z'
loop_
 _atom_type_symbol
 _atom_type_oxidation_number
  Ca2+  2.0
  Al0+  0.0
  Si0+  0.0
  O2-  -2.0
loop_
 _atom_site_type_symbol
 _atom_site_label
 _atom_site_symmetry_multiplicity
 _atom_site_fract_x
 _atom_site_fract_y
 _atom_site_fract_z
 _atom_site_occupancy
  Ca2+  Ca0  1  0.17528606  0.08042600  0.16712647  1
  Ca2+  Ca1  1  0.16609636  0.07854629  0.50665507  1
  Ca2+  Ca2  1  0.16330266  0.07432007  0.83679758  1
  Ca2+  Ca3  1  0.16389349  0.57383161  0.17309495  1
  Ca2+  Ca4  1  0.16703450  0.57638691  0.50492416  1
  Ca2+  Ca5  1  0.16805429  0.57102285  0.83322492  1
  Ca2+  Ca6  1  0.67557197  0.07753622  0.17103146  1
  Ca2+  Ca7  1  0.67445088  0.07715949  0.50309043  1
  Ca2+  Ca8  1  0.68064731  0.08910623  0.83408483  1
  Ca2+  Ca9  1  0.67452086  0.57931097  0.17074806  1
  Ca2+  Ca10  1  0.67452197  0.57500686  0.50690681  1
  Ca2+  Ca11  1  0.67725559  0.57722290  0.83143538  1
  Ca2+  Ca12  1  0.08219182  0.33663792  0.15957171  1
  Ca2+  Ca13  1  0.08452634  0.33469227  0.50085580  1
  Ca2+  Ca14  1  0.07816299  0.33057356  0.82546445  1
  Ca2+  Ca15  1  0.07776373  0.82786294  0.16254388  1
  Ca2+  Ca16  1  0.08013661  0.82620941  0.49272118  1
  Ca2+  Ca17  1  0.08253805  0.83865314  0.82873592  1
  Ca2+  Ca18  1  0.58184881  0.33558277  0.16495002  1
  Ca2+  Ca19  1  0.58004254  0.34335220  0.49883868  1
  Ca2+  Ca20  1  0.57602897  0.33554989  0.82271569  1
  Ca2+  Ca21  1  0.58501026  0.83535151  0.16386945  1
  Ca2+  Ca22  1  0.57856546  0.83432767  0.49566451  1
  Ca2+  Ca23  1  0.57341813  0.83073160  0.82540358  1
  Ca2+  Ca24  1  0.31824680  0.42029579  0.17567717  1
  Ca2+  Ca25  1  0.32436846  0.42711775  0.50775257  1
  Ca2+  Ca26  1  0.32147804  0.40822329  0.83238924  1
  Ca2+  Ca27  1  0.32971087  0.92643072  0.16851590  1
  Ca2+  Ca28  1  0.32872489  0.92072413  0.50810681  1
  Ca2+  Ca29  1  0.32057603  0.91685953  0.83692944  1
  Ca2+  Ca30  1  0.83528855  0.42218914  0.16882299  1
  Ca2+  Ca31  1  0.82534028  0.41768098  0.51201201  1
  Ca2+  Ca32  1  0.84427073  0.42499796  0.83550678  1
  Ca2+  Ca33  1  0.83751388  0.91747935  0.17005152  1
  Ca2+  Ca34  1  0.83103267  0.91547728  0.50502350  1
  Ca2+  Ca35  1  0.84100323  0.93118458  0.83959628  1
  Ca2+  Ca36  1  0.41547108  0.16086452  0.16238893  1
  Ca2+  Ca37  1  0.41139663  0.17522129  0.49651836  1
  Ca2+  Ca38  1  0.41764804  0.16848266  0.82599485  1
  Ca2+  Ca39  1  0.41756231  0.66208671  0.16553273  1
  Ca2+  Ca40  1  0.40635129  0.66877494  0.49788980  1
  Ca2+  Ca41  1  0.41321688  0.67103928  0.82173028  1
  Ca2+  Ca42  1  0.91757223  0.17431421  0.15689489  1
  Ca2+  Ca43  1  0.92083125  0.16767846  0.50485907  1
  Ca2+  Ca44  1  0.91785946  0.17472155  0.82375476  1
  Ca2+  Ca45  1  0.91849132  0.67480409  0.16152198  1
  Ca2+  Ca46  1  0.92237193  0.66826649  0.49154389  1
  Ca2+  Ca47  1  0.91244543  0.66916558  0.83173902  1
  Al0+  Al48  1  0.00026052  -0.00064515  0.00697535  1
  Al0+  Al49  1  0.00122667  0.00362764  0.32790247  1
  Al0+  Al50  1  -0.00040770  0.00059768  0.66859497  1
  Al0+  Al51  1  -0.00036158  0.50168717  0.00509665  1
  Al0+  Al52  1  -0.00031936  0.49980770  0.33250743  1
  Al0+  Al53  1  0.00019327  0.50060187  0.66944568  1
  Al0+  Al54  1  0.50090583  -0.00061525  -0.00105522  1
  Al0+  Al55  1  0.50250860  0.00169133  0.34009398  1
  Al0+  Al56  1  0.49994298  -0.00147737  0.66092094  1
  Al0+  Al57  1  0.50095830  0.49911971  -0.00332941  1
  Al0+  Al58  1  0.49910470  0.50102081  0.33650719  1
  Al0+  Al59  1  0.50228211  0.50193080  0.66851002  1
  Al0+  Al60  1  0.25037855  0.24978094  0.00707976  1
  Al0+  Al61  1  0.25001632  0.25074638  0.33844579  1
  Al0+  Al62  1  0.25182304  0.24903902  0.66063981  1
  Al0+  Al63  1  0.25035852  0.74861861  0.00332417  1
  Al0+  Al64  1  0.24963835  0.75159125  0.32673542  1
  Al0+  Al65  1  0.24852592  0.75147209  0.66914431  1
  Al0+  Al66  1  0.74868089  0.24995850  -0.00002632  1
  Al0+  Al67  1  0.74864493  0.24863968  0.33567651  1
  Al0+  Al68  1  0.74868625  0.24841468  0.66866825  1
  Al0+  Al69  1  0.75021491  0.74823305  -0.00266044  1
  Al0+  Al70  1  0.74730808  0.75149240  0.33321750  1
  Al0+  Al71  1  0.74728854  0.74946291  0.67005530  1
  Al0+  Al72  1  0.17724199  0.92574750  0.01778730  1
  Al0+  Al73  1  0.17967990  0.42618133  0.68259841  1
  Al0+  Al74  1  0.32232887  0.06994280  0.01260017  1
  Al0+  Al75  1  0.92898989  0.32267380  0.65152826  1
  Al0+  Al76  1  0.17902503  0.93008221  0.67788018  1
  Al0+  Al77  1  0.68120299  0.92840812  0.34676593  1
  Al0+  Al78  1  0.68006692  0.42809524  0.34575996  1
  Al0+  Al79  1  0.92898806  0.32162857  0.98737693  1
  Al0+  Al80  1  0.32070420  0.57303061  0.34690943  1
  Al0+  Al81  1  0.32175726  0.06994259  0.34918935  1
  Al0+  Al82  1  0.81988928  0.57112167  0.01578391  1
  Al0+  Al83  1  0.92985176  0.82116670  0.98431499  1
  Al0+  Al84  1  0.07171367  0.67746164  0.31708403  1
  Al0+  Al85  1  0.17974362  0.43000506  0.01359806  1
  Al0+  Al86  1  0.42726960  0.81958246  0.65198114  1
  Al0+  Al87  1  0.43030957  0.32178207  0.65175619  1
  Al0+  Al88  1  0.32012810  0.57236647  0.68149082  1
  Al0+  Al89  1  0.07108946  0.17732240  0.65220944  1
  Al0+  Al90  1  0.82094403  0.07275248  0.01440270  1
  Al0+  Al91  1  0.17573318  0.42931958  0.35044001  1
  Al0+  Al92  1  0.92704915  0.82210310  0.31916328  1
  Al0+  Al93  1  0.82300489  0.57202962  0.68118655  1
  Al0+  Al94  1  0.67903611  0.42753362  0.68257197  1
  Al0+  Al95  1  0.82007855  0.06843118  0.67927073  1
  Si0+  Si96  1  0.57270937  0.17629684  0.64727775  1
  Si0+  Si97  1  0.57125862  0.67695353  0.98330135  1
  Si0+  Si98  1  0.56945850  0.67889635  0.31742489  1
  Si0+  Si99  1  0.06996897  0.68005973  0.65423350  1
  Si0+  Si100  1  0.07355377  0.18045945  0.31583189  1
  Si0+  Si101  1  0.67591488  0.92728591  0.68450046  1
  Si0+  Si102  1  0.92755413  0.82162382  0.65449038  1
  Si0+  Si103  1  0.92680540  0.31886311  0.31919451  1
  Si0+  Si104  1  0.43003971  0.82433645  0.31678922  1
  Si0+  Si105  1  0.42964798  0.32125686  0.31724327  1
  Si0+  Si106  1  0.57272654  0.67956380  0.64758714  1
  Si0+  Si107  1  0.57093455  0.17872100  0.31713488  1
  Si0+  Si108  1  0.57079181  0.17740708  0.98506417  1
  Si0+  Si109  1  0.67563709  0.42807841  0.01672044  1
  Si0+  Si110  1  0.82057005  0.57216446  0.34831215  1
  Si0+  Si111  1  0.42888157  0.31995330  0.98687294  1
  Si0+  Si112  1  0.32376267  0.07178921  0.68120179  1
  Si0+  Si113  1  0.07284708  0.67815854  0.98137042  1
  Si0+  Si114  1  0.17744074  0.92980028  0.34912182  1
  Si0+  Si115  1  0.07345557  0.17881311  0.98571200  1
  Si0+  Si116  1  0.32502275  0.57144048  0.01565176  1
  Si0+  Si117  1  0.67888211  0.92820795  0.01377317  1
  Si0+  Si118  1  0.42979256  0.82043337  0.98568239  1
  Si0+  Si119  1  0.82397866  0.07270966  0.35014295  1
  O2-  O120  1  0.25046149  -0.00110406  0.06409148  1
  O2-  O121  1  0.24737654  -0.00449333  0.39557377  1
  O2-  O122  1  0.25346272  0.00522848  0.72481595  1
  O2-  O123  1  0.25529541  0.50448439  0.05935791  1
  O2-  O124  1  0.24564556  0.50501734  0.39682947  1
  O2-  O125  1  0.25414936  0.49600030  0.73280791  1
  O2-  O126  1  0.74930473  -0.00593317  0.05951283  1
  O2-  O127  1  0.76151651  -0.00270172  0.39239255  1
  O2-  O128  1  0.74507156  -0.00524483  0.72831512  1
  O2-  O129  1  0.74654281  0.49401519  0.06107795  1
  O2-  O130  1  0.75650596  0.49987698  0.39270702  1
  O2-  O131  1  0.75627272  0.49443135  0.73130780  1
  O2-  O132  1  0.00125158  0.25164574  0.27573314  1
  O2-  O133  1  0.00268804  0.25261679  0.60066900  1
  O2-  O134  1  0.00272971  0.24534838  0.94195898  1
  O2-  O135  1  -0.00156069  0.74971143  0.26869857  1
  O2-  O136  1  -0.00577867  0.74701682  0.61283058  1
  O2-  O137  1  0.00758271  0.75001217  0.93625539  1
  O2-  O138  1  0.49999840  0.24952430  0.27360724  1
  O2-  O139  1  0.50548581  0.24695303  0.60378985  1
  O2-  O140  1  0.49918843  0.24833980  0.94441085  1
  O2-  O141  1  0.49825508  0.75006963  0.27420856  1
  O2-  O142  1  0.50132247  0.74533868  0.60302486  1
  O2-  O143  1  0.49752280  0.74639371  0.94301186  1
  O2-  O144  1  0.07390788  0.18231612  0.09186208  1
  O2-  O145  1  0.07288410  0.17663274  0.42044191  1
  O2-  O146  1  0.06826870  0.17426820  0.76589628  1
  O2-  O147  1  0.07059743  0.67819197  0.08689961  1
  O2-  O148  1  0.07040652  0.67906783  0.43133760  1
  O2-  O149  1  0.07180065  0.68191969  0.75927444  1
  O2-  O150  1  0.57089544  0.17620517  0.09038011  1
  O2-  O151  1  0.57182947  0.17848917  0.42166295  1
  O2-  O152  1  0.56997343  0.17341344  0.75330483  1
  O2-  O153  1  0.57056302  0.67608871  0.08880389  1
  O2-  O154  1  0.57109756  0.67975071  0.42192131  1
  O2-  O155  1  0.57413093  0.68378824  0.75351164  1
  O2-  O156  1  0.17820261  0.42745990  0.23632822  1
  O2-  O157  1  0.17902563  0.42987748  0.56951990  1
  O2-  O158  1  0.18172800  0.42733465  0.90108929  1
  O2-  O159  1  0.17936222  0.93253393  0.24371594  1
  O2-  O160  1  0.17943185  0.92913751  0.56465547  1
  O2-  O161  1  0.17961144  0.92640816  0.90396495  1
  O2-  O162  1  0.68070812  0.42949574  0.23223456  1
  O2-  O163  1  0.67971391  0.43177216  0.56865775  1
  O2-  O164  1  0.67027496  0.43029534  0.91204163  1
  O2-  O165  1  0.67773059  0.93215465  0.23351693  1
  O2-  O166  1  0.67714512  0.92704347  0.57871496  1
  O2-  O167  1  0.67562033  0.93126480  0.90854528  1
  O2-  O168  1  0.43163356  0.32182533  0.09210960  1
  O2-  O169  1  0.43191299  0.32075733  0.42192266  1
  O2-  O170  1  0.43054002  0.31694458  0.76571830  1
  O2-  O171  1  0.43340556  0.82202787  0.09098742  1
  O2-  O172  1  0.43120198  0.82479597  0.42164779  1
  O2-  O173  1  0.42952746  0.81967245  0.76567684  1
  O2-  O174  1  0.92909173  0.32009564  0.10142062  1
  O2-  O175  1  0.92391590  0.31606367  0.42368857  1
  O2-  O176  1  0.93070545  0.32075042  0.76528579  1
  O2-  O177  1  0.92766435  0.81802230  0.09718579  1
  O2-  O178  1  0.92757633  0.82028088  0.43347915  1
  O2-  O179  1  0.92955297  0.82308601  0.75954036  1
  O2-  O180  1  0.32224944  0.06806815  0.23599536  1
  O2-  O181  1  0.32424818  0.06878787  0.57551007  1
  O2-  O182  1  0.32531979  0.06872585  0.89940037  1
  O2-  O183  1  0.32503688  0.56651677  0.23301924  1
  O2-  O184  1  0.31453305  0.57431582  0.56828502  1
  O2-  O185  1  0.32716093  0.57133187  0.91053603  1
  O2-  O186  1  0.81985017  0.07653760  0.24448269  1
  O2-  O187  1  0.81975115  0.06398978  0.56593604  1
  O2-  O188  1  0.81833278  0.07382443  0.90156767  1
  O2-  O189  1  0.81739974  0.57206116  0.24249817  1
  O2-  O190  1  0.81993866  0.57625918  0.56740596  1
  O2-  O191  1  0.81782058  0.57175338  0.90328110  1
  O2-  O192  1  0.04679046  0.08962922  0.26533902  1
  O2-  O193  1  0.03623249  0.08083723  0.59647560  1
  O2-  O194  1  0.05030651  0.08306864  0.94434469  1
  O2-  O195  1  0.04291622  0.57864431  0.26378072  1
  O2-  O196  1  0.04560465  0.58786761  0.60651359  1
  O2-  O197  1  0.04251920  0.58566946  0.93649461  1
  O2-  O198  1  0.54206999  0.08685945  0.26962965  1
  O2-  O199  1  0.54696598  0.08315606  0.59958914  1
  O2-  O200  1  0.54388833  0.08618726  0.93559499  1
  O2-  O201  1  0.54080558  0.58752893  0.26828383  1
  O2-  O202  1  0.55219166  0.58465026  0.60354856  1
  O2-  O203  1  0.54522299  0.58512257  0.93476546  1
  O2-  O204  1  0.16561039  0.20940305  0.26902339  1
  O2-  O205  1  0.17064038  0.19941413  0.59885936  1
  O2-  O206  1  0.16737636  0.20517375  0.94063299  1
  O2-  O207  1  0.16957554  0.70540570  0.26125621  1
  O2-  O208  1  0.15873656  0.71373021  0.60510015  1
  O2-  O209  1  0.16929515  0.69885563  0.93844670  1
  O2-  O210  1  0.66274334  0.20689076  0.26850823  1
  O2-  O211  1  0.66695445  0.19883387  0.60191532  1
  O2-  O212  1  0.66144664  0.20634092  0.93639878  1
  O2-  O213  1  0.66021798  0.70803367  0.26791400  1
  O2-  O214  1  0.66494495  0.70952688  0.59987925  1
  O2-  O215  1  0.66108564  0.70701118  0.93432535  1
  O2-  O216  1  0.08496255  0.46223018  0.06953773  1
  O2-  O217  1  0.07585946  0.45404432  0.40160958  1
  O2-  O218  1  0.08234116  0.45733366  0.73512267  1
  O2-  O219  1  0.08049629  0.95377451  0.07276722  1
  O2-  O220  1  0.08381916  0.95793779  0.39370350  1
  O2-  O221  1  0.08388002  0.96097856  0.73397094  1
  O2-  O222  1  0.58314623  0.45731490  0.06488885  1
  O2-  O223  1  0.58447381  0.46096317  0.39872114  1
  O2-  O224  1  0.58324606  0.46130554  0.73753207  1
  O2-  O225  1  0.58667147  0.95624989  0.06195623  1
  O2-  O226  1  0.58821273  0.96412658  0.40419426  1
  O2-  O227  1  0.58178461  0.95420983  0.72881075  1
  O2-  O228  1  0.21078493  0.33487901  0.07045380  1
  O2-  O229  1  0.20710036  0.33218593  0.40235502  1
  O2-  O230  1  0.20930510  0.32652665  0.73268984  1
  O2-  O231  1  0.20770054  0.82781202  0.07078944  1
  O2-  O232  1  0.20070757  0.83431659  0.39094226  1
  O2-  O233  1  0.21101650  0.83629464  0.73544864  1
  O2-  O234  1  0.69712998  0.33314753  0.06123070  1
  O2-  O235  1  0.70622699  0.33066457  0.39967646  1
  O2-  O236  1  0.69626259  0.32598285  0.73222060  1
  O2-  O237  1  0.70060484  0.83320257  0.05813128  1
  O2-  O238  1  0.70435832  0.83072853  0.40238732  1
  O2-  O239  1  0.69803564  0.83361658  0.73081256  1
  O2-  O240  1  0.45957888  0.41258600  0.26958304  1
  O2-  O241  1  0.46197080  0.41935774  0.59978840  1
  O2-  O242  1  0.45714047  0.41097955  0.93780729  1
  O2-  O243  1  0.46472604  0.91493547  0.27064850  1
  O2-  O244  1  0.45886172  0.91542925  0.59605435  1
  O2-  O245  1  0.46099491  0.91046173  0.93656013  1
  O2-  O246  1  0.95029718  0.41260110  0.27332440  1
  O2-  O247  1  0.95353183  0.42289349  0.60002557  1
  O2-  O248  1  0.96069318  0.41916027  0.93678716  1
  O2-  O249  1  0.95412543  0.92185145  0.26700903  1
  O2-  O250  1  0.95822580  0.91113464  0.60540982  1
  O2-  O251  1  0.95851357  0.92074354  0.93451095  1
  O2-  O252  1  0.33719405  0.29234061  0.27148016  1
  O2-  O253  1  0.33551621  0.29115576  0.59449503  1
  O2-  O254  1  0.33681705  0.29145826  0.94094709  1
  O2-  O255  1  0.33796024  0.80168627  0.26763271  1
  O2-  O256  1  0.33044414  0.78962466  0.59798215  1
  O2-  O257  1  0.33646231  0.79513192  0.94030773  1
  O2-  O258  1  0.83607720  0.28751653  0.27035717  1
  O2-  O259  1  0.82979202  0.29092715  0.60105061  1
  O2-  O260  1  0.83049804  0.29361043  0.93567595  1
  O2-  O261  1  0.82720572  0.79566931  0.26677441  1
  O2-  O262  1  0.83303635  0.79803679  0.61001496  1
  O2-  O263  1  0.83278530  0.78938309  0.93084091  1
  O2-  O264  1  0.42076440  0.03978492  0.06673632  1
  O2-  O265  1  0.41808576  0.04144330  0.40351861  1
  O2-  O266  1  0.41769580  0.04466910  0.72582803  1
  O2-  O267  1  0.41887595  0.54456927  0.06145363  1
  O2-  O268  1  0.41782169  0.54344649  0.40122579  1
  O2-  O269  1  0.42204988  0.55310739  0.72967321  1
  O2-  O270  1  0.91712227  0.04610125  0.06997820  1
  O2-  O271  1  0.92040406  0.05448215  0.39219865  1
  O2-  O272  1  0.91463307  0.03674101  0.73528076  1
  O2-  O273  1  0.91542939  0.54193140  0.07156992  1
  O2-  O274  1  0.91547834  0.55090215  0.39160416  1
  O2-  O275  1  0.92150229  0.54930662  0.73568324  1
  O2-  O276  1  0.29607045  0.16724625  0.06933947  1
  O2-  O277  1  0.29191966  0.16670831  0.40152360  1
  O2-  O278  1  0.30229859  0.16641733  0.72492449  1
  O2-  O279  1  0.30344415  0.66568195  0.06191835  1
  O2-  O280  1  0.29940952  0.67570546  0.39328823  1
  O2-  O281  1  0.28750450  0.66860102  0.73627120  1
  O2-  O282  1  0.78504719  0.16735981  0.07000921  1
  O2-  O283  1  0.78930495  0.16192810  0.39869838  1
  O2-  O284  1  0.78884693  0.16405331  0.73424442  1
  O2-  O285  1  0.78423256  0.66658308  0.06945583  1
  O2-  O286  1  0.79080367  0.66426902  0.39393043  1
  O2-  O287  1  0.78800580  0.66840623  0.73619234  1
