# generated using pymatgen
data_Ca2Al2SiO7
_symmetry_space_group_name_H-M   'P 1'
_cell_length_a   15.46884668
_cell_length_b   15.47229272
_cell_length_c   15.29372320
_cell_angle_alpha   90.01195695
_cell_angle_beta   89.99346056
_cell_angle_gamma   89.98988884
_symmetry_Int_Tables_number   1
_chemical_formula_structural   Ca2Al2SiO7
_chemical_formula_sum   'Ca48 Al48 Si24 O168'
_cell_volume   3660.37697541
_cell_formula_units_Z   24
loop_
 _symmetry_equiv_pos_site_id
 _symmetry_equiv_pos_as_xyz
  1  'x, y, z'
loop_
 _atom_type_symbol
 _atom_type_oxidation_number
  Ca2+  2.0
  Al0+  0.0
  Si0+  0.0
  O2-  -2.0
loop_
 _atom_site_type_symbol
 _atom_site_label
 _atom_site_symmetry_multiplicity
 _atom_site_fract_x
 _atom_site_fract_y
 _atom_site_fract_z
 _atom_site_occupancy
  Ca2+  Ca0  1  0.17182674  0.07825380  0.17956960  1
  Ca2+  Ca1  1  0.16722810  0.07309140  0.49669842  1
  Ca2+  Ca2  1  0.16582385  0.07393393  0.83541966  1
  Ca2+  Ca3  1  0.17756008  0.58263968  0.17629344  1
  Ca2+  Ca4  1  0.17663675  0.59976920  0.50019195  1
  Ca2+  Ca5  1  0.17777955  0.59394489  0.83410927  1
  Ca2+  Ca6  1  0.67000843  0.08083582  0.17171002  1
  Ca2+  Ca7  1  0.67014839  0.07368976  0.50566351  1
  Ca2+  Ca8  1  0.66324036  0.07365768  0.83419124  1
  Ca2+  Ca9  1  0.66556305  0.57966942  0.16998299  1
  Ca2+  Ca10  1  0.66463057  0.58327992  0.49601943  1
  Ca2+  Ca11  1  0.67269851  0.58202467  0.84791043  1
  Ca2+  Ca12  1  0.08441649  0.33191539  0.16501747  1
  Ca2+  Ca13  1  0.08186699  0.32761848  0.48475160  1
  Ca2+  Ca14  1  0.07575877  0.33784338  0.83204501  1
  Ca2+  Ca15  1  0.07926756  0.83154058  0.16883446  1
  Ca2+  Ca16  1  0.08459023  0.83020783  0.49235494  1
  Ca2+  Ca17  1  0.07947551  0.82808868  0.82787962  1
  Ca2+  Ca18  1  0.58183213  0.33766120  0.16104354  1
  Ca2+  Ca19  1  0.58382255  0.33254723  0.49216144  1
  Ca2+  Ca20  1  0.57697137  0.34336734  0.83733108  1
  Ca2+  Ca21  1  0.57019363  0.81956540  0.16253267  1
  Ca2+  Ca22  1  0.57295278  0.82991398  0.49164376  1
  Ca2+  Ca23  1  0.57365534  0.82806247  0.82923926  1
  Ca2+  Ca24  1  0.33348905  0.42627820  0.17415328  1
  Ca2+  Ca25  1  0.32397699  0.43127848  0.49869668  1
  Ca2+  Ca26  1  0.33449004  0.42966950  0.84218217  1
  Ca2+  Ca27  1  0.33275166  0.91878247  0.17738955  1
  Ca2+  Ca28  1  0.32402218  0.90756574  0.50120990  1
  Ca2+  Ca29  1  0.32906030  0.90415750  0.83435744  1
  Ca2+  Ca30  1  0.82552087  0.41308614  0.16974359  1
  Ca2+  Ca31  1  0.83085641  0.41391457  0.49739424  1
  Ca2+  Ca32  1  0.82814710  0.42445055  0.84734811  1
  Ca2+  Ca33  1  0.83761069  0.91102196  0.17179869  1
  Ca2+  Ca34  1  0.82669740  0.90817098  0.50290022  1
  Ca2+  Ca35  1  0.82736243  0.91131460  0.83995973  1
  Ca2+  Ca36  1  0.41069281  0.17434224  0.16249220  1
  Ca2+  Ca37  1  0.41465220  0.16624025  0.49345221  1
  Ca2+  Ca38  1  0.41475233  0.17649451  0.83339713  1
  Ca2+  Ca39  1  0.42113140  0.66320440  0.16184162  1
  Ca2+  Ca40  1  0.41530340  0.67393503  0.49215863  1
  Ca2+  Ca41  1  0.41621056  0.66919053  0.83185534  1
  Ca2+  Ca42  1  0.92250815  0.17946325  0.16802086  1
  Ca2+  Ca43  1  0.92496141  0.17233783  0.48780103  1
  Ca2+  Ca44  1  0.91346179  0.17489143  0.83400961  1
  Ca2+  Ca45  1  0.92071757  0.67124220  0.16321185  1
  Ca2+  Ca46  1  0.93192865  0.67221915  0.49048793  1
  Ca2+  Ca47  1  0.92044250  0.66590940  0.83162817  1
  Al0+  Al48  1  -0.00011902  -0.00184297  -0.00417361  1
  Al0+  Al49  1  0.00125297  0.00381081  0.32993826  1
  Al0+  Al50  1  -0.00047499  0.00294631  0.67192856  1
  Al0+  Al51  1  0.00105126  0.49903034  -0.00193139  1
  Al0+  Al52  1  -0.00341531  0.50037698  0.32866286  1
  Al0+  Al53  1  -0.00061443  0.49995295  0.66106611  1
  Al0+  Al54  1  0.49889202  -0.00007425  -0.00281964  1
  Al0+  Al55  1  0.50305422  0.00088583  0.33330659  1
  Al0+  Al56  1  0.50025092  0.00226111  0.66820756  1
  Al0+  Al57  1  0.50032089  0.49870602  -0.00138100  1
  Al0+  Al58  1  0.50098651  0.49817913  0.34097871  1
  Al0+  Al59  1  0.49905120  0.49984824  0.66837629  1
  Al0+  Al60  1  0.25066227  0.24701791  -0.00755590  1
  Al0+  Al61  1  0.25158858  0.25038166  0.33736789  1
  Al0+  Al62  1  0.24855396  0.25079189  0.66656832  1
  Al0+  Al63  1  0.24896485  0.74995471  0.00381252  1
  Al0+  Al64  1  0.24887033  0.75301686  0.33272214  1
  Al0+  Al65  1  0.25033350  0.75141679  0.66938117  1
  Al0+  Al66  1  0.75210174  0.24677369  -0.00188445  1
  Al0+  Al67  1  0.74994633  0.24931275  0.33530041  1
  Al0+  Al68  1  0.74862393  0.24994508  0.66783502  1
  Al0+  Al69  1  0.75007420  0.75007179  -0.00173624  1
  Al0+  Al70  1  0.74847756  0.74816096  0.32875225  1
  Al0+  Al71  1  0.74858720  0.74878665  0.67227275  1
  Al0+  Al72  1  0.31942965  0.57057895  0.68154367  1
  Al0+  Al73  1  0.06973261  0.68126411  0.65371938  1
  Al0+  Al74  1  0.68039700  0.42781554  0.01488369  1
  Al0+  Al75  1  0.92980890  0.82053950  0.98500390  1
  Al0+  Al76  1  0.92859053  0.82197531  0.32071232  1
  Al0+  Al77  1  0.07398140  0.18165555  0.31809125  1
  Al0+  Al78  1  0.43094798  0.82073970  0.65226079  1
  Al0+  Al79  1  0.42704269  0.82175933  0.98419017  1
  Al0+  Al80  1  0.56884673  0.67565731  0.31875704  1
  Al0+  Al81  1  0.67836385  0.92834868  0.68103722  1
  Al0+  Al82  1  0.17958521  0.93046380  0.68228897  1
  Al0+  Al83  1  0.07309571  0.67831400  0.31686831  1
  Al0+  Al84  1  0.56966461  0.67770475  0.98421532  1
  Al0+  Al85  1  0.17545713  0.42964907  0.34553312  1
  Al0+  Al86  1  0.42854256  0.82279108  0.31944466  1
  Al0+  Al87  1  0.32017651  0.57232410  0.34868968  1
  Al0+  Al88  1  0.17839110  0.93031267  0.34752494  1
  Al0+  Al89  1  0.31955923  0.57035480  0.01405496  1
  Al0+  Al90  1  0.32482160  0.07183941  0.34775602  1
  Al0+  Al91  1  0.92628157  0.32233880  0.31870464  1
  Al0+  Al92  1  0.42940881  0.32031280  0.98736060  1
  Al0+  Al93  1  0.92988783  0.32070099  0.98521974  1
  Al0+  Al94  1  0.82358394  0.57338183  0.01657178  1
  Al0+  Al95  1  0.68081680  0.42870774  0.34826979  1
  Si0+  Si96  1  0.32228720  0.07525759  0.68593858  1
  Si0+  Si97  1  0.07088425  0.17836588  0.65114513  1
  Si0+  Si98  1  0.82049892  0.07353072  0.68493594  1
  Si0+  Si99  1  0.92600355  0.82372899  0.65278565  1
  Si0+  Si100  1  0.43110873  0.31895033  0.32143521  1
  Si0+  Si101  1  0.42845932  0.32262720  0.64982910  1
  Si0+  Si102  1  0.57410894  0.67604409  0.64987041  1
  Si0+  Si103  1  0.82213637  0.56894786  0.68029205  1
  Si0+  Si104  1  0.68056928  0.92749279  0.34671909  1
  Si0+  Si105  1  0.07228952  0.67731025  0.98328530  1
  Si0+  Si106  1  0.17631919  0.42607855  0.68334376  1
  Si0+  Si107  1  0.67767724  0.92957968  0.01633076  1
  Si0+  Si108  1  0.32065072  0.07169419  0.01312759  1
  Si0+  Si109  1  0.82252671  0.06892229  0.01616963  1
  Si0+  Si110  1  0.57047888  0.18095694  0.65113655  1
  Si0+  Si111  1  0.57315448  0.17830551  0.31954594  1
  Si0+  Si112  1  0.82159236  0.57501596  0.35129652  1
  Si0+  Si113  1  0.17842011  0.92984474  0.01538100  1
  Si0+  Si114  1  0.07206098  0.17713127  0.98035047  1
  Si0+  Si115  1  0.67973943  0.42757049  0.68244127  1
  Si0+  Si116  1  0.17881941  0.42413011  0.01396525  1
  Si0+  Si117  1  0.57375535  0.17634162  0.98259102  1
  Si0+  Si118  1  0.82012767  0.07099274  0.34720070  1
  Si0+  Si119  1  0.92794207  0.31981651  0.65111880  1
  O2-  O120  1  0.25286450  -0.00152144  0.05493969  1
  O2-  O121  1  0.25524326  -0.00208955  0.39777328  1
  O2-  O122  1  0.25583263  0.00433854  0.72993673  1
  O2-  O123  1  0.24612325  0.49322386  0.05794031  1
  O2-  O124  1  0.24026842  0.50721372  0.39781806  1
  O2-  O125  1  0.24441512  0.49483891  0.72760407  1
  O2-  O126  1  0.75110431  -0.00139709  0.05877026  1
  O2-  O127  1  0.75524274  -0.00526841  0.38986453  1
  O2-  O128  1  0.75652368  0.00020611  0.72863837  1
  O2-  O129  1  0.75151694  0.50022023  0.06509824  1
  O2-  O130  1  0.75531702  0.50312491  0.39581231  1
  O2-  O131  1  0.74873687  0.50044093  0.72296404  1
  O2-  O132  1  0.00614068  0.25844712  0.26954446  1
  O2-  O133  1  0.00048444  0.25041243  0.60995121  1
  O2-  O134  1  0.00569995  0.24807981  0.93564848  1
  O2-  O135  1  -0.00063029  0.75012899  0.26921170  1
  O2-  O136  1  -0.00439776  0.75748732  0.60825359  1
  O2-  O137  1  0.00055570  0.74283399  0.93828733  1
  O2-  O138  1  0.49955218  0.24584603  0.27819651  1
  O2-  O139  1  0.49922407  0.25083119  0.60782609  1
  O2-  O140  1  0.50717930  0.24792806  0.93962152  1
  O2-  O141  1  0.49330636  0.74430358  0.26992536  1
  O2-  O142  1  0.50670570  0.74625170  0.60697132  1
  O2-  O143  1  0.49778749  0.74922755  0.93310499  1
  O2-  O144  1  0.07282438  0.17687892  0.08520270  1
  O2-  O145  1  0.06950952  0.17963299  0.43228671  1
  O2-  O146  1  0.06988782  0.17858521  0.75641647  1
  O2-  O147  1  0.07370704  0.67954753  0.08816377  1
  O2-  O148  1  0.07110116  0.68226373  0.43098338  1
  O2-  O149  1  0.06656778  0.68106596  0.76701235  1
  O2-  O150  1  0.57326946  0.17315219  0.08805435  1
  O2-  O151  1  0.57595281  0.17952304  0.42494812  1
  O2-  O152  1  0.57199077  0.18218269  0.75605596  1
  O2-  O153  1  0.56807628  0.67824107  0.09736021  1
  O2-  O154  1  0.57115971  0.67985923  0.43305201  1
  O2-  O155  1  0.57575613  0.67506002  0.75512000  1
  O2-  O156  1  0.18370410  0.42612735  0.23206029  1
  O2-  O157  1  0.17746243  0.42100672  0.57859923  1
  O2-  O158  1  0.18037316  0.42286681  0.90790580  1
  O2-  O159  1  0.17613129  0.93464372  0.23376928  1
  O2-  O160  1  0.17712805  0.93280199  0.57016319  1
  O2-  O161  1  0.17739290  0.93164137  0.90983864  1
  O2-  O162  1  0.68053319  0.42439031  0.23616428  1
  O2-  O163  1  0.68151080  0.42330189  0.57760792  1
  O2-  O164  1  0.68240793  0.42833850  0.90029478  1
  O2-  O165  1  0.67949488  0.93196717  0.24180418  1
  O2-  O166  1  0.68077820  0.93108794  0.56772858  1
  O2-  O167  1  0.67804246  0.93331645  0.91090406  1
  O2-  O168  1  0.42714426  0.31643958  0.10018827  1
  O2-  O169  1  0.43436431  0.31737699  0.42691937  1
  O2-  O170  1  0.43026952  0.32192962  0.75502613  1
  O2-  O171  1  0.42935076  0.82624157  0.09685224  1
  O2-  O172  1  0.43331385  0.82428582  0.43336027  1
  O2-  O173  1  0.43184672  0.81804644  0.76524780  1
  O2-  O174  1  0.92884277  0.31674024  0.09710139  1
  O2-  O175  1  0.92258585  0.31396051  0.43294993  1
  O2-  O176  1  0.92711772  0.31872747  0.75632049  1
  O2-  O177  1  0.93441389  0.82589543  0.09715043  1
  O2-  O178  1  0.92612038  0.82044523  0.43495622  1
  O2-  O179  1  0.92594044  0.82147897  0.75835862  1
  O2-  O180  1  0.32441703  0.07254969  0.23361869  1
  O2-  O181  1  0.32137374  0.07909813  0.58109217  1
  O2-  O182  1  0.31839240  0.07528370  0.90803765  1
  O2-  O183  1  0.32408140  0.56675460  0.23540031  1
  O2-  O184  1  0.32018953  0.56959914  0.56900924  1
  O2-  O185  1  0.31702489  0.57046668  0.90045412  1
  O2-  O186  1  0.81541310  0.07346091  0.24217297  1
  O2-  O187  1  0.81816280  0.07789751  0.57959125  1
  O2-  O188  1  0.82146566  0.06902933  0.91073386  1
  O2-  O189  1  0.81875542  0.57841352  0.24650143  1
  O2-  O190  1  0.82284692  0.56751257  0.57557835  1
  O2-  O191  1  0.82288508  0.56996632  0.90154616  1
  O2-  O192  1  0.04003025  0.08687305  0.26233930  1
  O2-  O193  1  0.04089871  0.08706846  0.60430952  1
  O2-  O194  1  0.04105007  0.08560264  0.93276119  1
  O2-  O195  1  0.04709617  0.57937813  0.26506896  1
  O2-  O196  1  0.03989345  0.58460349  0.59896774  1
  O2-  O197  1  0.05238451  0.58266595  0.93649027  1
  O2-  O198  1  0.55104523  0.08623325  0.27078699  1
  O2-  O199  1  0.54486869  0.08906360  0.60331245  1
  O2-  O200  1  0.54324057  0.08546214  0.93330018  1
  O2-  O201  1  0.54438745  0.57477564  0.26997913  1
  O2-  O202  1  0.54797010  0.58173903  0.60508924  1
  O2-  O203  1  0.54409407  0.57902482  0.93068028  1
  O2-  O204  1  0.17391161  0.20627112  0.26662100  1
  O2-  O205  1  0.16339774  0.20459613  0.60509840  1
  O2-  O206  1  0.16538238  0.19922411  0.93167992  1
  O2-  O207  1  0.17038470  0.70757797  0.26371150  1
  O2-  O208  1  0.16597153  0.71383685  0.60243333  1
  O2-  O209  1  0.16365205  0.70975704  0.93649643  1
  O2-  O210  1  0.66270652  0.20905588  0.27022600  1
  O2-  O211  1  0.66238497  0.20967634  0.60326659  1
  O2-  O212  1  0.66800933  0.19698299  0.93580683  1
  O2-  O213  1  0.66558389  0.70651171  0.26537887  1
  O2-  O214  1  0.66898345  0.70040810  0.60525813  1
  O2-  O215  1  0.66831374  0.70748214  0.93221515  1
  O2-  O216  1  0.08419316  0.44648882  0.05762539  1
  O2-  O217  1  0.07192248  0.44455657  0.39315309  1
  O2-  O218  1  0.08108426  0.45185737  0.72674871  1
  O2-  O219  1  0.08742219  0.96205842  0.06089579  1
  O2-  O220  1  0.08104816  0.96470034  0.40097277  1
  O2-  O221  1  0.08291710  0.96312947  0.73772019  1
  O2-  O222  1  0.58039178  0.45196441  0.06475732  1
  O2-  O223  1  0.58587597  0.45744289  0.40715662  1
  O2-  O224  1  0.58630171  0.45252422  0.72749902  1
  O2-  O225  1  0.58691003  0.96193263  0.06275585  1
  O2-  O226  1  0.59203556  0.96097711  0.39691306  1
  O2-  O227  1  0.58458703  0.96630952  0.73647045  1
  O2-  O228  1  0.20472750  0.32916149  0.05690720  1
  O2-  O229  1  0.21073582  0.33435582  0.40194188  1
  O2-  O230  1  0.20116528  0.33261156  0.73133018  1
  O2-  O231  1  0.20234223  0.83797959  0.06265392  1
  O2-  O232  1  0.20243713  0.83176957  0.40151686  1
  O2-  O233  1  0.21045363  0.83514651  0.73822996  1
  O2-  O234  1  0.70775294  0.32682199  0.06376705  1
  O2-  O235  1  0.71264994  0.33199784  0.40433341  1
  O2-  O236  1  0.70828088  0.33638000  0.73100821  1
  O2-  O237  1  0.70417035  0.83761186  0.06168628  1
  O2-  O238  1  0.70553089  0.83542233  0.39462842  1
  O2-  O239  1  0.70549692  0.83157748  0.73688539  1
  O2-  O240  1  0.46244426  0.40941621  0.27544372  1
  O2-  O241  1  0.45819925  0.41344753  0.60241859  1
  O2-  O242  1  0.45991620  0.41474461  0.92950067  1
  O2-  O243  1  0.46442972  0.91939130  0.26653627  1
  O2-  O244  1  0.45986994  0.91993321  0.60255751  1
  O2-  O245  1  0.45533278  0.92076474  0.93054154  1
  O2-  O246  1  0.93816205  0.42379567  0.26925393  1
  O2-  O247  1  0.95206639  0.41171419  0.60335059  1
  O2-  O248  1  0.95940787  0.41689773  0.92871171  1
  O2-  O249  1  0.95387046  0.92138093  0.26873651  1
  O2-  O250  1  0.94714752  0.92041215  0.61144052  1
  O2-  O251  1  0.96183497  0.91611520  0.92791057  1
  O2-  O252  1  0.33988309  0.29277715  0.27370576  1
  O2-  O253  1  0.33578174  0.29449553  0.60497674  1
  O2-  O254  1  0.33580598  0.28562769  0.92808569  1
  O2-  O255  1  0.32738967  0.80578068  0.27073443  1
  O2-  O256  1  0.33376175  0.78952037  0.60126720  1
  O2-  O257  1  0.32726688  0.79298646  0.93421041  1
  O2-  O258  1  0.83218520  0.28078228  0.26528166  1
  O2-  O259  1  0.83595033  0.28944444  0.60534577  1
  O2-  O260  1  0.83495927  0.28486893  0.92906531  1
  O2-  O261  1  0.83013300  0.79531355  0.26721399  1
  O2-  O262  1  0.83178491  0.79661123  0.60872807  1
  O2-  O263  1  0.83167929  0.79499217  0.93182830  1
  O2-  O264  1  0.41463709  0.04953132  0.05847067  1
  O2-  O265  1  0.42590550  0.04966326  0.39954313  1
  O2-  O266  1  0.41761287  0.05462879  0.73027563  1
  O2-  O267  1  0.41621298  0.53782303  0.06482872  1
  O2-  O268  1  0.41501677  0.53640824  0.40464387  1
  O2-  O269  1  0.41645812  0.53806961  0.73495588  1
  O2-  O270  1  0.91463360  0.04050898  0.06166377  1
  O2-  O271  1  0.91359229  0.05016769  0.39321088  1
  O2-  O272  1  0.91516046  0.05485524  0.73125564  1
  O2-  O273  1  0.92376666  0.54608376  0.06511732  1
  O2-  O274  1  0.91578935  0.55129915  0.39680982  1
  O2-  O275  1  0.91305615  0.53837208  0.72827607  1
  O2-  O276  1  0.29019308  0.16267273  0.06089136  1
  O2-  O277  1  0.29581512  0.16887654  0.40314254  1
  O2-  O278  1  0.29260726  0.16816305  0.73325325  1
  O2-  O279  1  0.28848437  0.66614698  0.06868516  1
  O2-  O280  1  0.29594333  0.67264413  0.39931687  1
  O2-  O281  1  0.28713635  0.66588389  0.73653250  1
  O2-  O282  1  0.79431147  0.16016721  0.06365817  1
  O2-  O283  1  0.78531541  0.15830238  0.39905718  1
  O2-  O284  1  0.78781333  0.16473668  0.73361899  1
  O2-  O285  1  0.79654704  0.67291876  0.06694331  1
  O2-  O286  1  0.79113919  0.66657001  0.40017088  1
  O2-  O287  1  0.79789726  0.66129238  0.72861452  1
