# generated using pymatgen
data_Ca2Al2SiO7
_symmetry_space_group_name_H-M   'P 1'
_cell_length_a   15.45881873
_cell_length_b   15.45873469
_cell_length_c   15.28394881
_cell_angle_alpha   89.99850176
_cell_angle_beta   90.00393323
_cell_angle_gamma   89.99501697
_symmetry_Int_Tables_number   1
_chemical_formula_structural   Ca2Al2SiO7
_chemical_formula_sum   'Ca48 Al48 Si24 O168'
_cell_volume   3652.46295692
_cell_formula_units_Z   24
loop_
 _symmetry_equiv_pos_site_id
 _symmetry_equiv_pos_as_xyz
  1  'x, y, z'
loop_
 _atom_type_symbol
 _atom_type_oxidation_number
  Ca2+  2.0
  Al0+  0.0
  Si0+  0.0
  O2-  -2.0
loop_
 _atom_site_type_symbol
 _atom_site_label
 _atom_site_symmetry_multiplicity
 _atom_site_fract_x
 _atom_site_fract_y
 _atom_site_fract_z
 _atom_site_occupancy
  Ca2+  Ca0  1  0.16069970  0.07331987  0.17521175  1
  Ca2+  Ca1  1  0.15546153  0.07648773  0.49809062  1
  Ca2+  Ca2  1  0.16960678  0.07680607  0.83992013  1
  Ca2+  Ca3  1  0.17008975  0.58876215  0.17359542  1
  Ca2+  Ca4  1  0.17717064  0.58430603  0.50939581  1
  Ca2+  Ca5  1  0.16344111  0.58674780  0.83148529  1
  Ca2+  Ca6  1  0.67319699  0.07126144  0.17711999  1
  Ca2+  Ca7  1  0.67441979  0.08636745  0.50266607  1
  Ca2+  Ca8  1  0.67088150  0.08090630  0.83661670  1
  Ca2+  Ca9  1  0.67181052  0.57692785  0.17715966  1
  Ca2+  Ca10  1  0.67230370  0.59195040  0.50035319  1
  Ca2+  Ca11  1  0.66695142  0.57774180  0.83932423  1
  Ca2+  Ca12  1  0.07145643  0.32954870  0.16489660  1
  Ca2+  Ca13  1  0.07554361  0.33049416  0.49387351  1
  Ca2+  Ca14  1  0.07109029  0.33856307  0.82542324  1
  Ca2+  Ca15  1  0.07262040  0.83594495  0.16112039  1
  Ca2+  Ca16  1  0.07938598  0.83000215  0.49223308  1
  Ca2+  Ca17  1  0.08389255  0.82688190  0.83492412  1
  Ca2+  Ca18  1  0.59158568  0.32659805  0.16528613  1
  Ca2+  Ca19  1  0.58692916  0.32035363  0.49521387  1
  Ca2+  Ca20  1  0.58607721  0.32956688  0.82682347  1
  Ca2+  Ca21  1  0.58644903  0.83265619  0.16753821  1
  Ca2+  Ca22  1  0.57889107  0.82382608  0.48730797  1
  Ca2+  Ca23  1  0.58431732  0.82950806  0.82777883  1
  Ca2+  Ca24  1  0.32918761  0.42532713  0.17650770  1
  Ca2+  Ca25  1  0.32620748  0.42603193  0.50700924  1
  Ca2+  Ca26  1  0.32741305  0.42302164  0.83327883  1
  Ca2+  Ca27  1  0.31967941  0.90838115  0.17406269  1
  Ca2+  Ca28  1  0.33016528  0.91023900  0.49605102  1
  Ca2+  Ca29  1  0.32716035  0.91633422  0.83905074  1
  Ca2+  Ca30  1  0.83634228  0.41958002  0.17033008  1
  Ca2+  Ca31  1  0.84063959  0.41913930  0.50068553  1
  Ca2+  Ca32  1  0.83215528  0.41445146  0.83853082  1
  Ca2+  Ca33  1  0.82822628  0.91369112  0.17841424  1
  Ca2+  Ca34  1  0.83481250  0.92772538  0.49843278  1
  Ca2+  Ca35  1  0.83051814  0.92212217  0.83981119  1
  Ca2+  Ca36  1  0.42456127  0.16145903  0.16826052  1
  Ca2+  Ca37  1  0.42953820  0.16363544  0.49324106  1
  Ca2+  Ca38  1  0.42504345  0.16865804  0.82585297  1
  Ca2+  Ca39  1  0.41791732  0.66921489  0.17239202  1
  Ca2+  Ca40  1  0.42418800  0.66312580  0.49268432  1
  Ca2+  Ca41  1  0.42298201  0.66634667  0.82444405  1
  Ca2+  Ca42  1  0.91280741  0.17198419  0.16983340  1
  Ca2+  Ca43  1  0.91288941  0.17514934  0.49141852  1
  Ca2+  Ca44  1  0.90965537  0.17731321  0.82799501  1
  Ca2+  Ca45  1  0.91463829  0.67836104  0.16319441  1
  Ca2+  Ca46  1  0.92241079  0.66910097  0.49136301  1
  Ca2+  Ca47  1  0.92677986  0.67287193  0.83079064  1
  Al0+  Al48  1  0.00081380  0.00181292  -0.00136793  1
  Al0+  Al49  1  -0.00101654  -0.00059785  0.33518596  1
  Al0+  Al50  1  -0.00176747  0.00202590  0.67563738  1
  Al0+  Al51  1  0.00137551  0.49946163  -0.00673336  1
  Al0+  Al52  1  -0.00025414  0.49839659  0.33325404  1
  Al0+  Al53  1  -0.00035806  0.50230187  0.66268493  1
  Al0+  Al54  1  0.50158436  -0.00002507  0.00131118  1
  Al0+  Al55  1  0.49679238  -0.00246925  0.32730665  1
  Al0+  Al56  1  0.49958892  -0.00048090  0.66356651  1
  Al0+  Al57  1  0.49981682  0.49838427  0.00464322  1
  Al0+  Al58  1  0.49980747  0.49866256  0.33439853  1
  Al0+  Al59  1  0.49934858  0.50031965  0.66638905  1
  Al0+  Al60  1  0.25257352  0.25233695  0.00064230  1
  Al0+  Al61  1  0.25036311  0.24811719  0.32984785  1
  Al0+  Al62  1  0.24816033  0.24946770  0.67211292  1
  Al0+  Al63  1  0.25204914  0.75102202  -0.00029188  1
  Al0+  Al64  1  0.25228557  0.74909185  0.34015541  1
  Al0+  Al65  1  0.25005125  0.75043894  0.66869514  1
  Al0+  Al66  1  0.74964905  0.24975714  -0.00013890  1
  Al0+  Al67  1  0.74901669  0.24978459  0.32714264  1
  Al0+  Al68  1  0.75074857  0.25036394  0.66313405  1
  Al0+  Al69  1  0.75033100  0.74996752  -0.00279536  1
  Al0+  Al70  1  0.75004023  0.74698504  0.33489880  1
  Al0+  Al71  1  0.74951227  0.75158576  0.66481291  1
  Al0+  Al72  1  0.32179991  0.57164961  0.68427694  1
  Al0+  Al73  1  0.17829500  0.92975893  0.34788810  1
  Al0+  Al74  1  0.18037585  0.93031045  0.01405637  1
  Al0+  Al75  1  0.81930181  0.07268982  0.68217389  1
  Al0+  Al76  1  0.92981399  0.81967055  0.32293742  1
  Al0+  Al77  1  0.17662947  0.42905232  0.68240590  1
  Al0+  Al78  1  0.07334270  0.68029356  0.98587145  1
  Al0+  Al79  1  0.67618749  0.92683383  0.34935378  1
  Al0+  Al80  1  0.57085140  0.17787308  0.31737007  1
  Al0+  Al81  1  0.07179896  0.17758687  0.31889105  1
  Al0+  Al82  1  0.32043442  0.56967393  0.34810486  1
  Al0+  Al83  1  0.57217670  0.67686276  0.31643992  1
  Al0+  Al84  1  0.07017305  0.68212784  0.65117378  1
  Al0+  Al85  1  0.82167296  0.56968881  0.34638841  1
  Al0+  Al86  1  0.67970034  0.92771211  0.01325786  1
  Al0+  Al87  1  0.56999852  0.17972640  0.65377305  1
  Al0+  Al88  1  0.42779242  0.81951614  0.31707328  1
  Al0+  Al89  1  0.92982927  0.32066514  0.65219921  1
  Al0+  Al90  1  0.92974614  0.31854182  0.98423000  1
  Al0+  Al91  1  0.67879500  0.42887342  0.01323588  1
  Al0+  Al92  1  0.57145292  0.67810055  0.65385793  1
  Al0+  Al93  1  0.81940202  0.07125909  0.34814666  1
  Al0+  Al94  1  0.92617451  0.82403475  0.98379338  1
  Al0+  Al95  1  0.92859077  0.32262836  0.31636021  1
  Si0+  Si96  1  0.82121933  0.57415064  0.68225715  1
  Si0+  Si97  1  0.32376055  0.07084751  0.68131129  1
  Si0+  Si98  1  0.82141043  0.07252334  0.01656854  1
  Si0+  Si99  1  0.17809212  0.42909828  0.01590401  1
  Si0+  Si100  1  0.92786828  0.82521601  0.64993989  1
  Si0+  Si101  1  0.32166956  0.07330264  0.35019474  1
  Si0+  Si102  1  0.67792318  0.42713683  0.35114161  1
  Si0+  Si103  1  0.07357191  0.17604019  0.65273893  1
  Si0+  Si104  1  0.17790214  0.42542033  0.34878713  1
  Si0+  Si105  1  0.42791881  0.32123993  0.31648243  1
  Si0+  Si106  1  0.32162213  0.57050686  0.01622880  1
  Si0+  Si107  1  0.17878102  0.92969421  0.68323694  1
  Si0+  Si108  1  0.07337174  0.67806333  0.31981824  1
  Si0+  Si109  1  0.42551455  0.32145968  0.65109457  1
  Si0+  Si110  1  0.68068801  0.42974640  0.67906000  1
  Si0+  Si111  1  0.32317913  0.07393212  0.01674494  1
  Si0+  Si112  1  0.42765680  0.82239633  0.65086491  1
  Si0+  Si113  1  0.42838940  0.32356045  0.98382336  1
  Si0+  Si114  1  0.43057234  0.82070214  0.98448126  1
  Si0+  Si115  1  0.82340327  0.57075256  0.01395810  1
  Si0+  Si116  1  0.67686234  0.92841997  0.68281453  1
  Si0+  Si117  1  0.56888569  0.17962522  0.98407921  1
  Si0+  Si118  1  0.07572152  0.17888919  0.98208079  1
  Si0+  Si119  1  0.57021149  0.67669681  0.98601830  1
  O2-  O120  1  0.25162285  0.00875611  0.06043240  1
  O2-  O121  1  0.25125864  0.00676335  0.39503338  1
  O2-  O122  1  0.25096423  0.00146900  0.72342281  1
  O2-  O123  1  0.24722060  0.50229944  0.05769874  1
  O2-  O124  1  0.24506871  0.49521975  0.39302512  1
  O2-  O125  1  0.24834692  0.50107674  0.73475999  1
  O2-  O126  1  0.75967079  -0.00315269  0.05895398  1
  O2-  O127  1  0.74540286  0.00145550  0.39946281  1
  O2-  O128  1  0.74527455  -0.00323179  0.72822077  1
  O2-  O129  1  0.75348661  0.50344215  0.05856193  1
  O2-  O130  1  0.74652537  0.49568437  0.39513531  1
  O2-  O131  1  0.74871693  0.50321489  0.72287380  1
  O2-  O132  1  0.00025711  0.24928803  0.26802595  1
  O2-  O133  1  0.00725992  0.24698060  0.60958632  1
  O2-  O134  1  0.00581256  0.24544036  0.93660734  1
  O2-  O135  1  0.00397221  0.74488883  0.27496847  1
  O2-  O136  1  -0.00415712  0.75656783  0.60493166  1
  O2-  O137  1  0.00025712  0.75225860  0.93613603  1
  O2-  O138  1  0.49643348  0.25334001  0.27036066  1
  O2-  O139  1  0.49311578  0.25216797  0.60673815  1
  O2-  O140  1  0.49854187  0.25153308  0.94148878  1
  O2-  O141  1  0.50305222  0.75145320  0.26576492  1
  O2-  O142  1  0.49591311  0.75250367  0.60936133  1
  O2-  O143  1  0.50272134  0.75077508  0.94234848  1
  O2-  O144  1  0.07796852  0.18092307  0.08714186  1
  O2-  O145  1  0.07249500  0.18061603  0.43287048  1
  O2-  O146  1  0.07391551  0.17475422  0.75856784  1
  O2-  O147  1  0.07478568  0.68054790  0.09933826  1
  O2-  O148  1  0.07228084  0.67985591  0.42558304  1
  O2-  O149  1  0.06910022  0.68472237  0.76435748  1
  O2-  O150  1  0.56672485  0.17974494  0.08872528  1
  O2-  O151  1  0.56976654  0.18055433  0.43072248  1
  O2-  O152  1  0.56804266  0.18141112  0.76760627  1
  O2-  O153  1  0.56793877  0.67461455  0.09025537  1
  O2-  O154  1  0.56925375  0.67653910  0.43013294  1
  O2-  O155  1  0.57118457  0.67931352  0.76811956  1
  O2-  O156  1  0.17988852  0.42654428  0.24254429  1
  O2-  O157  1  0.17999490  0.42788541  0.56904802  1
  O2-  O158  1  0.18045684  0.42695378  0.91107739  1
  O2-  O159  1  0.17932258  0.92917145  0.23478865  1
  O2-  O160  1  0.17741956  0.93001501  0.57850953  1
  O2-  O161  1  0.18584530  0.93098698  0.90022683  1
  O2-  O162  1  0.67774054  0.42842367  0.24513850  1
  O2-  O163  1  0.68170347  0.42825707  0.57447905  1
  O2-  O164  1  0.67689366  0.43030685  0.89943652  1
  O2-  O165  1  0.68016621  0.92837697  0.23525595  1
  O2-  O166  1  0.67543317  0.92867349  0.57815181  1
  O2-  O167  1  0.67508040  0.93218715  0.89971552  1
  O2-  O168  1  0.42666114  0.32444012  0.08841951  1
  O2-  O169  1  0.42806372  0.31950837  0.42208434  1
  O2-  O170  1  0.42792340  0.32017203  0.75739883  1
  O2-  O171  1  0.42805012  0.81959505  0.08863309  1
  O2-  O172  1  0.42638645  0.81630533  0.43087212  1
  O2-  O173  1  0.42914899  0.82460824  0.75736701  1
  O2-  O174  1  0.93048575  0.31910069  0.09650322  1
  O2-  O175  1  0.93072015  0.32293576  0.42994053  1
  O2-  O176  1  0.92733883  0.31886865  0.76575028  1
  O2-  O177  1  0.92531584  0.82155097  0.09725762  1
  O2-  O178  1  0.93293232  0.81957036  0.43621066  1
  O2-  O179  1  0.92843718  0.82391119  0.75576089  1
  O2-  O180  1  0.32099239  0.07406964  0.24448928  1
  O2-  O181  1  0.32700674  0.07088416  0.57701156  1
  O2-  O182  1  0.32457366  0.07268900  0.91039281  1
  O2-  O183  1  0.31794271  0.56861026  0.23404377  1
  O2-  O184  1  0.32188996  0.56929973  0.57119881  1
  O2-  O185  1  0.32547965  0.56833667  0.91137027  1
  O2-  O186  1  0.81867199  0.07014886  0.23431378  1
  O2-  O187  1  0.81951017  0.07344418  0.56985726  1
  O2-  O188  1  0.81564562  0.07557060  0.91055417  1
  O2-  O189  1  0.82173190  0.56863726  0.23299173  1
  O2-  O190  1  0.82123026  0.57500034  0.57745553  1
  O2-  O191  1  0.82067669  0.56951422  0.90774696  1
  O2-  O192  1  0.04229241  0.07974508  0.26659760  1
  O2-  O193  1  0.04502398  0.08251003  0.60843241  1
  O2-  O194  1  0.05311467  0.08442559  0.93662886  1
  O2-  O195  1  0.05122406  0.58331508  0.27530201  1
  O2-  O196  1  0.04048182  0.58598555  0.59726261  1
  O2-  O197  1  0.04630796  0.58216467  0.93095102  1
  O2-  O198  1  0.53745833  0.08300167  0.26216167  1
  O2-  O199  1  0.54007782  0.08324015  0.60002164  1
  O2-  O200  1  0.53940792  0.08846028  0.93551729  1
  O2-  O201  1  0.54087473  0.57816684  0.26468743  1
  O2-  O202  1  0.54261391  0.58106865  0.60031090  1
  O2-  O203  1  0.53802237  0.58562374  0.93844891  1
  O2-  O204  1  0.17092745  0.20273589  0.26439195  1
  O2-  O205  1  0.16897811  0.19665140  0.60814260  1
  O2-  O206  1  0.17043637  0.20482226  0.93668248  1
  O2-  O207  1  0.16700234  0.70443140  0.27587420  1
  O2-  O208  1  0.16834730  0.71217074  0.60017509  1
  O2-  O209  1  0.17160222  0.71065143  0.93145987  1
  O2-  O210  1  0.66500027  0.20975615  0.26028791  1
  O2-  O211  1  0.66386990  0.21452395  0.59895032  1
  O2-  O212  1  0.66038419  0.20823051  0.93698603  1
  O2-  O213  1  0.67151050  0.70127463  0.26478951  1
  O2-  O214  1  0.66807985  0.70840641  0.60014302  1
  O2-  O215  1  0.66284049  0.70014992  0.93808925  1
  O2-  O216  1  0.08528295  0.45492343  0.06144360  1
  O2-  O217  1  0.08399227  0.44865070  0.39370966  1
  O2-  O218  1  0.07829778  0.46097438  0.73447869  1
  O2-  O219  1  0.08172139  0.95772323  0.06539068  1
  O2-  O220  1  0.08319774  0.96020094  0.40456391  1
  O2-  O221  1  0.08854759  0.95776963  0.73366558  1
  O2-  O222  1  0.58248634  0.45725550  0.06914211  1
  O2-  O223  1  0.58365893  0.44966319  0.39676180  1
  O2-  O224  1  0.58750961  0.45360592  0.72660464  1
  O2-  O225  1  0.58402830  0.96195002  0.06726715  1
  O2-  O226  1  0.57420133  0.95115909  0.39611150  1
  O2-  O227  1  0.58255376  0.95408985  0.72917824  1
  O2-  O228  1  0.20931983  0.33832641  0.06386311  1
  O2-  O229  1  0.20573598  0.33221537  0.39422608  1
  O2-  O230  1  0.20340267  0.32998409  0.73759037  1
  O2-  O231  1  0.21601113  0.83492467  0.06685044  1
  O2-  O232  1  0.21258776  0.83536247  0.40414770  1
  O2-  O233  1  0.20922405  0.83942526  0.73200915  1
  O2-  O234  1  0.70882520  0.33193584  0.06631252  1
  O2-  O235  1  0.70380317  0.33297227  0.39487669  1
  O2-  O236  1  0.71096433  0.33939379  0.72836976  1
  O2-  O237  1  0.70332683  0.82802019  0.06416905  1
  O2-  O238  1  0.70507200  0.82851379  0.40080374  1
  O2-  O239  1  0.70321947  0.83478532  0.73003114  1
  O2-  O240  1  0.45328932  0.41447508  0.26988757  1
  O2-  O241  1  0.45178756  0.41457050  0.60576000  1
  O2-  O242  1  0.45842273  0.41448767  0.93560437  1
  O2-  O243  1  0.44631466  0.91900834  0.26258445  1
  O2-  O244  1  0.45176158  0.91538978  0.60356098  1
  O2-  O245  1  0.45727557  0.91353631  0.93706978  1
  O2-  O246  1  0.95977792  0.42002117  0.26178795  1
  O2-  O247  1  0.95755465  0.41798779  0.59926430  1
  O2-  O248  1  0.95921589  0.41523764  0.92941761  1
  O2-  O249  1  0.95998320  0.91526715  0.26818338  1
  O2-  O250  1  0.95577539  0.91975383  0.60782888  1
  O2-  O251  1  0.95427684  0.92327919  0.93148606  1
  O2-  O252  1  0.33504823  0.29634156  0.26811835  1
  O2-  O253  1  0.33118686  0.29615299  0.60747045  1
  O2-  O254  1  0.33681406  0.29645667  0.93458771  1
  O2-  O255  1  0.33058219  0.78377864  0.26447228  1
  O2-  O256  1  0.33339727  0.79881102  0.60664688  1
  O2-  O257  1  0.34047780  0.79133128  0.93436362  1
  O2-  O258  1  0.83033783  0.29585116  0.26306808  1
  O2-  O259  1  0.83468093  0.28882560  0.59740574  1
  O2-  O260  1  0.83216791  0.28705252  0.93078474  1
  O2-  O261  1  0.83430851  0.78737631  0.26878972  1
  O2-  O262  1  0.83355308  0.80148550  0.60588320  1
  O2-  O263  1  0.82851314  0.79438992  0.92801479  1
  O2-  O264  1  0.41578822  0.04531310  0.06226839  1
  O2-  O265  1  0.41435031  0.04431258  0.39587936  1
  O2-  O266  1  0.41422899  0.04083155  0.73202016  1
  O2-  O267  1  0.41086706  0.53838096  0.06585725  1
  O2-  O268  1  0.41682354  0.53719329  0.40127361  1
  O2-  O269  1  0.42017784  0.54038381  0.73790276  1
  O2-  O270  1  0.91880995  0.05724539  0.05697624  1
  O2-  O271  1  0.91686349  0.04212709  0.40214403  1
  O2-  O272  1  0.91527683  0.04466467  0.74006615  1
  O2-  O273  1  0.91701468  0.54364567  0.05833404  1
  O2-  O274  1  0.91836009  0.53889771  0.40172539  1
  O2-  O275  1  0.91232800  0.54480247  0.72934022  1
  O2-  O276  1  0.30351862  0.16964912  0.06115188  1
  O2-  O277  1  0.30051514  0.16808436  0.39619472  1
  O2-  O278  1  0.29843896  0.16239863  0.73154288  1
  O2-  O279  1  0.29654387  0.66352880  0.06166738  1
  O2-  O280  1  0.29109954  0.66425452  0.40524593  1
  O2-  O281  1  0.29533010  0.67139335  0.73664014  1
  O2-  O282  1  0.78809935  0.16290344  0.06386267  1
  O2-  O283  1  0.79017818  0.17125549  0.39803149  1
  O2-  O284  1  0.78413738  0.16854560  0.73616828  1
  O2-  O285  1  0.79867513  0.66513081  0.05788286  1
  O2-  O286  1  0.79159467  0.66444735  0.40380566  1
  O2-  O287  1  0.79343670  0.66600461  0.73042557  1
