# generated using pymatgen
data_Ca2Al2SiO7
_symmetry_space_group_name_H-M   'P 1'
_cell_length_a   15.46296659
_cell_length_b   15.46485981
_cell_length_c   15.28777456
_cell_angle_alpha   89.99681399
_cell_angle_beta   89.99488336
_cell_angle_gamma   89.99243306
_symmetry_Int_Tables_number   1
_chemical_formula_structural   Ca2Al2SiO7
_chemical_formula_sum   'Ca48 Al48 Si24 O168'
_cell_volume   3655.80538841
_cell_formula_units_Z   24
loop_
 _symmetry_equiv_pos_site_id
 _symmetry_equiv_pos_as_xyz
  1  'x, y, z'
loop_
 _atom_type_symbol
 _atom_type_oxidation_number
  Ca2+  2.0
  Al0+  0.0
  Si0+  0.0
  O2-  -2.0
loop_
 _atom_site_type_symbol
 _atom_site_label
 _atom_site_symmetry_multiplicity
 _atom_site_fract_x
 _atom_site_fract_y
 _atom_site_fract_z
 _atom_site_occupancy
  Ca2+  Ca0  1  0.17228238  0.08422093  0.17678022  1
  Ca2+  Ca1  1  0.16609776  0.08466447  0.50617489  1
  Ca2+  Ca2  1  0.15676597  0.07813921  0.83482123  1
  Ca2+  Ca3  1  0.16958876  0.58200976  0.16817951  1
  Ca2+  Ca4  1  0.16921816  0.59058058  0.50119431  1
  Ca2+  Ca5  1  0.17039097  0.57849318  0.84382145  1
  Ca2+  Ca6  1  0.67206074  0.08261390  0.16525026  1
  Ca2+  Ca7  1  0.66572852  0.08571826  0.50528423  1
  Ca2+  Ca8  1  0.66888362  0.08138054  0.84153284  1
  Ca2+  Ca9  1  0.67406055  0.57497995  0.17008988  1
  Ca2+  Ca10  1  0.67404234  0.57629224  0.49877055  1
  Ca2+  Ca11  1  0.67562914  0.57770123  0.84828457  1
  Ca2+  Ca12  1  0.07381625  0.33611757  0.16113365  1
  Ca2+  Ca13  1  0.07267662  0.32758457  0.49323493  1
  Ca2+  Ca14  1  0.07079091  0.33586850  0.82946591  1
  Ca2+  Ca15  1  0.08417511  0.81841014  0.16256600  1
  Ca2+  Ca16  1  0.09187545  0.82480340  0.49768009  1
  Ca2+  Ca17  1  0.08704466  0.82224841  0.82885845  1
  Ca2+  Ca18  1  0.57901372  0.34464040  0.16002256  1
  Ca2+  Ca19  1  0.58117786  0.33218003  0.49973745  1
  Ca2+  Ca20  1  0.57291055  0.33901301  0.83086208  1
  Ca2+  Ca21  1  0.57875691  0.82783141  0.15891118  1
  Ca2+  Ca22  1  0.57479822  0.83084438  0.49106002  1
  Ca2+  Ca23  1  0.58936881  0.82782883  0.83664549  1
  Ca2+  Ca24  1  0.33028873  0.42549773  0.16712043  1
  Ca2+  Ca25  1  0.33396436  0.42244549  0.50288002  1
  Ca2+  Ca26  1  0.32741836  0.41534693  0.84470634  1
  Ca2+  Ca27  1  0.33551622  0.92215576  0.17533855  1
  Ca2+  Ca28  1  0.32979213  0.92230784  0.50140819  1
  Ca2+  Ca29  1  0.32711392  0.91994456  0.83414988  1
  Ca2+  Ca30  1  0.82936688  0.41950029  0.17065851  1
  Ca2+  Ca31  1  0.83764045  0.41261127  0.49710656  1
  Ca2+  Ca32  1  0.82956027  0.41481906  0.84469175  1
  Ca2+  Ca33  1  0.82982988  0.91945354  0.16452890  1
  Ca2+  Ca34  1  0.83338536  0.91862621  0.50479793  1
  Ca2+  Ca35  1  0.82856558  0.92821557  0.84540972  1
  Ca2+  Ca36  1  0.41618891  0.17306289  0.16095191  1
  Ca2+  Ca37  1  0.41839130  0.16887958  0.49752277  1
  Ca2+  Ca38  1  0.42313080  0.18121830  0.82782151  1
  Ca2+  Ca39  1  0.41733112  0.66516868  0.16023998  1
  Ca2+  Ca40  1  0.41256220  0.67448218  0.48921003  1
  Ca2+  Ca41  1  0.42496103  0.65732020  0.83596347  1
  Ca2+  Ca42  1  0.91648306  0.17695447  0.16253227  1
  Ca2+  Ca43  1  0.92738409  0.17449701  0.49435636  1
  Ca2+  Ca44  1  0.91468300  0.17770560  0.82866217  1
  Ca2+  Ca45  1  0.92383307  0.65312345  0.16182048  1
  Ca2+  Ca46  1  0.92897409  0.66347463  0.49226154  1
  Ca2+  Ca47  1  0.93012838  0.65623101  0.83323276  1
  Al0+  Al48  1  -0.00015336  -0.00166789  0.00663117  1
  Al0+  Al49  1  -0.00053079  -0.00249560  0.33091426  1
  Al0+  Al50  1  -0.00121547  -0.00112669  0.67023079  1
  Al0+  Al51  1  0.00144863  0.49719033  -0.00327872  1
  Al0+  Al52  1  -0.00024026  0.49913072  0.32999134  1
  Al0+  Al53  1  0.00257891  0.50188153  0.65750310  1
  Al0+  Al54  1  0.49853430  -0.00095003  0.00114620  1
  Al0+  Al55  1  0.49802339  0.00028947  0.33356482  1
  Al0+  Al56  1  0.49931919  -0.00084590  0.66631732  1
  Al0+  Al57  1  0.49913184  0.50236414  -0.00289289  1
  Al0+  Al58  1  0.50061596  0.50018736  0.34318700  1
  Al0+  Al59  1  0.50276522  0.50171207  0.66201299  1
  Al0+  Al60  1  0.24937334  0.24860388  -0.00105144  1
  Al0+  Al61  1  0.25250060  0.24993665  0.33598816  1
  Al0+  Al62  1  0.25124222  0.25223151  0.66203323  1
  Al0+  Al63  1  0.25012934  0.75185206  -0.00243331  1
  Al0+  Al64  1  0.25009889  0.75150241  0.32736121  1
  Al0+  Al65  1  0.25177997  0.75195247  0.66929425  1
  Al0+  Al66  1  0.74972693  0.24821383  0.00450075  1
  Al0+  Al67  1  0.74902743  0.24759155  0.33489686  1
  Al0+  Al68  1  0.74745801  0.25131147  0.66090508  1
  Al0+  Al69  1  0.74998153  0.75173940  0.00322054  1
  Al0+  Al70  1  0.74968711  0.74858655  0.33871870  1
  Al0+  Al71  1  0.75116550  0.74916544  0.66771031  1
  Al0+  Al72  1  0.17948427  0.93026734  0.68107750  1
  Al0+  Al73  1  0.92808704  0.32252917  0.65075111  1
  Al0+  Al74  1  0.32068244  0.57232349  0.01311815  1
  Al0+  Al75  1  0.42870096  0.32176680  0.98892006  1
  Al0+  Al76  1  0.67688215  0.92854994  0.01585058  1
  Al0+  Al77  1  0.82325272  0.57059213  0.35065952  1
  Al0+  Al78  1  0.67734939  0.42866457  0.01233134  1
  Al0+  Al79  1  0.07265392  0.68171335  0.65259324  1
  Al0+  Al80  1  0.56899662  0.17805992  0.65239477  1
  Al0+  Al81  1  0.07373544  0.17730554  0.31780751  1
  Al0+  Al82  1  0.82348505  0.57062154  0.01238783  1
  Al0+  Al83  1  0.92840203  0.31891871  0.98656347  1
  Al0+  Al84  1  0.07004130  0.68034233  0.31802111  1
  Al0+  Al85  1  0.42835380  0.32447424  0.64945540  1
  Al0+  Al86  1  0.92844351  0.31881209  0.31489655  1
  Al0+  Al87  1  0.43007855  0.82104222  0.31929375  1
  Al0+  Al88  1  0.32094487  0.07237387  0.34800763  1
  Al0+  Al89  1  0.31880461  0.57211905  0.34705333  1
  Al0+  Al90  1  0.82223049  0.07228492  0.01649414  1
  Al0+  Al91  1  0.07018532  0.17590872  0.65402540  1
  Al0+  Al92  1  0.07049307  0.67925016  0.98512725  1
  Al0+  Al93  1  0.57134302  0.68047199  0.98778051  1
  Al0+  Al94  1  0.17856430  0.42632996  0.01381740  1
  Al0+  Al95  1  0.67886341  0.42642232  0.35170559  1
  Si0+  Si96  1  0.17937476  0.42996221  0.67944199  1
  Si0+  Si97  1  0.32320943  0.07386084  0.68486137  1
  Si0+  Si98  1  0.43053826  0.81947542  0.65218376  1
  Si0+  Si99  1  0.57050771  0.17625524  0.98581649  1
  Si0+  Si100  1  0.56978265  0.17774740  0.31729444  1
  Si0+  Si101  1  0.43079423  0.32316553  0.31842720  1
  Si0+  Si102  1  0.92362659  0.82199481  0.31607098  1
  Si0+  Si103  1  0.17838930  0.42799424  0.35102771  1
  Si0+  Si104  1  0.07252308  0.17525324  0.98467151  1
  Si0+  Si105  1  0.81855787  0.07113779  0.67998480  1
  Si0+  Si106  1  0.31971290  0.07010708  0.01348337  1
  Si0+  Si107  1  0.32226760  0.57215989  0.68114262  1
  Si0+  Si108  1  0.92842000  0.82389916  0.98346604  1
  Si0+  Si109  1  0.67815068  0.92946110  0.34954064  1
  Si0+  Si110  1  0.67965928  0.43008802  0.68287220  1
  Si0+  Si111  1  0.42759682  0.82462103  0.98025849  1
  Si0+  Si112  1  0.57451518  0.67982896  0.65015750  1
  Si0+  Si113  1  0.82117209  0.06891473  0.35081848  1
  Si0+  Si114  1  0.17795559  0.92878246  0.34872195  1
  Si0+  Si115  1  0.82284937  0.57082942  0.68151427  1
  Si0+  Si116  1  0.67729796  0.92710686  0.68129632  1
  Si0+  Si117  1  0.92691268  0.82158583  0.65212046  1
  Si0+  Si118  1  0.57189494  0.67738893  0.31792981  1
  Si0+  Si119  1  0.17871102  0.92822344  0.01667679  1
  O2-  O120  1  0.24845089  0.00055032  0.05743496  1
  O2-  O121  1  0.24113881  0.00229304  0.39358012  1
  O2-  O122  1  0.24904328  0.01031725  0.72879657  1
  O2-  O123  1  0.24883714  0.50062716  0.06311784  1
  O2-  O124  1  0.24438997  0.49910191  0.39684628  1
  O2-  O125  1  0.25409876  0.49798368  0.72165845  1
  O2-  O126  1  0.74903026  0.00018806  0.06556944  1
  O2-  O127  1  0.75113887  -0.00311227  0.39428080  1
  O2-  O128  1  0.74675837  0.00004097  0.72201513  1
  O2-  O129  1  0.75085977  0.49910054  0.06175489  1
  O2-  O130  1  0.75367597  0.49627733  0.40159839  1
  O2-  O131  1  0.75396973  0.49801875  0.72402113  1
  O2-  O132  1  0.00316787  0.24875401  0.26585016  1
  O2-  O133  1  0.00071538  0.24942751  0.60345106  1
  O2-  O134  1  0.00310379  0.24305835  0.94096038  1
  O2-  O135  1  -0.00969197  0.75114030  0.27304379  1
  O2-  O136  1  -0.00303940  0.75568772  0.60646425  1
  O2-  O137  1  -0.00659735  0.75232403  0.93825445  1
  O2-  O138  1  0.50259921  0.25262646  0.27605271  1
  O2-  O139  1  0.49695283  0.24855573  0.60022897  1
  O2-  O140  1  0.50654951  0.24952994  0.94254919  1
  O2-  O141  1  0.50299803  0.74518643  0.27331437  1
  O2-  O142  1  0.50237663  0.74998130  0.60896445  1
  O2-  O143  1  0.49607606  0.75459734  0.93785437  1
  O2-  O144  1  0.07429260  0.17498495  0.08992278  1
  O2-  O145  1  0.07078753  0.17727656  0.43155233  1
  O2-  O146  1  0.06492101  0.17480969  0.76758835  1
  O2-  O147  1  0.07211211  0.68212478  0.09781492  1
  O2-  O148  1  0.07244291  0.68560096  0.43153577  1
  O2-  O149  1  0.07277746  0.68073842  0.76542513  1
  O2-  O150  1  0.56570844  0.17158747  0.09134441  1
  O2-  O151  1  0.56760816  0.17472415  0.42238783  1
  O2-  O152  1  0.56899189  0.17724422  0.76586661  1
  O2-  O153  1  0.56892688  0.68202958  0.10050875  1
  O2-  O154  1  0.57099553  0.68181678  0.42439635  1
  O2-  O155  1  0.57584692  0.68008444  0.75509480  1
  O2-  O156  1  0.18142916  0.42747968  0.24568324  1
  O2-  O157  1  0.17892742  0.43271464  0.57445040  1
  O2-  O158  1  0.17930213  0.42679079  0.89929569  1
  O2-  O159  1  0.18111248  0.92855419  0.24306455  1
  O2-  O160  1  0.18478756  0.92683549  0.56835290  1
  O2-  O161  1  0.17884876  0.92855324  0.91126425  1
  O2-  O162  1  0.67520449  0.42965451  0.23864968  1
  O2-  O163  1  0.67754420  0.43223600  0.57815257  1
  O2-  O164  1  0.67766671  0.43028848  0.89796459  1
  O2-  O165  1  0.67774786  0.93126027  0.24510621  1
  O2-  O166  1  0.67805962  0.92516471  0.57598593  1
  O2-  O167  1  0.67765277  0.93161475  0.90137224  1
  O2-  O168  1  0.42822330  0.31902979  0.10218725  1
  O2-  O169  1  0.43144425  0.32207358  0.42347342  1
  O2-  O170  1  0.43047844  0.32620061  0.76321116  1
  O2-  O171  1  0.42779480  0.82780519  0.08558216  1
  O2-  O172  1  0.43191453  0.82075835  0.43326247  1
  O2-  O173  1  0.43085359  0.81988861  0.75703077  1
  O2-  O174  1  0.92841347  0.31847809  0.09890391  1
  O2-  O175  1  0.92976723  0.31509663  0.42875064  1
  O2-  O176  1  0.92647243  0.32246330  0.76449450  1
  O2-  O177  1  0.93278291  0.82727173  0.08882283  1
  O2-  O178  1  0.92370998  0.82445058  0.42207208  1
  O2-  O179  1  0.92411651  0.82019973  0.75726680  1
  O2-  O180  1  0.32363186  0.06942801  0.23455097  1
  O2-  O181  1  0.32659812  0.06878913  0.57953142  1
  O2-  O182  1  0.32003564  0.06840182  0.90840679  1
  O2-  O183  1  0.32015210  0.57060680  0.23470801  1
  O2-  O184  1  0.32050509  0.57497716  0.57590756  1
  O2-  O185  1  0.32019033  0.57058924  0.89868160  1
  O2-  O186  1  0.81924130  0.06796979  0.24622857  1
  O2-  O187  1  0.81804391  0.06701643  0.57472858  1
  O2-  O188  1  0.82119271  0.07111817  0.90204515  1
  O2-  O189  1  0.81994612  0.57259868  0.23772231  1
  O2-  O190  1  0.81953933  0.57409016  0.57689155  1
  O2-  O191  1  0.82251966  0.56847585  0.89775789  1
  O2-  O192  1  0.04718483  0.07688145  0.26754461  1
  O2-  O193  1  0.04119537  0.07715448  0.60106537  1
  O2-  O194  1  0.04690517  0.08003634  0.94130432  1
  O2-  O195  1  0.04472371  0.58214683  0.26611250  1
  O2-  O196  1  0.04367697  0.58717975  0.59505997  1
  O2-  O197  1  0.04203597  0.58263837  0.92996920  1
  O2-  O198  1  0.53773865  0.08790522  0.26917447  1
  O2-  O199  1  0.54295963  0.07814380  0.59911188  1
  O2-  O200  1  0.54001287  0.08480564  0.93704270  1
  O2-  O201  1  0.54555541  0.58288142  0.27633122  1
  O2-  O202  1  0.54808569  0.58881086  0.60170950  1
  O2-  O203  1  0.53969228  0.58631919  0.92864852  1
  O2-  O204  1  0.17488472  0.20272536  0.26897243  1
  O2-  O205  1  0.17105332  0.19862870  0.60466099  1
  O2-  O206  1  0.16596610  0.19832713  0.93709714  1
  O2-  O207  1  0.16398501  0.71585817  0.26246547  1
  O2-  O208  1  0.16936390  0.71576287  0.60006798  1
  O2-  O209  1  0.16624852  0.71422928  0.93063707  1
  O2-  O210  1  0.66349463  0.19963489  0.27223768  1
  O2-  O211  1  0.66589800  0.20634247  0.59659829  1
  O2-  O212  1  0.66627196  0.19539517  0.94302488  1
  O2-  O213  1  0.66570822  0.70433470  0.27437467  1
  O2-  O214  1  0.66529050  0.70995066  0.60188298  1
  O2-  O215  1  0.66766553  0.71300094  0.93208475  1
  O2-  O216  1  0.08114091  0.45512990  0.06607911  1
  O2-  O217  1  0.08370474  0.45129938  0.39473699  1
  O2-  O218  1  0.08795492  0.46188145  0.72582744  1
  O2-  O219  1  0.08734455  0.95207053  0.06574745  1
  O2-  O220  1  0.08165379  0.94569857  0.39332620  1
  O2-  O221  1  0.08101051  0.95420612  0.73603760  1
  O2-  O222  1  0.58024960  0.46062454  0.06456979  1
  O2-  O223  1  0.58291430  0.45863937  0.40883715  1
  O2-  O224  1  0.58823119  0.46246506  0.72915575  1
  O2-  O225  1  0.57801534  0.95649996  0.06827163  1
  O2-  O226  1  0.58757858  0.96096568  0.39775405  1
  O2-  O227  1  0.58494065  0.95237386  0.72854809  1
  O2-  O228  1  0.20741207  0.32818950  0.06681949  1
  O2-  O229  1  0.20758762  0.33593140  0.39832651  1
  O2-  O230  1  0.20313459  0.33675418  0.72615518  1
  O2-  O231  1  0.20942800  0.83781553  0.06402837  1
  O2-  O232  1  0.21119670  0.83780029  0.39531433  1
  O2-  O233  1  0.21749008  0.83645122  0.73770925  1
  O2-  O234  1  0.69908182  0.32921888  0.06458286  1
  O2-  O235  1  0.70395781  0.32594805  0.40323737  1
  O2-  O236  1  0.70262808  0.33597741  0.72749570  1
  O2-  O237  1  0.70479633  0.83166939  0.07073956  1
  O2-  O238  1  0.70185613  0.83700540  0.39839901  1
  O2-  O239  1  0.70692521  0.83589589  0.72947637  1
  O2-  O240  1  0.45929988  0.41592241  0.27384553  1
  O2-  O241  1  0.46130038  0.42149271  0.59539928  1
  O2-  O242  1  0.45670993  0.41759711  0.93241149  1
  O2-  O243  1  0.46315619  0.91676343  0.26522101  1
  O2-  O244  1  0.45697984  0.91137189  0.60429584  1
  O2-  O245  1  0.45510355  0.91717629  0.93197217  1
  O2-  O246  1  0.95378281  0.41861433  0.26513342  1
  O2-  O247  1  0.95890792  0.41897584  0.59556720  1
  O2-  O248  1  0.96052392  0.41353496  0.92938353  1
  O2-  O249  1  0.95001608  0.91462365  0.26876103  1
  O2-  O250  1  0.94977674  0.91579684  0.60661072  1
  O2-  O251  1  0.95832644  0.91649815  0.93625611  1
  O2-  O252  1  0.33911283  0.29474114  0.27237529  1
  O2-  O253  1  0.32934685  0.30112473  0.59636064  1
  O2-  O254  1  0.33409964  0.28624143  0.93262306  1
  O2-  O255  1  0.33434694  0.79382708  0.26368641  1
  O2-  O256  1  0.34011979  0.78953440  0.60406039  1
  O2-  O257  1  0.33382562  0.80070434  0.93402871  1
  O2-  O258  1  0.82925502  0.28663941  0.26603303  1
  O2-  O259  1  0.82982694  0.29502162  0.59825165  1
  O2-  O260  1  0.83075042  0.28730110  0.93352902  1
  O2-  O261  1  0.82828716  0.79959337  0.27246767  1
  O2-  O262  1  0.83373182  0.79543009  0.60389357  1
  O2-  O263  1  0.83230529  0.80548199  0.94042371  1
  O2-  O264  1  0.41058651  0.04146073  0.06194564  1
  O2-  O265  1  0.41530954  0.03505353  0.40355850  1
  O2-  O266  1  0.41406262  0.03987888  0.73265373  1
  O2-  O267  1  0.41878242  0.54503577  0.06536032  1
  O2-  O268  1  0.41461774  0.54338265  0.40432270  1
  O2-  O269  1  0.41718057  0.54751493  0.72453882  1
  O2-  O270  1  0.91888874  0.04120155  0.07177237  1
  O2-  O271  1  0.91331869  0.04003834  0.39761288  1
  O2-  O272  1  0.90883260  0.04304699  0.72948152  1
  O2-  O273  1  0.92106552  0.54081204  0.06368321  1
  O2-  O274  1  0.92307609  0.54368340  0.40219456  1
  O2-  O275  1  0.91743179  0.54562383  0.72410528  1
  O2-  O276  1  0.29371978  0.16147248  0.06187673  1
  O2-  O277  1  0.29708748  0.16973870  0.40371776  1
  O2-  O278  1  0.30493440  0.17072160  0.72660727  1
  O2-  O279  1  0.29474919  0.67252680  0.06327944  1
  O2-  O280  1  0.28755589  0.67023219  0.39944799  1
  O2-  O281  1  0.29377569  0.66271699  0.72979033  1
  O2-  O282  1  0.79160772  0.16751030  0.07300788  1
  O2-  O283  1  0.79076313  0.15895588  0.39926851  1
  O2-  O284  1  0.78964232  0.16342343  0.72542483  1
  O2-  O285  1  0.79937006  0.67029473  0.06332383  1
  O2-  O286  1  0.79333684  0.66906673  0.40589102  1
  O2-  O287  1  0.79314384  0.66224004  0.72941190  1
