# generated using pymatgen
data_Ca2Al2SiO7
_symmetry_space_group_name_H-M   'P 1'
_cell_length_a   15.46389004
_cell_length_b   15.46125177
_cell_length_c   15.28569564
_cell_angle_alpha   90.00045744
_cell_angle_beta   89.98346888
_cell_angle_gamma   89.98149840
_symmetry_Int_Tables_number   1
_chemical_formula_structural   Ca2Al2SiO7
_chemical_formula_sum   'Ca48 Al48 Si24 O168'
_cell_volume   3654.67339761
_cell_formula_units_Z   24
loop_
 _symmetry_equiv_pos_site_id
 _symmetry_equiv_pos_as_xyz
  1  'x, y, z'
loop_
 _atom_type_symbol
 _atom_type_oxidation_number
  Ca2+  2.0
  Al0+  0.0
  Si0+  0.0
  O2-  -2.0
loop_
 _atom_site_type_symbol
 _atom_site_label
 _atom_site_symmetry_multiplicity
 _atom_site_fract_x
 _atom_site_fract_y
 _atom_site_fract_z
 _atom_site_occupancy
  Ca2+  Ca0  1  0.17412551  0.08643273  0.16811300  1
  Ca2+  Ca1  1  0.17476860  0.08091405  0.50783981  1
  Ca2+  Ca2  1  0.17850581  0.08690290  0.83766983  1
  Ca2+  Ca3  1  0.17072872  0.58769803  0.17124005  1
  Ca2+  Ca4  1  0.18043187  0.58953031  0.50340111  1
  Ca2+  Ca5  1  0.17197061  0.58892030  0.83594136  1
  Ca2+  Ca6  1  0.66974860  0.07597707  0.17312604  1
  Ca2+  Ca7  1  0.66693276  0.08543829  0.50115460  1
  Ca2+  Ca8  1  0.66300143  0.07486302  0.83798727  1
  Ca2+  Ca9  1  0.65637084  0.57247196  0.16956625  1
  Ca2+  Ca10  1  0.66411285  0.57335122  0.50743856  1
  Ca2+  Ca11  1  0.66734821  0.57714212  0.83587525  1
  Ca2+  Ca12  1  0.06817660  0.33655385  0.16150482  1
  Ca2+  Ca13  1  0.06936417  0.33806674  0.49818862  1
  Ca2+  Ca14  1  0.07036010  0.33648657  0.83054329  1
  Ca2+  Ca15  1  0.07307527  0.82893866  0.16116775  1
  Ca2+  Ca16  1  0.07308084  0.83379493  0.49643485  1
  Ca2+  Ca17  1  0.07299923  0.83070990  0.83272248  1
  Ca2+  Ca18  1  0.58574474  0.32978246  0.16281885  1
  Ca2+  Ca19  1  0.59508486  0.32502085  0.49688875  1
  Ca2+  Ca20  1  0.58403822  0.33186391  0.82958022  1
  Ca2+  Ca21  1  0.58649552  0.82032350  0.16217328  1
  Ca2+  Ca22  1  0.57733413  0.81600852  0.49287069  1
  Ca2+  Ca23  1  0.59289655  0.82001193  0.83085531  1
  Ca2+  Ca24  1  0.33490838  0.42162741  0.17112975  1
  Ca2+  Ca25  1  0.33502836  0.42927459  0.50434438  1
  Ca2+  Ca26  1  0.33820048  0.42118371  0.83847213  1
  Ca2+  Ca27  1  0.33583893  0.91756629  0.17095584  1
  Ca2+  Ca28  1  0.33694008  0.91798962  0.50548756  1
  Ca2+  Ca29  1  0.33971959  0.93127216  0.83873222  1
  Ca2+  Ca30  1  0.82400643  0.41210970  0.17304836  1
  Ca2+  Ca31  1  0.82530714  0.41895657  0.50763563  1
  Ca2+  Ca32  1  0.82419992  0.41500582  0.83705876  1
  Ca2+  Ca33  1  0.83226233  0.91607638  0.17140497  1
  Ca2+  Ca34  1  0.84003337  0.92162738  0.50279788  1
  Ca2+  Ca35  1  0.83039949  0.91350762  0.84075731  1
  Ca2+  Ca36  1  0.42204597  0.17229165  0.15968564  1
  Ca2+  Ca37  1  0.42919612  0.16380711  0.49729596  1
  Ca2+  Ca38  1  0.41809937  0.16991805  0.82759841  1
  Ca2+  Ca39  1  0.42451683  0.66607755  0.16721375  1
  Ca2+  Ca40  1  0.42307934  0.66190680  0.49252034  1
  Ca2+  Ca41  1  0.43049506  0.66171985  0.82746211  1
  Ca2+  Ca42  1  0.90742521  0.17593964  0.16708890  1
  Ca2+  Ca43  1  0.90835339  0.17912085  0.49324393  1
  Ca2+  Ca44  1  0.90933338  0.18095709  0.82957525  1
  Ca2+  Ca45  1  0.91926965  0.67649987  0.15722991  1
  Ca2+  Ca46  1  0.90626315  0.67705080  0.49860011  1
  Ca2+  Ca47  1  0.91117180  0.67623271  0.82752571  1
  Al0+  Al48  1  0.00317477  0.00148168  -0.00268649  1
  Al0+  Al49  1  0.00157221  0.00088107  0.33389744  1
  Al0+  Al50  1  0.00098972  0.00088756  0.66552983  1
  Al0+  Al51  1  0.00170917  0.50046041  -0.00759356  1
  Al0+  Al52  1  -0.00099495  0.50009491  0.33012666  1
  Al0+  Al53  1  0.00086246  0.50333640  0.66450696  1
  Al0+  Al54  1  0.50199434  -0.00018226  0.01141942  1
  Al0+  Al55  1  0.50083954  -0.00035500  0.32747190  1
  Al0+  Al56  1  0.50048232  0.00012754  0.66725801  1
  Al0+  Al57  1  0.50034658  0.49912752  -0.00310062  1
  Al0+  Al58  1  0.49868304  0.49747173  0.33945311  1
  Al0+  Al59  1  0.49920612  0.49782933  0.67085239  1
  Al0+  Al60  1  0.25072162  0.25295102  0.00204640  1
  Al0+  Al61  1  0.24882418  0.24985863  0.33718831  1
  Al0+  Al62  1  0.24916411  0.25046493  0.66955384  1
  Al0+  Al63  1  0.25091399  0.75323119  -0.00297961  1
  Al0+  Al64  1  0.25003533  0.75133802  0.33511488  1
  Al0+  Al65  1  0.24787258  0.75177424  0.67410053  1
  Al0+  Al66  1  0.74856399  0.24898721  -0.00073511  1
  Al0+  Al67  1  0.74963102  0.24774744  0.33196580  1
  Al0+  Al68  1  0.74924040  0.24903995  0.66351267  1
  Al0+  Al69  1  0.74982368  0.74894485  -0.00236612  1
  Al0+  Al70  1  0.74813706  0.74876900  0.32466874  1
  Al0+  Al71  1  0.74849822  0.74993382  0.65875946  1
  Al0+  Al72  1  0.32107627  0.07304201  0.01646605  1
  Al0+  Al73  1  0.92925101  0.32196471  0.65209267  1
  Al0+  Al74  1  0.68032278  0.42885674  0.34685019  1
  Al0+  Al75  1  0.56901624  0.67863818  0.98474609  1
  Al0+  Al76  1  0.42928255  0.32022120  0.98722079  1
  Al0+  Al77  1  0.57112076  0.17941524  0.31785205  1
  Al0+  Al78  1  0.68063007  0.42657688  0.68345421  1
  Al0+  Al79  1  0.56908347  0.67675669  0.65231654  1
  Al0+  Al80  1  0.32058207  0.57118936  0.68294515  1
  Al0+  Al81  1  0.56913290  0.17803147  0.65379445  1
  Al0+  Al82  1  0.92892624  0.82141783  0.65130351  1
  Al0+  Al83  1  0.68144707  0.92640573  0.01428805  1
  Al0+  Al84  1  0.82077447  0.57403214  0.68053598  1
  Al0+  Al85  1  0.92677348  0.31937307  0.98583543  1
  Al0+  Al86  1  0.31836938  0.56996233  0.34556134  1
  Al0+  Al87  1  0.67945458  0.42917766  0.01491158  1
  Al0+  Al88  1  0.82042358  0.06751074  0.34700031  1
  Al0+  Al89  1  0.92889145  0.82166349  0.98441492  1
  Al0+  Al90  1  0.42721202  0.82051639  0.31904883  1
  Al0+  Al91  1  0.92911365  0.82230627  0.31936722  1
  Al0+  Al92  1  0.07390934  0.67871533  0.98395036  1
  Al0+  Al93  1  0.92945484  0.32077173  0.31948018  1
  Al0+  Al94  1  0.32197265  0.06991751  0.67965230  1
  Al0+  Al95  1  0.56978451  0.67469026  0.31752773  1
  Si0+  Si96  1  0.17866582  0.92906802  0.01874857  1
  Si0+  Si97  1  0.18017365  0.93025378  0.34893853  1
  Si0+  Si98  1  0.82404572  0.57358701  0.34716099  1
  Si0+  Si99  1  0.68010564  0.92995590  0.67844910  1
  Si0+  Si100  1  0.82382438  0.57070293  0.01566574  1
  Si0+  Si101  1  0.42524983  0.32019059  0.31906744  1
  Si0+  Si102  1  0.82232455  0.07103215  0.68113920  1
  Si0+  Si103  1  0.17707471  0.42833193  0.68454644  1
  Si0+  Si104  1  0.07457486  0.67958939  0.64789619  1
  Si0+  Si105  1  0.32278269  0.07225789  0.34936724  1
  Si0+  Si106  1  0.42753681  0.82167747  0.65429697  1
  Si0+  Si107  1  0.42548379  0.32146812  0.64948503  1
  Si0+  Si108  1  0.17547078  0.92947908  0.68643402  1
  Si0+  Si109  1  0.07313875  0.17891683  0.65017423  1
  Si0+  Si110  1  0.07251069  0.67935221  0.31888931  1
  Si0+  Si111  1  0.67678295  0.92538992  0.35121773  1
  Si0+  Si112  1  0.57071566  0.17636344  0.98385327  1
  Si0+  Si113  1  0.17434982  0.42668326  0.35040491  1
  Si0+  Si114  1  0.17760454  0.43045683  0.01539673  1
  Si0+  Si115  1  0.42910512  0.82466563  0.98314618  1
  Si0+  Si116  1  0.07434968  0.17989918  0.98355740  1
  Si0+  Si117  1  0.07417802  0.17786437  0.31733611  1
  Si0+  Si118  1  0.32086601  0.57204602  0.01471220  1
  Si0+  Si119  1  0.82393536  0.07198153  0.01495228  1
  O2-  O120  1  0.24751355  -0.00269029  0.06393840  1
  O2-  O121  1  0.25321690  -0.00035321  0.39117864  1
  O2-  O122  1  0.24715623  -0.00360610  0.72848975  1
  O2-  O123  1  0.24643771  0.50425943  0.05691462  1
  O2-  O124  1  0.24299325  0.49591135  0.39351292  1
  O2-  O125  1  0.24662902  0.49563306  0.72990302  1
  O2-  O126  1  0.75957221  -0.00087209  0.05865671  1
  O2-  O127  1  0.74829745  -0.00898926  0.39624118  1
  O2-  O128  1  0.75322908  -0.00165477  0.72255808  1
  O2-  O129  1  0.75668149  0.50139303  0.06170982  1
  O2-  O130  1  0.75437244  0.50554664  0.39070732  1
  O2-  O131  1  0.75247926  0.49947716  0.73257447  1
  O2-  O132  1  0.00630016  0.24733387  0.27345114  1
  O2-  O133  1  0.00415042  0.24665928  0.60553475  1
  O2-  O134  1  0.00054116  0.24301715  0.93955289  1
  O2-  O135  1  -0.00069588  0.74279075  0.27450143  1
  O2-  O136  1  0.00231109  0.74508317  0.60437750  1
  O2-  O137  1  -0.00146340  0.74736446  0.93437469  1
  O2-  O138  1  0.49375753  0.25229214  0.27363303  1
  O2-  O139  1  0.49560029  0.25382711  0.60622713  1
  O2-  O140  1  0.50169269  0.24408950  0.93948692  1
  O2-  O141  1  0.50026051  0.75017041  0.26866955  1
  O2-  O142  1  0.48854368  0.74725165  0.60877915  1
  O2-  O143  1  0.49647338  0.75584633  0.93775978  1
  O2-  O144  1  0.07682984  0.18262571  0.08924883  1
  O2-  O145  1  0.07648739  0.17771989  0.42287575  1
  O2-  O146  1  0.07345359  0.17913801  0.75576457  1
  O2-  O147  1  0.07421640  0.68089180  0.09815869  1
  O2-  O148  1  0.07576206  0.68265040  0.42429826  1
  O2-  O149  1  0.07723249  0.68256780  0.75307809  1
  O2-  O150  1  0.57075373  0.17835662  0.08951011  1
  O2-  O151  1  0.56948128  0.17908676  0.43122003  1
  O2-  O152  1  0.56703308  0.17449750  0.76678124  1
  O2-  O153  1  0.56506248  0.67648478  0.09748903  1
  O2-  O154  1  0.56740949  0.67462248  0.43127981  1
  O2-  O155  1  0.57044893  0.67983895  0.76556271  1
  O2-  O156  1  0.17438502  0.42573965  0.24473143  1
  O2-  O157  1  0.17860995  0.42818017  0.57874542  1
  O2-  O158  1  0.17894079  0.42784401  0.91050738  1
  O2-  O159  1  0.17961265  0.93153537  0.24409724  1
  O2-  O160  1  0.17437166  0.93042974  0.58040369  1
  O2-  O161  1  0.17881213  0.93072196  0.91330464  1
  O2-  O162  1  0.68034841  0.42868085  0.23341272  1
  O2-  O163  1  0.68272701  0.42519645  0.56971283  1
  O2-  O164  1  0.67978203  0.42805114  0.90230050  1
  O2-  O165  1  0.67819504  0.92741134  0.24559177  1
  O2-  O166  1  0.67923855  0.93237717  0.57357436  1
  O2-  O167  1  0.68046940  0.92895336  0.90033333  1
  O2-  O168  1  0.42908192  0.32023349  0.10053871  1
  O2-  O169  1  0.42170108  0.31744659  0.42449981  1
  O2-  O170  1  0.42388653  0.31911421  0.75527155  1
  O2-  O171  1  0.42782032  0.82211393  0.08860892  1
  O2-  O172  1  0.42682986  0.81983177  0.43319552  1
  O2-  O173  1  0.43224392  0.82492410  0.75972011  1
  O2-  O174  1  0.92774281  0.31792041  0.09902665  1
  O2-  O175  1  0.93092456  0.31999422  0.43251543  1
  O2-  O176  1  0.92982989  0.31837000  0.76529068  1
  O2-  O177  1  0.93166155  0.82172221  0.09813061  1
  O2-  O178  1  0.93279892  0.82351296  0.43260256  1
  O2-  O179  1  0.93007999  0.82358582  0.76394340  1
  O2-  O180  1  0.31918424  0.07515022  0.24454419  1
  O2-  O181  1  0.32105010  0.06657902  0.56621838  1
  O2-  O182  1  0.31988239  0.07223100  0.90311079  1
  O2-  O183  1  0.31626099  0.56865245  0.23206818  1
  O2-  O184  1  0.31867693  0.57118698  0.56960751  1
  O2-  O185  1  0.32068152  0.56949942  0.90965715  1
  O2-  O186  1  0.81946838  0.06730475  0.23379623  1
  O2-  O187  1  0.82267357  0.07100923  0.57607274  1
  O2-  O188  1  0.82110958  0.07391344  0.90896097  1
  O2-  O189  1  0.82862969  0.57149470  0.24163654  1
  O2-  O190  1  0.81730511  0.57407542  0.56662071  1
  O2-  O191  1  0.82195105  0.57036032  0.91020544  1
  O2-  O192  1  0.04891998  0.08500749  0.27033533  1
  O2-  O193  1  0.04957432  0.08491327  0.60424330  1
  O2-  O194  1  0.05669737  0.08447088  0.93851696  1
  O2-  O195  1  0.05373845  0.58383737  0.27405589  1
  O2-  O196  1  0.05605214  0.58457029  0.60251832  1
  O2-  O197  1  0.05348112  0.57910509  0.93071822  1
  O2-  O198  1  0.54267198  0.08296845  0.26328777  1
  O2-  O199  1  0.53649844  0.08243619  0.59768483  1
  O2-  O200  1  0.54499778  0.08143484  0.94126265  1
  O2-  O201  1  0.53537771  0.57692143  0.26659253  1
  O2-  O202  1  0.53976056  0.57855855  0.60157091  1
  O2-  O203  1  0.53526532  0.58408117  0.92957863  1
  O2-  O204  1  0.16802434  0.20317229  0.27088480  1
  O2-  O205  1  0.16678420  0.20440428  0.60334752  1
  O2-  O206  1  0.16500851  0.21218269  0.93579748  1
  O2-  O207  1  0.16335042  0.71049331  0.27084138  1
  O2-  O208  1  0.16709157  0.71136812  0.60154357  1
  O2-  O209  1  0.17117821  0.71114898  0.92980581  1
  O2-  O210  1  0.66614407  0.21092119  0.26269530  1
  O2-  O211  1  0.66583727  0.20647920  0.59877815  1
  O2-  O212  1  0.66400557  0.20124647  0.93737455  1
  O2-  O213  1  0.66789804  0.69958903  0.26242086  1
  O2-  O214  1  0.66175938  0.71251046  0.59507286  1
  O2-  O215  1  0.66599825  0.70852160  0.93187744  1
  O2-  O216  1  0.08507624  0.45681363  0.06290369  1
  O2-  O217  1  0.08094149  0.45294767  0.39665074  1
  O2-  O218  1  0.08396197  0.45575486  0.73026175  1
  O2-  O219  1  0.08516287  0.95592864  0.06534375  1
  O2-  O220  1  0.09027771  0.96093242  0.39880430  1
  O2-  O221  1  0.08377949  0.95986851  0.73407563  1
  O2-  O222  1  0.58235609  0.46203927  0.06737432  1
  O2-  O223  1  0.58307951  0.45449171  0.40217019  1
  O2-  O224  1  0.58067073  0.45157762  0.73409357  1
  O2-  O225  1  0.58740395  0.95781609  0.07257671  1
  O2-  O226  1  0.58345382  0.95504642  0.39582529  1
  O2-  O227  1  0.59018445  0.95976327  0.72828459  1
  O2-  O228  1  0.20745008  0.34062959  0.06538736  1
  O2-  O229  1  0.19946263  0.33341096  0.39804251  1
  O2-  O230  1  0.19969449  0.33399897  0.73076336  1
  O2-  O231  1  0.20510688  0.83536713  0.06475419  1
  O2-  O232  1  0.20619230  0.83898955  0.39838216  1
  O2-  O233  1  0.19715859  0.83600175  0.73331563  1
  O2-  O234  1  0.70854307  0.33069216  0.06703883  1
  O2-  O235  1  0.71389061  0.33264058  0.39944185  1
  O2-  O236  1  0.71014666  0.32743438  0.73543436  1
  O2-  O237  1  0.71051267  0.82945907  0.06865988  1
  O2-  O238  1  0.69881321  0.82913975  0.39316853  1
  O2-  O239  1  0.70757257  0.83777699  0.72436195  1
  O2-  O240  1  0.45051534  0.41404820  0.27486924  1
  O2-  O241  1  0.44986472  0.41570140  0.60539315  1
  O2-  O242  1  0.46036126  0.41510757  0.93115736  1
  O2-  O243  1  0.45118794  0.91970240  0.26623722  1
  O2-  O244  1  0.45850117  0.91240312  0.60538418  1
  O2-  O245  1  0.45658342  0.91961199  0.94126378  1
  O2-  O246  1  0.95871224  0.41726590  0.26387558  1
  O2-  O247  1  0.96050539  0.41888258  0.59881848  1
  O2-  O248  1  0.95964047  0.41443360  0.93138619  1
  O2-  O249  1  0.96543056  0.91733843  0.26605785  1
  O2-  O250  1  0.96262003  0.91836927  0.59829935  1
  O2-  O251  1  0.95822624  0.92092538  0.93246767  1
  O2-  O252  1  0.33115219  0.29545918  0.27238635  1
  O2-  O253  1  0.33157498  0.29625505  0.60385428  1
  O2-  O254  1  0.33195417  0.29207716  0.93320064  1
  O2-  O255  1  0.32875874  0.79254191  0.26541874  1
  O2-  O256  1  0.33001059  0.80437126  0.61337810  1
  O2-  O257  1  0.33489238  0.80342993  0.93699905  1
  O2-  O258  1  0.83539154  0.28458784  0.26518384  1
  O2-  O259  1  0.83438496  0.28727624  0.59795767  1
  O2-  O260  1  0.83134411  0.28638789  0.93072219  1
  O2-  O261  1  0.83172213  0.79711777  0.26540351  1
  O2-  O262  1  0.83305407  0.79324635  0.59479275  1
  O2-  O263  1  0.83061822  0.79409063  0.93159291  1
  O2-  O264  1  0.41681473  0.04402203  0.07230751  1
  O2-  O265  1  0.41573375  0.04470276  0.39439000  1
  O2-  O266  1  0.41722694  0.03743492  0.73564758  1
  O2-  O267  1  0.41069300  0.53877240  0.06197186  1
  O2-  O268  1  0.41226655  0.53684313  0.40308821  1
  O2-  O269  1  0.41588778  0.53890951  0.73784002  1
  O2-  O270  1  0.92042913  0.05357835  0.05803434  1
  O2-  O271  1  0.91879899  0.04116661  0.40111586  1
  O2-  O272  1  0.91522919  0.04681073  0.72794290  1
  O2-  O273  1  0.91955636  0.54752437  0.05868234  1
  O2-  O274  1  0.91786541  0.54937160  0.39435535  1
  O2-  O275  1  0.92308267  0.55360759  0.72885895  1
  O2-  O276  1  0.28713663  0.16900549  0.07056097  1
  O2-  O277  1  0.29344004  0.16284988  0.39877447  1
  O2-  O278  1  0.29108591  0.16682740  0.73353245  1
  O2-  O279  1  0.29630509  0.66601055  0.05936620  1
  O2-  O280  1  0.28751472  0.66642062  0.40090196  1
  O2-  O281  1  0.29073921  0.66812357  0.73735080  1
  O2-  O282  1  0.79263878  0.16323135  0.06268567  1
  O2-  O283  1  0.78638846  0.16313568  0.40087846  1
  O2-  O284  1  0.79114385  0.16128719  0.72888194  1
  O2-  O285  1  0.79783882  0.66454148  0.06059102  1
  O2-  O286  1  0.79824980  0.66854822  0.39050869  1
  O2-  O287  1  0.78879512  0.67267973  0.73177060  1
