# generated using pymatgen
data_Ca2Al2SiO7
_symmetry_space_group_name_H-M   'P 1'
_cell_length_a   15.46122993
_cell_length_b   15.46126900
_cell_length_c   15.28563910
_cell_angle_alpha   89.98573051
_cell_angle_beta   89.98609008
_cell_angle_gamma   89.97826470
_symmetry_Int_Tables_number   1
_chemical_formula_structural   Ca2Al2SiO7
_chemical_formula_sum   'Ca48 Al48 Si24 O168'
_cell_volume   3654.03513351
_cell_formula_units_Z   24
loop_
 _symmetry_equiv_pos_site_id
 _symmetry_equiv_pos_as_xyz
  1  'x, y, z'
loop_
 _atom_type_symbol
 _atom_type_oxidation_number
  Ca2+  2.0
  Al0+  0.0
  Si0+  0.0
  O2-  -2.0
loop_
 _atom_site_type_symbol
 _atom_site_label
 _atom_site_symmetry_multiplicity
 _atom_site_fract_x
 _atom_site_fract_y
 _atom_site_fract_z
 _atom_site_occupancy
  Ca2+  Ca0  1  0.16888452  0.08963304  0.16901933  1
  Ca2+  Ca1  1  0.16286079  0.08453108  0.50583209  1
  Ca2+  Ca2  1  0.16742173  0.08363917  0.84116453  1
  Ca2+  Ca3  1  0.16858438  0.59204495  0.16875215  1
  Ca2+  Ca4  1  0.16656309  0.57939791  0.50996612  1
  Ca2+  Ca5  1  0.17151272  0.58699056  0.83604447  1
  Ca2+  Ca6  1  0.67106807  0.08584049  0.17117713  1
  Ca2+  Ca7  1  0.66510486  0.08430727  0.50094029  1
  Ca2+  Ca8  1  0.67433807  0.07906960  0.84222302  1
  Ca2+  Ca9  1  0.67917054  0.57930478  0.17837429  1
  Ca2+  Ca10  1  0.67467043  0.58556260  0.50129292  1
  Ca2+  Ca11  1  0.68032508  0.58560467  0.83801249  1
  Ca2+  Ca12  1  0.07062099  0.32799054  0.16198531  1
  Ca2+  Ca13  1  0.08469533  0.32762895  0.49474592  1
  Ca2+  Ca14  1  0.08643306  0.32527864  0.83135562  1
  Ca2+  Ca15  1  0.08298976  0.82114199  0.16365460  1
  Ca2+  Ca16  1  0.07808731  0.81918364  0.50059798  1
  Ca2+  Ca17  1  0.07943728  0.81977475  0.82795518  1
  Ca2+  Ca18  1  0.59183454  0.33082898  0.16792019  1
  Ca2+  Ca19  1  0.57987581  0.33557110  0.49395474  1
  Ca2+  Ca20  1  0.57526951  0.33328138  0.82921265  1
  Ca2+  Ca21  1  0.57482403  0.82842039  0.16611754  1
  Ca2+  Ca22  1  0.57314744  0.82385637  0.49397959  1
  Ca2+  Ca23  1  0.57058871  0.83409189  0.82946032  1
  Ca2+  Ca24  1  0.33003016  0.42436107  0.16874640  1
  Ca2+  Ca25  1  0.32705859  0.42283914  0.51384248  1
  Ca2+  Ca26  1  0.32793330  0.42460386  0.83343122  1
  Ca2+  Ca27  1  0.33740970  0.91716279  0.16760865  1
  Ca2+  Ca28  1  0.33623668  0.91463087  0.50319295  1
  Ca2+  Ca29  1  0.33366222  0.91910052  0.84202381  1
  Ca2+  Ca30  1  0.83685092  0.42089296  0.17378521  1
  Ca2+  Ca31  1  0.83351748  0.42359520  0.49808929  1
  Ca2+  Ca32  1  0.83929715  0.42527325  0.83748700  1
  Ca2+  Ca33  1  0.83948168  0.92717100  0.16923641  1
  Ca2+  Ca34  1  0.83471069  0.91554605  0.50760312  1
  Ca2+  Ca35  1  0.83705820  0.91981884  0.83803246  1
  Ca2+  Ca36  1  0.42212607  0.16449139  0.16351486  1
  Ca2+  Ca37  1  0.42088603  0.17786488  0.49646516  1
  Ca2+  Ca38  1  0.41207089  0.17246917  0.82896271  1
  Ca2+  Ca39  1  0.41794032  0.67495283  0.15939781  1
  Ca2+  Ca40  1  0.41452667  0.67435934  0.49335866  1
  Ca2+  Ca41  1  0.40808137  0.67323315  0.82781817  1
  Ca2+  Ca42  1  0.91986339  0.17754047  0.15733829  1
  Ca2+  Ca43  1  0.92949080  0.17546504  0.49126286  1
  Ca2+  Ca44  1  0.92429736  0.16891353  0.83117210  1
  Ca2+  Ca45  1  0.92564868  0.65410152  0.16203523  1
  Ca2+  Ca46  1  0.92328625  0.65644940  0.49789764  1
  Ca2+  Ca47  1  0.92378607  0.66244764  0.82677329  1
  Al0+  Al48  1  0.00007081  -0.00119064  0.00347582  1
  Al0+  Al49  1  0.00371381  -0.00171443  0.33329619  1
  Al0+  Al50  1  0.00096140  -0.00022193  0.66061583  1
  Al0+  Al51  1  0.00049521  0.49737296  -0.00510771  1
  Al0+  Al52  1  0.00240472  0.49857846  0.33002678  1
  Al0+  Al53  1  -0.00076157  0.49596411  0.67186244  1
  Al0+  Al54  1  0.49890677  -0.00062666  0.00031103  1
  Al0+  Al55  1  0.49982440  0.00286015  0.32871218  1
  Al0+  Al56  1  0.50103543  -0.00111021  0.66401740  1
  Al0+  Al57  1  0.49983535  0.50004813  0.00378044  1
  Al0+  Al58  1  0.50085318  0.50226076  0.33357782  1
  Al0+  Al59  1  0.50039459  0.50021849  0.66734676  1
  Al0+  Al60  1  0.25091497  0.24963199  0.00345695  1
  Al0+  Al61  1  0.25220456  0.24995615  0.33110659  1
  Al0+  Al62  1  0.25228314  0.24999982  0.66223912  1
  Al0+  Al63  1  0.24943804  0.75101930  -0.00340226  1
  Al0+  Al64  1  0.24745813  0.75401583  0.32772039  1
  Al0+  Al65  1  0.24768048  0.75221160  0.66201968  1
  Al0+  Al66  1  0.74984150  0.24869442  -0.00268705  1
  Al0+  Al67  1  0.74918040  0.25143066  0.33259972  1
  Al0+  Al68  1  0.75132356  0.24852339  0.66837188  1
  Al0+  Al69  1  0.74817556  0.74876793  0.00632872  1
  Al0+  Al70  1  0.74987238  0.75318491  0.33444035  1
  Al0+  Al71  1  0.74757863  0.75239306  0.67063998  1
  Al0+  Al72  1  0.31944291  0.57247392  0.01446035  1
  Al0+  Al73  1  0.32060736  0.07162113  0.01395767  1
  Al0+  Al74  1  0.82212403  0.56944781  0.01400565  1
  Al0+  Al75  1  0.92701615  0.32013722  0.98132522  1
  Al0+  Al76  1  0.07367779  0.17671162  0.31707205  1
  Al0+  Al77  1  0.43085039  0.32196394  0.65452712  1
  Al0+  Al78  1  0.32041667  0.57393430  0.67994055  1
  Al0+  Al79  1  0.57328289  0.67778524  0.31791802  1
  Al0+  Al80  1  0.93006957  0.31997930  0.31924240  1
  Al0+  Al81  1  0.06805721  0.67902497  0.31999463  1
  Al0+  Al82  1  0.82124135  0.06978375  0.01360072  1
  Al0+  Al83  1  0.07203771  0.17773962  0.98484584  1
  Al0+  Al84  1  0.06965219  0.67916280  0.98520564  1
  Al0+  Al85  1  0.42853060  0.82078434  0.31658823  1
  Al0+  Al86  1  0.07140090  0.18009289  0.65306985  1
  Al0+  Al87  1  0.06851341  0.67596317  0.65205810  1
  Al0+  Al88  1  0.42803414  0.82089203  0.65278622  1
  Al0+  Al89  1  0.92683441  0.82066941  0.65379931  1
  Al0+  Al90  1  0.43104137  0.81966349  0.98447182  1
  Al0+  Al91  1  0.82357735  0.57201500  0.34897337  1
  Al0+  Al92  1  0.57000900  0.18166326  0.32000482  1
  Al0+  Al93  1  0.81927047  0.57070778  0.68112038  1
  Al0+  Al94  1  0.67769589  0.42832509  0.34947466  1
  Al0+  Al95  1  0.17863200  0.42566164  0.68195862  1
  Si0+  Si96  1  0.42867810  0.32273436  0.98612531  1
  Si0+  Si97  1  0.82239447  0.07079724  0.34919661  1
  Si0+  Si98  1  0.92667448  0.82373758  0.31687319  1
  Si0+  Si99  1  0.18228275  0.42876086  0.34684978  1
  Si0+  Si100  1  0.67724706  0.93062611  0.68259580  1
  Si0+  Si101  1  0.42756160  0.32449249  0.31556115  1
  Si0+  Si102  1  0.17823347  0.92775143  0.01748589  1
  Si0+  Si103  1  0.17812502  0.93067880  0.68115476  1
  Si0+  Si104  1  0.17896695  0.42725194  0.01832466  1
  Si0+  Si105  1  0.67616142  0.92870516  0.01860123  1
  Si0+  Si106  1  0.67766181  0.93189015  0.34958896  1
  Si0+  Si107  1  0.82255374  0.06970801  0.68042460  1
  Si0+  Si108  1  0.92523279  0.32110657  0.64885216  1
  Si0+  Si109  1  0.92504905  0.82177194  0.98653232  1
  Si0+  Si110  1  0.67729026  0.42522451  0.68462654  1
  Si0+  Si111  1  0.31977013  0.57438734  0.34624736  1
  Si0+  Si112  1  0.32203994  0.07131591  0.35050410  1
  Si0+  Si113  1  0.32249940  0.06936742  0.67953216  1
  Si0+  Si114  1  0.67683738  0.42729881  0.01551927  1
  Si0+  Si115  1  0.56989193  0.17858184  0.98440542  1
  Si0+  Si116  1  0.57260789  0.67822361  0.65227203  1
  Si0+  Si117  1  0.57245900  0.67603979  0.98276634  1
  Si0+  Si118  1  0.17963134  0.92861554  0.35139596  1
  Si0+  Si119  1  0.57338673  0.17790309  0.65200016  1
  O2-  O120  1  0.24412774  -0.00041856  0.06187900  1
  O2-  O121  1  0.24933361  0.00227312  0.39284937  1
  O2-  O122  1  0.25142828  -0.00030501  0.72321617  1
  O2-  O123  1  0.24388548  0.49975849  0.06321237  1
  O2-  O124  1  0.25302768  0.50008957  0.38905340  1
  O2-  O125  1  0.24702415  0.50286065  0.73023128  1
  O2-  O126  1  0.74858484  -0.00622076  0.06247301  1
  O2-  O127  1  0.75227147  -0.00079413  0.39293873  1
  O2-  O128  1  0.75097953  -0.00056720  0.72368150  1
  O2-  O129  1  0.74656278  0.49477129  0.05873774  1
  O2-  O130  1  0.74804131  0.50258808  0.39845170  1
  O2-  O131  1  0.74522395  0.49447362  0.72828476  1
  O2-  O132  1  -0.00163361  0.24470880  0.26857971  1
  O2-  O133  1  -0.00170975  0.25601583  0.60643991  1
  O2-  O134  1  -0.00016493  0.24770938  0.93288864  1
  O2-  O135  1  -0.01177965  0.74885528  0.27345065  1
  O2-  O136  1  -0.00844344  0.74338035  0.60229124  1
  O2-  O137  1  -0.01024810  0.75032396  0.94171719  1
  O2-  O138  1  0.49946260  0.25910975  0.27127592  1
  O2-  O139  1  0.50871331  0.25001171  0.60831918  1
  O2-  O140  1  0.49904855  0.25019059  0.94379170  1
  O2-  O141  1  0.49796080  0.74614559  0.26740129  1
  O2-  O142  1  0.49737332  0.74038452  0.60853063  1
  O2-  O143  1  0.50318308  0.74320384  0.93671754  1
  O2-  O144  1  0.07120896  0.18050300  0.09800610  1
  O2-  O145  1  0.07348716  0.17875197  0.43099430  1
  O2-  O146  1  0.07023202  0.17659085  0.76573531  1
  O2-  O147  1  0.07043029  0.68222952  0.09850419  1
  O2-  O148  1  0.07091646  0.67958545  0.43265617  1
  O2-  O149  1  0.07017775  0.68077866  0.76548456  1
  O2-  O150  1  0.57042224  0.17851711  0.08945741  1
  O2-  O151  1  0.56607018  0.17880712  0.43323944  1
  O2-  O152  1  0.57263160  0.17574127  0.75771743  1
  O2-  O153  1  0.57140391  0.67792598  0.08803314  1
  O2-  O154  1  0.57159050  0.68131107  0.43198094  1
  O2-  O155  1  0.57535243  0.68284996  0.75787359  1
  O2-  O156  1  0.18428349  0.42797519  0.24178327  1
  O2-  O157  1  0.18231089  0.42452726  0.56759883  1
  O2-  O158  1  0.18369537  0.42426932  0.91306326  1
  O2-  O159  1  0.17984796  0.92674282  0.24650308  1
  O2-  O160  1  0.17829673  0.93224327  0.57594871  1
  O2-  O161  1  0.17994012  0.92772461  0.91162359  1
  O2-  O162  1  0.68017172  0.42696907  0.23584136  1
  O2-  O163  1  0.67777163  0.42245938  0.57956585  1
  O2-  O164  1  0.67337118  0.42847261  0.90981718  1
  O2-  O165  1  0.67703119  0.93489018  0.24460395  1
  O2-  O166  1  0.67420909  0.93313549  0.57759754  1
  O2-  O167  1  0.67435808  0.93188830  0.91264141  1
  O2-  O168  1  0.43010054  0.32287300  0.09119689  1
  O2-  O169  1  0.42504812  0.32064398  0.42114466  1
  O2-  O170  1  0.43114763  0.31805045  0.76803825  1
  O2-  O171  1  0.43344511  0.82074099  0.09713953  1
  O2-  O172  1  0.42953672  0.82071079  0.43048284  1
  O2-  O173  1  0.43134566  0.82654672  0.76558242  1
  O2-  O174  1  0.92608916  0.31877939  0.09479581  1
  O2-  O175  1  0.93330639  0.31924462  0.43318106  1
  O2-  O176  1  0.92014901  0.31614600  0.75392733  1
  O2-  O177  1  0.92731048  0.82383795  0.09208312  1
  O2-  O178  1  0.92993015  0.82887868  0.42204564  1
  O2-  O179  1  0.93061146  0.82419677  0.76734159  1
  O2-  O180  1  0.32294043  0.07103512  0.24547734  1
  O2-  O181  1  0.32405941  0.06781044  0.57429536  1
  O2-  O182  1  0.32238151  0.07038014  0.90038541  1
  O2-  O183  1  0.31755399  0.57345859  0.24087467  1
  O2-  O184  1  0.32013299  0.57255218  0.56566383  1
  O2-  O185  1  0.31988775  0.57127394  0.90173818  1
  O2-  O186  1  0.82085511  0.06876023  0.24405576  1
  O2-  O187  1  0.82009025  0.06934416  0.57521633  1
  O2-  O188  1  0.81877957  0.06754761  0.89996062  1
  O2-  O189  1  0.82412231  0.56851265  0.23547639  1
  O2-  O190  1  0.81737482  0.57073050  0.56836270  1
  O2-  O191  1  0.81918064  0.57080387  0.90068246  1
  O2-  O192  1  0.05106133  0.07578958  0.26803254  1
  O2-  O193  1  0.03879043  0.08523748  0.59666426  1
  O2-  O194  1  0.04558033  0.07690896  0.93554547  1
  O2-  O195  1  0.04455157  0.58195741  0.26444452  1
  O2-  O196  1  0.04487730  0.57467404  0.60311671  1
  O2-  O197  1  0.04508283  0.58133949  0.93249766  1
  O2-  O198  1  0.53623457  0.08787721  0.26271578  1
  O2-  O199  1  0.54427688  0.08637725  0.60380011  1
  O2-  O200  1  0.54128709  0.08745043  0.93661646  1
  O2-  O201  1  0.54995314  0.57802738  0.26599910  1
  O2-  O202  1  0.55617205  0.58205887  0.60908277  1
  O2-  O203  1  0.54893078  0.58132358  0.93842727  1
  O2-  O204  1  0.17231550  0.20645811  0.26617795  1
  O2-  O205  1  0.16859432  0.20706995  0.59846206  1
  O2-  O206  1  0.17217699  0.20642047  0.93448627  1
  O2-  O207  1  0.16144772  0.71700669  0.26411261  1
  O2-  O208  1  0.16417454  0.71087219  0.59744149  1
  O2-  O209  1  0.16398119  0.71524001  0.93050987  1
  O2-  O210  1  0.66729504  0.20743151  0.26539906  1
  O2-  O211  1  0.66842350  0.19893432  0.60668489  1
  O2-  O212  1  0.66078061  0.20506773  0.93477022  1
  O2-  O213  1  0.67068034  0.71103610  0.26531425  1
  O2-  O214  1  0.66209542  0.71292737  0.60395213  1
  O2-  O215  1  0.66631813  0.70422962  0.93789641  1
  O2-  O216  1  0.08364938  0.44971276  0.06071473  1
  O2-  O217  1  0.09069552  0.45584708  0.39376368  1
  O2-  O218  1  0.07834573  0.44393980  0.73410133  1
  O2-  O219  1  0.08382022  0.94788694  0.06431725  1
  O2-  O220  1  0.08764700  0.95429834  0.40032573  1
  O2-  O221  1  0.08720475  0.96122363  0.72865820  1
  O2-  O222  1  0.58387690  0.45105111  0.06415311  1
  O2-  O223  1  0.57720456  0.45387765  0.40180320  1
  O2-  O224  1  0.58325097  0.44940558  0.73076926  1
  O2-  O225  1  0.58531931  0.96059088  0.06603187  1
  O2-  O226  1  0.58731787  0.96585157  0.39690721  1
  O2-  O227  1  0.58739506  0.96326555  0.73251622  1
  O2-  O228  1  0.20959654  0.33631169  0.06723910  1
  O2-  O229  1  0.21111665  0.33680375  0.39469885  1
  O2-  O230  1  0.21544754  0.32913394  0.73481389  1
  O2-  O231  1  0.20917922  0.83632150  0.06464697  1
  O2-  O232  1  0.21081659  0.83817351  0.40001898  1
  O2-  O233  1  0.20447982  0.83874889  0.72828235  1
  O2-  O234  1  0.70069168  0.33205865  0.05889011  1
  O2-  O235  1  0.70494435  0.32903925  0.40322278  1
  O2-  O236  1  0.70221680  0.33077874  0.73132594  1
  O2-  O237  1  0.69601678  0.83384778  0.06390078  1
  O2-  O238  1  0.70130621  0.83964303  0.39794128  1
  O2-  O239  1  0.70073153  0.83965265  0.73316895  1
  O2-  O240  1  0.44783999  0.41975225  0.27179181  1
  O2-  O241  1  0.45793635  0.41898097  0.59949244  1
  O2-  O242  1  0.45809037  0.41366244  0.93773526  1
  O2-  O243  1  0.46016668  0.91876401  0.26527963  1
  O2-  O244  1  0.46476239  0.91553421  0.59742756  1
  O2-  O245  1  0.46390785  0.91656555  0.93100109  1
  O2-  O246  1  0.96312642  0.41535628  0.26403577  1
  O2-  O247  1  0.94673562  0.41609592  0.60604637  1
  O2-  O248  1  0.95730073  0.41694959  0.92770032  1
  O2-  O249  1  0.96053872  0.91411785  0.26830284  1
  O2-  O250  1  0.96000562  0.91607798  0.59701703  1
  O2-  O251  1  0.95265148  0.91473286  0.94012979  1
  O2-  O252  1  0.33681144  0.29377734  0.26705828  1
  O2-  O253  1  0.33830903  0.28651021  0.59623958  1
  O2-  O254  1  0.33773006  0.29343046  0.93927865  1
  O2-  O255  1  0.32987026  0.79637404  0.26350292  1
  O2-  O256  1  0.33065286  0.79730832  0.59804856  1
  O2-  O257  1  0.33357207  0.79239332  0.93158690  1
  O2-  O258  1  0.83088581  0.29440564  0.26796568  1
  O2-  O259  1  0.83320300  0.29070146  0.60122541  1
  O2-  O260  1  0.82833490  0.29112900  0.92836594  1
  O2-  O261  1  0.82998877  0.81019130  0.27379135  1
  O2-  O262  1  0.82435095  0.80288033  0.60505724  1
  O2-  O263  1  0.82859906  0.80195416  0.94347012  1
  O2-  O264  1  0.41680719  0.03858593  0.06832796  1
  O2-  O265  1  0.41356439  0.04184764  0.39779226  1
  O2-  O266  1  0.41468816  0.04193800  0.72721020  1
  O2-  O267  1  0.41612647  0.54058168  0.06865355  1
  O2-  O268  1  0.41355902  0.55228548  0.39167150  1
  O2-  O269  1  0.42007118  0.54668532  0.73213704  1
  O2-  O270  1  0.91710515  0.04039462  0.07023060  1
  O2-  O271  1  0.91517686  0.04264762  0.39498134  1
  O2-  O272  1  0.91391273  0.04000853  0.72707759  1
  O2-  O273  1  0.91964089  0.53757918  0.06498085  1
  O2-  O274  1  0.92163980  0.53782790  0.40045287  1
  O2-  O275  1  0.91548348  0.54031471  0.73569243  1
  O2-  O276  1  0.29510458  0.16854270  0.07045302  1
  O2-  O277  1  0.29634295  0.16459690  0.39708810  1
  O2-  O278  1  0.29583732  0.16160749  0.72564345  1
  O2-  O279  1  0.28859245  0.66969702  0.06718681  1
  O2-  O280  1  0.28849582  0.66608605  0.39139931  1
  O2-  O281  1  0.29190715  0.67368558  0.73109337  1
  O2-  O282  1  0.78589047  0.16542587  0.06653498  1
  O2-  O283  1  0.79279622  0.16177769  0.39629245  1
  O2-  O284  1  0.79496700  0.16095800  0.72930605  1
  O2-  O285  1  0.79384497  0.66670810  0.06878337  1
  O2-  O286  1  0.79913514  0.67366593  0.39857739  1
  O2-  O287  1  0.78724780  0.66772834  0.73528966  1
