# generated using pymatgen
data_Ca2Al2SiO7
_symmetry_space_group_name_H-M   'P 1'
_cell_length_a   15.45359420
_cell_length_b   15.45348644
_cell_length_c   15.28049100
_cell_angle_alpha   90.00476699
_cell_angle_beta   90.00222278
_cell_angle_gamma   90.00327931
_symmetry_Int_Tables_number   1
_chemical_formula_structural   Ca2Al2SiO7
_chemical_formula_sum   'Ca48 Al48 Si24 O168'
_cell_volume   3649.16319396
_cell_formula_units_Z   24
loop_
 _symmetry_equiv_pos_site_id
 _symmetry_equiv_pos_as_xyz
  1  'x, y, z'
loop_
 _atom_type_symbol
 _atom_type_oxidation_number
  Ca2+  2.0
  Al0+  0.0
  Si0+  0.0
  O2-  -2.0
loop_
 _atom_site_type_symbol
 _atom_site_label
 _atom_site_symmetry_multiplicity
 _atom_site_fract_x
 _atom_site_fract_y
 _atom_site_fract_z
 _atom_site_occupancy
  Ca2+  Ca0  1  0.15486746  0.07151167  0.16599293  1
  Ca2+  Ca1  1  0.17081149  0.07376030  0.50531839  1
  Ca2+  Ca2  1  0.17236362  0.08286765  0.84022708  1
  Ca2+  Ca3  1  0.17631398  0.58662065  0.16421324  1
  Ca2+  Ca4  1  0.17045497  0.58232726  0.50685171  1
  Ca2+  Ca5  1  0.16497075  0.57558636  0.84230491  1
  Ca2+  Ca6  1  0.66842009  0.07828772  0.16694870  1
  Ca2+  Ca7  1  0.67918798  0.08498118  0.50661162  1
  Ca2+  Ca8  1  0.67035532  0.08081591  0.83957777  1
  Ca2+  Ca9  1  0.66792082  0.58139573  0.16637052  1
  Ca2+  Ca10  1  0.66657369  0.58080417  0.50398662  1
  Ca2+  Ca11  1  0.67199726  0.57201845  0.84281080  1
  Ca2+  Ca12  1  0.08635024  0.32500835  0.15543743  1
  Ca2+  Ca13  1  0.07887241  0.33560764  0.50369581  1
  Ca2+  Ca14  1  0.08342444  0.33443091  0.82688139  1
  Ca2+  Ca15  1  0.07502093  0.83572256  0.15622447  1
  Ca2+  Ca16  1  0.08238612  0.83016251  0.49564938  1
  Ca2+  Ca17  1  0.08673944  0.82120031  0.83545641  1
  Ca2+  Ca18  1  0.57898885  0.32800316  0.15376552  1
  Ca2+  Ca19  1  0.57792793  0.33814868  0.50109891  1
  Ca2+  Ca20  1  0.57488273  0.33970060  0.83095503  1
  Ca2+  Ca21  1  0.58606197  0.82768444  0.16003749  1
  Ca2+  Ca22  1  0.57586776  0.82835102  0.49591150  1
  Ca2+  Ca23  1  0.57899124  0.83493906  0.82909761  1
  Ca2+  Ca24  1  0.33390747  0.42382199  0.16316999  1
  Ca2+  Ca25  1  0.32849889  0.42151942  0.50786913  1
  Ca2+  Ca26  1  0.32625195  0.41702546  0.84145160  1
  Ca2+  Ca27  1  0.31587695  0.91309624  0.16951069  1
  Ca2+  Ca28  1  0.33058699  0.91827269  0.50714077  1
  Ca2+  Ca29  1  0.33214561  0.92087606  0.83782834  1
  Ca2+  Ca30  1  0.83197917  0.42336180  0.16314380  1
  Ca2+  Ca31  1  0.82536327  0.41488519  0.51315956  1
  Ca2+  Ca32  1  0.82540433  0.41627119  0.83888392  1
  Ca2+  Ca33  1  0.83494844  0.91695212  0.17032969  1
  Ca2+  Ca34  1  0.84016671  0.92689535  0.50104722  1
  Ca2+  Ca35  1  0.83150107  0.91959809  0.84095331  1
  Ca2+  Ca36  1  0.42228346  0.17546532  0.15259303  1
  Ca2+  Ca37  1  0.41006864  0.17178994  0.50287561  1
  Ca2+  Ca38  1  0.41916984  0.17628880  0.82860631  1
  Ca2+  Ca39  1  0.41805730  0.65828515  0.16440394  1
  Ca2+  Ca40  1  0.42025794  0.66759680  0.49502242  1
  Ca2+  Ca41  1  0.41187963  0.67207197  0.82970680  1
  Ca2+  Ca42  1  0.92020748  0.16523931  0.16102901  1
  Ca2+  Ca43  1  0.90816316  0.17028237  0.49884250  1
  Ca2+  Ca44  1  0.92253192  0.16950516  0.82918450  1
  Ca2+  Ca45  1  0.92030901  0.67790161  0.15384502  1
  Ca2+  Ca46  1  0.92595984  0.67202393  0.49465494  1
  Ca2+  Ca47  1  0.92442472  0.66362194  0.83340465  1
  Al0+  Al48  1  -0.00009593  0.00122598  -0.00750986  1
  Al0+  Al49  1  -0.00039511  0.00061112  0.34050916  1
  Al0+  Al50  1  0.00092519  -0.00121119  0.67191207  1
  Al0+  Al51  1  0.00007086  0.49994983  0.00728916  1
  Al0+  Al52  1  -0.00076817  0.49956721  0.33192707  1
  Al0+  Al53  1  0.00073611  0.49956571  0.65897920  1
  Al0+  Al54  1  0.50235589  0.00061408  0.00200876  1
  Al0+  Al55  1  0.49918817  0.00024800  0.33292355  1
  Al0+  Al56  1  0.49991977  0.00026406  0.66356301  1
  Al0+  Al57  1  0.50033249  0.49997567  0.00212488  1
  Al0+  Al58  1  0.49892615  0.50009068  0.33363446  1
  Al0+  Al59  1  0.50009725  0.49983049  0.66569278  1
  Al0+  Al60  1  0.25117168  0.25050754  -0.00369596  1
  Al0+  Al61  1  0.24849182  0.25046924  0.33206734  1
  Al0+  Al62  1  0.25060180  0.24881458  0.66758536  1
  Al0+  Al63  1  0.24941742  0.75107312  0.00472768  1
  Al0+  Al64  1  0.25058117  0.74880666  0.34284683  1
  Al0+  Al65  1  0.25041069  0.75031512  0.65668561  1
  Al0+  Al66  1  0.75042426  0.24858560  0.00125841  1
  Al0+  Al67  1  0.74872459  0.25021523  0.33523060  1
  Al0+  Al68  1  0.75036385  0.24932370  0.67239063  1
  Al0+  Al69  1  0.74949120  0.75184046  0.00138715  1
  Al0+  Al70  1  0.74912172  0.74923028  0.32762350  1
  Al0+  Al71  1  0.75147934  0.75101659  0.66426798  1
  Al0+  Al72  1  0.42805466  0.32138268  0.65124417  1
  Al0+  Al73  1  0.56879266  0.67924751  0.31826001  1
  Al0+  Al74  1  0.07089918  0.17929494  0.98583685  1
  Al0+  Al75  1  0.32076226  0.56765708  0.35014606  1
  Al0+  Al76  1  0.32132579  0.06997812  0.68066032  1
  Al0+  Al77  1  0.57308344  0.17682763  0.98408145  1
  Al0+  Al78  1  0.82178080  0.57197028  0.01498210  1
  Al0+  Al79  1  0.81825837  0.06998984  0.34682111  1
  Al0+  Al80  1  0.17952775  0.93117608  0.01096764  1
  Al0+  Al81  1  0.17887362  0.43067603  0.67876749  1
  Al0+  Al82  1  0.43003959  0.82212157  0.65314780  1
  Al0+  Al83  1  0.67817839  0.43080262  0.68035771  1
  Al0+  Al84  1  0.17887288  0.93018517  0.34842070  1
  Al0+  Al85  1  0.17783385  0.42632384  0.01498168  1
  Al0+  Al86  1  0.82196998  0.07047233  0.68307392  1
  Al0+  Al87  1  0.43066009  0.32281404  0.98352330  1
  Al0+  Al88  1  0.07000524  0.67848114  0.65166322  1
  Al0+  Al89  1  0.32069214  0.57270803  0.01302824  1
  Al0+  Al90  1  0.93229913  0.82141557  0.32031668  1
  Al0+  Al91  1  0.92688209  0.82174589  0.98275539  1
  Al0+  Al92  1  0.92885039  0.31821913  0.65419691  1
  Al0+  Al93  1  0.07232003  0.67860501  0.98723311  1
  Al0+  Al94  1  0.67800107  0.92940678  0.01337687  1
  Al0+  Al95  1  0.67891485  0.42755946  0.01629758  1
  Si0+  Si96  1  0.67835127  0.92737493  0.68097425  1
  Si0+  Si97  1  0.07391919  0.67668960  0.31551735  1
  Si0+  Si98  1  0.42640993  0.82335582  0.31530256  1
  Si0+  Si99  1  0.57341374  0.67791677  0.65153110  1
  Si0+  Si100  1  0.92825086  0.32296978  0.98526877  1
  Si0+  Si101  1  0.57110590  0.67909373  0.98476696  1
  Si0+  Si102  1  0.17915577  0.92549266  0.68501582  1
  Si0+  Si103  1  0.06951384  0.18092633  0.32081098  1
  Si0+  Si104  1  0.07273200  0.17578625  0.64875048  1
  Si0+  Si105  1  0.57263657  0.17942802  0.31982459  1
  Si0+  Si106  1  0.82305271  0.57353962  0.68006691  1
  Si0+  Si107  1  0.57182683  0.17852339  0.64853230  1
  Si0+  Si108  1  0.92556578  0.32155592  0.31824756  1
  Si0+  Si109  1  0.42868072  0.31961476  0.31873466  1
  Si0+  Si110  1  0.32355628  0.07398309  0.34863022  1
  Si0+  Si111  1  0.82176923  0.57264719  0.34888352  1
  Si0+  Si112  1  0.32183069  0.57303471  0.68188610  1
  Si0+  Si113  1  0.92701468  0.82335088  0.64890838  1
  Si0+  Si114  1  0.68091376  0.43017379  0.34904020  1
  Si0+  Si115  1  0.17609856  0.42495450  0.35145257  1
  Si0+  Si116  1  0.42861898  0.82097413  0.98816622  1
  Si0+  Si117  1  0.82292148  0.07078030  0.01620406  1
  Si0+  Si118  1  0.32295951  0.07223995  0.01622690  1
  Si0+  Si119  1  0.67588273  0.92530814  0.35069673  1
  O2-  O120  1  0.25213464  0.00645697  0.06145358  1
  O2-  O121  1  0.25826765  0.00190749  0.39249153  1
  O2-  O122  1  0.24674656  -0.00427710  0.72786627  1
  O2-  O123  1  0.24913742  0.49989573  0.06360197  1
  O2-  O124  1  0.24229811  0.49611959  0.39520592  1
  O2-  O125  1  0.25402638  0.50429445  0.72573622  1
  O2-  O126  1  0.75371205  0.00278058  0.06062406  1
  O2-  O127  1  0.74355570  -0.00487588  0.39467940  1
  O2-  O128  1  0.74862528  -0.00674030  0.72627862  1
  O2-  O129  1  0.74974492  0.50031723  0.06705942  1
  O2-  O130  1  0.75305099  0.49975932  0.39241230  1
  O2-  O131  1  0.75256761  0.50695175  0.72412453  1
  O2-  O132  1  0.00055907  0.25400437  0.27787928  1
  O2-  O133  1  0.00171510  0.24247136  0.60417095  1
  O2-  O134  1  0.00001980  0.25801032  0.94070142  1
  O2-  O135  1  0.00567967  0.74608577  0.27260859  1
  O2-  O136  1  -0.00428812  0.75447956  0.60541453  1
  O2-  O137  1  -0.00226187  0.74717669  0.93551946  1
  O2-  O138  1  0.49632040  0.24468632  0.27825544  1
  O2-  O139  1  0.50336105  0.24728029  0.60288260  1
  O2-  O140  1  0.50369910  0.25105191  0.93422016  1
  O2-  O141  1  0.49613531  0.75615281  0.27058650  1
  O2-  O142  1  0.50487030  0.74684943  0.60736215  1
  O2-  O143  1  0.49910960  0.74993694  0.94419860  1
  O2-  O144  1  0.06628404  0.17686961  0.09999442  1
  O2-  O145  1  0.07052617  0.18238456  0.42576389  1
  O2-  O146  1  0.07251513  0.17687213  0.75404029  1
  O2-  O147  1  0.07337671  0.68362922  0.10098697  1
  O2-  O148  1  0.07064816  0.67580324  0.42151997  1
  O2-  O149  1  0.07061682  0.67806370  0.76428149  1
  O2-  O150  1  0.56969928  0.17665746  0.09894050  1
  O2-  O151  1  0.57593525  0.18251670  0.42476101  1
  O2-  O152  1  0.57026707  0.17688720  0.75345314  1
  O2-  O153  1  0.57061325  0.67969373  0.09009659  1
  O2-  O154  1  0.56776063  0.67931500  0.43180608  1
  O2-  O155  1  0.57454857  0.67885220  0.75690080  1
  O2-  O156  1  0.17734361  0.41998751  0.24659557  1
  O2-  O157  1  0.17978525  0.43266303  0.56497391  1
  O2-  O158  1  0.17815390  0.42714973  0.90128175  1
  O2-  O159  1  0.17667237  0.93290347  0.23529900  1
  O2-  O160  1  0.17944981  0.92749840  0.57879903  1
  O2-  O161  1  0.18472217  0.92984168  0.89829884  1
  O2-  O162  1  0.68211219  0.42873851  0.24448302  1
  O2-  O163  1  0.67881579  0.43236132  0.56609821  1
  O2-  O164  1  0.67934852  0.43023134  0.90276823  1
  O2-  O165  1  0.67523444  0.92715572  0.24533010  1
  O2-  O166  1  0.67869963  0.92761485  0.57509128  1
  O2-  O167  1  0.67626086  0.93008240  0.90017629  1
  O2-  O168  1  0.43160350  0.32036195  0.09835048  1
  O2-  O169  1  0.42895249  0.31959809  0.42400824  1
  O2-  O170  1  0.42882640  0.32211928  0.76318641  1
  O2-  O171  1  0.42936951  0.82076719  0.09327813  1
  O2-  O172  1  0.42930591  0.82373439  0.42109189  1
  O2-  O173  1  0.43062413  0.82112446  0.76666670  1
  O2-  O174  1  0.92725688  0.31901128  0.09167067  1
  O2-  O175  1  0.92266238  0.32059929  0.42330404  1
  O2-  O176  1  0.93002523  0.31886215  0.76672536  1
  O2-  O177  1  0.92940915  0.82412337  0.09691529  1
  O2-  O178  1  0.93453967  0.82008219  0.43382505  1
  O2-  O179  1  0.92349183  0.82258205  0.75367909  1
  O2-  O180  1  0.32384586  0.07629944  0.24345859  1
  O2-  O181  1  0.31847690  0.06835284  0.56671387  1
  O2-  O182  1  0.32349058  0.06896688  0.91063692  1
  O2-  O183  1  0.32247577  0.56499084  0.23756830  1
  O2-  O184  1  0.32185359  0.57060007  0.57586289  1
  O2-  O185  1  0.32001729  0.57538534  0.89955581  1
  O2-  O186  1  0.81765976  0.07168627  0.23421327  1
  O2-  O187  1  0.81979637  0.07014207  0.56927406  1
  O2-  O188  1  0.82231986  0.06982580  0.91075164  1
  O2-  O189  1  0.82116808  0.57110168  0.24441630  1
  O2-  O190  1  0.82035112  0.57298922  0.57366046  1
  O2-  O191  1  0.81948925  0.57002967  0.90093973  1
  O2-  O192  1  0.03791676  0.08979536  0.27497511  1
  O2-  O193  1  0.04844118  0.08033059  0.60504075  1
  O2-  O194  1  0.03834921  0.08623047  0.92704632  1
  O2-  O195  1  0.04937901  0.58187396  0.27121646  1
  O2-  O196  1  0.03852439  0.58457897  0.59208464  1
  O2-  O197  1  0.04550798  0.57803433  0.93808476  1
  O2-  O198  1  0.55095928  0.08473429  0.27476327  1
  O2-  O199  1  0.54671170  0.08552713  0.60010034  1
  O2-  O200  1  0.54337803  0.07862360  0.93130288  1
  O2-  O201  1  0.53599915  0.58266804  0.26487445  1
  O2-  O202  1  0.54697167  0.58546359  0.60330915  1
  O2-  O203  1  0.54424278  0.58744512  0.93762656  1
  O2-  O204  1  0.16158577  0.20569313  0.27142049  1
  O2-  O205  1  0.16514474  0.20312227  0.60136989  1
  O2-  O206  1  0.16883418  0.20448873  0.93275468  1
  O2-  O207  1  0.16981427  0.70152275  0.27549743  1
  O2-  O208  1  0.16514630  0.70959307  0.59396546  1
  O2-  O209  1  0.16960435  0.71165771  0.93390365  1
  O2-  O210  1  0.66168764  0.21235829  0.27003471  1
  O2-  O211  1  0.66562139  0.20646780  0.60388718  1
  O2-  O212  1  0.67368067  0.20013062  0.93435095  1
  O2-  O213  1  0.66561959  0.70683273  0.26319835  1
  O2-  O214  1  0.66690296  0.70302198  0.60304625  1
  O2-  O215  1  0.66168157  0.70835877  0.93690737  1
  O2-  O216  1  0.07976559  0.44958559  0.07071096  1
  O2-  O217  1  0.08004865  0.44821536  0.39491680  1
  O2-  O218  1  0.08106229  0.46090238  0.72968026  1
  O2-  O219  1  0.08239924  0.96430875  0.06322268  1
  O2-  O220  1  0.08620860  0.96590882  0.40672025  1
  O2-  O221  1  0.08491970  0.94754123  0.72997837  1
  O2-  O222  1  0.58146001  0.45709543  0.06987406  1
  O2-  O223  1  0.58912176  0.45964329  0.39554966  1
  O2-  O224  1  0.58179847  0.46166811  0.73402585  1
  O2-  O225  1  0.58289073  0.96021083  0.07184646  1
  O2-  O226  1  0.58106285  0.95008522  0.39584194  1
  O2-  O227  1  0.58522466  0.95452745  0.72631675  1
  O2-  O228  1  0.20887910  0.32798239  0.06823864  1
  O2-  O229  1  0.20420857  0.33222835  0.39910271  1
  O2-  O230  1  0.20641132  0.33257680  0.72972188  1
  O2-  O231  1  0.21125752  0.83744349  0.06944588  1
  O2-  O232  1  0.20677420  0.83375032  0.40407705  1
  O2-  O233  1  0.20883205  0.83175058  0.72719519  1
  O2-  O234  1  0.70751525  0.32881057  0.06942480  1
  O2-  O235  1  0.70824313  0.33861580  0.39760492  1
  O2-  O236  1  0.70896308  0.33503757  0.73380988  1
  O2-  O237  1  0.70635023  0.83330791  0.06890805  1
  O2-  O238  1  0.70165537  0.83122508  0.39538495  1
  O2-  O239  1  0.70072683  0.83234594  0.72621978  1
  O2-  O240  1  0.46104616  0.40963823  0.27206959  1
  O2-  O241  1  0.46024867  0.41800628  0.59619356  1
  O2-  O242  1  0.45878209  0.42163581  0.93136312  1
  O2-  O243  1  0.44793612  0.91877314  0.27042692  1
  O2-  O244  1  0.46147678  0.91716825  0.59521951  1
  O2-  O245  1  0.45762322  0.91241614  0.94095851  1
  O2-  O246  1  0.94925288  0.41495896  0.27187337  1
  O2-  O247  1  0.95885959  0.41329553  0.59541384  1
  O2-  O248  1  0.94858990  0.41836078  0.94238233  1
  O2-  O249  1  0.96290726  0.91960834  0.26921358  1
  O2-  O250  1  0.95544394  0.91724499  0.60399505  1
  O2-  O251  1  0.95698792  0.91841512  0.92865314  1
  O2-  O252  1  0.33569817  0.29483255  0.27176285  1
  O2-  O253  1  0.33236977  0.28763563  0.59577966  1
  O2-  O254  1  0.33281214  0.29377876  0.93105463  1
  O2-  O255  1  0.33165890  0.79521663  0.27365876  1
  O2-  O256  1  0.33551505  0.79260963  0.59445115  1
  O2-  O257  1  0.33751982  0.79356221  0.93990128  1
  O2-  O258  1  0.83540549  0.28991982  0.26988815  1
  O2-  O259  1  0.83164716  0.28671676  0.59959098  1
  O2-  O260  1  0.83578148  0.29431079  0.93900504  1
  O2-  O261  1  0.83420884  0.79367301  0.26806486  1
  O2-  O262  1  0.83338408  0.79969770  0.60021693  1
  O2-  O263  1  0.82737425  0.79516195  0.93107100  1
  O2-  O264  1  0.41542801  0.04512969  0.06355073  1
  O2-  O265  1  0.41856822  0.05286517  0.39515024  1
  O2-  O266  1  0.41882026  0.03968751  0.73244792  1
  O2-  O267  1  0.41849909  0.54366493  0.06737080  1
  O2-  O268  1  0.41671749  0.53391132  0.40479846  1
  O2-  O269  1  0.41662825  0.55070748  0.72587978  1
  O2-  O270  1  0.91632485  0.04395359  0.06166840  1
  O2-  O271  1  0.91359485  0.04068898  0.40411803  1
  O2-  O272  1  0.91944823  0.04260201  0.73628060  1
  O2-  O273  1  0.91814984  0.54452867  0.07280535  1
  O2-  O274  1  0.91508727  0.54682280  0.39529995  1
  O2-  O275  1  0.91608933  0.54515951  0.72327561  1
  O2-  O276  1  0.29982256  0.16668006  0.06036585  1
  O2-  O277  1  0.29322490  0.16634962  0.39584119  1
  O2-  O278  1  0.29107249  0.16599185  0.73471521  1
  O2-  O279  1  0.29269359  0.66937563  0.07092078  1
  O2-  O280  1  0.29508682  0.66515729  0.40530326  1
  O2-  O281  1  0.29635011  0.66832717  0.72332250  1
  O2-  O282  1  0.79952260  0.16435808  0.06346260  1
  O2-  O283  1  0.78528399  0.16648452  0.40197830  1
  O2-  O284  1  0.79013881  0.16531958  0.73798101  1
  O2-  O285  1  0.79159521  0.66985675  0.06764565  1
  O2-  O286  1  0.79147190  0.66389126  0.39606804  1
  O2-  O287  1  0.80085329  0.66835568  0.72504501  1
