# generated using pymatgen
data_Ca2Al2SiO7
_symmetry_space_group_name_H-M   'P 1'
_cell_length_a   15.45988128
_cell_length_b   15.45960989
_cell_length_c   15.28496571
_cell_angle_alpha   89.99783731
_cell_angle_beta   89.99057934
_cell_angle_gamma   89.98306421
_symmetry_Int_Tables_number   1
_chemical_formula_structural   Ca2Al2SiO7
_chemical_formula_sum   'Ca48 Al48 Si24 O168'
_cell_volume   3653.16365940
_cell_formula_units_Z   24
loop_
 _symmetry_equiv_pos_site_id
 _symmetry_equiv_pos_as_xyz
  1  'x, y, z'
loop_
 _atom_type_symbol
 _atom_type_oxidation_number
  Ca2+  2.0
  Al0+  0.0
  Si0+  0.0
  O2-  -2.0
loop_
 _atom_site_type_symbol
 _atom_site_label
 _atom_site_symmetry_multiplicity
 _atom_site_fract_x
 _atom_site_fract_y
 _atom_site_fract_z
 _atom_site_occupancy
  Ca2+  Ca0  1  0.17352904  0.08077896  0.16486442  1
  Ca2+  Ca1  1  0.17763661  0.08588320  0.50908131  1
  Ca2+  Ca2  1  0.17097801  0.08152403  0.84110737  1
  Ca2+  Ca3  1  0.16164717  0.58535427  0.17066744  1
  Ca2+  Ca4  1  0.16440384  0.58586870  0.49959511  1
  Ca2+  Ca5  1  0.16634606  0.58429120  0.84114472  1
  Ca2+  Ca6  1  0.66870793  0.07714627  0.16746846  1
  Ca2+  Ca7  1  0.67931526  0.08246924  0.50499827  1
  Ca2+  Ca8  1  0.67385450  0.07626824  0.83795274  1
  Ca2+  Ca9  1  0.67474650  0.58432154  0.16440483  1
  Ca2+  Ca10  1  0.66731392  0.57969051  0.50705541  1
  Ca2+  Ca11  1  0.66658548  0.57937392  0.84340294  1
  Ca2+  Ca12  1  0.07572150  0.32425136  0.15346446  1
  Ca2+  Ca13  1  0.07783913  0.32661767  0.50299196  1
  Ca2+  Ca14  1  0.06943711  0.32255602  0.83224111  1
  Ca2+  Ca15  1  0.08560204  0.82373849  0.15924493  1
  Ca2+  Ca16  1  0.07707486  0.83059291  0.49860443  1
  Ca2+  Ca17  1  0.08221822  0.83258774  0.83282522  1
  Ca2+  Ca18  1  0.57836598  0.33214041  0.15726571  1
  Ca2+  Ca19  1  0.58745386  0.33278731  0.50222841  1
  Ca2+  Ca20  1  0.58149078  0.34123882  0.83181606  1
  Ca2+  Ca21  1  0.57522284  0.83482784  0.15628791  1
  Ca2+  Ca22  1  0.57320028  0.83608121  0.49932555  1
  Ca2+  Ca23  1  0.58195919  0.82818145  0.83018455  1
  Ca2+  Ca24  1  0.33354162  0.41687085  0.16637749  1
  Ca2+  Ca25  1  0.32888877  0.41998088  0.50700575  1
  Ca2+  Ca26  1  0.33321580  0.41745961  0.84092171  1
  Ca2+  Ca27  1  0.33393379  0.92041530  0.16791780  1
  Ca2+  Ca28  1  0.33736856  0.92134050  0.50526261  1
  Ca2+  Ca29  1  0.33412843  0.92373349  0.84286378  1
  Ca2+  Ca30  1  0.83558329  0.42508985  0.16450903  1
  Ca2+  Ca31  1  0.82980410  0.42243558  0.50871163  1
  Ca2+  Ca32  1  0.82603077  0.41696636  0.84108309  1
  Ca2+  Ca33  1  0.82518345  0.91904394  0.16882899  1
  Ca2+  Ca34  1  0.84070673  0.92579580  0.50738315  1
  Ca2+  Ca35  1  0.83399557  0.91797678  0.83782386  1
  Ca2+  Ca36  1  0.41082800  0.16927415  0.15925043  1
  Ca2+  Ca37  1  0.41581922  0.16086926  0.49711285  1
  Ca2+  Ca38  1  0.41180692  0.16700291  0.83317361  1
  Ca2+  Ca39  1  0.42271890  0.68130485  0.15534155  1
  Ca2+  Ca40  1  0.42200335  0.67867098  0.49732546  1
  Ca2+  Ca41  1  0.42790856  0.67998229  0.82965777  1
  Ca2+  Ca42  1  0.91860879  0.17171937  0.15592922  1
  Ca2+  Ca43  1  0.91395861  0.16701382  0.49885573  1
  Ca2+  Ca44  1  0.92360151  0.16895622  0.82286857  1
  Ca2+  Ca45  1  0.92321101  0.65696199  0.16083841  1
  Ca2+  Ca46  1  0.91631501  0.67209248  0.49454568  1
  Ca2+  Ca47  1  0.91727925  0.66991286  0.83271201  1
  Al0+  Al48  1  0.00358539  -0.00178491  0.00309444  1
  Al0+  Al49  1  0.00098027  -0.00081588  0.33497851  1
  Al0+  Al50  1  0.00419484  -0.00102543  0.66234939  1
  Al0+  Al51  1  0.00040954  0.49863569  -0.00605696  1
  Al0+  Al52  1  -0.00176766  0.49847779  0.33633727  1
  Al0+  Al53  1  0.00029422  0.49745144  0.66400275  1
  Al0+  Al54  1  0.50096132  0.00343792  0.00422338  1
  Al0+  Al55  1  0.49974454  0.00148535  0.33297400  1
  Al0+  Al56  1  0.50060608  0.00170939  0.66741352  1
  Al0+  Al57  1  0.49990872  0.49960159  -0.00138418  1
  Al0+  Al58  1  0.49871776  0.49985747  0.33444253  1
  Al0+  Al59  1  0.49945571  0.50057961  0.66515357  1
  Al0+  Al60  1  0.24957347  0.25096693  -0.00396240  1
  Al0+  Al61  1  0.24877794  0.24976233  0.33795692  1
  Al0+  Al62  1  0.24938489  0.25101774  0.66718788  1
  Al0+  Al63  1  0.25002961  0.75109467  -0.00477011  1
  Al0+  Al64  1  0.24956385  0.74983401  0.32695341  1
  Al0+  Al65  1  0.25140288  0.75014905  0.66279907  1
  Al0+  Al66  1  0.74743094  0.25207283  0.00145910  1
  Al0+  Al67  1  0.74856251  0.24942810  0.33487800  1
  Al0+  Al68  1  0.74933087  0.25123188  0.67143483  1
  Al0+  Al69  1  0.75121672  0.74984402  0.00695206  1
  Al0+  Al70  1  0.74822190  0.74904240  0.33855609  1
  Al0+  Al71  1  0.75141457  0.74921232  0.65663958  1
  Al0+  Al72  1  0.42976285  0.82505205  0.98427473  1
  Al0+  Al73  1  0.67610168  0.42824716  0.01712629  1
  Al0+  Al74  1  0.92591668  0.31950912  0.64968095  1
  Al0+  Al75  1  0.07095655  0.67861651  0.98627528  1
  Al0+  Al76  1  0.42955923  0.32046798  0.98710302  1
  Al0+  Al77  1  0.42960532  0.82347563  0.65110171  1
  Al0+  Al78  1  0.32002754  0.07268610  0.01556865  1
  Al0+  Al79  1  0.17854574  0.92609241  0.01621547  1
  Al0+  Al80  1  0.06692699  0.67933124  0.31980418  1
  Al0+  Al81  1  0.93020228  0.82039358  0.65395724  1
  Al0+  Al82  1  0.82267819  0.57031276  0.01371621  1
  Al0+  Al83  1  0.32198431  0.07094189  0.68204050  1
  Al0+  Al84  1  0.43103162  0.82179065  0.31718518  1
  Al0+  Al85  1  0.82117966  0.07042190  0.34584011  1
  Al0+  Al86  1  0.67895376  0.43133110  0.68138849  1
  Al0+  Al87  1  0.31884659  0.07039107  0.34872677  1
  Al0+  Al88  1  0.07008984  0.17642461  0.98596636  1
  Al0+  Al89  1  0.92638190  0.32043555  0.98530390  1
  Al0+  Al90  1  0.82134022  0.56956113  0.34964312  1
  Al0+  Al91  1  0.57157490  0.67731339  0.64999027  1
  Al0+  Al92  1  0.67987513  0.92898121  0.01203893  1
  Al0+  Al93  1  0.07189894  0.17860205  0.64961212  1
  Al0+  Al94  1  0.82318531  0.06954924  0.68026637  1
  Al0+  Al95  1  0.57343107  0.68038295  0.98717821  1
  Si0+  Si96  1  0.17889245  0.42868332  0.34888042  1
  Si0+  Si97  1  0.17863353  0.42946611  0.68335452  1
  Si0+  Si98  1  0.67601341  0.42818669  0.35105883  1
  Si0+  Si99  1  0.57218962  0.67540261  0.31522687  1
  Si0+  Si100  1  0.32070353  0.57164778  0.34728022  1
  Si0+  Si101  1  0.67944179  0.92735537  0.68107403  1
  Si0+  Si102  1  0.92558068  0.82376346  0.31580503  1
  Si0+  Si103  1  0.32093534  0.57150509  0.01396894  1
  Si0+  Si104  1  0.17887816  0.92481794  0.35148569  1
  Si0+  Si105  1  0.57293981  0.17792678  0.98267525  1
  Si0+  Si106  1  0.67702928  0.92876432  0.35130205  1
  Si0+  Si107  1  0.07297264  0.17880460  0.31854408  1
  Si0+  Si108  1  0.17972324  0.92575018  0.68272834  1
  Si0+  Si109  1  0.17989842  0.43063073  0.01379466  1
  Si0+  Si110  1  0.57074173  0.18121205  0.31925910  1
  Si0+  Si111  1  0.42659906  0.32154134  0.32069211  1
  Si0+  Si112  1  0.07322064  0.67581855  0.64979145  1
  Si0+  Si113  1  0.82357969  0.07234993  0.01412698  1
  Si0+  Si114  1  0.92845530  0.31850812  0.31869638  1
  Si0+  Si115  1  0.57112502  0.17938951  0.65241319  1
  Si0+  Si116  1  0.82373822  0.57364106  0.68275619  1
  Si0+  Si117  1  0.31980044  0.57138439  0.68122075  1
  Si0+  Si118  1  0.42852308  0.32114755  0.65090040  1
  Si0+  Si119  1  0.92759110  0.82245674  0.98699814  1
  O2-  O120  1  0.25130312  -0.00219256  0.06597851  1
  O2-  O121  1  0.24564353  -0.00496318  0.39652364  1
  O2-  O122  1  0.24938410  -0.00629990  0.72590033  1
  O2-  O123  1  0.24845417  0.50268832  0.05851315  1
  O2-  O124  1  0.24997715  0.50043016  0.39070593  1
  O2-  O125  1  0.24626996  0.50383294  0.72485371  1
  O2-  O126  1  0.75504800  0.00388382  0.05897608  1
  O2-  O127  1  0.75159845  -0.00834276  0.39459148  1
  O2-  O128  1  0.75158226  -0.00817524  0.72617024  1
  O2-  O129  1  0.74991337  0.49913248  0.06526384  1
  O2-  O130  1  0.74276397  0.49831191  0.39518788  1
  O2-  O131  1  0.75363407  0.50656684  0.72619984  1
  O2-  O132  1  -0.00304935  0.24474697  0.27688090  1
  O2-  O133  1  -0.00443843  0.24567049  0.59797120  1
  O2-  O134  1  -0.00941306  0.24063811  0.93708956  1
  O2-  O135  1  -0.00845962  0.75248237  0.27182934  1
  O2-  O136  1  0.00248025  0.74267345  0.60703132  1
  O2-  O137  1  -0.00323674  0.75430310  0.94236531  1
  O2-  O138  1  0.49818068  0.25170006  0.27876032  1
  O2-  O139  1  0.49859849  0.24940255  0.60896991  1
  O2-  O140  1  0.50503970  0.24782850  0.93914167  1
  O2-  O141  1  0.50656334  0.74707670  0.27200716  1
  O2-  O142  1  0.50189667  0.75193984  0.60022275  1
  O2-  O143  1  0.50442174  0.75469040  0.93666450  1
  O2-  O144  1  0.07012997  0.18072954  0.10070972  1
  O2-  O145  1  0.07571588  0.18299510  0.42328428  1
  O2-  O146  1  0.07232307  0.18136803  0.76248780  1
  O2-  O147  1  0.06961523  0.67654384  0.09955352  1
  O2-  O148  1  0.06698718  0.68003063  0.43309060  1
  O2-  O149  1  0.07512924  0.67555958  0.75499555  1
  O2-  O150  1  0.57317510  0.17842393  0.08888014  1
  O2-  O151  1  0.57191594  0.18265629  0.42468038  1
  O2-  O152  1  0.57067057  0.17882617  0.75692173  1
  O2-  O153  1  0.56986784  0.68137465  0.10124252  1
  O2-  O154  1  0.56822641  0.67241708  0.42071312  1
  O2-  O155  1  0.56959694  0.67671570  0.76307776  1
  O2-  O156  1  0.18019710  0.42677685  0.24387116  1
  O2-  O157  1  0.18114353  0.42953782  0.57742925  1
  O2-  O158  1  0.18232448  0.43228951  0.90875237  1
  O2-  O159  1  0.17955611  0.92454040  0.24636062  1
  O2-  O160  1  0.18059785  0.92446339  0.57669880  1
  O2-  O161  1  0.17822714  0.92567793  0.90271900  1
  O2-  O162  1  0.67385216  0.42648587  0.24624028  1
  O2-  O163  1  0.67869758  0.43173581  0.56748276  1
  O2-  O164  1  0.67504442  0.43120001  0.90375863  1
  O2-  O165  1  0.67607644  0.93178504  0.24571058  1
  O2-  O166  1  0.67804533  0.93240893  0.57521331  1
  O2-  O167  1  0.68246765  0.92968446  0.89882234  1
  O2-  O168  1  0.42803383  0.31961054  0.10106322  1
  O2-  O169  1  0.42575335  0.32276469  0.42593004  1
  O2-  O170  1  0.42783861  0.32304083  0.75546411  1
  O2-  O171  1  0.43026417  0.82236293  0.09831560  1
  O2-  O172  1  0.43192596  0.82087323  0.43034833  1
  O2-  O173  1  0.43000431  0.82265622  0.76382909  1
  O2-  O174  1  0.93149862  0.32066598  0.10012576  1
  O2-  O175  1  0.92914952  0.31825305  0.42361112  1
  O2-  O176  1  0.92784324  0.31991314  0.76248914  1
  O2-  O177  1  0.92757519  0.82305215  0.09265104  1
  O2-  O178  1  0.92925906  0.82437888  0.42152645  1
  O2-  O179  1  0.93022873  0.81952148  0.76700777  1
  O2-  O180  1  0.31648424  0.07552557  0.23663686  1
  O2-  O181  1  0.32099641  0.07113527  0.56828506  1
  O2-  O182  1  0.31779160  0.07362730  0.90213069  1
  O2-  O183  1  0.32145600  0.56871912  0.24238823  1
  O2-  O184  1  0.31813241  0.56871471  0.57536326  1
  O2-  O185  1  0.31939274  0.56872348  0.90871623  1
  O2-  O186  1  0.81723635  0.07264767  0.23282910  1
  O2-  O187  1  0.81925408  0.06931026  0.56674517  1
  O2-  O188  1  0.82288722  0.07015698  0.90861219  1
  O2-  O189  1  0.82512471  0.56519146  0.23726607  1
  O2-  O190  1  0.82392583  0.57087588  0.57671194  1
  O2-  O191  1  0.82365565  0.57073513  0.90034220  1
  O2-  O192  1  0.05140481  0.08410215  0.27477976  1
  O2-  O193  1  0.05137545  0.07899384  0.59649673  1
  O2-  O194  1  0.05093233  0.07525219  0.93587172  1
  O2-  O195  1  0.03878354  0.58008917  0.26856476  1
  O2-  O196  1  0.05100466  0.58137047  0.60370791  1
  O2-  O197  1  0.04191320  0.58319978  0.92973085  1
  O2-  O198  1  0.54381296  0.08981825  0.27163104  1
  O2-  O199  1  0.54446087  0.08863418  0.60219209  1
  O2-  O200  1  0.54674395  0.08554341  0.93572440  1
  O2-  O201  1  0.54382762  0.58190822  0.26993715  1
  O2-  O202  1  0.53668928  0.58085267  0.59494939  1
  O2-  O203  1  0.54135211  0.58312880  0.93521956  1
  O2-  O204  1  0.16249709  0.21358825  0.27084728  1
  O2-  O205  1  0.16821965  0.21657329  0.59583931  1
  O2-  O206  1  0.16439063  0.21387370  0.93217798  1
  O2-  O207  1  0.16432170  0.70675098  0.26565880  1
  O2-  O208  1  0.16596648  0.70252031  0.60165085  1
  O2-  O209  1  0.16700242  0.70693743  0.93037852  1
  O2-  O210  1  0.66115769  0.21026290  0.26974328  1
  O2-  O211  1  0.66133021  0.21054073  0.60362309  1
  O2-  O212  1  0.66673553  0.20137054  0.93666072  1
  O2-  O213  1  0.66840223  0.69771847  0.27380583  1
  O2-  O214  1  0.66997785  0.70105108  0.59506756  1
  O2-  O215  1  0.67340599  0.70576464  0.93691523  1
  O2-  O216  1  0.08804552  0.45713217  0.06122618  1
  O2-  O217  1  0.08837286  0.45716411  0.39811223  1
  O2-  O218  1  0.08568421  0.45426755  0.72938056  1
  O2-  O219  1  0.08047668  0.95257230  0.07278527  1
  O2-  O220  1  0.08395485  0.94849056  0.39610217  1
  O2-  O221  1  0.08660640  0.95182610  0.72843247  1
  O2-  O222  1  0.57725407  0.45678276  0.07048425  1
  O2-  O223  1  0.58105111  0.45132345  0.39767982  1
  O2-  O224  1  0.58017528  0.45982692  0.73253116  1
  O2-  O225  1  0.58609608  0.96355901  0.06960713  1
  O2-  O226  1  0.58663049  0.96268648  0.39879113  1
  O2-  O227  1  0.58800465  0.95769505  0.72810907  1
  O2-  O228  1  0.21038250  0.34028969  0.06243258  1
  O2-  O229  1  0.20928505  0.33932449  0.39992403  1
  O2-  O230  1  0.21160435  0.34018920  0.73090811  1
  O2-  O231  1  0.20693288  0.82671732  0.06840574  1
  O2-  O232  1  0.20583587  0.83111344  0.39709180  1
  O2-  O233  1  0.20265603  0.83061921  0.72743569  1
  O2-  O234  1  0.70097879  0.32862451  0.07096160  1
  O2-  O235  1  0.70378941  0.33502614  0.39741632  1
  O2-  O236  1  0.70606545  0.33440436  0.73554355  1
  O2-  O237  1  0.70968623  0.83509423  0.07166990  1
  O2-  O238  1  0.69383535  0.83275524  0.39557526  1
  O2-  O239  1  0.70214810  0.83117968  0.72178163  1
  O2-  O240  1  0.45232378  0.41404428  0.27313819  1
  O2-  O241  1  0.45667239  0.41199807  0.60116342  1
  O2-  O242  1  0.45727154  0.41708026  0.93172226  1
  O2-  O243  1  0.46157753  0.91940076  0.26522178  1
  O2-  O244  1  0.45958829  0.92199419  0.59781859  1
  O2-  O245  1  0.45683084  0.92496018  0.93567046  1
  O2-  O246  1  0.96068063  0.40917453  0.27264581  1
  O2-  O247  1  0.95942101  0.41712029  0.59589814  1
  O2-  O248  1  0.96352819  0.41374743  0.92933250  1
  O2-  O249  1  0.95197701  0.91733387  0.26984380  1
  O2-  O250  1  0.96504965  0.91398557  0.59602657  1
  O2-  O251  1  0.95302456  0.91567598  0.94040933  1
  O2-  O252  1  0.33457860  0.29343368  0.27380421  1
  O2-  O253  1  0.33675571  0.29474922  0.60247178  1
  O2-  O254  1  0.33395734  0.29145791  0.93063898  1
  O2-  O255  1  0.33487659  0.78924061  0.26416087  1
  O2-  O256  1  0.33194995  0.79246774  0.59647907  1
  O2-  O257  1  0.33308645  0.79324611  0.93131244  1
  O2-  O258  1  0.83543728  0.29298289  0.27261748  1
  O2-  O259  1  0.82631759  0.29323924  0.59787481  1
  O2-  O260  1  0.82457039  0.30192931  0.93718888  1
  O2-  O261  1  0.82886724  0.80163825  0.27515423  1
  O2-  O262  1  0.83491661  0.79480300  0.59419333  1
  O2-  O263  1  0.83477318  0.79642359  0.94070847  1
  O2-  O264  1  0.42003998  0.05082931  0.06825646  1
  O2-  O265  1  0.41784432  0.04271465  0.40021866  1
  O2-  O266  1  0.42038443  0.04515801  0.73448313  1
  O2-  O267  1  0.41056780  0.54058468  0.06313178  1
  O2-  O268  1  0.41150684  0.54288271  0.39696397  1
  O2-  O269  1  0.40974249  0.53900506  0.72791081  1
  O2-  O270  1  0.91676259  0.04810081  0.06135896  1
  O2-  O271  1  0.91984181  0.04495154  0.39931268  1
  O2-  O272  1  0.92174969  0.04042561  0.72999715  1
  O2-  O273  1  0.92093447  0.53635484  0.06610105  1
  O2-  O274  1  0.91619412  0.53512950  0.40567455  1
  O2-  O275  1  0.91858446  0.54797885  0.72623799  1
  O2-  O276  1  0.28780665  0.17137458  0.06781022  1
  O2-  O277  1  0.28823561  0.16742733  0.40424265  1
  O2-  O278  1  0.29101535  0.16910972  0.73258797  1
  O2-  O279  1  0.29396014  0.66348651  0.06038752  1
  O2-  O280  1  0.29063492  0.66277160  0.39444799  1
  O2-  O281  1  0.29448511  0.66412813  0.72733989  1
  O2-  O282  1  0.79673821  0.16566620  0.06015002  1
  O2-  O283  1  0.78529420  0.16544371  0.40121763  1
  O2-  O284  1  0.78868925  0.16435750  0.73411357  1
  O2-  O285  1  0.79789023  0.66789168  0.07075812  1
  O2-  O286  1  0.79505337  0.66827001  0.40261935  1
  O2-  O287  1  0.80094690  0.66944000  0.72456374  1
