# generated using pymatgen
data_Ca2Al2SiO7
_symmetry_space_group_name_H-M   'P 1'
_cell_length_a   15.45982825
_cell_length_b   15.46089786
_cell_length_c   15.28569112
_cell_angle_alpha   90.00315963
_cell_angle_beta   90.00191529
_cell_angle_gamma   89.97338858
_symmetry_Int_Tables_number   1
_chemical_formula_structural   Ca2Al2SiO7
_chemical_formula_sum   'Ca48 Al48 Si24 O168'
_cell_volume   3653.62867891
_cell_formula_units_Z   24
loop_
 _symmetry_equiv_pos_site_id
 _symmetry_equiv_pos_as_xyz
  1  'x, y, z'
loop_
 _atom_type_symbol
 _atom_type_oxidation_number
  Ca2+  2.0
  Al0+  0.0
  Si0+  0.0
  O2-  -2.0
loop_
 _atom_site_type_symbol
 _atom_site_label
 _atom_site_symmetry_multiplicity
 _atom_site_fract_x
 _atom_site_fract_y
 _atom_site_fract_z
 _atom_site_occupancy
  Ca2+  Ca0  1  0.16060729  0.07740181  0.17124215  1
  Ca2+  Ca1  1  0.16466511  0.07233104  0.50159013  1
  Ca2+  Ca2  1  0.16763968  0.08419934  0.84085131  1
  Ca2+  Ca3  1  0.17280631  0.58728034  0.17499266  1
  Ca2+  Ca4  1  0.16543167  0.57660329  0.50118408  1
  Ca2+  Ca5  1  0.16869036  0.58380073  0.83576152  1
  Ca2+  Ca6  1  0.67162034  0.08098646  0.16871562  1
  Ca2+  Ca7  1  0.66120256  0.08196108  0.50611891  1
  Ca2+  Ca8  1  0.66632800  0.07325951  0.84012749  1
  Ca2+  Ca9  1  0.66717809  0.58583731  0.16789936  1
  Ca2+  Ca10  1  0.67786111  0.58456284  0.50611952  1
  Ca2+  Ca11  1  0.67251052  0.58811213  0.83942220  1
  Ca2+  Ca12  1  0.07539880  0.33537700  0.16265234  1
  Ca2+  Ca13  1  0.08221863  0.33990333  0.49377948  1
  Ca2+  Ca14  1  0.08173548  0.33273476  0.83202277  1
  Ca2+  Ca15  1  0.08021694  0.82733144  0.16273212  1
  Ca2+  Ca16  1  0.08172222  0.81996020  0.48871105  1
  Ca2+  Ca17  1  0.07882264  0.82125048  0.83151765  1
  Ca2+  Ca18  1  0.57903136  0.32992862  0.16694334  1
  Ca2+  Ca19  1  0.57593252  0.32389356  0.49175506  1
  Ca2+  Ca20  1  0.57495364  0.32606192  0.82326991  1
  Ca2+  Ca21  1  0.57779477  0.82842292  0.16219625  1
  Ca2+  Ca22  1  0.57298109  0.83885059  0.49856971  1
  Ca2+  Ca23  1  0.58380717  0.83468396  0.82970869  1
  Ca2+  Ca24  1  0.32734056  0.42898805  0.17798122  1
  Ca2+  Ca25  1  0.32604825  0.41363273  0.50277259  1
  Ca2+  Ca26  1  0.32817115  0.41864713  0.83926070  1
  Ca2+  Ca27  1  0.32585389  0.91475777  0.17742986  1
  Ca2+  Ca28  1  0.33185007  0.90900241  0.50066136  1
  Ca2+  Ca29  1  0.33542288  0.91529656  0.83431905  1
  Ca2+  Ca30  1  0.83680491  0.41191588  0.17122496  1
  Ca2+  Ca31  1  0.83680385  0.42216554  0.50497082  1
  Ca2+  Ca32  1  0.83460733  0.42097813  0.83535348  1
  Ca2+  Ca33  1  0.83655925  0.91493165  0.16790539  1
  Ca2+  Ca34  1  0.82680427  0.91499688  0.50601237  1
  Ca2+  Ca35  1  0.82268938  0.91879025  0.84597631  1
  Ca2+  Ca36  1  0.41747178  0.17184130  0.16911101  1
  Ca2+  Ca37  1  0.42608817  0.17600070  0.49616907  1
  Ca2+  Ca38  1  0.42202547  0.17252430  0.82105614  1
  Ca2+  Ca39  1  0.41318719  0.66688613  0.16228288  1
  Ca2+  Ca40  1  0.41182892  0.67506888  0.49452020  1
  Ca2+  Ca41  1  0.42117873  0.66864079  0.83249077  1
  Ca2+  Ca42  1  0.92086241  0.17515920  0.15745466  1
  Ca2+  Ca43  1  0.91733624  0.17498072  0.49197610  1
  Ca2+  Ca44  1  0.91581538  0.16654134  0.83957869  1
  Ca2+  Ca45  1  0.93089141  0.67596834  0.16146705  1
  Ca2+  Ca46  1  0.92618478  0.66603123  0.49408868  1
  Ca2+  Ca47  1  0.92531230  0.66483580  0.82873353  1
  Al0+  Al48  1  -0.00070887  0.00163930  -0.00431059  1
  Al0+  Al49  1  -0.00194102  0.00070915  0.33845399  1
  Al0+  Al50  1  -0.00052395  -0.00056985  0.66865054  1
  Al0+  Al51  1  -0.00074521  0.49933326  -0.00669540  1
  Al0+  Al52  1  0.00083437  0.50088689  0.32792519  1
  Al0+  Al53  1  0.00191810  0.49950839  0.67226912  1
  Al0+  Al54  1  0.49956132  0.00063949  0.00616347  1
  Al0+  Al55  1  0.50121534  -0.00120098  0.32502162  1
  Al0+  Al56  1  0.49949202  -0.00019652  0.66398593  1
  Al0+  Al57  1  0.49936082  0.50177532  -0.00040106  1
  Al0+  Al58  1  0.50148755  0.49917824  0.33655845  1
  Al0+  Al59  1  0.49947071  0.50143099  0.66233531  1
  Al0+  Al60  1  0.24891885  0.25106120  -0.00061651  1
  Al0+  Al61  1  0.25200502  0.24886667  0.33373425  1
  Al0+  Al62  1  0.24806838  0.24894039  0.66684733  1
  Al0+  Al63  1  0.25045465  0.75122229  -0.00119157  1
  Al0+  Al64  1  0.25092263  0.75036453  0.33472974  1
  Al0+  Al65  1  0.24887752  0.74779798  0.66092751  1
  Al0+  Al66  1  0.74896662  0.24918375  -0.00123537  1
  Al0+  Al67  1  0.75093257  0.24860511  0.32767724  1
  Al0+  Al68  1  0.75181378  0.25019137  0.66457241  1
  Al0+  Al69  1  0.74759930  0.74907917  -0.00005480  1
  Al0+  Al70  1  0.74961083  0.75138735  0.33275514  1
  Al0+  Al71  1  0.75088947  0.75131869  0.67598793  1
  Al0+  Al72  1  0.56918630  0.67872344  0.98713322  1
  Al0+  Al73  1  0.07210102  0.17982702  0.98505821  1
  Al0+  Al74  1  0.92661338  0.82299465  0.32039646  1
  Al0+  Al75  1  0.82080424  0.07080411  0.01711974  1
  Al0+  Al76  1  0.93134880  0.32130097  0.32177361  1
  Al0+  Al77  1  0.42736053  0.32283651  0.31654089  1
  Al0+  Al78  1  0.92630985  0.32137866  0.98174686  1
  Al0+  Al79  1  0.67756923  0.92654069  0.01982360  1
  Al0+  Al80  1  0.42580472  0.32348634  0.65202002  1
  Al0+  Al81  1  0.43050363  0.81910540  0.65392807  1
  Al0+  Al82  1  0.82059666  0.56973818  0.68073369  1
  Al0+  Al83  1  0.07125674  0.67946529  0.31810705  1
  Al0+  Al84  1  0.57166816  0.17841688  0.31508837  1
  Al0+  Al85  1  0.17815165  0.93039808  0.34713983  1
  Al0+  Al86  1  0.06898298  0.67804684  0.65063764  1
  Al0+  Al87  1  0.42960130  0.81859977  0.31917813  1
  Al0+  Al88  1  0.32340797  0.57200942  0.35066149  1
  Al0+  Al89  1  0.17816644  0.42851863  0.34686125  1
  Al0+  Al90  1  0.07352509  0.67946103  0.98324858  1
  Al0+  Al91  1  0.32019845  0.57064535  0.01237097  1
  Al0+  Al92  1  0.18106667  0.42817079  0.68258213  1
  Al0+  Al93  1  0.67837985  0.93226016  0.68010213  1
  Al0+  Al94  1  0.92803144  0.82153672  0.98409526  1
  Al0+  Al95  1  0.57188346  0.17982350  0.65327476  1
  Si0+  Si96  1  0.57596968  0.67812836  0.65048007  1
  Si0+  Si97  1  0.07249786  0.17614367  0.32041179  1
  Si0+  Si98  1  0.82212146  0.57000906  0.01635575  1
  Si0+  Si99  1  0.67845544  0.42940702  0.01411987  1
  Si0+  Si100  1  0.68051315  0.42607162  0.34814292  1
  Si0+  Si101  1  0.42984178  0.32135859  0.98605100  1
  Si0+  Si102  1  0.81979899  0.57097766  0.34545621  1
  Si0+  Si103  1  0.07149572  0.17587976  0.65036934  1
  Si0+  Si104  1  0.82453433  0.07478930  0.68407119  1
  Si0+  Si105  1  0.32283120  0.57408534  0.68373984  1
  Si0+  Si106  1  0.67724946  0.42722494  0.68155457  1
  Si0+  Si107  1  0.17790039  0.92614064  0.68251289  1
  Si0+  Si108  1  0.93162046  0.32010047  0.65199772  1
  Si0+  Si109  1  0.17735066  0.42774341  0.01695265  1
  Si0+  Si110  1  0.42818715  0.82414322  0.98401119  1
  Si0+  Si111  1  0.18045260  0.93071800  0.01255149  1
  Si0+  Si112  1  0.81954039  0.07212500  0.34979146  1
  Si0+  Si113  1  0.57399915  0.67706385  0.31937626  1
  Si0+  Si114  1  0.32149052  0.07433155  0.01511397  1
  Si0+  Si115  1  0.56915389  0.17849421  0.98477675  1
  Si0+  Si116  1  0.32508470  0.07086248  0.35084419  1
  Si0+  Si117  1  0.67859085  0.92892903  0.34939957  1
  Si0+  Si118  1  0.92725122  0.82252016  0.65119002  1
  Si0+  Si119  1  0.31818400  0.06843511  0.68006200  1
  O2-  O120  1  0.25041039  0.00287443  0.05540152  1
  O2-  O121  1  0.25400595  0.00434399  0.39526296  1
  O2-  O122  1  0.24785850  -0.00195738  0.72518010  1
  O2-  O123  1  0.24237593  0.49988105  0.05978073  1
  O2-  O124  1  0.25222511  0.49765732  0.39862331  1
  O2-  O125  1  0.25962068  0.50008121  0.72769333  1
  O2-  O126  1  0.75238797  -0.00363517  0.06924545  1
  O2-  O127  1  0.74935276  0.00026119  0.39186186  1
  O2-  O128  1  0.75445620  0.00642386  0.72560679  1
  O2-  O129  1  0.75221423  0.49707836  0.05809486  1
  O2-  O130  1  0.75025613  0.49883088  0.38941059  1
  O2-  O131  1  0.74167112  0.49861596  0.72776575  1
  O2-  O132  1  0.00968320  0.24994402  0.27690510  1
  O2-  O133  1  -0.00079630  0.24597205  0.60950199  1
  O2-  O134  1  0.00066471  0.25109532  0.93267131  1
  O2-  O135  1  0.00140810  0.75472794  0.27051851  1
  O2-  O136  1  -0.00484456  0.75465110  0.60557946  1
  O2-  O137  1  -0.00242706  0.74769298  0.93309429  1
  O2-  O138  1  0.49931622  0.25075471  0.26578665  1
  O2-  O139  1  0.50383138  0.25618124  0.60459720  1
  O2-  O140  1  0.49722401  0.24789952  0.94206964  1
  O2-  O141  1  0.50035489  0.73968309  0.27470832  1
  O2-  O142  1  0.50509091  0.74415111  0.60656625  1
  O2-  O143  1  0.49843669  0.75713153  0.94044643  1
  O2-  O144  1  0.07422627  0.18112799  0.09866112  1
  O2-  O145  1  0.06762065  0.17302886  0.42637021  1
  O2-  O146  1  0.07298295  0.17459803  0.75500183  1
  O2-  O147  1  0.07516327  0.68248072  0.09635309  1
  O2-  O148  1  0.06667528  0.67735889  0.43188078  1
  O2-  O149  1  0.06930942  0.68007843  0.76361852  1
  O2-  O150  1  0.56846561  0.18043430  0.08957010  1
  O2-  O151  1  0.57213973  0.17982109  0.42879751  1
  O2-  O152  1  0.56825563  0.17955207  0.76743848  1
  O2-  O153  1  0.56615740  0.67591327  0.10018914  1
  O2-  O154  1  0.57985970  0.68144690  0.42479663  1
  O2-  O155  1  0.57538903  0.67839085  0.75603811  1
  O2-  O156  1  0.17679898  0.43013602  0.23336688  1
  O2-  O157  1  0.17829712  0.42823183  0.56989042  1
  O2-  O158  1  0.18196298  0.42420529  0.91124820  1
  O2-  O159  1  0.17822511  0.93341458  0.23361699  1
  O2-  O160  1  0.17704203  0.92842097  0.57756224  1
  O2-  O161  1  0.18427257  0.93062440  0.90696290  1
  O2-  O162  1  0.68100718  0.42574865  0.24275636  1
  O2-  O163  1  0.68176138  0.42628321  0.57598580  1
  O2-  O164  1  0.67668893  0.43098144  0.90895779  1
  O2-  O165  1  0.67925409  0.92758665  0.24489236  1
  O2-  O166  1  0.67910890  0.93311453  0.56648887  1
  O2-  O167  1  0.67367848  0.93168528  0.90594507  1
  O2-  O168  1  0.43189543  0.32045626  0.09072116  1
  O2-  O169  1  0.43015086  0.32059536  0.42993746  1
  O2-  O170  1  0.42644784  0.31914524  0.76668352  1
  O2-  O171  1  0.42623420  0.82370265  0.08932636  1
  O2-  O172  1  0.43313065  0.82088720  0.43241807  1
  O2-  O173  1  0.43067832  0.82004011  0.76717699  1
  O2-  O174  1  0.92735211  0.32073336  0.09539412  1
  O2-  O175  1  0.92896700  0.31989019  0.43538824  1
  O2-  O176  1  0.93112319  0.31935427  0.75658222  1
  O2-  O177  1  0.93253609  0.82017521  0.09766196  1
  O2-  O178  1  0.92365200  0.81912467  0.43433449  1
  O2-  O179  1  0.92955999  0.82309303  0.75641986  1
  O2-  O180  1  0.32388505  0.06923489  0.24479912  1
  O2-  O181  1  0.31604545  0.06759116  0.57537984  1
  O2-  O182  1  0.32324541  0.07442990  0.90958534  1
  O2-  O183  1  0.32224917  0.57166400  0.23663513  1
  O2-  O184  1  0.32008740  0.57713075  0.57876364  1
  O2-  O185  1  0.32277406  0.56705062  0.89913649  1
  O2-  O186  1  0.81977120  0.07389640  0.24535862  1
  O2-  O187  1  0.82750176  0.07520240  0.57830767  1
  O2-  O188  1  0.81518039  0.07174763  0.90317309  1
  O2-  O189  1  0.81676960  0.57086968  0.24046708  1
  O2-  O190  1  0.82070149  0.56738479  0.56688500  1
  O2-  O191  1  0.82009287  0.56891819  0.91107139  1
  O2-  O192  1  0.04035139  0.08553405  0.27274070  1
  O2-  O193  1  0.04411295  0.08330044  0.60313949  1
  O2-  O194  1  0.04560101  0.08221880  0.92948202  1
  O2-  O195  1  0.04003429  0.58392817  0.26234190  1
  O2-  O196  1  0.03524670  0.58106647  0.59987511  1
  O2-  O197  1  0.04768217  0.58014378  0.93165128  1
  O2-  O198  1  0.54388034  0.08118072  0.26078792  1
  O2-  O199  1  0.53780478  0.08435380  0.59882521  1
  O2-  O200  1  0.54051414  0.08592118  0.93953875  1
  O2-  O201  1  0.55689341  0.58067653  0.27647859  1
  O2-  O202  1  0.55640133  0.58308658  0.60458688  1
  O2-  O203  1  0.53673181  0.58368514  0.92984631  1
  O2-  O204  1  0.16893880  0.19180729  0.27765569  1
  O2-  O205  1  0.16249983  0.20313079  0.60243419  1
  O2-  O206  1  0.17109917  0.20771737  0.93032895  1
  O2-  O207  1  0.16983969  0.70781583  0.26803584  1
  O2-  O208  1  0.16468516  0.70889321  0.59644233  1
  O2-  O209  1  0.17026159  0.71283695  0.92876908  1
  O2-  O210  1  0.66865214  0.20934582  0.26135385  1
  O2-  O211  1  0.67211250  0.20324984  0.60096158  1
  O2-  O212  1  0.65989872  0.20703345  0.93713768  1
  O2-  O213  1  0.66420842  0.70835629  0.26947551  1
  O2-  O214  1  0.66974456  0.70629197  0.60597700  1
  O2-  O215  1  0.66636376  0.70495817  0.93298573  1
  O2-  O216  1  0.08057270  0.44891769  0.05749455  1
  O2-  O217  1  0.07903876  0.45913049  0.39944532  1
  O2-  O218  1  0.08640598  0.46127888  0.73858320  1
  O2-  O219  1  0.08845076  0.95827099  0.05837574  1
  O2-  O220  1  0.08272595  0.96208141  0.40486140  1
  O2-  O221  1  0.08598791  0.95416687  0.72997978  1
  O2-  O222  1  0.58844090  0.46081282  0.06313305  1
  O2-  O223  1  0.58915021  0.45118334  0.39713551  1
  O2-  O224  1  0.58114573  0.44793433  0.72508915  1
  O2-  O225  1  0.57934104  0.95802310  0.07268475  1
  O2-  O226  1  0.58617181  0.95851210  0.39468775  1
  O2-  O227  1  0.58170644  0.96373722  0.73443941  1
  O2-  O228  1  0.20565213  0.33508266  0.06379758  1
  O2-  O229  1  0.20230296  0.32737981  0.39849008  1
  O2-  O230  1  0.20787766  0.32949780  0.73628670  1
  O2-  O231  1  0.21005698  0.84035704  0.06120654  1
  O2-  O232  1  0.20992388  0.83486429  0.40179387  1
  O2-  O233  1  0.20835315  0.83492643  0.72867167  1
  O2-  O234  1  0.70335783  0.33672973  0.06107354  1
  O2-  O235  1  0.71158169  0.33512643  0.39541640  1
  O2-  O236  1  0.70644575  0.33460657  0.72892735  1
  O2-  O237  1  0.70136862  0.82589797  0.07021049  1
  O2-  O238  1  0.70626965  0.83737323  0.39820250  1
  O2-  O239  1  0.70638051  0.83602963  0.73624807  1
  O2-  O240  1  0.45894957  0.42136397  0.26551904  1
  O2-  O241  1  0.44670627  0.42394849  0.60106818  1
  O2-  O242  1  0.46102554  0.41113331  0.93764179  1
  O2-  O243  1  0.46128718  0.91310207  0.26259517  1
  O2-  O244  1  0.46069647  0.91504869  0.59862999  1
  O2-  O245  1  0.45230399  0.91935256  0.93959277  1
  O2-  O246  1  0.95693531  0.41705482  0.26467997  1
  O2-  O247  1  0.96288741  0.41080515  0.60570823  1
  O2-  O248  1  0.95254585  0.41958449  0.92801121  1
  O2-  O249  1  0.95157469  0.92356632  0.27141567  1
  O2-  O250  1  0.95117012  0.91746788  0.60607204  1
  O2-  O251  1  0.95558488  0.91955896  0.93090213  1
  O2-  O252  1  0.32940684  0.29281611  0.26295778  1
  O2-  O253  1  0.32983260  0.28727700  0.59957789  1
  O2-  O254  1  0.33714641  0.29548871  0.93995512  1
  O2-  O255  1  0.33222052  0.79276682  0.26562558  1
  O2-  O256  1  0.33405539  0.78995755  0.59915264  1
  O2-  O257  1  0.33595969  0.79775894  0.93604303  1
  O2-  O258  1  0.83682195  0.28839243  0.26604731  1
  O2-  O259  1  0.83872713  0.29648922  0.60392384  1
  O2-  O260  1  0.82777031  0.29154589  0.92882186  1
  O2-  O261  1  0.82957459  0.79262834  0.26630498  1
  O2-  O262  1  0.83227285  0.79724997  0.60826204  1
  O2-  O263  1  0.82776553  0.79531509  0.93498415  1
  O2-  O264  1  0.41220670  0.04788354  0.06475317  1
  O2-  O265  1  0.41842154  0.04104052  0.39478164  1
  O2-  O266  1  0.40960969  0.04004623  0.72823361  1
  O2-  O267  1  0.41584892  0.53745284  0.06713426  1
  O2-  O268  1  0.42427151  0.54852531  0.40245790  1
  O2-  O269  1  0.42024698  0.55578271  0.72610959  1
  O2-  O270  1  0.92239188  0.04779566  0.06625894  1
  O2-  O271  1  0.91066023  0.04711328  0.40045244  1
  O2-  O272  1  0.91798907  0.04893004  0.73119471  1
  O2-  O273  1  0.91501534  0.54290568  0.06181186  1
  O2-  O274  1  0.91146904  0.54269392  0.39200898  1
  O2-  O275  1  0.91393197  0.53358985  0.73676001  1
  O2-  O276  1  0.29333547  0.16568325  0.06345828  1
  O2-  O277  1  0.30340753  0.16542112  0.39627122  1
  O2-  O278  1  0.29004662  0.15941684  0.72929161  1
  O2-  O279  1  0.29366911  0.66963800  0.06416190  1
  O2-  O280  1  0.29418542  0.67016959  0.40293106  1
  O2-  O281  1  0.29092629  0.66566709  0.73117866  1
  O2-  O282  1  0.78886022  0.16954565  0.06880562  1
  O2-  O283  1  0.78978664  0.16371979  0.39788504  1
  O2-  O284  1  0.80086674  0.16930853  0.72938695  1
  O2-  O285  1  0.79146689  0.66048557  0.06366429  1
  O2-  O286  1  0.78976454  0.66153279  0.39500590  1
  O2-  O287  1  0.79357235  0.66596404  0.73733058  1
