# generated using pymatgen
data_Ca2Al2SiO7
_symmetry_space_group_name_H-M   'P 1'
_cell_length_a   15.45367747
_cell_length_b   15.45388923
_cell_length_c   15.28101576
_cell_angle_alpha   90.00085772
_cell_angle_beta   89.99713550
_cell_angle_gamma   90.01754554
_symmetry_Int_Tables_number   1
_chemical_formula_structural   Ca2Al2SiO7
_chemical_formula_sum   'Ca48 Al48 Si24 O168'
_cell_volume   3649.40314452
_cell_formula_units_Z   24
loop_
 _symmetry_equiv_pos_site_id
 _symmetry_equiv_pos_as_xyz
  1  'x, y, z'
loop_
 _atom_type_symbol
 _atom_type_oxidation_number
  Ca2+  2.0
  Al0+  0.0
  Si0+  0.0
  O2-  -2.0
loop_
 _atom_site_type_symbol
 _atom_site_label
 _atom_site_symmetry_multiplicity
 _atom_site_fract_x
 _atom_site_fract_y
 _atom_site_fract_z
 _atom_site_occupancy
  Ca2+  Ca0  1  0.16587942  0.08551978  0.16805479  1
  Ca2+  Ca1  1  0.16401482  0.07373152  0.50448239  1
  Ca2+  Ca2  1  0.17476836  0.08521884  0.83595443  1
  Ca2+  Ca3  1  0.16824777  0.57589109  0.17228071  1
  Ca2+  Ca4  1  0.18114929  0.58171828  0.50719302  1
  Ca2+  Ca5  1  0.17070698  0.57065011  0.83590133  1
  Ca2+  Ca6  1  0.67494595  0.08039302  0.17276386  1
  Ca2+  Ca7  1  0.67259351  0.07026163  0.50694635  1
  Ca2+  Ca8  1  0.67587412  0.08105809  0.83606869  1
  Ca2+  Ca9  1  0.67401090  0.57980428  0.17213775  1
  Ca2+  Ca10  1  0.67011010  0.58352306  0.49900926  1
  Ca2+  Ca11  1  0.66782263  0.58704826  0.83892769  1
  Ca2+  Ca12  1  0.07637535  0.32703096  0.15902237  1
  Ca2+  Ca13  1  0.08068703  0.32617741  0.49191207  1
  Ca2+  Ca14  1  0.08481180  0.33333775  0.83269371  1
  Ca2+  Ca15  1  0.07919942  0.83508406  0.16906029  1
  Ca2+  Ca16  1  0.08036843  0.83913442  0.48966446  1
  Ca2+  Ca17  1  0.08312525  0.83542723  0.82895763  1
  Ca2+  Ca18  1  0.58378995  0.33727894  0.16582672  1
  Ca2+  Ca19  1  0.57919744  0.33445665  0.49698165  1
  Ca2+  Ca20  1  0.57397143  0.33068167  0.82412783  1
  Ca2+  Ca21  1  0.58026981  0.83080744  0.16387251  1
  Ca2+  Ca22  1  0.58081819  0.83333965  0.49411305  1
  Ca2+  Ca23  1  0.58862585  0.82262554  0.82673614  1
  Ca2+  Ca24  1  0.32617531  0.42224339  0.17063294  1
  Ca2+  Ca25  1  0.33142044  0.42566839  0.50943026  1
  Ca2+  Ca26  1  0.32443486  0.41225892  0.83226143  1
  Ca2+  Ca27  1  0.32907074  0.91994403  0.17523696  1
  Ca2+  Ca28  1  0.32259471  0.91675532  0.50523201  1
  Ca2+  Ca29  1  0.33074240  0.92615919  0.83464118  1
  Ca2+  Ca30  1  0.83646548  0.42315960  0.17314605  1
  Ca2+  Ca31  1  0.83168085  0.41575234  0.49713743  1
  Ca2+  Ca32  1  0.83367108  0.42233505  0.84382654  1
  Ca2+  Ca33  1  0.83043131  0.92025499  0.17392271  1
  Ca2+  Ca34  1  0.82558590  0.91590204  0.50525922  1
  Ca2+  Ca35  1  0.83134608  0.92914130  0.83354764  1
  Ca2+  Ca36  1  0.41799309  0.16463172  0.16070334  1
  Ca2+  Ca37  1  0.40851271  0.17161177  0.50038868  1
  Ca2+  Ca38  1  0.40829439  0.16904232  0.82666154  1
  Ca2+  Ca39  1  0.41855046  0.67164165  0.16452885  1
  Ca2+  Ca40  1  0.41814720  0.66742338  0.49369895  1
  Ca2+  Ca41  1  0.42958578  0.66131937  0.82443479  1
  Ca2+  Ca42  1  0.92557679  0.17446755  0.15860091  1
  Ca2+  Ca43  1  0.92179808  0.16879055  0.48933886  1
  Ca2+  Ca44  1  0.91679811  0.16642462  0.83254114  1
  Ca2+  Ca45  1  0.90438385  0.67075984  0.16515275  1
  Ca2+  Ca46  1  0.91955019  0.67303026  0.49090902  1
  Ca2+  Ca47  1  0.91651240  0.66584185  0.83070447  1
  Al0+  Al48  1  -0.00001151  0.00077246  -0.00087833  1
  Al0+  Al49  1  0.00172119  -0.00039339  0.32662992  1
  Al0+  Al50  1  -0.00122914  0.00038358  0.67326038  1
  Al0+  Al51  1  -0.00064067  0.50094183  0.00525290  1
  Al0+  Al52  1  0.00084793  0.49968912  0.33550074  1
  Al0+  Al53  1  0.00024306  0.50051647  0.66643289  1
  Al0+  Al54  1  0.49828852  -0.00006466  0.00203091  1
  Al0+  Al55  1  0.50028534  0.00059494  0.33276453  1
  Al0+  Al56  1  0.50123695  -0.00250632  0.67392014  1
  Al0+  Al57  1  0.49944632  0.50104547  -0.00466082  1
  Al0+  Al58  1  0.50115266  0.49971914  0.33822986  1
  Al0+  Al59  1  0.50213902  0.49937758  0.66002371  1
  Al0+  Al60  1  0.24896049  0.24927477  0.00640524  1
  Al0+  Al61  1  0.25162513  0.25068077  0.32744901  1
  Al0+  Al62  1  0.24773022  0.25010862  0.66541434  1
  Al0+  Al63  1  0.24939919  0.75137651  -0.00283856  1
  Al0+  Al64  1  0.25094993  0.75150763  0.33518431  1
  Al0+  Al65  1  0.25212771  0.74818538  0.67656230  1
  Al0+  Al66  1  0.74916269  0.24967871  -0.00019182  1
  Al0+  Al67  1  0.74929809  0.25130059  0.33345951  1
  Al0+  Al68  1  0.74961903  0.25119440  0.66868577  1
  Al0+  Al69  1  0.74855948  0.74984867  -0.00206623  1
  Al0+  Al70  1  0.75014210  0.74901089  0.33612833  1
  Al0+  Al71  1  0.75068214  0.74922065  0.66464803  1
  Al0+  Al72  1  0.92769144  0.81919209  0.32011403  1
  Al0+  Al73  1  0.92851841  0.32257811  0.98326992  1
  Al0+  Al74  1  0.81955404  0.57123785  0.01249150  1
  Al0+  Al75  1  0.82298160  0.57124411  0.35033071  1
  Al0+  Al76  1  0.32022539  0.06985868  0.01586545  1
  Al0+  Al77  1  0.07153861  0.17927637  0.98065748  1
  Al0+  Al78  1  0.17950482  0.93169815  0.34452876  1
  Al0+  Al79  1  0.82124390  0.07202652  0.01625461  1
  Al0+  Al80  1  0.17766894  0.42931602  0.68000782  1
  Al0+  Al81  1  0.17979932  0.43002724  0.01584957  1
  Al0+  Al82  1  0.32002633  0.07116352  0.67908676  1
  Al0+  Al83  1  0.17707823  0.92702108  0.68261112  1
  Al0+  Al84  1  0.07240906  0.17823812  0.31707412  1
  Al0+  Al85  1  0.67907863  0.92594095  0.68295828  1
  Al0+  Al86  1  0.42843890  0.82173769  0.32079630  1
  Al0+  Al87  1  0.92751224  0.32238790  0.31794717  1
  Al0+  Al88  1  0.32536056  0.57015011  0.68351265  1
  Al0+  Al89  1  0.56903788  0.68109865  0.98703097  1
  Al0+  Al90  1  0.82072431  0.07337657  0.68061639  1
  Al0+  Al91  1  0.42821954  0.31755985  0.65232467  1
  Al0+  Al92  1  0.67901867  0.42741182  0.34959025  1
  Al0+  Al93  1  0.57239403  0.67946433  0.64870928  1
  Al0+  Al94  1  0.31991060  0.57125308  0.34531779  1
  Al0+  Al95  1  0.67813562  0.92924478  0.34544936  1
  Si0+  Si96  1  0.57029509  0.17866733  0.31905533  1
  Si0+  Si97  1  0.92848331  0.82043438  0.98393003  1
  Si0+  Si98  1  0.07214140  0.67849149  0.98515561  1
  Si0+  Si99  1  0.42946689  0.32011813  0.98644435  1
  Si0+  Si100  1  0.67965127  0.42898854  0.68221007  1
  Si0+  Si101  1  0.57122275  0.67744395  0.31611541  1
  Si0+  Si102  1  0.92703990  0.32330908  0.65140037  1
  Si0+  Si103  1  0.32371653  0.57282741  0.01575385  1
  Si0+  Si104  1  0.57094020  0.17709260  0.98518969  1
  Si0+  Si105  1  0.57408606  0.17628492  0.65062939  1
  Si0+  Si106  1  0.07237651  0.67801635  0.65342054  1
  Si0+  Si107  1  0.82227452  0.07094925  0.34723776  1
  Si0+  Si108  1  0.93221383  0.82082899  0.65285412  1
  Si0+  Si109  1  0.07343496  0.67863424  0.31823905  1
  Si0+  Si110  1  0.17751028  0.92588429  0.01863401  1
  Si0+  Si111  1  0.17923512  0.42627387  0.34985840  1
  Si0+  Si112  1  0.42735843  0.82253557  0.65072954  1
  Si0+  Si113  1  0.82087600  0.57004308  0.68112961  1
  Si0+  Si114  1  0.06869591  0.17889282  0.65184590  1
  Si0+  Si115  1  0.67931623  0.92832764  0.01716563  1
  Si0+  Si116  1  0.32360202  0.07381397  0.34927425  1
  Si0+  Si117  1  0.67515386  0.42781304  0.01363643  1
  Si0+  Si118  1  0.42619020  0.82390747  0.98124034  1
  Si0+  Si119  1  0.43021537  0.32284909  0.31699244  1
  O2-  O120  1  0.24677925  -0.00585146  0.06196960  1
  O2-  O121  1  0.25270631  0.00725928  0.39191134  1
  O2-  O122  1  0.25023732  -0.00169375  0.73119107  1
  O2-  O123  1  0.25334388  0.50713362  0.06121407  1
  O2-  O124  1  0.24616305  0.49643287  0.39350761  1
  O2-  O125  1  0.25163352  0.49887509  0.73140739  1
  O2-  O126  1  0.74609881  -0.00230279  0.06277375  1
  O2-  O127  1  0.75562141  0.00099163  0.39239820  1
  O2-  O128  1  0.74714463  0.00262617  0.73080103  1
  O2-  O129  1  0.74719358  0.49320283  0.05655041  1
  O2-  O130  1  0.75243199  0.49773172  0.40029881  1
  O2-  O131  1  0.75082042  0.49919998  0.72472340  1
  O2-  O132  1  0.00039747  0.25127326  0.26872441  1
  O2-  O133  1  -0.00384797  0.24949900  0.61079838  1
  O2-  O134  1  -0.00133492  0.25058790  0.92999428  1
  O2-  O135  1  -0.00016660  0.74171146  0.27264031  1
  O2-  O136  1  0.00744822  0.75425082  0.61066444  1
  O2-  O137  1  0.00127583  0.75018902  0.94270174  1
  O2-  O138  1  0.50023729  0.25053562  0.27528868  1
  O2-  O139  1  0.50100962  0.24007015  0.60550411  1
  O2-  O140  1  0.50035691  0.24894510  0.94385815  1
  O2-  O141  1  0.50346751  0.74760036  0.27267981  1
  O2-  O142  1  0.49560952  0.75375002  0.60530645  1
  O2-  O143  1  0.49348596  0.75364519  0.93785335  1
  O2-  O144  1  0.07071413  0.18097263  0.09396732  1
  O2-  O145  1  0.07149075  0.17798807  0.43161609  1
  O2-  O146  1  0.06969463  0.17954454  0.75654038  1
  O2-  O147  1  0.07529307  0.68014358  0.08998932  1
  O2-  O148  1  0.07431024  0.68242079  0.42413652  1
  O2-  O149  1  0.06639690  0.67493461  0.75867788  1
  O2-  O150  1  0.57014111  0.17678779  0.09060271  1
  O2-  O151  1  0.56887929  0.17761406  0.42389307  1
  O2-  O152  1  0.57699970  0.18213632  0.75640971  1
  O2-  O153  1  0.56812432  0.68179250  0.10001452  1
  O2-  O154  1  0.56994657  0.67784092  0.42165723  1
  O2-  O155  1  0.57404749  0.67988020  0.76230230  1
  O2-  O156  1  0.18207200  0.42732538  0.24406179  1
  O2-  O157  1  0.17707202  0.43188844  0.56640142  1
  O2-  O158  1  0.18192393  0.43072518  0.90281262  1
  O2-  O159  1  0.18140570  0.92989091  0.23164209  1
  O2-  O160  1  0.17430931  0.92882320  0.56893454  1
  O2-  O161  1  0.17909380  0.92393235  0.91316255  1
  O2-  O162  1  0.67489505  0.43019100  0.23580051  1
  O2-  O163  1  0.68166117  0.42677835  0.57755989  1
  O2-  O164  1  0.67214931  0.42954593  0.90779392  1
  O2-  O165  1  0.67804698  0.93258232  0.23211708  1
  O2-  O166  1  0.68191471  0.92597897  0.56913687  1
  O2-  O167  1  0.68170546  0.92832998  0.91169894  1
  O2-  O168  1  0.43285001  0.32177643  0.09186286  1
  O2-  O169  1  0.42866903  0.32154537  0.42186703  1
  O2-  O170  1  0.43035522  0.31682403  0.76604411  1
  O2-  O171  1  0.42621294  0.82362521  0.08708079  1
  O2-  O172  1  0.42811861  0.82138333  0.43364196  1
  O2-  O173  1  0.42871556  0.82160062  0.75643615  1
  O2-  O174  1  0.92953566  0.32268821  0.09640031  1
  O2-  O175  1  0.92862337  0.31857625  0.43251038  1
  O2-  O176  1  0.92632335  0.32657230  0.75604871  1
  O2-  O177  1  0.92689488  0.81936872  0.08896898  1
  O2-  O178  1  0.92996049  0.82042631  0.43361080  1
  O2-  O179  1  0.93127830  0.81773486  0.75836227  1
  O2-  O180  1  0.32564169  0.07208024  0.24360302  1
  O2-  O181  1  0.31626639  0.07155879  0.56546496  1
  O2-  O182  1  0.32097923  0.06953052  0.90304935  1
  O2-  O183  1  0.31882365  0.56899743  0.23166213  1
  O2-  O184  1  0.32264106  0.57046877  0.56969727  1
  O2-  O185  1  0.32492305  0.56965601  0.91060135  1
  O2-  O186  1  0.81878685  0.07001551  0.24157099  1
  O2-  O187  1  0.82172080  0.07171486  0.56677675  1
  O2-  O188  1  0.81838257  0.07017590  0.90321148  1
  O2-  O189  1  0.81788628  0.57276906  0.23669514  1
  O2-  O190  1  0.82208020  0.56948496  0.57657159  1
  O2-  O191  1  0.81769479  0.57244550  0.89866025  1
  O2-  O192  1  0.04516629  0.08109638  0.26160803  1
  O2-  O193  1  0.03991038  0.08609056  0.60613626  1
  O2-  O194  1  0.04464646  0.07890086  0.93021994  1
  O2-  O195  1  0.05413801  0.58246393  0.27524454  1
  O2-  O196  1  0.03949974  0.58925031  0.60264819  1
  O2-  O197  1  0.04195426  0.58776632  0.93775751  1
  O2-  O198  1  0.54172884  0.08871959  0.26807905  1
  O2-  O199  1  0.55422938  0.07929451  0.60972973  1
  O2-  O200  1  0.54296521  0.08521312  0.93796151  1
  O2-  O201  1  0.54380475  0.58377152  0.27094082  1
  O2-  O202  1  0.54459957  0.58240137  0.59458644  1
  O2-  O203  1  0.54068549  0.58399880  0.93062904  1
  O2-  O204  1  0.17147384  0.20586553  0.26376272  1
  O2-  O205  1  0.15910931  0.20718288  0.60234459  1
  O2-  O206  1  0.17168190  0.21028237  0.93208358  1
  O2-  O207  1  0.16415038  0.70930907  0.26942131  1
  O2-  O208  1  0.16792637  0.69957171  0.61118210  1
  O2-  O209  1  0.16376048  0.70503355  0.93524613  1
  O2-  O210  1  0.66189728  0.20606442  0.27064865  1
  O2-  O211  1  0.66546242  0.20774463  0.60250150  1
  O2-  O212  1  0.66202101  0.20430355  0.93650060  1
  O2-  O213  1  0.66521558  0.70277110  0.27155844  1
  O2-  O214  1  0.66951650  0.71072524  0.59525982  1
  O2-  O215  1  0.66488636  0.71300167  0.93058766  1
  O2-  O216  1  0.08458129  0.46256933  0.07062560  1
  O2-  O217  1  0.08469140  0.44742527  0.39461362  1
  O2-  O218  1  0.08059287  0.46142590  0.73460500  1
  O2-  O219  1  0.08317966  0.95121251  0.06236266  1
  O2-  O220  1  0.08203605  0.96094326  0.39829408  1
  O2-  O221  1  0.08000481  0.95583789  0.73740661  1
  O2-  O222  1  0.58288289  0.45724966  0.06118723  1
  O2-  O223  1  0.58171484  0.45664214  0.40456774  1
  O2-  O224  1  0.58793668  0.45744432  0.72824695  1
  O2-  O225  1  0.58425724  0.95209155  0.06079135  1
  O2-  O226  1  0.58317042  0.96333044  0.40070443  1
  O2-  O227  1  0.58052107  0.94799128  0.73758369  1
  O2-  O228  1  0.21338422  0.33590795  0.07164451  1
  O2-  O229  1  0.20808143  0.33290066  0.39446440  1
  O2-  O230  1  0.20537693  0.33125174  0.73261191  1
  O2-  O231  1  0.20242659  0.83142389  0.06426382  1
  O2-  O232  1  0.21008908  0.83596503  0.39989200  1
  O2-  O233  1  0.20234213  0.82892703  0.73768424  1
  O2-  O234  1  0.69492225  0.33282014  0.05861017  1
  O2-  O235  1  0.70424012  0.32811087  0.40375057  1
  O2-  O236  1  0.70513785  0.33749051  0.73146049  1
  O2-  O237  1  0.70691163  0.83540523  0.06283247  1
  O2-  O238  1  0.70566914  0.83244769  0.39899907  1
  O2-  O239  1  0.71492279  0.82955768  0.73590971  1
  O2-  O240  1  0.46047513  0.41388283  0.26915523  1
  O2-  O241  1  0.46306551  0.41215202  0.59705472  1
  O2-  O242  1  0.45630494  0.41126162  0.93690770  1
  O2-  O243  1  0.45919313  0.91833663  0.26554422  1
  O2-  O244  1  0.45233236  0.91710563  0.60581150  1
  O2-  O245  1  0.45362741  0.91742576  0.93590295  1
  O2-  O246  1  0.95448800  0.42259032  0.26763101  1
  O2-  O247  1  0.95701262  0.41420207  0.60275188  1
  O2-  O248  1  0.95735099  0.42299380  0.93320047  1
  O2-  O249  1  0.96036100  0.91360043  0.26319802  1
  O2-  O250  1  0.95545140  0.91452344  0.60712581  1
  O2-  O251  1  0.95642647  0.91187187  0.93610651  1
  O2-  O252  1  0.33912588  0.29684270  0.26699642  1
  O2-  O253  1  0.33128800  0.28914838  0.59656170  1
  O2-  O254  1  0.33782433  0.29038321  0.94141930  1
  O2-  O255  1  0.33318485  0.78905616  0.26450230  1
  O2-  O256  1  0.33181770  0.79671303  0.60784273  1
  O2-  O257  1  0.33166490  0.80129417  0.93554655  1
  O2-  O258  1  0.82770253  0.29657850  0.26628954  1
  O2-  O259  1  0.83406758  0.29738583  0.60490766  1
  O2-  O260  1  0.82747671  0.29651976  0.93256976  1
  O2-  O261  1  0.83072894  0.78972189  0.26507362  1
  O2-  O262  1  0.84227612  0.78834824  0.60484329  1
  O2-  O263  1  0.83806219  0.79026471  0.93516252  1
  O2-  O264  1  0.41792106  0.04088345  0.07032979  1
  O2-  O265  1  0.41648290  0.04840151  0.39581086  1
  O2-  O266  1  0.41962764  0.04861136  0.73285716  1
  O2-  O267  1  0.41642006  0.54433889  0.06234769  1
  O2-  O268  1  0.41580078  0.54095751  0.39949745  1
  O2-  O269  1  0.42413787  0.53830380  0.73297505  1
  O2-  O270  1  0.91802915  0.03966276  0.06784339  1
  O2-  O271  1  0.91694753  0.04666599  0.39012224  1
  O2-  O272  1  0.91586739  0.04163721  0.73749159  1
  O2-  O273  1  0.91631539  0.54694589  0.06805587  1
  O2-  O274  1  0.92309366  0.54717271  0.40298546  1
  O2-  O275  1  0.91270929  0.54305393  0.72891897  1
  O2-  O276  1  0.29182841  0.16586697  0.07177927  1
  O2-  O277  1  0.30040682  0.16952893  0.39187444  1
  O2-  O278  1  0.28878835  0.16839377  0.73266593  1
  O2-  O279  1  0.29998079  0.66866884  0.05811272  1
  O2-  O280  1  0.28891642  0.66655437  0.40094776  1
  O2-  O281  1  0.29984052  0.66740514  0.73914209  1
  O2-  O282  1  0.78866590  0.16855140  0.06922343  1
  O2-  O283  1  0.79523446  0.16393255  0.39289463  1
  O2-  O284  1  0.79308079  0.17173126  0.73487539  1
  O2-  O285  1  0.78517205  0.66704092  0.06609830  1
  O2-  O286  1  0.79299418  0.66872071  0.40441446  1
  O2-  O287  1  0.79317249  0.66168782  0.72828097  1
