# generated using pymatgen
data_Ca2Al2SiO7
_symmetry_space_group_name_H-M   'P 1'
_cell_length_a   15.45546113
_cell_length_b   15.45599191
_cell_length_c   15.28271724
_cell_angle_alpha   89.99161015
_cell_angle_beta   90.00425719
_cell_angle_gamma   90.00541887
_symmetry_Int_Tables_number   1
_chemical_formula_structural   Ca2Al2SiO7
_chemical_formula_sum   'Ca48 Al48 Si24 O168'
_cell_volume   3650.72751418
_cell_formula_units_Z   24
loop_
 _symmetry_equiv_pos_site_id
 _symmetry_equiv_pos_as_xyz
  1  'x, y, z'
loop_
 _atom_type_symbol
 _atom_type_oxidation_number
  Ca2+  2.0
  Al0+  0.0
  Si0+  0.0
  O2-  -2.0
loop_
 _atom_site_type_symbol
 _atom_site_label
 _atom_site_symmetry_multiplicity
 _atom_site_fract_x
 _atom_site_fract_y
 _atom_site_fract_z
 _atom_site_occupancy
  Ca2+  Ca0  1  0.17274953  0.08724109  0.17330701  1
  Ca2+  Ca1  1  0.16704590  0.08047261  0.51092958  1
  Ca2+  Ca2  1  0.17599414  0.08726033  0.83191153  1
  Ca2+  Ca3  1  0.16901189  0.57780055  0.17561926  1
  Ca2+  Ca4  1  0.17568469  0.57634809  0.50838939  1
  Ca2+  Ca5  1  0.16101133  0.58292050  0.83300191  1
  Ca2+  Ca6  1  0.66924227  0.08361361  0.17731588  1
  Ca2+  Ca7  1  0.66613929  0.08098776  0.49760974  1
  Ca2+  Ca8  1  0.66643806  0.08420111  0.83978371  1
  Ca2+  Ca9  1  0.67006216  0.57923142  0.16831340  1
  Ca2+  Ca10  1  0.67053051  0.57843659  0.51292579  1
  Ca2+  Ca11  1  0.67455589  0.57426147  0.83557708  1
  Ca2+  Ca12  1  0.08831616  0.32996990  0.16928770  1
  Ca2+  Ca13  1  0.08874753  0.32865629  0.49855767  1
  Ca2+  Ca14  1  0.07633169  0.33271164  0.81887222  1
  Ca2+  Ca15  1  0.07496493  0.82680605  0.16293795  1
  Ca2+  Ca16  1  0.08299278  0.82985536  0.49712149  1
  Ca2+  Ca17  1  0.08617823  0.82274215  0.82579548  1
  Ca2+  Ca18  1  0.58279473  0.32587611  0.16343641  1
  Ca2+  Ca19  1  0.57633111  0.33202970  0.49198913  1
  Ca2+  Ca20  1  0.58912625  0.33327293  0.82948991  1
  Ca2+  Ca21  1  0.57794245  0.83965232  0.16914982  1
  Ca2+  Ca22  1  0.57795649  0.82757294  0.49280769  1
  Ca2+  Ca23  1  0.58041824  0.82362805  0.82519710  1
  Ca2+  Ca24  1  0.32914948  0.42242425  0.17933111  1
  Ca2+  Ca25  1  0.32701296  0.42041697  0.50382563  1
  Ca2+  Ca26  1  0.32722455  0.42067892  0.82923978  1
  Ca2+  Ca27  1  0.33541917  0.92105190  0.17119469  1
  Ca2+  Ca28  1  0.32986197  0.92244107  0.50798427  1
  Ca2+  Ca29  1  0.32719344  0.92580928  0.83160217  1
  Ca2+  Ca30  1  0.83016823  0.42018110  0.16560620  1
  Ca2+  Ca31  1  0.82706006  0.41849921  0.51104139  1
  Ca2+  Ca32  1  0.83001542  0.42296228  0.83374613  1
  Ca2+  Ca33  1  0.82621629  0.92064747  0.18159054  1
  Ca2+  Ca34  1  0.83567179  0.91971134  0.49594812  1
  Ca2+  Ca35  1  0.83174880  0.91791419  0.83432180  1
  Ca2+  Ca36  1  0.42624105  0.16981515  0.16254373  1
  Ca2+  Ca37  1  0.41824697  0.17282378  0.49061740  1
  Ca2+  Ca38  1  0.41824306  0.16212021  0.83137384  1
  Ca2+  Ca39  1  0.41036872  0.67268254  0.16824399  1
  Ca2+  Ca40  1  0.41714895  0.66405889  0.49544573  1
  Ca2+  Ca41  1  0.42288248  0.66231360  0.82222238  1
  Ca2+  Ca42  1  0.92176077  0.16223542  0.16841310  1
  Ca2+  Ca43  1  0.92720104  0.16980651  0.49544287  1
  Ca2+  Ca44  1  0.92257005  0.17741500  0.82064438  1
  Ca2+  Ca45  1  0.91879187  0.66849062  0.16099245  1
  Ca2+  Ca46  1  0.92138228  0.66696709  0.49919726  1
  Ca2+  Ca47  1  0.92267797  0.65892092  0.82660136  1
  Al0+  Al48  1  0.00054754  -0.00169040  -0.00244647  1
  Al0+  Al49  1  -0.00018598  -0.00011601  0.32725950  1
  Al0+  Al50  1  -0.00076826  -0.00094235  0.66975637  1
  Al0+  Al51  1  -0.00031775  0.49975437  0.00178981  1
  Al0+  Al52  1  0.00009824  0.49737306  0.33677924  1
  Al0+  Al53  1  -0.00115989  0.50131283  0.66221754  1
  Al0+  Al54  1  0.49874450  0.00160146  -0.00154742  1
  Al0+  Al55  1  0.50115178  -0.00232886  0.33053100  1
  Al0+  Al56  1  0.50052515  -0.00085481  0.67049317  1
  Al0+  Al57  1  0.49822378  0.49919841  0.00483260  1
  Al0+  Al58  1  0.50067236  0.50105180  0.33083214  1
  Al0+  Al59  1  0.50061909  0.49802613  0.66968290  1
  Al0+  Al60  1  0.25276778  0.25011740  0.00415392  1
  Al0+  Al61  1  0.24973436  0.25090754  0.32792098  1
  Al0+  Al62  1  0.25237720  0.25056774  0.67210910  1
  Al0+  Al63  1  0.24795448  0.75157493  -0.00424029  1
  Al0+  Al64  1  0.25139426  0.74977801  0.33122183  1
  Al0+  Al65  1  0.25001476  0.75282520  0.67016683  1
  Al0+  Al66  1  0.74981768  0.24929391  -0.00004722  1
  Al0+  Al67  1  0.75334992  0.25035289  0.33409859  1
  Al0+  Al68  1  0.75003911  0.24842860  0.66521268  1
  Al0+  Al69  1  0.74863558  0.75084343  0.00349060  1
  Al0+  Al70  1  0.74959976  0.75074223  0.33300290  1
  Al0+  Al71  1  0.74892028  0.75012151  0.66585755  1
  Al0+  Al72  1  0.31993378  0.06998903  0.01748851  1
  Al0+  Al73  1  0.82099289  0.57312537  0.67992196  1
  Al0+  Al74  1  0.57037460  0.18072114  0.98474810  1
  Al0+  Al75  1  0.57001328  0.67753535  0.65458234  1
  Al0+  Al76  1  0.17567463  0.92905562  0.68174549  1
  Al0+  Al77  1  0.07287602  0.17926341  0.65375468  1
  Al0+  Al78  1  0.17844111  0.42988144  0.68195284  1
  Al0+  Al79  1  0.17863016  0.42706478  0.34965348  1
  Al0+  Al80  1  0.32119015  0.57218562  0.68198353  1
  Al0+  Al81  1  0.67745259  0.92863990  0.35015858  1
  Al0+  Al82  1  0.92928066  0.81957716  0.31990383  1
  Al0+  Al83  1  0.06863955  0.67924530  0.98639647  1
  Al0+  Al84  1  0.07058311  0.17916567  0.31907718  1
  Al0+  Al85  1  0.92772259  0.32204280  0.65040938  1
  Al0+  Al86  1  0.57217966  0.17941992  0.31961599  1
  Al0+  Al87  1  0.67805483  0.42746506  0.01760405  1
  Al0+  Al88  1  0.07210547  0.67995606  0.65130791  1
  Al0+  Al89  1  0.42869416  0.32277683  0.31773979  1
  Al0+  Al90  1  0.32281550  0.07257783  0.68024202  1
  Al0+  Al91  1  0.42807193  0.81998775  0.32042153  1
  Al0+  Al92  1  0.32173153  0.57301075  0.34816803  1
  Al0+  Al93  1  0.82192497  0.57111464  0.01669508  1
  Al0+  Al94  1  0.82327498  0.07209021  0.34947219  1
  Al0+  Al95  1  0.67819774  0.42613297  0.68041379  1
  Si0+  Si96  1  0.32061568  0.57346903  0.01481908  1
  Si0+  Si97  1  0.57161928  0.17572745  0.65159143  1
  Si0+  Si98  1  0.92592837  0.82322573  0.64958233  1
  Si0+  Si99  1  0.07118504  0.67677786  0.31783776  1
  Si0+  Si100  1  0.42960098  0.82273884  0.65136018  1
  Si0+  Si101  1  0.67881016  0.92987256  0.01425519  1
  Si0+  Si102  1  0.57314426  0.67774594  0.31496474  1
  Si0+  Si103  1  0.17788933  0.92698218  0.01902649  1
  Si0+  Si104  1  0.82097880  0.57192603  0.34856744  1
  Si0+  Si105  1  0.42903866  0.82150799  0.98304158  1
  Si0+  Si106  1  0.93054180  0.31902770  0.98599753  1
  Si0+  Si107  1  0.82233936  0.07043215  0.01343692  1
  Si0+  Si108  1  0.32112066  0.06990022  0.34543607  1
  Si0+  Si109  1  0.43040623  0.31999699  0.65326593  1
  Si0+  Si110  1  0.92749073  0.32390771  0.31442241  1
  Si0+  Si111  1  0.42704701  0.32342522  0.98103278  1
  Si0+  Si112  1  0.82037203  0.07017423  0.68218304  1
  Si0+  Si113  1  0.67837712  0.92927982  0.68261079  1
  Si0+  Si114  1  0.92507607  0.82242990  0.98230932  1
  Si0+  Si115  1  0.17904713  0.42951450  0.01494189  1
  Si0+  Si116  1  0.67996190  0.42935068  0.34751250  1
  Si0+  Si117  1  0.57023558  0.67804584  0.98607237  1
  Si0+  Si118  1  0.07370011  0.17813893  0.98506345  1
  Si0+  Si119  1  0.17870902  0.92927984  0.34496521  1
  O2-  O120  1  0.24284872  -0.00198675  0.06506559  1
  O2-  O121  1  0.24955686  -0.00000314  0.38776219  1
  O2-  O122  1  0.24657196  0.00387464  0.72940148  1
  O2-  O123  1  0.24967197  0.50187533  0.05577963  1
  O2-  O124  1  0.25080541  0.49998163  0.39698713  1
  O2-  O125  1  0.24538221  0.50563311  0.73449106  1
  O2-  O126  1  0.75290850  -0.00207185  0.05530043  1
  O2-  O127  1  0.74895954  0.00180203  0.39934295  1
  O2-  O128  1  0.74903063  -0.00000305  0.72588146  1
  O2-  O129  1  0.74824613  0.50142258  0.06790670  1
  O2-  O130  1  0.74983761  0.50098611  0.38983353  1
  O2-  O131  1  0.75075382  0.49860192  0.72869072  1
  O2-  O132  1  -0.00348470  0.25457976  0.27116626  1
  O2-  O133  1  0.00329443  0.25248944  0.60216355  1
  O2-  O134  1  0.00206750  0.24829469  0.94356925  1
  O2-  O135  1  0.00087053  0.74282606  0.27193625  1
  O2-  O136  1  -0.00373210  0.75535618  0.60694870  1
  O2-  O137  1  -0.00790612  0.75236305  0.93902847  1
  O2-  O138  1  0.50132265  0.25124226  0.26754692  1
  O2-  O139  1  0.50100704  0.24756882  0.61164076  1
  O2-  O140  1  0.49822999  0.25711567  0.93649207  1
  O2-  O141  1  0.50250689  0.74544285  0.27161908  1
  O2-  O142  1  0.49285293  0.74929535  0.60729493  1
  O2-  O143  1  0.49755665  0.74719629  0.94248821  1
  O2-  O144  1  0.07208839  0.17831718  0.09023068  1
  O2-  O145  1  0.07131068  0.17680966  0.43145835  1
  O2-  O146  1  0.06861372  0.18065770  0.76825722  1
  O2-  O147  1  0.06899874  0.68155062  0.09983182  1
  O2-  O148  1  0.07137076  0.67920204  0.42300434  1
  O2-  O149  1  0.06974028  0.68152501  0.76486302  1
  O2-  O150  1  0.57006427  0.17898760  0.09724724  1
  O2-  O151  1  0.56912901  0.18064690  0.43364622  1
  O2-  O152  1  0.57175619  0.17402552  0.75696226  1
  O2-  O153  1  0.57010841  0.68027865  0.09112898  1
  O2-  O154  1  0.57456035  0.67759630  0.42037228  1
  O2-  O155  1  0.57020110  0.68130559  0.76849646  1
  O2-  O156  1  0.17812722  0.43052900  0.23485508  1
  O2-  O157  1  0.18384604  0.42713886  0.56919775  1
  O2-  O158  1  0.17824547  0.42873669  0.91019830  1
  O2-  O159  1  0.18012841  0.92970495  0.23950156  1
  O2-  O160  1  0.17729007  0.92958687  0.56743418  1
  O2-  O161  1  0.17940716  0.92662899  0.91394249  1
  O2-  O162  1  0.68144108  0.43033766  0.24234401  1
  O2-  O163  1  0.67730681  0.42699158  0.56636935  1
  O2-  O164  1  0.68052462  0.42819157  0.90455298  1
  O2-  O165  1  0.67872545  0.92945780  0.23574848  1
  O2-  O166  1  0.67569346  0.93058321  0.57825993  1
  O2-  O167  1  0.67971633  0.92952506  0.90867943  1
  O2-  O168  1  0.42575102  0.32160940  0.08629495  1
  O2-  O169  1  0.43006353  0.32078601  0.43173575  1
  O2-  O170  1  0.43099723  0.32016665  0.75860369  1
  O2-  O171  1  0.42961579  0.82163647  0.08829513  1
  O2-  O172  1  0.42833305  0.82079136  0.43308007  1
  O2-  O173  1  0.43514703  0.82530965  0.75744775  1
  O2-  O174  1  0.93135862  0.31823963  0.09120051  1
  O2-  O175  1  0.92524834  0.32500503  0.41924952  1
  O2-  O176  1  0.92614895  0.31804858  0.76506990  1
  O2-  O177  1  0.92610411  0.82457194  0.08775362  1
  O2-  O178  1  0.93210988  0.81909257  0.43274255  1
  O2-  O179  1  0.92370708  0.82409417  0.75545667  1
  O2-  O180  1  0.31982689  0.06740373  0.24002515  1
  O2-  O181  1  0.32658236  0.06973312  0.56638669  1
  O2-  O182  1  0.31968745  0.06813384  0.90472940  1
  O2-  O183  1  0.31707275  0.57464392  0.23352394  1
  O2-  O184  1  0.32283363  0.56923209  0.56896172  1
  O2-  O185  1  0.32256404  0.57362053  0.91014394  1
  O2-  O186  1  0.82309279  0.06872389  0.23491470  1
  O2-  O187  1  0.82058558  0.06921962  0.57770929  1
  O2-  O188  1  0.82151362  0.06956407  0.90799543  1
  O2-  O189  1  0.82069856  0.57111789  0.24320907  1
  O2-  O190  1  0.81656747  0.57514909  0.56593674  1
  O2-  O191  1  0.82213478  0.56971853  0.90381746  1
  O2-  O192  1  0.03933713  0.08439111  0.26050865  1
  O2-  O193  1  0.04216980  0.08009045  0.60376947  1
  O2-  O194  1  0.04808586  0.08488896  0.93917780  1
  O2-  O195  1  0.04592118  0.58222351  0.27311438  1
  O2-  O196  1  0.04215550  0.58457421  0.59567543  1
  O2-  O197  1  0.03994700  0.58126178  0.93386219  1
  O2-  O198  1  0.54471129  0.08075777  0.26691263  1
  O2-  O199  1  0.54317323  0.08373796  0.60512177  1
  O2-  O200  1  0.53776539  0.08403209  0.93024670  1
  O2-  O201  1  0.54910098  0.58470069  0.26716945  1
  O2-  O202  1  0.54219378  0.58001837  0.60147811  1
  O2-  O203  1  0.54310482  0.58512085  0.94094457  1
  O2-  O204  1  0.16555005  0.21062254  0.26131312  1
  O2-  O205  1  0.17380453  0.20341420  0.60470699  1
  O2-  O206  1  0.16637400  0.20671123  0.94067632  1
  O2-  O207  1  0.16364957  0.70468654  0.27062171  1
  O2-  O208  1  0.16932947  0.71266872  0.59944309  1
  O2-  O209  1  0.16465677  0.71150916  0.93128673  1
  O2-  O210  1  0.67205561  0.20664174  0.26844496  1
  O2-  O211  1  0.66367410  0.20088998  0.60454766  1
  O2-  O212  1  0.66893145  0.20743704  0.93115172  1
  O2-  O213  1  0.66539938  0.70588533  0.26718707  1
  O2-  O214  1  0.66475183  0.71205721  0.59959609  1
  O2-  O215  1  0.66185179  0.70858535  0.93949378  1
  O2-  O216  1  0.08775916  0.45614986  0.06361678  1
  O2-  O217  1  0.07924087  0.45219666  0.40154656  1
  O2-  O218  1  0.07792707  0.45498115  0.73134050  1
  O2-  O219  1  0.08154742  0.94923105  0.06189423  1
  O2-  O220  1  0.08719844  0.95705449  0.39113199  1
  O2-  O221  1  0.07705844  0.95279740  0.73736971  1
  O2-  O222  1  0.57861999  0.45463266  0.07003581  1
  O2-  O223  1  0.58740041  0.45617176  0.39318630  1
  O2-  O224  1  0.58165014  0.45442282  0.73615572  1
  O2-  O225  1  0.58759469  0.96035670  0.06038303  1
  O2-  O226  1  0.57860229  0.95585095  0.40288629  1
  O2-  O227  1  0.58825272  0.95714721  0.73364140  1
  O2-  O228  1  0.20803286  0.33833807  0.06325632  1
  O2-  O229  1  0.20810659  0.32786323  0.39967305  1
  O2-  O230  1  0.21037531  0.33360668  0.73800323  1
  O2-  O231  1  0.20679131  0.83417531  0.06541388  1
  O2-  O232  1  0.20615415  0.83740114  0.39161518  1
  O2-  O233  1  0.20857556  0.83394735  0.73865628  1
  O2-  O234  1  0.71054167  0.32940598  0.06971824  1
  O2-  O235  1  0.70758434  0.33788710  0.39470084  1
  O2-  O236  1  0.70628532  0.32704084  0.73324251  1
  O2-  O237  1  0.70203618  0.83782100  0.06320331  1
  O2-  O238  1  0.70690258  0.82991500  0.40177053  1
  O2-  O239  1  0.70721939  0.83831481  0.73123430  1
  O2-  O240  1  0.45656874  0.42135320  0.26394534  1
  O2-  O241  1  0.45946343  0.41045652  0.60472606  1
  O2-  O242  1  0.44918996  0.41922034  0.93764193  1
  O2-  O243  1  0.46074117  0.91454838  0.26246771  1
  O2-  O244  1  0.46183150  0.91418390  0.60423424  1
  O2-  O245  1  0.46122311  0.91137992  0.93509926  1
  O2-  O246  1  0.95449790  0.41714939  0.26685329  1
  O2-  O247  1  0.94946187  0.42125132  0.59814835  1
  O2-  O248  1  0.95853730  0.41094898  0.93965268  1
  O2-  O249  1  0.96145665  0.91382505  0.26204255  1
  O2-  O250  1  0.95107074  0.91714609  0.60438997  1
  O2-  O251  1  0.95159146  0.91589541  0.93471467  1
  O2-  O252  1  0.33153295  0.29465875  0.26264738  1
  O2-  O253  1  0.33895579  0.29220576  0.60608275  1
  O2-  O254  1  0.33403920  0.29375853  0.93522428  1
  O2-  O255  1  0.33258753  0.79034121  0.26129792  1
  O2-  O256  1  0.33353782  0.80545062  0.60910422  1
  O2-  O257  1  0.33612134  0.79720256  0.93676293  1
  O2-  O258  1  0.83497050  0.29755211  0.26624379  1
  O2-  O259  1  0.83057816  0.28836394  0.59732849  1
  O2-  O260  1  0.83945467  0.28981515  0.93853418  1
  O2-  O261  1  0.83185674  0.79117552  0.26547732  1
  O2-  O262  1  0.83277376  0.79783648  0.60273068  1
  O2-  O263  1  0.82955004  0.80045247  0.93795113  1
  O2-  O264  1  0.41651809  0.03545372  0.06938286  1
  O2-  O265  1  0.41252871  0.04154096  0.39185186  1
  O2-  O266  1  0.41883249  0.03834141  0.73696265  1
  O2-  O267  1  0.41180518  0.54771915  0.06443914  1
  O2-  O268  1  0.42254949  0.54774030  0.39712078  1
  O2-  O269  1  0.41724468  0.53760311  0.73665217  1
  O2-  O270  1  0.91566735  0.04456453  0.05949993  1
  O2-  O271  1  0.92086495  0.03768517  0.40035025  1
  O2-  O272  1  0.91056241  0.04213588  0.73274417  1
  O2-  O273  1  0.91911039  0.53938685  0.07141315  1
  O2-  O274  1  0.91298677  0.54475260  0.39501197  1
  O2-  O275  1  0.91962810  0.54584849  0.73139486  1
  O2-  O276  1  0.29176078  0.16759037  0.07129418  1
  O2-  O277  1  0.29474291  0.16284609  0.38949635  1
  O2-  O278  1  0.29858653  0.16961911  0.73760696  1
  O2-  O279  1  0.29172659  0.66621097  0.06030470  1
  O2-  O280  1  0.29396743  0.67181305  0.40035708  1
  O2-  O281  1  0.30118807  0.67308677  0.73287009  1
  O2-  O282  1  0.79438127  0.16127938  0.06132195  1
  O2-  O283  1  0.79916913  0.17168801  0.40142322  1
  O2-  O284  1  0.79139158  0.16100573  0.73076562  1
  O2-  O285  1  0.79409050  0.67099577  0.06857188  1
  O2-  O286  1  0.79371277  0.66368506  0.39480832  1
  O2-  O287  1  0.79127182  0.67103297  0.73434675  1
