# generated using pymatgen
data_Ca2Al2SiO7
_symmetry_space_group_name_H-M   'P 1'
_cell_length_a   15.45773246
_cell_length_b   15.45784041
_cell_length_c   15.28334530
_cell_angle_alpha   90.00575170
_cell_angle_beta   90.00403282
_cell_angle_gamma   90.00122348
_symmetry_Int_Tables_number   1
_chemical_formula_structural   Ca2Al2SiO7
_chemical_formula_sum   'Ca48 Al48 Si24 O168'
_cell_volume   3651.85081669
_cell_formula_units_Z   24
loop_
 _symmetry_equiv_pos_site_id
 _symmetry_equiv_pos_as_xyz
  1  'x, y, z'
loop_
 _atom_type_symbol
 _atom_type_oxidation_number
  Ca2+  2.0
  Al0+  0.0
  Si0+  0.0
  O2-  -2.0
loop_
 _atom_site_type_symbol
 _atom_site_label
 _atom_site_symmetry_multiplicity
 _atom_site_fract_x
 _atom_site_fract_y
 _atom_site_fract_z
 _atom_site_occupancy
  Ca2+  Ca0  1  0.16859338  0.08958738  0.16592414  1
  Ca2+  Ca1  1  0.16524017  0.07584052  0.50612727  1
  Ca2+  Ca2  1  0.16980142  0.07236802  0.84349012  1
  Ca2+  Ca3  1  0.17181355  0.58578429  0.16734425  1
  Ca2+  Ca4  1  0.16962062  0.58281184  0.50428338  1
  Ca2+  Ca5  1  0.17257684  0.57258855  0.84329724  1
  Ca2+  Ca6  1  0.66621701  0.07532366  0.16765681  1
  Ca2+  Ca7  1  0.67374249  0.07788823  0.51364574  1
  Ca2+  Ca8  1  0.66127880  0.07756321  0.83525157  1
  Ca2+  Ca9  1  0.66188335  0.57704003  0.16982107  1
  Ca2+  Ca10  1  0.67244401  0.58999296  0.50304446  1
  Ca2+  Ca11  1  0.67567044  0.58081958  0.83990565  1
  Ca2+  Ca12  1  0.08318917  0.32576940  0.15392334  1
  Ca2+  Ca13  1  0.08565524  0.32814528  0.49699712  1
  Ca2+  Ca14  1  0.08954897  0.33018166  0.83263285  1
  Ca2+  Ca15  1  0.08651615  0.82386362  0.16144748  1
  Ca2+  Ca16  1  0.07719136  0.82968493  0.49063523  1
  Ca2+  Ca17  1  0.09487013  0.82817680  0.83151916  1
  Ca2+  Ca18  1  0.57783585  0.33411547  0.15504773  1
  Ca2+  Ca19  1  0.58033690  0.32929042  0.50189654  1
  Ca2+  Ca20  1  0.57148025  0.33309550  0.82785178  1
  Ca2+  Ca21  1  0.57969387  0.82773423  0.16414323  1
  Ca2+  Ca22  1  0.57409371  0.83273999  0.49448866  1
  Ca2+  Ca23  1  0.57793785  0.84026428  0.82620311  1
  Ca2+  Ca24  1  0.33257777  0.42679488  0.16595467  1
  Ca2+  Ca25  1  0.32835509  0.42304145  0.50542157  1
  Ca2+  Ca26  1  0.32860068  0.41546491  0.84277249  1
  Ca2+  Ca27  1  0.32855589  0.91941328  0.16577474  1
  Ca2+  Ca28  1  0.32932844  0.91007887  0.50666250  1
  Ca2+  Ca29  1  0.32745804  0.91993197  0.84001448  1
  Ca2+  Ca30  1  0.83004845  0.40914596  0.16389655  1
  Ca2+  Ca31  1  0.83268876  0.42677235  0.50852236  1
  Ca2+  Ca32  1  0.82930292  0.41737100  0.83963070  1
  Ca2+  Ca33  1  0.83112733  0.91002790  0.16799142  1
  Ca2+  Ca34  1  0.82914417  0.91878649  0.51050561  1
  Ca2+  Ca35  1  0.82068015  0.92296932  0.83612464  1
  Ca2+  Ca36  1  0.41349388  0.17395369  0.15552795  1
  Ca2+  Ca37  1  0.42018603  0.17056256  0.50317819  1
  Ca2+  Ca38  1  0.41411571  0.17580481  0.82865135  1
  Ca2+  Ca39  1  0.41312026  0.66535822  0.16553529  1
  Ca2+  Ca40  1  0.41773460  0.67837606  0.49106848  1
  Ca2+  Ca41  1  0.41514666  0.67084714  0.82953919  1
  Ca2+  Ca42  1  0.93031982  0.17057154  0.15821280  1
  Ca2+  Ca43  1  0.92262259  0.16240027  0.49510500  1
  Ca2+  Ca44  1  0.91711841  0.16913182  0.83417925  1
  Ca2+  Ca45  1  0.92901252  0.67019653  0.16306930  1
  Ca2+  Ca46  1  0.92076473  0.67237333  0.49192744  1
  Ca2+  Ca47  1  0.92341383  0.66188735  0.83216674  1
  Al0+  Al48  1  -0.00214874  -0.00204299  -0.00081558  1
  Al0+  Al49  1  -0.00079946  0.00200059  0.32522924  1
  Al0+  Al50  1  -0.00056538  -0.00116754  0.67574766  1
  Al0+  Al51  1  -0.00019056  0.50137496  -0.00351081  1
  Al0+  Al52  1  -0.00250039  0.49840795  0.33080052  1
  Al0+  Al53  1  0.00153794  0.49905388  0.67282080  1
  Al0+  Al54  1  0.50027493  -0.00125629  0.00970737  1
  Al0+  Al55  1  0.49949328  0.00098345  0.33151073  1
  Al0+  Al56  1  0.49901439  0.00114084  0.65993601  1
  Al0+  Al57  1  0.50222796  0.50019316  0.00136945  1
  Al0+  Al58  1  0.49795125  0.49969145  0.33840612  1
  Al0+  Al59  1  0.50045826  0.50135960  0.65981783  1
  Al0+  Al60  1  0.25003323  0.24981040  -0.00202389  1
  Al0+  Al61  1  0.25098381  0.24951584  0.33265159  1
  Al0+  Al62  1  0.24879171  0.25023397  0.66266460  1
  Al0+  Al63  1  0.25115799  0.75107311  0.00189206  1
  Al0+  Al64  1  0.25025966  0.75095424  0.33129535  1
  Al0+  Al65  1  0.25090846  0.74779613  0.66493970  1
  Al0+  Al66  1  0.75121820  0.24867625  0.00108104  1
  Al0+  Al67  1  0.74870332  0.24872861  0.33613365  1
  Al0+  Al68  1  0.75176300  0.25178374  0.66501747  1
  Al0+  Al69  1  0.75069454  0.74954653  0.00406524  1
  Al0+  Al70  1  0.74746253  0.74858900  0.32705678  1
  Al0+  Al71  1  0.75225931  0.75062394  0.67641103  1
  Al0+  Al72  1  0.07135592  0.18081590  0.32065786  1
  Al0+  Al73  1  0.17700422  0.92811518  0.01677887  1
  Al0+  Al74  1  0.42788109  0.82355046  0.31505380  1
  Al0+  Al75  1  0.67676823  0.93038979  0.67993966  1
  Al0+  Al76  1  0.42876723  0.81997611  0.65468551  1
  Al0+  Al77  1  0.43065827  0.32196145  0.98768955  1
  Al0+  Al78  1  0.31929088  0.57206412  0.34976905  1
  Al0+  Al79  1  0.57230168  0.17976263  0.65202628  1
  Al0+  Al80  1  0.82275953  0.07385154  0.68240116  1
  Al0+  Al81  1  0.42580957  0.32342358  0.64905709  1
  Al0+  Al82  1  0.92750220  0.82215772  0.31936273  1
  Al0+  Al83  1  0.68084844  0.42887592  0.01184611  1
  Al0+  Al84  1  0.18084028  0.42850138  0.67964514  1
  Al0+  Al85  1  0.92811814  0.32109642  0.98337414  1
  Al0+  Al86  1  0.82150658  0.57181463  0.68021110  1
  Al0+  Al87  1  0.31991142  0.07134036  0.01405104  1
  Al0+  Al88  1  0.17978167  0.92708040  0.67793764  1
  Al0+  Al89  1  0.32263344  0.57138772  0.01390417  1
  Al0+  Al90  1  0.07214842  0.17775440  0.98141437  1
  Al0+  Al91  1  0.07271353  0.68164897  0.98362240  1
  Al0+  Al92  1  0.07140647  0.67710255  0.31940914  1
  Al0+  Al93  1  0.17765593  0.42885634  0.01513691  1
  Al0+  Al94  1  0.67863276  0.92813841  0.01685511  1
  Al0+  Al95  1  0.56937032  0.67753659  0.31775487  1
  Si0+  Si96  1  0.92525951  0.32179050  0.31859662  1
  Si0+  Si97  1  0.92999709  0.32306361  0.65101082  1
  Si0+  Si98  1  0.67729278  0.42880724  0.68159320  1
  Si0+  Si99  1  0.32200035  0.07344222  0.35083740  1
  Si0+  Si100  1  0.82274008  0.57218500  0.01994880  1
  Si0+  Si101  1  0.92519945  0.82075350  0.97974269  1
  Si0+  Si102  1  0.32114056  0.07224242  0.67999215  1
  Si0+  Si103  1  0.06892830  0.17687849  0.65206747  1
  Si0+  Si104  1  0.92965762  0.82078024  0.65521592  1
  Si0+  Si105  1  0.82053724  0.07027482  0.34750875  1
  Si0+  Si106  1  0.07022618  0.67781210  0.65230307  1
  Si0+  Si107  1  0.57276180  0.17974945  0.31748732  1
  Si0+  Si108  1  0.57593981  0.67899572  0.65234693  1
  Si0+  Si109  1  0.82012389  0.57027515  0.34693863  1
  Si0+  Si110  1  0.32318217  0.57156847  0.68167641  1
  Si0+  Si111  1  0.43060241  0.31964409  0.31813741  1
  Si0+  Si112  1  0.17706960  0.42669122  0.34902377  1
  Si0+  Si113  1  0.82144438  0.07164812  0.01964812  1
  Si0+  Si114  1  0.67891284  0.92831626  0.34867479  1
  Si0+  Si115  1  0.17855327  0.93146699  0.34722071  1
  Si0+  Si116  1  0.57183306  0.17581680  0.98609172  1
  Si0+  Si117  1  0.67760573  0.42722746  0.35057410  1
  Si0+  Si118  1  0.43167377  0.82138827  0.98522098  1
  Si0+  Si119  1  0.57251517  0.67864839  0.98427988  1
  O2-  O120  1  0.24448126  0.00432584  0.06702469  1
  O2-  O121  1  0.25182768  0.00019607  0.39120741  1
  O2-  O122  1  0.25517084  0.00122844  0.72353991  1
  O2-  O123  1  0.24896729  0.50133155  0.06498620  1
  O2-  O124  1  0.24053208  0.49974876  0.39448830  1
  O2-  O125  1  0.26063047  0.49780672  0.72524383  1
  O2-  O126  1  0.75423675  0.00152153  0.06448019  1
  O2-  O127  1  0.75174059  -0.00236451  0.39067902  1
  O2-  O128  1  0.74494435  0.00644857  0.72980569  1
  O2-  O129  1  0.75613143  0.50073135  0.06307548  1
  O2-  O130  1  0.74920972  0.49908993  0.39063350  1
  O2-  O131  1  0.74389016  0.49938894  0.72524178  1
  O2-  O132  1  -0.00181031  0.25762575  0.27613238  1
  O2-  O133  1  -0.00218251  0.24836328  0.60899645  1
  O2-  O134  1  0.00190950  0.25200152  0.93131123  1
  O2-  O135  1  0.00100726  0.75139273  0.27034745  1
  O2-  O136  1  0.00028911  0.75039530  0.61071632  1
  O2-  O137  1  -0.00150492  0.75702718  0.93528751  1
  O2-  O138  1  0.50203751  0.24979184  0.27468527  1
  O2-  O139  1  0.50050734  0.25219791  0.60069340  1
  O2-  O140  1  0.50406781  0.24498882  0.94224643  1
  O2-  O141  1  0.49756121  0.74855006  0.26596878  1
  O2-  O142  1  0.50666839  0.74746649  0.60898372  1
  O2-  O143  1  0.50271846  0.75057422  0.94209486  1
  O2-  O144  1  0.06977042  0.17981371  0.09550645  1
  O2-  O145  1  0.06881343  0.17873663  0.43463574  1
  O2-  O146  1  0.06986932  0.17714623  0.75621969  1
  O2-  O147  1  0.07071090  0.68220857  0.09668304  1
  O2-  O148  1  0.06796336  0.67769480  0.43402442  1
  O2-  O149  1  0.07086781  0.67844183  0.75701304  1
  O2-  O150  1  0.57106327  0.17766773  0.09248693  1
  O2-  O151  1  0.57475871  0.18112673  0.42234464  1
  O2-  O152  1  0.57027338  0.18054936  0.76544578  1
  O2-  O153  1  0.57222218  0.67865094  0.08919314  1
  O2-  O154  1  0.57282742  0.68190870  0.43171738  1
  O2-  O155  1  0.57514718  0.67712706  0.75796327  1
  O2-  O156  1  0.17976156  0.42341314  0.24429475  1
  O2-  O157  1  0.17769132  0.43147620  0.56585124  1
  O2-  O158  1  0.18108800  0.42998812  0.90130969  1
  O2-  O159  1  0.17868644  0.93391845  0.24280688  1
  O2-  O160  1  0.17704512  0.92853398  0.56404056  1
  O2-  O161  1  0.18392466  0.92646809  0.90290363  1
  O2-  O162  1  0.67819339  0.42413355  0.24570741  1
  O2-  O163  1  0.68045213  0.42895667  0.57531502  1
  O2-  O164  1  0.68003578  0.43320103  0.89889656  1
  O2-  O165  1  0.67922948  0.93087355  0.24365971  1
  O2-  O166  1  0.68126214  0.92793218  0.56578393  1
  O2-  O167  1  0.67667606  0.93000627  0.90398160  1
  O2-  O168  1  0.43432735  0.32229967  0.10145079  1
  O2-  O169  1  0.43133042  0.31731591  0.42321622  1
  O2-  O170  1  0.42649350  0.32284909  0.76235093  1
  O2-  O171  1  0.43335322  0.82156300  0.09006780  1
  O2-  O172  1  0.43034787  0.82439101  0.42921739  1
  O2-  O173  1  0.42787389  0.81809696  0.76793051  1
  O2-  O174  1  0.92634623  0.31611518  0.09762150  1
  O2-  O175  1  0.92320303  0.32151554  0.42458651  1
  O2-  O176  1  0.93041821  0.32490903  0.75519957  1
  O2-  O177  1  0.92267277  0.81598504  0.08542312  1
  O2-  O178  1  0.92789624  0.82208549  0.43406508  1
  O2-  O179  1  0.92943283  0.81926267  0.75969331  1
  O2-  O180  1  0.32206965  0.07720666  0.24635915  1
  O2-  O181  1  0.31760842  0.07253475  0.57367978  1
  O2-  O182  1  0.32419802  0.06708115  0.90027581  1
  O2-  O183  1  0.32195011  0.56748119  0.23739865  1
  O2-  O184  1  0.31859710  0.57397427  0.57599256  1
  O2-  O185  1  0.32356482  0.57096819  0.89994047  1
  O2-  O186  1  0.81682282  0.07361374  0.24301504  1
  O2-  O187  1  0.82589202  0.06845108  0.56778997  1
  O2-  O188  1  0.81876509  0.07222297  0.91424028  1
  O2-  O189  1  0.82051331  0.56795959  0.24245041  1
  O2-  O190  1  0.82197617  0.57150448  0.56620174  1
  O2-  O191  1  0.81910256  0.57455131  0.91411604  1
  O2-  O192  1  0.03902013  0.08736050  0.26316240  1
  O2-  O193  1  0.03922613  0.08453194  0.60551073  1
  O2-  O194  1  0.04183420  0.07795437  0.93174043  1
  O2-  O195  1  0.04143480  0.57901376  0.26669049  1
  O2-  O196  1  0.03988499  0.58645374  0.60549700  1
  O2-  O197  1  0.04038382  0.58549495  0.92969922  1
  O2-  O198  1  0.54628758  0.08754904  0.27118797  1
  O2-  O199  1  0.54403719  0.08290590  0.59438776  1
  O2-  O200  1  0.54533674  0.08140040  0.94287341  1
  O2-  O201  1  0.54250094  0.57682602  0.26871924  1
  O2-  O202  1  0.55421901  0.58564098  0.60357471  1
  O2-  O203  1  0.54484160  0.58777130  0.93578373  1
  O2-  O204  1  0.16873510  0.20927973  0.26760057  1
  O2-  O205  1  0.15991406  0.20422293  0.60222174  1
  O2-  O206  1  0.17121945  0.20316480  0.92915613  1
  O2-  O207  1  0.16924945  0.70486140  0.26748059  1
  O2-  O208  1  0.16193511  0.70446254  0.60413508  1
  O2-  O209  1  0.16991968  0.71262983  0.93002099  1
  O2-  O210  1  0.66451614  0.20771498  0.26979570  1
  O2-  O211  1  0.67131119  0.20841575  0.59739115  1
  O2-  O212  1  0.66604071  0.19884499  0.94186772  1
  O2-  O213  1  0.66679625  0.70392508  0.26216798  1
  O2-  O214  1  0.67051022  0.70550731  0.60795997  1
  O2-  O215  1  0.66552658  0.70573883  0.93883316  1
  O2-  O216  1  0.07771091  0.45557354  0.06549292  1
  O2-  O217  1  0.07998401  0.44569894  0.39217500  1
  O2-  O218  1  0.08684316  0.46138428  0.73567904  1
  O2-  O219  1  0.07460083  0.94691957  0.06462128  1
  O2-  O220  1  0.08600703  0.96207356  0.39311706  1
  O2-  O221  1  0.08528309  0.95621057  0.73505768  1
  O2-  O222  1  0.58694335  0.46261189  0.06919024  1
  O2-  O223  1  0.58684680  0.45437563  0.39975309  1
  O2-  O224  1  0.58176518  0.45198311  0.72424029  1
  O2-  O225  1  0.58486555  0.95960972  0.07537114  1
  O2-  O226  1  0.58722481  0.95901524  0.39488478  1
  O2-  O227  1  0.57673444  0.95725739  0.73042317  1
  O2-  O228  1  0.20576604  0.33010375  0.06602098  1
  O2-  O229  1  0.20861231  0.33496926  0.39756124  1
  O2-  O230  1  0.20646685  0.32955204  0.73063936  1
  O2-  O231  1  0.21225694  0.83279967  0.07078230  1
  O2-  O232  1  0.20316560  0.83861882  0.39427952  1
  O2-  O233  1  0.21136324  0.83044799  0.73086571  1
  O2-  O234  1  0.70865882  0.33156521  0.06760618  1
  O2-  O235  1  0.70705286  0.33588905  0.39938467  1
  O2-  O236  1  0.70457114  0.33638025  0.72732637  1
  O2-  O237  1  0.71003087  0.83147261  0.07075533  1
  O2-  O238  1  0.70417792  0.83476254  0.39333413  1
  O2-  O239  1  0.70732721  0.83461132  0.73646413  1
  O2-  O240  1  0.45859142  0.41197094  0.27373058  1
  O2-  O241  1  0.45402802  0.42183321  0.59430497  1
  O2-  O242  1  0.46526326  0.41697739  0.93270931  1
  O2-  O243  1  0.45840641  0.92200255  0.26329566  1
  O2-  O244  1  0.45344857  0.91683095  0.59809446  1
  O2-  O245  1  0.46204450  0.91344106  0.93982522  1
  O2-  O246  1  0.94363842  0.41623528  0.27229992  1
  O2-  O247  1  0.96260142  0.41353323  0.60225300  1
  O2-  O248  1  0.94803177  0.42226310  0.93354801  1
  O2-  O249  1  0.95156243  0.92030442  0.26478482  1
  O2-  O250  1  0.95711422  0.91316010  0.60819398  1
  O2-  O251  1  0.94241399  0.91713405  0.93757803  1
  O2-  O252  1  0.33920384  0.29073168  0.27167107  1
  O2-  O253  1  0.32893598  0.29170888  0.59323211  1
  O2-  O254  1  0.33476582  0.29223468  0.93344412  1
  O2-  O255  1  0.32864661  0.79844294  0.26464808  1
  O2-  O256  1  0.33410798  0.78515049  0.59713437  1
  O2-  O257  1  0.33994859  0.79423602  0.93829554  1
  O2-  O258  1  0.83269198  0.29147620  0.27250877  1
  O2-  O259  1  0.83721051  0.30138805  0.60223627  1
  O2-  O260  1  0.82971495  0.28946613  0.93031577  1
  O2-  O261  1  0.83057209  0.79231813  0.26524280  1
  O2-  O262  1  0.83740412  0.79239927  0.60820783  1
  O2-  O263  1  0.83269605  0.78945498  0.93371287  1
  O2-  O264  1  0.41607492  0.04112431  0.07168522  1
  O2-  O265  1  0.41534693  0.04737153  0.39681146  1
  O2-  O266  1  0.41618708  0.05107854  0.72287254  1
  O2-  O267  1  0.42028634  0.54163521  0.06765618  1
  O2-  O268  1  0.41482050  0.53848969  0.40574825  1
  O2-  O269  1  0.42046522  0.55381405  0.72286552  1
  O2-  O270  1  0.91511262  0.04587944  0.06492598  1
  O2-  O271  1  0.91407094  0.04505413  0.39314482  1
  O2-  O272  1  0.91684119  0.04068708  0.73972837  1
  O2-  O273  1  0.91704546  0.54890427  0.06392810  1
  O2-  O274  1  0.91158579  0.54275607  0.39666052  1
  O2-  O275  1  0.91566112  0.53773946  0.73568415  1
  O2-  O276  1  0.29475743  0.17039866  0.06720183  1
  O2-  O277  1  0.29214975  0.16411938  0.40016007  1
  O2-  O278  1  0.29351969  0.16514703  0.72511005  1
  O2-  O279  1  0.29559033  0.66961032  0.06667507  1
  O2-  O280  1  0.29146647  0.67074398  0.40244784  1
  O2-  O281  1  0.29249155  0.66249444  0.72954968  1
  O2-  O282  1  0.79480945  0.16411083  0.06744273  1
  O2-  O283  1  0.79141196  0.16130592  0.39746212  1
  O2-  O284  1  0.80111043  0.17520109  0.73107625  1
  O2-  O285  1  0.79369399  0.66392074  0.06723458  1
  O2-  O286  1  0.79077821  0.66235878  0.39394222  1
  O2-  O287  1  0.79461836  0.66639309  0.73936244  1
