# generated using pymatgen
data_Ca2Al2SiO7
_symmetry_space_group_name_H-M   'P 1'
_cell_length_a   15.45833523
_cell_length_b   15.45859787
_cell_length_c   15.28398333
_cell_angle_alpha   90.00777358
_cell_angle_beta   89.99884018
_cell_angle_gamma   89.99804612
_symmetry_Int_Tables_number   1
_chemical_formula_structural   Ca2Al2SiO7
_chemical_formula_sum   'Ca48 Al48 Si24 O168'
_cell_volume   3652.32463216
_cell_formula_units_Z   24
loop_
 _symmetry_equiv_pos_site_id
 _symmetry_equiv_pos_as_xyz
  1  'x, y, z'
loop_
 _atom_type_symbol
 _atom_type_oxidation_number
  Ca2+  2.0
  Al0+  0.0
  Si0+  0.0
  O2-  -2.0
loop_
 _atom_site_type_symbol
 _atom_site_label
 _atom_site_symmetry_multiplicity
 _atom_site_fract_x
 _atom_site_fract_y
 _atom_site_fract_z
 _atom_site_occupancy
  Ca2+  Ca0  1  0.16254161  0.07684453  0.16967841  1
  Ca2+  Ca1  1  0.16951086  0.08426343  0.51070177  1
  Ca2+  Ca2  1  0.16436135  0.07590856  0.83245349  1
  Ca2+  Ca3  1  0.16060330  0.57652708  0.16882091  1
  Ca2+  Ca4  1  0.17122575  0.58598143  0.50446260  1
  Ca2+  Ca5  1  0.17248774  0.58268794  0.83651363  1
  Ca2+  Ca6  1  0.66681144  0.08305265  0.17114925  1
  Ca2+  Ca7  1  0.66455515  0.08022205  0.50583220  1
  Ca2+  Ca8  1  0.66591923  0.07465144  0.83275981  1
  Ca2+  Ca9  1  0.67627068  0.58049192  0.17072767  1
  Ca2+  Ca10  1  0.67583432  0.57264608  0.50758840  1
  Ca2+  Ca11  1  0.67595677  0.57512261  0.83953792  1
  Ca2+  Ca12  1  0.07971925  0.32979080  0.15821687  1
  Ca2+  Ca13  1  0.08111004  0.32377568  0.49793147  1
  Ca2+  Ca14  1  0.07386138  0.33629548  0.82719481  1
  Ca2+  Ca15  1  0.07896725  0.82511753  0.15903293  1
  Ca2+  Ca16  1  0.08029157  0.82942468  0.49888754  1
  Ca2+  Ca17  1  0.07520834  0.84060735  0.82777864  1
  Ca2+  Ca18  1  0.58597301  0.33849953  0.16632058  1
  Ca2+  Ca19  1  0.58138813  0.33444175  0.49279918  1
  Ca2+  Ca20  1  0.58942789  0.33673925  0.82956055  1
  Ca2+  Ca21  1  0.57791112  0.82326965  0.15303739  1
  Ca2+  Ca22  1  0.57755934  0.83769454  0.50129564  1
  Ca2+  Ca23  1  0.57649252  0.82700118  0.82659981  1
  Ca2+  Ca24  1  0.32996808  0.41375402  0.16907121  1
  Ca2+  Ca25  1  0.33518809  0.42076061  0.50654418  1
  Ca2+  Ca26  1  0.32717761  0.42341626  0.83668912  1
  Ca2+  Ca27  1  0.32893105  0.91113224  0.16517514  1
  Ca2+  Ca28  1  0.32601233  0.92451403  0.51545397  1
  Ca2+  Ca29  1  0.32589385  0.91475618  0.83446468  1
  Ca2+  Ca30  1  0.82754385  0.42428105  0.17139890  1
  Ca2+  Ca31  1  0.82854276  0.42290747  0.50847843  1
  Ca2+  Ca32  1  0.83359074  0.42338719  0.84131912  1
  Ca2+  Ca33  1  0.83591280  0.91510020  0.16714820  1
  Ca2+  Ca34  1  0.82758602  0.91655767  0.51039782  1
  Ca2+  Ca35  1  0.83251762  0.90982855  0.83597455  1
  Ca2+  Ca36  1  0.42346949  0.17322130  0.16922593  1
  Ca2+  Ca37  1  0.42078497  0.17150202  0.49302550  1
  Ca2+  Ca38  1  0.41545250  0.16619995  0.82778853  1
  Ca2+  Ca39  1  0.42691007  0.67028832  0.15550529  1
  Ca2+  Ca40  1  0.41208081  0.67163022  0.50014311  1
  Ca2+  Ca41  1  0.41904035  0.67249052  0.82817550  1
  Ca2+  Ca42  1  0.92058889  0.17455995  0.16066350  1
  Ca2+  Ca43  1  0.92702173  0.16950913  0.50010299  1
  Ca2+  Ca44  1  0.92114638  0.18128624  0.82421131  1
  Ca2+  Ca45  1  0.91591344  0.66438856  0.16155678  1
  Ca2+  Ca46  1  0.91361219  0.66663917  0.50005247  1
  Ca2+  Ca47  1  0.91077640  0.67182084  0.82865522  1
  Al0+  Al48  1  0.00193367  -0.00124461  0.00210164  1
  Al0+  Al49  1  -0.00121392  -0.00085364  0.33068190  1
  Al0+  Al50  1  -0.00073094  0.00050357  0.66099692  1
  Al0+  Al51  1  0.00145507  0.49960107  0.00379372  1
  Al0+  Al52  1  0.00122165  0.50094912  0.33557115  1
  Al0+  Al53  1  -0.00088943  0.50125229  0.66391623  1
  Al0+  Al54  1  0.49917632  0.00149388  -0.00160107  1
  Al0+  Al55  1  0.49746909  0.00230543  0.32833992  1
  Al0+  Al56  1  0.49940424  -0.00029264  0.67066340  1
  Al0+  Al57  1  0.50078590  0.49811268  -0.00161875  1
  Al0+  Al58  1  0.49860554  0.50228973  0.33248623  1
  Al0+  Al59  1  0.50086717  0.50084818  0.67398613  1
  Al0+  Al60  1  0.25315470  0.24782489  0.00420024  1
  Al0+  Al61  1  0.25045112  0.24864829  0.32520754  1
  Al0+  Al62  1  0.25137812  0.25012059  0.66757449  1
  Al0+  Al63  1  0.25048083  0.75154072  0.00200757  1
  Al0+  Al64  1  0.24591261  0.74976310  0.32871152  1
  Al0+  Al65  1  0.25035036  0.75106385  0.67031992  1
  Al0+  Al66  1  0.75108597  0.24929114  -0.00080820  1
  Al0+  Al67  1  0.75029171  0.24764764  0.33440333  1
  Al0+  Al68  1  0.74933138  0.24917056  0.66391586  1
  Al0+  Al69  1  0.74960523  0.74896843  -0.00299262  1
  Al0+  Al70  1  0.74817238  0.75140857  0.33787074  1
  Al0+  Al71  1  0.74861644  0.74838095  0.66798673  1
  Al0+  Al72  1  0.42875144  0.82077271  0.65200079  1
  Al0+  Al73  1  0.82296251  0.57034680  0.68362289  1
  Al0+  Al74  1  0.92710564  0.82008691  0.65252943  1
  Al0+  Al75  1  0.07052706  0.67901913  0.31927380  1
  Al0+  Al76  1  0.32098972  0.57200832  0.67959464  1
  Al0+  Al77  1  0.32157687  0.07326369  0.68118130  1
  Al0+  Al78  1  0.67911118  0.42625456  0.01718847  1
  Al0+  Al79  1  0.07209381  0.18015989  0.65292369  1
  Al0+  Al80  1  0.67977388  0.42654197  0.68236570  1
  Al0+  Al81  1  0.67798375  0.42846278  0.34941961  1
  Al0+  Al82  1  0.43007728  0.32415551  0.31828454  1
  Al0+  Al83  1  0.57167400  0.67631343  0.98292418  1
  Al0+  Al84  1  0.82275939  0.57248294  0.35134506  1
  Al0+  Al85  1  0.42797541  0.82203249  0.98301531  1
  Al0+  Al86  1  0.18024493  0.42868099  0.01311833  1
  Al0+  Al87  1  0.82117402  0.57280121  0.01650075  1
  Al0+  Al88  1  0.17904945  0.92985683  0.01623034  1
  Al0+  Al89  1  0.67887502  0.92911366  0.68014543  1
  Al0+  Al90  1  0.93056429  0.32082298  0.98773582  1
  Al0+  Al91  1  0.07091344  0.17778880  0.31736995  1
  Al0+  Al92  1  0.92710931  0.32388826  0.64994845  1
  Al0+  Al93  1  0.17666302  0.92955244  0.68033902  1
  Al0+  Al94  1  0.57275914  0.17838591  0.31836024  1
  Al0+  Al95  1  0.93070960  0.82054567  0.98692899  1
  Si0+  Si96  1  0.92922544  0.32155843  0.31697461  1
  Si0+  Si97  1  0.92577046  0.82078520  0.31738414  1
  Si0+  Si98  1  0.57218547  0.17923696  0.98325792  1
  Si0+  Si99  1  0.31957757  0.57267853  0.34635766  1
  Si0+  Si100  1  0.82215909  0.07136528  0.68247951  1
  Si0+  Si101  1  0.67621901  0.93052696  0.34649801  1
  Si0+  Si102  1  0.57001933  0.67734116  0.64763695  1
  Si0+  Si103  1  0.07331539  0.67831172  0.65112944  1
  Si0+  Si104  1  0.32204193  0.57163578  0.01745727  1
  Si0+  Si105  1  0.18045305  0.42669245  0.34819812  1
  Si0+  Si106  1  0.07258547  0.67683554  0.98317789  1
  Si0+  Si107  1  0.82108291  0.07010083  0.01400871  1
  Si0+  Si108  1  0.32480519  0.07208817  0.02182812  1
  Si0+  Si109  1  0.57046807  0.68154814  0.32018726  1
  Si0+  Si110  1  0.42721392  0.82183101  0.31880925  1
  Si0+  Si111  1  0.67832993  0.92999120  0.01432151  1
  Si0+  Si112  1  0.17857898  0.92835271  0.34847832  1
  Si0+  Si113  1  0.31965170  0.07019986  0.34754952  1
  Si0+  Si114  1  0.17861753  0.42771160  0.68039767  1
  Si0+  Si115  1  0.43005975  0.32268409  0.65471975  1
  Si0+  Si116  1  0.07398525  0.17746821  0.98360117  1
  Si0+  Si117  1  0.57006978  0.17793803  0.65320649  1
  Si0+  Si118  1  0.82224650  0.06976611  0.34835162  1
  Si0+  Si119  1  0.42824671  0.31954777  0.98319863  1
  O2-  O120  1  0.25531826  0.00295026  0.06449713  1
  O2-  O121  1  0.24792854  0.00066031  0.39059245  1
  O2-  O122  1  0.24882717  0.00179614  0.72998745  1
  O2-  O123  1  0.25336072  0.50380442  0.06308833  1
  O2-  O124  1  0.25166536  0.49856041  0.38919983  1
  O2-  O125  1  0.24491935  0.49838277  0.72493082  1
  O2-  O126  1  0.75100956  -0.00164691  0.05811621  1
  O2-  O127  1  0.74791004  0.00084871  0.38872492  1
  O2-  O128  1  0.75650698  0.00032788  0.72795358  1
  O2-  O129  1  0.74916675  0.50038223  0.06610406  1
  O2-  O130  1  0.75255927  0.49755701  0.39935338  1
  O2-  O131  1  0.75522702  0.49407614  0.73226315  1
  O2-  O132  1  -0.00195452  0.25368815  0.27063716  1
  O2-  O133  1  0.00108550  0.25251611  0.60152426  1
  O2-  O134  1  0.00859281  0.24921865  0.94067237  1
  O2-  O135  1  -0.00870496  0.74930854  0.27367689  1
  O2-  O136  1  0.00259892  0.74556234  0.60703724  1
  O2-  O137  1  0.00405197  0.74532577  0.93925052  1
  O2-  O138  1  0.50664648  0.25604641  0.26843929  1
  O2-  O139  1  0.50092872  0.25155740  0.61257441  1
  O2-  O140  1  0.50228710  0.25144853  0.94144219  1
  O2-  O141  1  0.49977385  0.75273460  0.27690381  1
  O2-  O142  1  0.50178005  0.74637646  0.60142611  1
  O2-  O143  1  0.49868162  0.74855081  0.93422680  1
  O2-  O144  1  0.07058653  0.17742002  0.08978422  1
  O2-  O145  1  0.07148946  0.17764642  0.43001458  1
  O2-  O146  1  0.07050773  0.18186842  0.76653760  1
  O2-  O147  1  0.07207946  0.67842467  0.08924763  1
  O2-  O148  1  0.07926023  0.68482866  0.43161697  1
  O2-  O149  1  0.07514626  0.67735879  0.75646233  1
  O2-  O150  1  0.57123874  0.17657874  0.08813252  1
  O2-  O151  1  0.56640267  0.17127362  0.43153999  1
  O2-  O152  1  0.56978627  0.17679387  0.75853747  1
  O2-  O153  1  0.57033818  0.68016431  0.09799661  1
  O2-  O154  1  0.56883510  0.68336438  0.42499391  1
  O2-  O155  1  0.56751260  0.67873528  0.75274945  1
  O2-  O156  1  0.18090106  0.42736248  0.24303193  1
  O2-  O157  1  0.18257029  0.42614917  0.57433284  1
  O2-  O158  1  0.18288959  0.42967490  0.90003966  1
  O2-  O159  1  0.18065052  0.92832948  0.24333500  1
  O2-  O160  1  0.17929222  0.92954867  0.56588326  1
  O2-  O161  1  0.17596323  0.93348752  0.90396458  1
  O2-  O162  1  0.67904183  0.43208085  0.23614915  1
  O2-  O163  1  0.67612947  0.42829691  0.56876319  1
  O2-  O164  1  0.68221626  0.42414910  0.90417227  1
  O2-  O165  1  0.67688505  0.92977339  0.24115969  1
  O2-  O166  1  0.67757974  0.93367272  0.56616607  1
  O2-  O167  1  0.67752851  0.93309375  0.90958237  1
  O2-  O168  1  0.42641974  0.31775217  0.08812577  1
  O2-  O169  1  0.42697289  0.32158609  0.43228745  1
  O2-  O170  1  0.42901826  0.32143387  0.75988819  1
  O2-  O171  1  0.43133286  0.82059011  0.09811007  1
  O2-  O172  1  0.42700273  0.82244967  0.42375371  1
  O2-  O173  1  0.43003953  0.81977371  0.76425611  1
  O2-  O174  1  0.93099145  0.31664973  0.10119231  1
  O2-  O175  1  0.93163627  0.31889657  0.42225145  1
  O2-  O176  1  0.92895096  0.32245465  0.76379949  1
  O2-  O177  1  0.93237583  0.82237546  0.10049912  1
  O2-  O178  1  0.92672523  0.82369926  0.42270956  1
  O2-  O179  1  0.92879097  0.82023920  0.76545152  1
  O2-  O180  1  0.32108844  0.06733671  0.24257586  1
  O2-  O181  1  0.32255860  0.07316641  0.56680162  1
  O2-  O182  1  0.32603834  0.07490545  0.91683752  1
  O2-  O183  1  0.31835689  0.57432741  0.24153184  1
  O2-  O184  1  0.32025930  0.56998480  0.56554884  1
  O2-  O185  1  0.32037526  0.57002281  0.91190326  1
  O2-  O186  1  0.82405157  0.06738157  0.24293376  1
  O2-  O187  1  0.81898450  0.07060746  0.57635892  1
  O2-  O188  1  0.81905066  0.07005118  0.90926253  1
  O2-  O189  1  0.82048731  0.57471678  0.23800358  1
  O2-  O190  1  0.81997589  0.57095920  0.56990432  1
  O2-  O191  1  0.82154359  0.57232309  0.90355143  1
  O2-  O192  1  0.03771861  0.08128692  0.26344507  1
  O2-  O193  1  0.04279768  0.08338039  0.59657270  1
  O2-  O194  1  0.04441434  0.08504279  0.93910749  1
  O2-  O195  1  0.04563250  0.58006927  0.26672596  1
  O2-  O196  1  0.05085079  0.58477917  0.60290990  1
  O2-  O197  1  0.05045133  0.58243993  0.93850807  1
  O2-  O198  1  0.53744849  0.08297367  0.26047438  1
  O2-  O199  1  0.54003303  0.08746656  0.60474140  1
  O2-  O200  1  0.54219850  0.08826295  0.93524874  1
  O2-  O201  1  0.54169546  0.59103490  0.27168508  1
  O2-  O202  1  0.54110993  0.58368994  0.60304799  1
  O2-  O203  1  0.54365817  0.57764966  0.93114685  1
  O2-  O204  1  0.16705998  0.20552241  0.26154719  1
  O2-  O205  1  0.17114808  0.20893982  0.59933263  1
  O2-  O206  1  0.17031907  0.19845267  0.94250173  1
  O2-  O207  1  0.16412301  0.71334852  0.26000588  1
  O2-  O208  1  0.16599473  0.70639192  0.60383833  1
  O2-  O209  1  0.16719213  0.70220967  0.93995001  1
  O2-  O210  1  0.67428521  0.19642311  0.26724920  1
  O2-  O211  1  0.66200549  0.20116860  0.60395750  1
  O2-  O212  1  0.66427524  0.20389074  0.93544408  1
  O2-  O213  1  0.66183782  0.71111505  0.27259356  1
  O2-  O214  1  0.66313941  0.70407310  0.60193427  1
  O2-  O215  1  0.66837932  0.70744222  0.93019174  1
  O2-  O216  1  0.08527853  0.45825254  0.07075279  1
  O2-  O217  1  0.08936969  0.45415573  0.39639068  1
  O2-  O218  1  0.08435648  0.45194515  0.72413758  1
  O2-  O219  1  0.08365117  0.96225293  0.07329811  1
  O2-  O220  1  0.08475379  0.95363771  0.39259826  1
  O2-  O221  1  0.07792836  0.95927100  0.73172271  1
  O2-  O222  1  0.57746143  0.45048582  0.06595011  1
  O2-  O223  1  0.57828204  0.45906800  0.39979367  1
  O2-  O224  1  0.58284778  0.45725555  0.73705272  1
  O2-  O225  1  0.58742489  0.96073457  0.06269126  1
  O2-  O226  1  0.58369906  0.95960839  0.39248654  1
  O2-  O227  1  0.58538835  0.96385820  0.73665783  1
  O2-  O228  1  0.21251867  0.33219590  0.06786888  1
  O2-  O229  1  0.20986971  0.33436256  0.39357102  1
  O2-  O230  1  0.20678026  0.33653368  0.72893080  1
  O2-  O231  1  0.20925435  0.83271390  0.07125417  1
  O2-  O232  1  0.20855663  0.83686093  0.39476272  1
  O2-  O233  1  0.20497001  0.83241494  0.73436586  1
  O2-  O234  1  0.70806226  0.32688709  0.06910647  1
  O2-  O235  1  0.70001837  0.32608021  0.39780098  1
  O2-  O236  1  0.70110674  0.32485626  0.73149606  1
  O2-  O237  1  0.70430426  0.83773060  0.06118471  1
  O2-  O238  1  0.70167776  0.83965419  0.39646724  1
  O2-  O239  1  0.70560139  0.83197759  0.73293921  1
  O2-  O240  1  0.45147610  0.42429686  0.26489539  1
  O2-  O241  1  0.45764521  0.41473903  0.60749458  1
  O2-  O242  1  0.45097532  0.41255432  0.93662539  1
  O2-  O243  1  0.45275018  0.91349742  0.27035646  1
  O2-  O244  1  0.46213083  0.91774204  0.59883393  1
  O2-  O245  1  0.45661931  0.92131474  0.93325475  1
  O2-  O246  1  0.95515384  0.41571973  0.27315995  1
  O2-  O247  1  0.95527833  0.42180582  0.59611304  1
  O2-  O248  1  0.96170812  0.41768865  0.93534980  1
  O2-  O249  1  0.95410953  0.91299408  0.26957531  1
  O2-  O250  1  0.95499200  0.91680184  0.59671134  1
  O2-  O251  1  0.96179167  0.91776842  0.93389465  1
  O2-  O252  1  0.33477632  0.28960894  0.26184566  1
  O2-  O253  1  0.33861977  0.29629039  0.60589429  1
  O2-  O254  1  0.33780409  0.28750351  0.93521278  1
  O2-  O255  1  0.33651242  0.79160012  0.27078536  1
  O2-  O256  1  0.33163921  0.79009202  0.59816943  1
  O2-  O257  1  0.32813148  0.79571072  0.93333891  1
  O2-  O258  1  0.83571426  0.29388961  0.27235150  1
  O2-  O259  1  0.82988039  0.29112667  0.59654734  1
  O2-  O260  1  0.83585239  0.28530194  0.93333864  1
  O2-  O261  1  0.82989110  0.80021792  0.27296719  1
  O2-  O262  1  0.82977633  0.79042938  0.59807566  1
  O2-  O263  1  0.83260513  0.79509991  0.93458859  1
  O2-  O264  1  0.41842039  0.04514953  0.06838928  1
  O2-  O265  1  0.41171041  0.04186253  0.39462321  1
  O2-  O266  1  0.41844073  0.04427704  0.73588141  1
  O2-  O267  1  0.41535077  0.54371697  0.06273582  1
  O2-  O268  1  0.41191130  0.54969194  0.39460278  1
  O2-  O269  1  0.41467025  0.53967687  0.73671071  1
  O2-  O270  1  0.91238904  0.04281363  0.06305782  1
  O2-  O271  1  0.91259361  0.03832074  0.39712071  1
  O2-  O272  1  0.91661429  0.04947963  0.72642463  1
  O2-  O273  1  0.92037650  0.54525647  0.06847816  1
  O2-  O274  1  0.92333869  0.54795598  0.40221861  1
  O2-  O275  1  0.92413461  0.54846461  0.73359770  1
  O2-  O276  1  0.29915903  0.16490195  0.06978057  1
  O2-  O277  1  0.29300505  0.16348724  0.39224628  1
  O2-  O278  1  0.29534113  0.17164041  0.73585705  1
  O2-  O279  1  0.29933772  0.66596368  0.06318103  1
  O2-  O280  1  0.28725218  0.66362749  0.39409988  1
  O2-  O281  1  0.29095226  0.66694319  0.73565648  1
  O2-  O282  1  0.79078220  0.15994736  0.06375497  1
  O2-  O283  1  0.79803775  0.16147663  0.39687666  1
  O2-  O284  1  0.79265636  0.16345141  0.72878330  1
  O2-  O285  1  0.79162296  0.67194486  0.06936096  1
  O2-  O286  1  0.79158611  0.67140158  0.40311015  1
  O2-  O287  1  0.79063063  0.66779793  0.73490409  1
