# generated using pymatgen
data_Ca2Al2SiO7
_symmetry_space_group_name_H-M   'P 1'
_cell_length_a   15.46729276
_cell_length_b   15.47040433
_cell_length_c   15.29240855
_cell_angle_alpha   90.01347585
_cell_angle_beta   90.01155195
_cell_angle_gamma   90.01405582
_symmetry_Int_Tables_number   1
_chemical_formula_structural   Ca2Al2SiO7
_chemical_formula_sum   'Ca48 Al48 Si24 O168'
_cell_volume   3659.24786795
_cell_formula_units_Z   24
loop_
 _symmetry_equiv_pos_site_id
 _symmetry_equiv_pos_as_xyz
  1  'x, y, z'
loop_
 _atom_type_symbol
 _atom_type_oxidation_number
  Ca2+  2.0
  Al0+  0.0
  Si0+  0.0
  O2-  -2.0
loop_
 _atom_site_type_symbol
 _atom_site_label
 _atom_site_symmetry_multiplicity
 _atom_site_fract_x
 _atom_site_fract_y
 _atom_site_fract_z
 _atom_site_occupancy
  Ca2+  Ca0  1  0.16512392  0.07733982  0.16706700  1
  Ca2+  Ca1  1  0.16337264  0.07774521  0.50327024  1
  Ca2+  Ca2  1  0.16627578  0.07170137  0.83580339  1
  Ca2+  Ca3  1  0.17861088  0.58135225  0.17615679  1
  Ca2+  Ca4  1  0.17751221  0.58447786  0.50614367  1
  Ca2+  Ca5  1  0.18205345  0.57570561  0.84228125  1
  Ca2+  Ca6  1  0.66150510  0.06658260  0.17075131  1
  Ca2+  Ca7  1  0.66517164  0.07362446  0.49993033  1
  Ca2+  Ca8  1  0.66921789  0.07476892  0.84172331  1
  Ca2+  Ca9  1  0.65620401  0.57804919  0.16900657  1
  Ca2+  Ca10  1  0.66534583  0.58691746  0.50285355  1
  Ca2+  Ca11  1  0.66824537  0.59032348  0.83720126  1
  Ca2+  Ca12  1  0.09763151  0.32978073  0.16460631  1
  Ca2+  Ca13  1  0.09143173  0.33272080  0.49097323  1
  Ca2+  Ca14  1  0.09379700  0.33531029  0.82892190  1
  Ca2+  Ca15  1  0.08185485  0.82539971  0.16016064  1
  Ca2+  Ca16  1  0.07926283  0.82884280  0.49538995  1
  Ca2+  Ca17  1  0.07552516  0.84022217  0.82888284  1
  Ca2+  Ca18  1  0.58018460  0.33923747  0.15688457  1
  Ca2+  Ca19  1  0.57601301  0.33907941  0.49627684  1
  Ca2+  Ca20  1  0.57035816  0.34476076  0.83305371  1
  Ca2+  Ca21  1  0.57635311  0.82556830  0.15937274  1
  Ca2+  Ca22  1  0.57745241  0.82057640  0.48966583  1
  Ca2+  Ca23  1  0.57931867  0.82433531  0.83237760  1
  Ca2+  Ca24  1  0.33345589  0.43092202  0.16907304  1
  Ca2+  Ca25  1  0.32690369  0.42871101  0.50516274  1
  Ca2+  Ca26  1  0.33500728  0.42391840  0.83781271  1
  Ca2+  Ca27  1  0.33505096  0.90902651  0.16953825  1
  Ca2+  Ca28  1  0.32846544  0.91351445  0.50353264  1
  Ca2+  Ca29  1  0.32364876  0.91204251  0.84117195  1
  Ca2+  Ca30  1  0.81809494  0.41554569  0.17136743  1
  Ca2+  Ca31  1  0.82661660  0.42592508  0.50394149  1
  Ca2+  Ca32  1  0.82688679  0.42809137  0.83825926  1
  Ca2+  Ca33  1  0.82111876  0.90505613  0.16581449  1
  Ca2+  Ca34  1  0.82727735  0.90797133  0.50296189  1
  Ca2+  Ca35  1  0.83087294  0.91115506  0.84148480  1
  Ca2+  Ca36  1  0.41739590  0.17687298  0.15982917  1
  Ca2+  Ca37  1  0.41081426  0.17657411  0.49808139  1
  Ca2+  Ca38  1  0.41300113  0.18081489  0.83063108  1
  Ca2+  Ca39  1  0.42240176  0.66736505  0.16238367  1
  Ca2+  Ca40  1  0.42100513  0.66424238  0.49403391  1
  Ca2+  Ca41  1  0.42633688  0.65616715  0.83324651  1
  Ca2+  Ca42  1  0.92193359  0.16794259  0.16586028  1
  Ca2+  Ca43  1  0.92500319  0.17235217  0.49207919  1
  Ca2+  Ca44  1  0.91766082  0.17146433  0.82981529  1
  Ca2+  Ca45  1  0.92644487  0.66634937  0.16325541  1
  Ca2+  Ca46  1  0.92226378  0.66548835  0.49932502  1
  Ca2+  Ca47  1  0.91407130  0.67735395  0.82694755  1
  Al0+  Al48  1  0.00195754  0.00176649  0.00053425  1
  Al0+  Al49  1  -0.00095194  0.00373274  0.32790038  1
  Al0+  Al50  1  -0.00263950  0.00168310  0.66460335  1
  Al0+  Al51  1  0.00036403  0.49741591  0.00229210  1
  Al0+  Al52  1  -0.00316388  0.49822698  0.32990926  1
  Al0+  Al53  1  -0.00313569  0.50045300  0.67430939  1
  Al0+  Al54  1  0.50097186  0.00017015  -0.00080154  1
  Al0+  Al55  1  0.49917600  0.00162457  0.33743237  1
  Al0+  Al56  1  0.50000049  0.00052775  0.66788534  1
  Al0+  Al57  1  0.50051710  0.49986100  -0.00073020  1
  Al0+  Al58  1  0.49866150  0.50028178  0.33854764  1
  Al0+  Al59  1  0.49919639  0.49787565  0.65874304  1
  Al0+  Al60  1  0.25101602  0.24744950  -0.00357289  1
  Al0+  Al61  1  0.25036506  0.24827354  0.32991291  1
  Al0+  Al62  1  0.25067546  0.24779655  0.66330476  1
  Al0+  Al63  1  0.25013590  0.74982852  0.00492629  1
  Al0+  Al64  1  0.24799470  0.75119827  0.33200674  1
  Al0+  Al65  1  0.24957807  0.74957188  0.67750258  1
  Al0+  Al66  1  0.75329922  0.24990390  0.00221547  1
  Al0+  Al67  1  0.74993931  0.24880957  0.33824379  1
  Al0+  Al68  1  0.75076893  0.24791832  0.66491864  1
  Al0+  Al69  1  0.75249893  0.75061517  -0.00169325  1
  Al0+  Al70  1  0.74839499  0.74899876  0.33488957  1
  Al0+  Al71  1  0.74924863  0.74983594  0.66187090  1
  Al0+  Al72  1  0.93290818  0.81951167  0.98753875  1
  Al0+  Al73  1  0.57018839  0.67937134  0.98450585  1
  Al0+  Al74  1  0.17886437  0.42638147  0.01578535  1
  Al0+  Al75  1  0.42834272  0.82349510  0.32044491  1
  Al0+  Al76  1  0.57066063  0.67751521  0.31717014  1
  Al0+  Al77  1  0.32244400  0.57092036  0.01720873  1
  Al0+  Al78  1  0.42679449  0.82339062  0.98367305  1
  Al0+  Al79  1  0.56893184  0.68069363  0.65152637  1
  Al0+  Al80  1  0.31921235  0.57417623  0.35044302  1
  Al0+  Al81  1  0.67802313  0.42857573  0.34834678  1
  Al0+  Al82  1  0.67888433  0.92816364  0.34849623  1
  Al0+  Al83  1  0.07016697  0.67777268  0.32181695  1
  Al0+  Al84  1  0.81868437  0.57246343  0.68066650  1
  Al0+  Al85  1  0.67961958  0.92861989  0.01246373  1
  Al0+  Al86  1  0.17893945  0.92945174  0.01518238  1
  Al0+  Al87  1  0.32380634  0.57083995  0.68362899  1
  Al0+  Al88  1  0.07165247  0.18075614  0.31716153  1
  Al0+  Al89  1  0.92991390  0.82208274  0.65185178  1
  Al0+  Al90  1  0.42955390  0.31882023  0.64978382  1
  Al0+  Al91  1  0.68102976  0.43089951  0.01076343  1
  Al0+  Al92  1  0.43051202  0.31946939  0.98737566  1
  Al0+  Al93  1  0.17776352  0.92992549  0.67842616  1
  Al0+  Al94  1  0.17897308  0.42769455  0.34657643  1
  Al0+  Al95  1  0.17850175  0.42737963  0.68017542  1
  Si0+  Si96  1  0.17648873  0.93068715  0.34688604  1
  Si0+  Si97  1  0.32064050  0.07159687  0.34815234  1
  Si0+  Si98  1  0.92685851  0.32275390  0.65183389  1
  Si0+  Si99  1  0.82264502  0.07122826  0.35153213  1
  Si0+  Si100  1  0.32219528  0.07121939  0.01603028  1
  Si0+  Si101  1  0.92522353  0.32121025  0.31571399  1
  Si0+  Si102  1  0.82039646  0.07170375  0.68167505  1
  Si0+  Si103  1  0.07036722  0.18076041  0.98184250  1
  Si0+  Si104  1  0.92653961  0.32139518  0.98351993  1
  Si0+  Si105  1  0.82352592  0.07280524  0.01758623  1
  Si0+  Si106  1  0.07328880  0.67473739  0.98298383  1
  Si0+  Si107  1  0.07199356  0.67758547  0.65424081  1
  Si0+  Si108  1  0.32263201  0.07172408  0.68325630  1
  Si0+  Si109  1  0.57429822  0.17510433  0.64859705  1
  Si0+  Si110  1  0.82326708  0.57386669  0.01769467  1
  Si0+  Si111  1  0.42518663  0.82463443  0.65194876  1
  Si0+  Si112  1  0.67951813  0.92912439  0.68145117  1
  Si0+  Si113  1  0.82276110  0.57236474  0.34983440  1
  Si0+  Si114  1  0.57273288  0.17869801  0.31910994  1
  Si0+  Si115  1  0.06870793  0.18083510  0.65168989  1
  Si0+  Si116  1  0.92792953  0.82302438  0.31697105  1
  Si0+  Si117  1  0.67902505  0.42589081  0.68208486  1
  Si0+  Si118  1  0.57548095  0.17743186  0.98448765  1
  Si0+  Si119  1  0.43087563  0.31911037  0.31779982  1
  O2-  O120  1  0.25967411  -0.00205798  0.06189894  1
  O2-  O121  1  0.25076655  -0.00141387  0.38895980  1
  O2-  O122  1  0.25744681  -0.00062090  0.72595896  1
  O2-  O123  1  0.24591952  0.50214316  0.06549712  1
  O2-  O124  1  0.24396126  0.50383011  0.39854924  1
  O2-  O125  1  0.24982217  0.49883952  0.73087945  1
  O2-  O126  1  0.75384587  0.00463084  0.05991537  1
  O2-  O127  1  0.75696296  0.00006815  0.39615867  1
  O2-  O128  1  0.74920353  0.00170839  0.72378947  1
  O2-  O129  1  0.75389690  0.50542748  0.06071672  1
  O2-  O130  1  0.75132496  0.50543440  0.39297272  1
  O2-  O131  1  0.74376341  0.49755242  0.72672329  1
  O2-  O132  1  -0.00066124  0.25823323  0.27107537  1
  O2-  O133  1  0.00370515  0.25759925  0.60992840  1
  O2-  O134  1  0.00247636  0.25535550  0.94078739  1
  O2-  O135  1  -0.00412862  0.75334436  0.27443071  1
  O2-  O136  1  0.00659225  0.74877778  0.60744987  1
  O2-  O137  1  0.00650239  0.74535366  0.93819195  1
  O2-  O138  1  0.50684841  0.25302782  0.27549572  1
  O2-  O139  1  0.50623568  0.24410942  0.60427826  1
  O2-  O140  1  0.50817479  0.24678655  0.94000765  1
  O2-  O141  1  0.49940705  0.75137597  0.26976835  1
  O2-  O142  1  0.49123555  0.75410485  0.60756996  1
  O2-  O143  1  0.49682477  0.74982654  0.93337167  1
  O2-  O144  1  0.06952244  0.17923424  0.08684299  1
  O2-  O145  1  0.06939408  0.17818163  0.43065268  1
  O2-  O146  1  0.06552200  0.17846087  0.75678253  1
  O2-  O147  1  0.06936702  0.67567534  0.08892653  1
  O2-  O148  1  0.06938295  0.68090166  0.43535221  1
  O2-  O149  1  0.06852643  0.67868783  0.75943936  1
  O2-  O150  1  0.57455592  0.17746095  0.09036321  1
  O2-  O151  1  0.57040687  0.17772483  0.42421300  1
  O2-  O152  1  0.57631585  0.17265343  0.75387087  1
  O2-  O153  1  0.57058913  0.67908396  0.09765617  1
  O2-  O154  1  0.57082736  0.67972488  0.43097336  1
  O2-  O155  1  0.57246702  0.68314831  0.76419827  1
  O2-  O156  1  0.18619210  0.42620066  0.23367321  1
  O2-  O157  1  0.17889295  0.42742097  0.56677271  1
  O2-  O158  1  0.18128946  0.42655297  0.90221535  1
  O2-  O159  1  0.17452203  0.93356012  0.24210948  1
  O2-  O160  1  0.17614553  0.93346507  0.56487127  1
  O2-  O161  1  0.17409972  0.93627979  0.90211611  1
  O2-  O162  1  0.67969365  0.42494406  0.23524380  1
  O2-  O163  1  0.68360256  0.42338739  0.57643455  1
  O2-  O164  1  0.68388145  0.42889092  0.89781383  1
  O2-  O165  1  0.68004631  0.93052263  0.23559636  1
  O2-  O166  1  0.68061577  0.93177442  0.57631618  1
  O2-  O167  1  0.68261577  0.93128008  0.89893564  1
  O2-  O168  1  0.43235911  0.31705181  0.10067636  1
  O2-  O169  1  0.43025386  0.31458899  0.42281801  1
  O2-  O170  1  0.43105989  0.31690214  0.76292952  1
  O2-  O171  1  0.43184485  0.82619930  0.09683626  1
  O2-  O172  1  0.42964419  0.82567796  0.43450059  1
  O2-  O173  1  0.42919047  0.83035740  0.75676991  1
  O2-  O174  1  0.92047194  0.31678865  0.08804836  1
  O2-  O175  1  0.92285771  0.31738877  0.42149684  1
  O2-  O176  1  0.92174862  0.31732309  0.75662186  1
  O2-  O177  1  0.93300804  0.81804195  0.10067582  1
  O2-  O178  1  0.93043271  0.82480209  0.42280396  1
  O2-  O179  1  0.92996425  0.82425487  0.76481330  1
  O2-  O180  1  0.32114715  0.07471755  0.24335131  1
  O2-  O181  1  0.32077466  0.07339680  0.57739758  1
  O2-  O182  1  0.31724195  0.07418756  0.91047523  1
  O2-  O183  1  0.32161128  0.57235685  0.23740173  1
  O2-  O184  1  0.32225052  0.57198184  0.57014228  1
  O2-  O185  1  0.32449364  0.56631663  0.90369230  1
  O2-  O186  1  0.82213698  0.07349896  0.24625542  1
  O2-  O187  1  0.82114923  0.07351997  0.57689987  1
  O2-  O188  1  0.82335467  0.07448560  0.91152229  1
  O2-  O189  1  0.82540860  0.57088520  0.24445447  1
  O2-  O190  1  0.82016384  0.56966374  0.56760616  1
  O2-  O191  1  0.82300905  0.57308922  0.91189795  1
  O2-  O192  1  0.03691567  0.08638118  0.26013178  1
  O2-  O193  1  0.03377812  0.09248713  0.60168997  1
  O2-  O194  1  0.03742517  0.09107331  0.93319443  1
  O2-  O195  1  0.03912843  0.58200524  0.26576071  1
  O2-  O196  1  0.04156027  0.58485612  0.60861440  1
  O2-  O197  1  0.04702270  0.58061390  0.93832037  1
  O2-  O198  1  0.53990109  0.08890107  0.27124052  1
  O2-  O199  1  0.54750129  0.08167409  0.60166980  1
  O2-  O200  1  0.54959085  0.08500166  0.93671566  1
  O2-  O201  1  0.54159918  0.57771465  0.26764588  1
  O2-  O202  1  0.54369319  0.58268554  0.59791810  1
  O2-  O203  1  0.54387579  0.58050358  0.93099819  1
  O2-  O204  1  0.16860011  0.20750722  0.26150743  1
  O2-  O205  1  0.16226332  0.20023155  0.60427575  1
  O2-  O206  1  0.16251720  0.20411992  0.93315838  1
  O2-  O207  1  0.16444409  0.71062281  0.26571679  1
  O2-  O208  1  0.16721726  0.70185815  0.61095312  1
  O2-  O209  1  0.16796825  0.69871538  0.94056637  1
  O2-  O210  1  0.66684276  0.20038834  0.27416549  1
  O2-  O211  1  0.66843450  0.19932821  0.60185134  1
  O2-  O212  1  0.67053029  0.20045675  0.93982346  1
  O2-  O213  1  0.67110428  0.70310152  0.26710158  1
  O2-  O214  1  0.66393642  0.71443936  0.59595326  1
  O2-  O215  1  0.66941714  0.70937964  0.93336643  1
  O2-  O216  1  0.07621229  0.44401280  0.06513189  1
  O2-  O217  1  0.07451312  0.44420026  0.39125725  1
  O2-  O218  1  0.07804763  0.44886269  0.73232858  1
  O2-  O219  1  0.08549195  0.96903032  0.07010545  1
  O2-  O220  1  0.08567222  0.96393445  0.39366385  1
  O2-  O221  1  0.08277913  0.96899069  0.73148394  1
  O2-  O222  1  0.58491965  0.45863668  0.06549746  1
  O2-  O223  1  0.58209787  0.45684395  0.40362191  1
  O2-  O224  1  0.58327283  0.44855384  0.72213013  1
  O2-  O225  1  0.58393931  0.96140218  0.06710338  1
  O2-  O226  1  0.58486214  0.96569415  0.40392572  1
  O2-  O227  1  0.58727899  0.95617385  0.72833316  1
  O2-  O228  1  0.20945987  0.32654452  0.06428792  1
  O2-  O229  1  0.21131651  0.32898561  0.39791081  1
  O2-  O230  1  0.20599020  0.32653580  0.72950319  1
  O2-  O231  1  0.20089909  0.83132299  0.06860633  1
  O2-  O232  1  0.20017687  0.83887141  0.39488901  1
  O2-  O233  1  0.20023859  0.83378308  0.73581107  1
  O2-  O234  1  0.71278422  0.33394955  0.06532384  1
  O2-  O235  1  0.70967030  0.33200534  0.40313162  1
  O2-  O236  1  0.70723029  0.33253796  0.72751959  1
  O2-  O237  1  0.71457619  0.83389859  0.06687417  1
  O2-  O238  1  0.70891686  0.83180828  0.40338818  1
  O2-  O239  1  0.71074315  0.83872327  0.72723170  1
  O2-  O240  1  0.45584304  0.41236554  0.27408358  1
  O2-  O241  1  0.46000406  0.41309057  0.59218078  1
  O2-  O242  1  0.46281235  0.41417889  0.93195962  1
  O2-  O243  1  0.45564824  0.92367954  0.26954308  1
  O2-  O244  1  0.45101559  0.91879465  0.60518501  1
  O2-  O245  1  0.45516298  0.92283748  0.93102231  1
  O2-  O246  1  0.94046818  0.41626531  0.27021636  1
  O2-  O247  1  0.94769530  0.41703401  0.60717320  1
  O2-  O248  1  0.94837207  0.41528115  0.93784182  1
  O2-  O249  1  0.95228228  0.91664117  0.27097872  1
  O2-  O250  1  0.95761628  0.91962571  0.59710127  1
  O2-  O251  1  0.96204085  0.91818357  0.93509824  1
  O2-  O252  1  0.34234911  0.28403147  0.26957307  1
  O2-  O253  1  0.33447677  0.28278979  0.59476349  1
  O2-  O254  1  0.33647258  0.28335721  0.93110451  1
  O2-  O255  1  0.32802882  0.80064884  0.26998155  1
  O2-  O256  1  0.32876486  0.80206790  0.61033033  1
  O2-  O257  1  0.32489073  0.80008865  0.93586284  1
  O2-  O258  1  0.83406240  0.28645985  0.26883600  1
  O2-  O259  1  0.83837155  0.28787804  0.60119891  1
  O2-  O260  1  0.83818608  0.28752850  0.93203074  1
  O2-  O261  1  0.83365188  0.79716846  0.27361173  1
  O2-  O262  1  0.83489697  0.78888277  0.59684205  1
  O2-  O263  1  0.83677265  0.79024788  0.93176696  1
  O2-  O264  1  0.41858007  0.05478492  0.05951815  1
  O2-  O265  1  0.41170247  0.04797810  0.39918542  1
  O2-  O266  1  0.41816812  0.05312630  0.72837620  1
  O2-  O267  1  0.41907515  0.53669952  0.06965075  1
  O2-  O268  1  0.41573485  0.54089454  0.40371014  1
  O2-  O269  1  0.42218405  0.53597498  0.73273535  1
  O2-  O270  1  0.91671183  0.04713862  0.06340923  1
  O2-  O271  1  0.91774054  0.04820463  0.39648742  1
  O2-  O272  1  0.91153482  0.04459552  0.73037891  1
  O2-  O273  1  0.91631932  0.54611542  0.06347909  1
  O2-  O274  1  0.91452258  0.54320202  0.39833325  1
  O2-  O275  1  0.91299626  0.54204611  0.73895664  1
  O2-  O276  1  0.28944319  0.16172466  0.06416487  1
  O2-  O277  1  0.28818317  0.16103425  0.39752761  1
  O2-  O278  1  0.29116226  0.16273459  0.73063951  1
  O2-  O279  1  0.29844692  0.67038636  0.06890156  1
  O2-  O280  1  0.29074465  0.67329369  0.40284959  1
  O2-  O281  1  0.29972025  0.66923570  0.73830587  1
  O2-  O282  1  0.79983046  0.16591090  0.06510077  1
  O2-  O283  1  0.79495465  0.16291714  0.40072633  1
  O2-  O284  1  0.79327703  0.16330233  0.73109542  1
  O2-  O285  1  0.80032171  0.66741934  0.06343849  1
  O2-  O286  1  0.80009255  0.66632095  0.39640354  1
  O2-  O287  1  0.78708583  0.66938207  0.73365886  1
