# generated using pymatgen
data_Ca2Al2SiO7
_symmetry_space_group_name_H-M   'P 1'
_cell_length_a   15.46737511
_cell_length_b   15.46860136
_cell_length_c   15.29049761
_cell_angle_alpha   89.99542430
_cell_angle_beta   90.00169863
_cell_angle_gamma   89.95523309
_symmetry_Int_Tables_number   1
_chemical_formula_structural   Ca2Al2SiO7
_chemical_formula_sum   'Ca48 Al48 Si24 O168'
_cell_volume   3658.38283365
_cell_formula_units_Z   24
loop_
 _symmetry_equiv_pos_site_id
 _symmetry_equiv_pos_as_xyz
  1  'x, y, z'
loop_
 _atom_type_symbol
 _atom_type_oxidation_number
  Ca2+  2.0
  Al0+  0.0
  Si0+  0.0
  O2-  -2.0
loop_
 _atom_site_type_symbol
 _atom_site_label
 _atom_site_symmetry_multiplicity
 _atom_site_fract_x
 _atom_site_fract_y
 _atom_site_fract_z
 _atom_site_occupancy
  Ca2+  Ca0  1  0.16567021  0.08808513  0.17228520  1
  Ca2+  Ca1  1  0.16504157  0.08291854  0.50396575  1
  Ca2+  Ca2  1  0.16541134  0.08167448  0.84151649  1
  Ca2+  Ca3  1  0.16150539  0.57977954  0.17508636  1
  Ca2+  Ca4  1  0.16762759  0.58504477  0.50332048  1
  Ca2+  Ca5  1  0.17162803  0.59173413  0.83552974  1
  Ca2+  Ca6  1  0.66455798  0.07685013  0.17777937  1
  Ca2+  Ca7  1  0.65741090  0.07364683  0.50424847  1
  Ca2+  Ca8  1  0.66053661  0.07822224  0.83210355  1
  Ca2+  Ca9  1  0.67776100  0.58707880  0.16941059  1
  Ca2+  Ca10  1  0.67900970  0.58941589  0.50669601  1
  Ca2+  Ca11  1  0.67700517  0.59432505  0.83773227  1
  Ca2+  Ca12  1  0.07626517  0.33180020  0.16767020  1
  Ca2+  Ca13  1  0.07982526  0.33259564  0.48929651  1
  Ca2+  Ca14  1  0.07815834  0.33222129  0.83720464  1
  Ca2+  Ca15  1  0.07798180  0.82034877  0.16459237  1
  Ca2+  Ca16  1  0.06970973  0.82148231  0.49507582  1
  Ca2+  Ca17  1  0.07511847  0.82106080  0.82614719  1
  Ca2+  Ca18  1  0.58205456  0.32725784  0.16125577  1
  Ca2+  Ca19  1  0.58132184  0.32456572  0.49780424  1
  Ca2+  Ca20  1  0.57288994  0.33316165  0.82371971  1
  Ca2+  Ca21  1  0.57696728  0.83185280  0.16463362  1
  Ca2+  Ca22  1  0.58617913  0.83077115  0.49621223  1
  Ca2+  Ca23  1  0.58353117  0.82446562  0.83063912  1
  Ca2+  Ca24  1  0.32696004  0.41579269  0.17227119  1
  Ca2+  Ca25  1  0.32462109  0.41871341  0.50814357  1
  Ca2+  Ca26  1  0.33844324  0.41937425  0.83524054  1
  Ca2+  Ca27  1  0.33612107  0.91394139  0.17345292  1
  Ca2+  Ca28  1  0.33334267  0.91383221  0.50175727  1
  Ca2+  Ca29  1  0.33404609  0.91712675  0.83952859  1
  Ca2+  Ca30  1  0.84576410  0.42531752  0.17043087  1
  Ca2+  Ca31  1  0.83946422  0.42806607  0.50144546  1
  Ca2+  Ca32  1  0.83458761  0.42785124  0.84027071  1
  Ca2+  Ca33  1  0.82737403  0.91595992  0.17706575  1
  Ca2+  Ca34  1  0.82510741  0.90976684  0.50537963  1
  Ca2+  Ca35  1  0.82862484  0.91083838  0.83198534  1
  Ca2+  Ca36  1  0.42215816  0.17265395  0.16462072  1
  Ca2+  Ca37  1  0.42621648  0.16915158  0.49971843  1
  Ca2+  Ca38  1  0.42006586  0.18027337  0.82780403  1
  Ca2+  Ca39  1  0.42169760  0.67945939  0.15806113  1
  Ca2+  Ca40  1  0.42140192  0.66785698  0.49856606  1
  Ca2+  Ca41  1  0.42886988  0.66448648  0.82636497  1
  Ca2+  Ca42  1  0.92443449  0.17878364  0.16101570  1
  Ca2+  Ca43  1  0.92210384  0.17547223  0.48846213  1
  Ca2+  Ca44  1  0.91769718  0.17135637  0.83269812  1
  Ca2+  Ca45  1  0.92190416  0.66087441  0.16639193  1
  Ca2+  Ca46  1  0.91573360  0.67053880  0.49427619  1
  Ca2+  Ca47  1  0.92381521  0.66194928  0.82606709  1
  Al0+  Al48  1  0.00050452  -0.00092894  -0.00022222  1
  Al0+  Al49  1  0.00067918  -0.00125527  0.32884674  1
  Al0+  Al50  1  -0.00176637  -0.00086492  0.66562633  1
  Al0+  Al51  1  0.00174330  0.49902048  -0.00409619  1
  Al0+  Al52  1  0.00202306  0.49922563  0.33730098  1
  Al0+  Al53  1  0.00213048  0.49726277  0.66884990  1
  Al0+  Al54  1  0.49824977  0.00100678  -0.00106133  1
  Al0+  Al55  1  0.49930341  0.00060774  0.33076029  1
  Al0+  Al56  1  0.49837380  0.00078116  0.67146511  1
  Al0+  Al57  1  0.50153708  0.50058692  -0.00378132  1
  Al0+  Al58  1  0.50131269  0.50047287  0.33378005  1
  Al0+  Al59  1  0.49773722  0.50065852  0.65963541  1
  Al0+  Al60  1  0.25173959  0.24932735  -0.00554516  1
  Al0+  Al61  1  0.25134392  0.25043633  0.33720947  1
  Al0+  Al62  1  0.24943350  0.24988358  0.66603791  1
  Al0+  Al63  1  0.24891232  0.75222905  -0.00466071  1
  Al0+  Al64  1  0.25062789  0.75131291  0.32798792  1
  Al0+  Al65  1  0.24890177  0.74928478  0.66889134  1
  Al0+  Al66  1  0.75108833  0.24945225  -0.00359340  1
  Al0+  Al67  1  0.74947015  0.25057674  0.32500019  1
  Al0+  Al68  1  0.75005625  0.24821438  0.66364985  1
  Al0+  Al69  1  0.74968245  0.75145990  0.00512737  1
  Al0+  Al70  1  0.74949513  0.75055093  0.33738114  1
  Al0+  Al71  1  0.74831221  0.75117785  0.67009025  1
  Al0+  Al72  1  0.57227409  0.68043055  0.98597959  1
  Al0+  Al73  1  0.92527060  0.82035732  0.31747988  1
  Al0+  Al74  1  0.42705418  0.32244732  0.64896147  1
  Al0+  Al75  1  0.57116509  0.17789660  0.65199168  1
  Al0+  Al76  1  0.06973984  0.67821856  0.98585766  1
  Al0+  Al77  1  0.07103461  0.17779545  0.98468478  1
  Al0+  Al78  1  0.56963372  0.17971283  0.31922989  1
  Al0+  Al79  1  0.07023371  0.67899605  0.31883411  1
  Al0+  Al80  1  0.42879907  0.82289152  0.98365207  1
  Al0+  Al81  1  0.32028725  0.57096463  0.68051852  1
  Al0+  Al82  1  0.43039136  0.81979969  0.32197301  1
  Al0+  Al83  1  0.67888009  0.93167394  0.34726617  1
  Al0+  Al84  1  0.43034316  0.32136145  0.98781169  1
  Al0+  Al85  1  0.92853472  0.32150389  0.98261839  1
  Al0+  Al86  1  0.07399613  0.17791340  0.32058219  1
  Al0+  Al87  1  0.81942952  0.56815972  0.34727055  1
  Al0+  Al88  1  0.92764998  0.82028379  0.65239988  1
  Al0+  Al89  1  0.07209076  0.67660894  0.65083447  1
  Al0+  Al90  1  0.18199757  0.42993957  0.34642972  1
  Al0+  Al91  1  0.82175610  0.56984166  0.01467331  1
  Al0+  Al92  1  0.92893801  0.32216035  0.31949512  1
  Al0+  Al93  1  0.82043177  0.56944706  0.68092027  1
  Al0+  Al94  1  0.67767711  0.93002417  0.68268906  1
  Al0+  Al95  1  0.57113165  0.68004705  0.65186059  1
  Si0+  Si96  1  0.07000933  0.17791036  0.65283851  1
  Si0+  Si97  1  0.92717485  0.82245929  0.98452960  1
  Si0+  Si98  1  0.82285450  0.07236677  0.01575004  1
  Si0+  Si99  1  0.17863880  0.42481989  0.68717227  1
  Si0+  Si100  1  0.32391829  0.57513600  0.34792385  1
  Si0+  Si101  1  0.18242006  0.42886781  0.01448617  1
  Si0+  Si102  1  0.32282377  0.57298702  0.01447502  1
  Si0+  Si103  1  0.17739134  0.92991994  0.68216018  1
  Si0+  Si104  1  0.67819965  0.42602276  0.68069034  1
  Si0+  Si105  1  0.57351986  0.67675344  0.31733267  1
  Si0+  Si106  1  0.42705374  0.82255276  0.65152218  1
  Si0+  Si107  1  0.42809826  0.32320429  0.31779854  1
  Si0+  Si108  1  0.32040993  0.07037426  0.34933383  1
  Si0+  Si109  1  0.67462840  0.42479971  0.34987418  1
  Si0+  Si110  1  0.57293443  0.17756981  0.98346113  1
  Si0+  Si111  1  0.31897480  0.07130072  0.68362346  1
  Si0+  Si112  1  0.82303687  0.07352710  0.34779893  1
  Si0+  Si113  1  0.82333915  0.07304062  0.68387372  1
  Si0+  Si114  1  0.67692387  0.42592248  0.01524336  1
  Si0+  Si115  1  0.17844469  0.92842716  0.01701973  1
  Si0+  Si116  1  0.17830812  0.92738581  0.34858008  1
  Si0+  Si117  1  0.92899478  0.32027879  0.65175810  1
  Si0+  Si118  1  0.67875547  0.93230010  0.01684119  1
  Si0+  Si119  1  0.31958053  0.07108975  0.01645191  1
  O2-  O120  1  0.24990758  -0.00056362  0.05970663  1
  O2-  O121  1  0.24630078  0.00199704  0.39125168  1
  O2-  O122  1  0.24824780  0.00044411  0.72628346  1
  O2-  O123  1  0.25141549  0.50237096  0.05694370  1
  O2-  O124  1  0.25749034  0.50434811  0.39192102  1
  O2-  O125  1  0.24589885  0.49613440  0.72925201  1
  O2-  O126  1  0.74983462  0.00363387  0.05839821  1
  O2-  O127  1  0.75555474  0.00494800  0.39394963  1
  O2-  O128  1  0.75341644  0.00523819  0.72813233  1
  O2-  O129  1  0.74676261  0.49345712  0.05959743  1
  O2-  O130  1  0.74363362  0.49338064  0.39323845  1
  O2-  O131  1  0.74457545  0.49525062  0.72763042  1
  O2-  O132  1  -0.00075615  0.24693712  0.27164085  1
  O2-  O133  1  0.00000945  0.24871758  0.61062206  1
  O2-  O134  1  -0.00217980  0.24660566  0.93262387  1
  O2-  O135  1  -0.00341077  0.74828005  0.26730536  1
  O2-  O136  1  -0.00447962  0.74437866  0.60281825  1
  O2-  O137  1  -0.00752725  0.75081834  0.94065657  1
  O2-  O138  1  0.49999322  0.25891010  0.27237490  1
  O2-  O139  1  0.50158501  0.25183227  0.60170350  1
  O2-  O140  1  0.50948377  0.25144371  0.94111720  1
  O2-  O141  1  0.50171182  0.74280476  0.27455766  1
  O2-  O142  1  0.49589551  0.75527031  0.60657734  1
  O2-  O143  1  0.49781334  0.74898498  0.93402855  1
  O2-  O144  1  0.07174674  0.17932197  0.09759055  1
  O2-  O145  1  0.07357284  0.17914957  0.43479509  1
  O2-  O146  1  0.06982105  0.17689879  0.75777156  1
  O2-  O147  1  0.07111641  0.67854597  0.09863836  1
  O2-  O148  1  0.07178597  0.68165006  0.43184264  1
  O2-  O149  1  0.07215630  0.68090910  0.76473550  1
  O2-  O150  1  0.57017887  0.17550962  0.08919870  1
  O2-  O151  1  0.56564498  0.17761279  0.43172901  1
  O2-  O152  1  0.56801701  0.17904792  0.76586484  1
  O2-  O153  1  0.57132178  0.68297913  0.09979144  1
  O2-  O154  1  0.57300712  0.67782285  0.42293256  1
  O2-  O155  1  0.57128754  0.68170376  0.76480308  1
  O2-  O156  1  0.18410200  0.42875850  0.23276747  1
  O2-  O157  1  0.17951290  0.42054945  0.58176838  1
  O2-  O158  1  0.18402747  0.42756628  0.90941731  1
  O2-  O159  1  0.18164137  0.92640902  0.24353008  1
  O2-  O160  1  0.17851310  0.93264006  0.57700613  1
  O2-  O161  1  0.17845043  0.93066527  0.91166995  1
  O2-  O162  1  0.66960598  0.42617075  0.24445026  1
  O2-  O163  1  0.68289511  0.42417380  0.57521236  1
  O2-  O164  1  0.67627769  0.42474661  0.90977957  1
  O2-  O165  1  0.67737368  0.93393694  0.23366291  1
  O2-  O166  1  0.67602276  0.93234737  0.56980916  1
  O2-  O167  1  0.67879387  0.93295507  0.91181127  1
  O2-  O168  1  0.42897070  0.31752582  0.10113493  1
  O2-  O169  1  0.42727964  0.32024824  0.42284414  1
  O2-  O170  1  0.42730819  0.31951840  0.76288710  1
  O2-  O171  1  0.43095812  0.82409913  0.09735591  1
  O2-  O172  1  0.42949359  0.82016322  0.43496882  1
  O2-  O173  1  0.42728730  0.82245895  0.75694182  1
  O2-  O174  1  0.93187216  0.32143648  0.09570693  1
  O2-  O175  1  0.93125652  0.32056605  0.43365479  1
  O2-  O176  1  0.92946330  0.31908613  0.75672003  1
  O2-  O177  1  0.92910849  0.82495469  0.08983842  1
  O2-  O178  1  0.92600523  0.81981449  0.43079165  1
  O2-  O179  1  0.93170469  0.82288739  0.76633904  1
  O2-  O180  1  0.32124531  0.07063550  0.24401066  1
  O2-  O181  1  0.31785213  0.07112845  0.57839262  1
  O2-  O182  1  0.31873790  0.07042100  0.91121589  1
  O2-  O183  1  0.32429741  0.57437418  0.24197254  1
  O2-  O184  1  0.31816077  0.57128185  0.56732536  1
  O2-  O185  1  0.32233147  0.57148862  0.90947911  1
  O2-  O186  1  0.82019889  0.07204916  0.24190578  1
  O2-  O187  1  0.82747964  0.07431698  0.57886069  1
  O2-  O188  1  0.82309285  0.07126277  0.91060204  1
  O2-  O189  1  0.81876708  0.56715817  0.23392980  1
  O2-  O190  1  0.82071347  0.56770682  0.56786889  1
  O2-  O191  1  0.82098635  0.56967910  0.90153098  1
  O2-  O192  1  0.05247443  0.07830623  0.26831390  1
  O2-  O193  1  0.04357325  0.08630717  0.60498578  1
  O2-  O194  1  0.04421002  0.07834907  0.93245160  1
  O2-  O195  1  0.04340332  0.57994796  0.26815935  1
  O2-  O196  1  0.05142186  0.57447067  0.60364795  1
  O2-  O197  1  0.04369906  0.58191250  0.93058425  1
  O2-  O198  1  0.53232578  0.08659775  0.26294495  1
  O2-  O199  1  0.53553636  0.08082355  0.60071828  1
  O2-  O200  1  0.54043877  0.08692206  0.93644983  1
  O2-  O201  1  0.55269695  0.58172242  0.27188353  1
  O2-  O202  1  0.54190601  0.58449571  0.59618859  1
  O2-  O203  1  0.54868872  0.58123365  0.93346586  1
  O2-  O204  1  0.17240497  0.20814925  0.26868648  1
  O2-  O205  1  0.16236497  0.20408103  0.60654815  1
  O2-  O206  1  0.16847454  0.20722605  0.93056121  1
  O2-  O207  1  0.16764514  0.70918863  0.26448654  1
  O2-  O208  1  0.16930906  0.71023704  0.59919626  1
  O2-  O209  1  0.16491729  0.71228626  0.93147919  1
  O2-  O210  1  0.66620540  0.20429821  0.26267250  1
  O2-  O211  1  0.67080380  0.20077733  0.59915093  1
  O2-  O212  1  0.66826661  0.19483454  0.93889290  1
  O2-  O213  1  0.66481925  0.70700791  0.27111606  1
  O2-  O214  1  0.66651955  0.71340808  0.59874301  1
  O2-  O215  1  0.66976687  0.71422652  0.93437692  1
  O2-  O216  1  0.08977425  0.45544424  0.06006163  1
  O2-  O217  1  0.08688190  0.45909713  0.40342917  1
  O2-  O218  1  0.08445579  0.44733073  0.73301750  1
  O2-  O219  1  0.08661328  0.95591319  0.06460907  1
  O2-  O220  1  0.08558861  0.95238465  0.39579822  1
  O2-  O221  1  0.08632228  0.95947804  0.73043602  1
  O2-  O222  1  0.58323000  0.45140882  0.06234951  1
  O2-  O223  1  0.58092263  0.44897064  0.39784733  1
  O2-  O224  1  0.58208897  0.44956524  0.72157431  1
  O2-  O225  1  0.58624329  0.96162948  0.06289229  1
  O2-  O226  1  0.58241067  0.96543134  0.40027593  1
  O2-  O227  1  0.58163062  0.96214011  0.73882142  1
  O2-  O228  1  0.21414278  0.33736945  0.06073845  1
  O2-  O229  1  0.21269517  0.33394677  0.40350041  1
  O2-  O230  1  0.20678399  0.33183862  0.73450819  1
  O2-  O231  1  0.20676560  0.83661079  0.06429161  1
  O2-  O232  1  0.21181383  0.83778134  0.39686503  1
  O2-  O233  1  0.20526742  0.83871871  0.73030133  1
  O2-  O234  1  0.70023829  0.33047269  0.06014859  1
  O2-  O235  1  0.69998928  0.32987812  0.39348113  1
  O2-  O236  1  0.70332153  0.33202354  0.72755693  1
  O2-  O237  1  0.70570404  0.84119877  0.06557210  1
  O2-  O238  1  0.70648333  0.83463761  0.40142235  1
  O2-  O239  1  0.70948546  0.83519664  0.73927355  1
  O2-  O240  1  0.44776778  0.41888281  0.27331618  1
  O2-  O241  1  0.45095739  0.42007917  0.59454826  1
  O2-  O242  1  0.45593315  0.41830208  0.93297605  1
  O2-  O243  1  0.46156225  0.91520168  0.26597453  1
  O2-  O244  1  0.45004944  0.91762847  0.60806290  1
  O2-  O245  1  0.45731288  0.92155733  0.93130782  1
  O2-  O246  1  0.96456237  0.41756150  0.26669159  1
  O2-  O247  1  0.95899166  0.41096806  0.60457992  1
  O2-  O248  1  0.96271185  0.41656081  0.92772089  1
  O2-  O249  1  0.95334040  0.91884484  0.26508712  1
  O2-  O250  1  0.95844320  0.91832371  0.59919456  1
  O2-  O251  1  0.95541559  0.91458601  0.93719738  1
  O2-  O252  1  0.33682064  0.29161194  0.27116747  1
  O2-  O253  1  0.32939808  0.28864703  0.59743597  1
  O2-  O254  1  0.33769546  0.28544205  0.93031509  1
  O2-  O255  1  0.33467303  0.79283645  0.26431482  1
  O2-  O256  1  0.33329680  0.79712268  0.60630225  1
  O2-  O257  1  0.32885529  0.80047334  0.93278149  1
  O2-  O258  1  0.83055517  0.29984526  0.26425814  1
  O2-  O259  1  0.83766738  0.29357181  0.60403419  1
  O2-  O260  1  0.82946864  0.29511896  0.92961645  1
  O2-  O261  1  0.82643944  0.79294140  0.26545254  1
  O2-  O262  1  0.82790605  0.79594791  0.60287659  1
  O2-  O263  1  0.83197192  0.80052106  0.94163323  1
  O2-  O264  1  0.41216522  0.04443806  0.06389296  1
  O2-  O265  1  0.41000442  0.03752665  0.39748829  1
  O2-  O266  1  0.40956538  0.04432580  0.73348857  1
  O2-  O267  1  0.41493588  0.54550259  0.06161256  1
  O2-  O268  1  0.41899438  0.55301993  0.39321388  1
  O2-  O269  1  0.41814296  0.53976371  0.73303892  1
  O2-  O270  1  0.91426438  0.04318164  0.06322930  1
  O2-  O271  1  0.91840367  0.05073394  0.39210068  1
  O2-  O272  1  0.91617416  0.04556695  0.73230073  1
  O2-  O273  1  0.91948130  0.53682644  0.06611530  1
  O2-  O274  1  0.91533558  0.53699657  0.40211766  1
  O2-  O275  1  0.91757182  0.53669301  0.73380476  1
  O2-  O276  1  0.29107660  0.16296919  0.06368844  1
  O2-  O277  1  0.29588630  0.16197505  0.39869765  1
  O2-  O278  1  0.28977012  0.16278533  0.73136097  1
  O2-  O279  1  0.29509336  0.66630277  0.05925189  1
  O2-  O280  1  0.29586354  0.66803577  0.39398989  1
  O2-  O281  1  0.29048154  0.66764963  0.73663140  1
  O2-  O282  1  0.79801700  0.16579630  0.06169096  1
  O2-  O283  1  0.79776275  0.16846197  0.39138625  1
  O2-  O284  1  0.79714953  0.16657782  0.73107660  1
  O2-  O285  1  0.79100450  0.66680141  0.06897541  1
  O2-  O286  1  0.78776580  0.66445446  0.40149184  1
  O2-  O287  1  0.79015969  0.66603888  0.73466944  1
