# generated using pymatgen
data_Ca2Al2SiO7
_symmetry_space_group_name_H-M   'P 1'
_cell_length_a   15.45487941
_cell_length_b   15.45481138
_cell_length_c   15.28144503
_cell_angle_alpha   90.01238149
_cell_angle_beta   89.99379706
_cell_angle_gamma   90.01912874
_symmetry_Int_Tables_number   1
_chemical_formula_structural   Ca2Al2SiO7
_chemical_formula_sum   'Ca48 Al48 Si24 O168'
_cell_volume   3650.00715976
_cell_formula_units_Z   24
loop_
 _symmetry_equiv_pos_site_id
 _symmetry_equiv_pos_as_xyz
  1  'x, y, z'
loop_
 _atom_type_symbol
 _atom_type_oxidation_number
  Ca2+  2.0
  Al0+  0.0
  Si0+  0.0
  O2-  -2.0
loop_
 _atom_site_type_symbol
 _atom_site_label
 _atom_site_symmetry_multiplicity
 _atom_site_fract_x
 _atom_site_fract_y
 _atom_site_fract_z
 _atom_site_occupancy
  Ca2+  Ca0  1  0.15697662  0.07634048  0.16815631  1
  Ca2+  Ca1  1  0.17237271  0.07186473  0.50649055  1
  Ca2+  Ca2  1  0.16858025  0.07718618  0.83456389  1
  Ca2+  Ca3  1  0.17311253  0.57553219  0.17082182  1
  Ca2+  Ca4  1  0.17035913  0.57462052  0.50368313  1
  Ca2+  Ca5  1  0.18104842  0.58510217  0.83680319  1
  Ca2+  Ca6  1  0.67123792  0.08126705  0.17267186  1
  Ca2+  Ca7  1  0.67518207  0.08620952  0.50507840  1
  Ca2+  Ca8  1  0.66662432  0.07245738  0.83387241  1
  Ca2+  Ca9  1  0.67433296  0.57468796  0.17533991  1
  Ca2+  Ca10  1  0.67399702  0.57540607  0.50264747  1
  Ca2+  Ca11  1  0.66819546  0.57859455  0.83060726  1
  Ca2+  Ca12  1  0.07893014  0.32845141  0.15703918  1
  Ca2+  Ca13  1  0.08467943  0.33102270  0.49343972  1
  Ca2+  Ca14  1  0.07926064  0.32759751  0.83272652  1
  Ca2+  Ca15  1  0.07249114  0.84177514  0.16277291  1
  Ca2+  Ca16  1  0.08138806  0.83449133  0.49331122  1
  Ca2+  Ca17  1  0.08133192  0.84097144  0.83072193  1
  Ca2+  Ca18  1  0.58012549  0.33091761  0.16587957  1
  Ca2+  Ca19  1  0.57679494  0.33641022  0.49291878  1
  Ca2+  Ca20  1  0.57449357  0.33586123  0.82543979  1
  Ca2+  Ca21  1  0.58504205  0.83056098  0.15986304  1
  Ca2+  Ca22  1  0.57926819  0.83938721  0.50072506  1
  Ca2+  Ca23  1  0.58110836  0.83553733  0.82427130  1
  Ca2+  Ca24  1  0.33424880  0.41432775  0.16937502  1
  Ca2+  Ca25  1  0.33351177  0.41405695  0.50446934  1
  Ca2+  Ca26  1  0.34517883  0.42553079  0.83718749  1
  Ca2+  Ca27  1  0.31729427  0.91856983  0.17229914  1
  Ca2+  Ca28  1  0.32576618  0.92025216  0.51212036  1
  Ca2+  Ca29  1  0.32583257  0.91760106  0.83647547  1
  Ca2+  Ca30  1  0.83182658  0.42004455  0.17885745  1
  Ca2+  Ca31  1  0.82050191  0.42318490  0.50781183  1
  Ca2+  Ca32  1  0.83077787  0.41728692  0.83469061  1
  Ca2+  Ca33  1  0.83447255  0.91884065  0.17199973  1
  Ca2+  Ca34  1  0.83176924  0.92767942  0.50527568  1
  Ca2+  Ca35  1  0.82482346  0.91757963  0.83753303  1
  Ca2+  Ca36  1  0.42077489  0.17805803  0.16425531  1
  Ca2+  Ca37  1  0.42355752  0.17249058  0.49334479  1
  Ca2+  Ca38  1  0.41204989  0.17658805  0.82378050  1
  Ca2+  Ca39  1  0.41841357  0.66357185  0.16184458  1
  Ca2+  Ca40  1  0.41205438  0.67109400  0.50278087  1
  Ca2+  Ca41  1  0.41384801  0.66968597  0.82377869  1
  Ca2+  Ca42  1  0.91989173  0.17109730  0.15911434  1
  Ca2+  Ca43  1  0.91314957  0.16170405  0.49549475  1
  Ca2+  Ca44  1  0.92006173  0.16421031  0.83348904  1
  Ca2+  Ca45  1  0.91364636  0.67641241  0.16274680  1
  Ca2+  Ca46  1  0.90936176  0.67225727  0.49329694  1
  Ca2+  Ca47  1  0.91520483  0.67215091  0.82813454  1
  Al0+  Al48  1  -0.00082071  0.00011057  -0.00590591  1
  Al0+  Al49  1  -0.00104406  -0.00155554  0.33783615  1
  Al0+  Al50  1  -0.00038410  0.00018485  0.67181938  1
  Al0+  Al51  1  0.00157820  0.50161428  -0.00480797  1
  Al0+  Al52  1  0.00395888  0.50199051  0.34035290  1
  Al0+  Al53  1  -0.00007628  0.49994232  0.66909318  1
  Al0+  Al54  1  0.49944750  -0.00062475  0.00638972  1
  Al0+  Al55  1  0.49907401  0.00076286  0.32546987  1
  Al0+  Al56  1  0.49911485  0.00193435  0.66790395  1
  Al0+  Al57  1  0.50282016  0.50095827  0.00172031  1
  Al0+  Al58  1  0.49947834  0.50264855  0.33216526  1
  Al0+  Al59  1  0.50039129  0.50097596  0.66693323  1
  Al0+  Al60  1  0.25107858  0.25106339  -0.00939349  1
  Al0+  Al61  1  0.25044665  0.24925224  0.33178533  1
  Al0+  Al62  1  0.24742742  0.24850454  0.66361543  1
  Al0+  Al63  1  0.25052758  0.75029822  0.01148708  1
  Al0+  Al64  1  0.24809544  0.74881223  0.33485648  1
  Al0+  Al65  1  0.24829894  0.74737830  0.66777340  1
  Al0+  Al66  1  0.74849767  0.24912369  -0.00462393  1
  Al0+  Al67  1  0.74924194  0.24892094  0.33640475  1
  Al0+  Al68  1  0.75061338  0.25046161  0.67547959  1
  Al0+  Al69  1  0.74957866  0.74910658  -0.00113399  1
  Al0+  Al70  1  0.74847102  0.75133410  0.33136637  1
  Al0+  Al71  1  0.75016822  0.74915275  0.67010435  1
  Al0+  Al72  1  0.67802038  0.42969185  0.68321499  1
  Al0+  Al73  1  0.92906003  0.81911387  0.98438183  1
  Al0+  Al74  1  0.67817255  0.92935920  0.67931299  1
  Al0+  Al75  1  0.31903974  0.56776434  0.67834207  1
  Al0+  Al76  1  0.92654047  0.32403069  0.98536682  1
  Al0+  Al77  1  0.82254773  0.57355442  0.34643688  1
  Al0+  Al78  1  0.18003448  0.92709271  0.68213490  1
  Al0+  Al79  1  0.42814702  0.82161162  0.65500249  1
  Al0+  Al80  1  0.42847970  0.32253976  0.31718360  1
  Al0+  Al81  1  0.57410083  0.17809713  0.31737511  1
  Al0+  Al82  1  0.82280623  0.57142239  0.68337345  1
  Al0+  Al83  1  0.32291173  0.57014885  0.01513404  1
  Al0+  Al84  1  0.32144713  0.07270100  0.68016841  1
  Al0+  Al85  1  0.07098643  0.17835999  0.98348806  1
  Al0+  Al86  1  0.43261179  0.32106905  0.98449931  1
  Al0+  Al87  1  0.92994443  0.81992540  0.32114418  1
  Al0+  Al88  1  0.18085044  0.42674261  0.34519405  1
  Al0+  Al89  1  0.67864451  0.42832364  0.34707041  1
  Al0+  Al90  1  0.17881640  0.92978451  0.34784922  1
  Al0+  Al91  1  0.82248030  0.07223035  0.68482369  1
  Al0+  Al92  1  0.17860768  0.93178284  0.01566066  1
  Al0+  Al93  1  0.42909840  0.32195044  0.65134945  1
  Al0+  Al94  1  0.67853010  0.92752991  0.01578991  1
  Al0+  Al95  1  0.81979186  0.06958960  0.34429624  1
  Si0+  Si96  1  0.56994546  0.68113602  0.31742966  1
  Si0+  Si97  1  0.92860770  0.32160782  0.65004936  1
  Si0+  Si98  1  0.57339073  0.17846493  0.65112287  1
  Si0+  Si99  1  0.42794998  0.82026713  0.98811946  1
  Si0+  Si100  1  0.57304961  0.67908083  0.64826967  1
  Si0+  Si101  1  0.32309603  0.07110594  0.34824864  1
  Si0+  Si102  1  0.07106159  0.67761793  0.65086982  1
  Si0+  Si103  1  0.82263308  0.57044169  0.01451144  1
  Si0+  Si104  1  0.67475320  0.92738265  0.34817729  1
  Si0+  Si105  1  0.32269972  0.57218112  0.35114899  1
  Si0+  Si106  1  0.68055979  0.42882662  0.01538397  1
  Si0+  Si107  1  0.93029369  0.32255905  0.32356188  1
  Si0+  Si108  1  0.42570246  0.82128487  0.31697429  1
  Si0+  Si109  1  0.32226826  0.07563636  0.01806483  1
  Si0+  Si110  1  0.07394134  0.67608430  0.31537057  1
  Si0+  Si111  1  0.17667970  0.42531458  0.68454313  1
  Si0+  Si112  1  0.17826591  0.42766853  0.01395292  1
  Si0+  Si113  1  0.06977770  0.17857263  0.32085985  1
  Si0+  Si114  1  0.07465942  0.67857024  0.98357193  1
  Si0+  Si115  1  0.82033785  0.07115771  0.01694080  1
  Si0+  Si116  1  0.92889784  0.82040981  0.65129900  1
  Si0+  Si117  1  0.06854964  0.17793804  0.64817868  1
  Si0+  Si118  1  0.57056866  0.67992091  0.98441189  1
  Si0+  Si119  1  0.57160871  0.17483254  0.98120941  1
  O2-  O120  1  0.25131563  0.00888423  0.06266222  1
  O2-  O121  1  0.25784789  -0.00031264  0.39316183  1
  O2-  O122  1  0.25379881  -0.00263014  0.73148475  1
  O2-  O123  1  0.24846694  0.49416700  0.05952403  1
  O2-  O124  1  0.25709363  0.49952430  0.39267320  1
  O2-  O125  1  0.24929164  0.48996657  0.72793464  1
  O2-  O126  1  0.75220948  0.00283783  0.06267105  1
  O2-  O127  1  0.74169525  -0.00202517  0.39059849  1
  O2-  O128  1  0.74997382  -0.00042899  0.73217449  1
  O2-  O129  1  0.75878197  0.49282597  0.05673275  1
  O2-  O130  1  0.75384794  0.49818052  0.39534040  1
  O2-  O131  1  0.75215546  0.49915188  0.73442095  1
  O2-  O132  1  0.00094833  0.25220091  0.27937862  1
  O2-  O133  1  -0.00239924  0.24942204  0.60587864  1
  O2-  O134  1  -0.00155990  0.25161195  0.93526345  1
  O2-  O135  1  0.00303783  0.74353984  0.27280139  1
  O2-  O136  1  -0.00097289  0.74824250  0.60904233  1
  O2-  O137  1  0.00610821  0.74641575  0.93775014  1
  O2-  O138  1  0.50288060  0.25201330  0.26825219  1
  O2-  O139  1  0.50490511  0.24746719  0.60642583  1
  O2-  O140  1  0.50299031  0.24308299  0.93660240  1
  O2-  O141  1  0.49856873  0.75201331  0.27459958  1
  O2-  O142  1  0.50536816  0.75012885  0.60543226  1
  O2-  O143  1  0.50003950  0.75183969  0.94363856  1
  O2-  O144  1  0.06798319  0.17949388  0.09820099  1
  O2-  O145  1  0.06924424  0.17878816  0.42600966  1
  O2-  O146  1  0.06878850  0.17924606  0.75293410  1
  O2-  O147  1  0.07184215  0.67632729  0.08916087  1
  O2-  O148  1  0.07720770  0.67705179  0.42091540  1
  O2-  O149  1  0.07195030  0.67775543  0.75597111  1
  O2-  O150  1  0.57281829  0.17724015  0.08684759  1
  O2-  O151  1  0.57245446  0.17568154  0.43074821  1
  O2-  O152  1  0.57164533  0.17877837  0.75685184  1
  O2-  O153  1  0.57070076  0.67939541  0.08999386  1
  O2-  O154  1  0.57028912  0.68137285  0.42212089  1
  O2-  O155  1  0.57195381  0.67841877  0.75425982  1
  O2-  O156  1  0.17846532  0.42809559  0.23200307  1
  O2-  O157  1  0.17506595  0.42744939  0.57856597  1
  O2-  O158  1  0.17743804  0.43046397  0.90858302  1
  O2-  O159  1  0.17695916  0.93326612  0.23464182  1
  O2-  O160  1  0.17921363  0.92856498  0.56822109  1
  O2-  O161  1  0.18258291  0.92911804  0.90320421  1
  O2-  O162  1  0.68148591  0.43038310  0.23266568  1
  O2-  O163  1  0.67869841  0.43134502  0.56970976  1
  O2-  O164  1  0.67752693  0.43318280  0.91078653  1
  O2-  O165  1  0.67701105  0.92573595  0.24238448  1
  O2-  O166  1  0.68041268  0.92995696  0.56542646  1
  O2-  O167  1  0.67804685  0.92676072  0.90318862  1
  O2-  O168  1  0.43472104  0.32186458  0.09751071  1
  O2-  O169  1  0.42811956  0.32044392  0.43067032  1
  O2-  O170  1  0.43137761  0.32243899  0.76464867  1
  O2-  O171  1  0.42955206  0.81701621  0.09364605  1
  O2-  O172  1  0.42526797  0.82085027  0.42200461  1
  O2-  O173  1  0.42747150  0.81740969  0.76841522  1
  O2-  O174  1  0.92754120  0.32471529  0.10003075  1
  O2-  O175  1  0.93199723  0.32107226  0.42865613  1
  O2-  O176  1  0.93214535  0.32278738  0.75495362  1
  O2-  O177  1  0.92877982  0.81831772  0.09786352  1
  O2-  O178  1  0.93156735  0.82050492  0.43431134  1
  O2-  O179  1  0.92962219  0.81888549  0.75649096  1
  O2-  O180  1  0.32090198  0.07021993  0.24246133  1
  O2-  O181  1  0.31844609  0.07187358  0.56614902  1
  O2-  O182  1  0.32404823  0.07272463  0.91277975  1
  O2-  O183  1  0.32159033  0.57410874  0.24534762  1
  O2-  O184  1  0.31532508  0.56925925  0.56533303  1
  O2-  O185  1  0.32296489  0.57158525  0.90216918  1
  O2-  O186  1  0.82306640  0.06831026  0.23125363  1
  O2-  O187  1  0.82339938  0.07055674  0.57080629  1
  O2-  O188  1  0.81822822  0.06939369  0.91170146  1
  O2-  O189  1  0.82053191  0.57224232  0.23205850  1
  O2-  O190  1  0.82168248  0.57097606  0.56986480  1
  O2-  O191  1  0.81912419  0.57233378  0.90983786  1
  O2-  O192  1  0.03771869  0.08815014  0.27357050  1
  O2-  O193  1  0.03971743  0.08542375  0.60197968  1
  O2-  O194  1  0.04124757  0.08196683  0.92788977  1
  O2-  O195  1  0.05085728  0.58132451  0.26972579  1
  O2-  O196  1  0.04477138  0.58458843  0.60377368  1
  O2-  O197  1  0.05215205  0.58538455  0.93503476  1
  O2-  O198  1  0.54529152  0.08042707  0.26075643  1
  O2-  O199  1  0.54877165  0.08521152  0.60383519  1
  O2-  O200  1  0.54569140  0.07969537  0.93847643  1
  O2-  O201  1  0.54181983  0.59032946  0.26731943  1
  O2-  O202  1  0.54366190  0.58724640  0.60131226  1
  O2-  O203  1  0.54174419  0.58894716  0.93665482  1
  O2-  O204  1  0.16169259  0.20299404  0.27228078  1
  O2-  O205  1  0.15961173  0.20573599  0.59882650  1
  O2-  O206  1  0.16854232  0.20556654  0.92825662  1
  O2-  O207  1  0.16703334  0.70265562  0.26775905  1
  O2-  O208  1  0.16145629  0.70574639  0.60096682  1
  O2-  O209  1  0.16963065  0.70622133  0.94147316  1
  O2-  O210  1  0.67297398  0.20603106  0.26326058  1
  O2-  O211  1  0.66892385  0.20380973  0.60832299  1
  O2-  O212  1  0.66516925  0.19897494  0.93492155  1
  O2-  O213  1  0.66064290  0.70894929  0.26680994  1
  O2-  O214  1  0.66723590  0.70373403  0.60254958  1
  O2-  O215  1  0.66175845  0.70683045  0.93599869  1
  O2-  O216  1  0.08474462  0.45509614  0.06057641  1
  O2-  O217  1  0.08702084  0.45864098  0.40463421  1
  O2-  O218  1  0.08498211  0.45488986  0.73142189  1
  O2-  O219  1  0.08010696  0.96272246  0.06665319  1
  O2-  O220  1  0.08493569  0.96354883  0.40383017  1
  O2-  O221  1  0.08313819  0.95875975  0.73478077  1
  O2-  O222  1  0.59297925  0.46511297  0.06544743  1
  O2-  O223  1  0.58111967  0.46183315  0.39811450  1
  O2-  O224  1  0.58171166  0.46309600  0.73699017  1
  O2-  O225  1  0.58121271  0.95494167  0.07117864  1
  O2-  O226  1  0.57883863  0.94994215  0.39060338  1
  O2-  O227  1  0.58009025  0.95653370  0.73346109  1
  O2-  O228  1  0.20243979  0.33275831  0.05762666  1
  O2-  O229  1  0.20806218  0.32960194  0.40045061  1
  O2-  O230  1  0.19648822  0.32996058  0.72730820  1
  O2-  O231  1  0.21034828  0.83683287  0.07305713  1
  O2-  O232  1  0.20571077  0.83095572  0.39880127  1
  O2-  O233  1  0.20500180  0.82814561  0.73428592  1
  O2-  O234  1  0.70044468  0.33345116  0.05898202  1
  O2-  O235  1  0.70355020  0.33022101  0.40053762  1
  O2-  O236  1  0.70421078  0.33225627  0.73799581  1
  O2-  O237  1  0.71006863  0.82998291  0.06853395  1
  O2-  O238  1  0.69997067  0.83433692  0.39428262  1
  O2-  O239  1  0.70437450  0.83069166  0.73256746  1
  O2-  O240  1  0.45339899  0.42314318  0.26620715  1
  O2-  O241  1  0.45947587  0.41936719  0.59832587  1
  O2-  O242  1  0.46860547  0.41771145  0.93296076  1
  O2-  O243  1  0.44965294  0.91297141  0.26756562  1
  O2-  O244  1  0.45594099  0.91900157  0.60016040  1
  O2-  O245  1  0.45256224  0.91408386  0.94377380  1
  O2-  O246  1  0.95826455  0.41519495  0.27737650  1
  O2-  O247  1  0.95771457  0.41370031  0.60315358  1
  O2-  O248  1  0.95515730  0.42201747  0.93061714  1
  O2-  O249  1  0.96445757  0.91573921  0.26665734  1
  O2-  O250  1  0.95780904  0.91310889  0.60615821  1
  O2-  O251  1  0.95717518  0.91553022  0.93022578  1
  O2-  O252  1  0.33057161  0.29074020  0.26301547  1
  O2-  O253  1  0.33028604  0.29297497  0.59994518  1
  O2-  O254  1  0.33458998  0.29799820  0.93010348  1
  O2-  O255  1  0.33447130  0.79023616  0.26938132  1
  O2-  O256  1  0.33292215  0.78545398  0.59986164  1
  O2-  O257  1  0.33592270  0.79022521  0.94325906  1
  O2-  O258  1  0.83851176  0.29569361  0.27622175  1
  O2-  O259  1  0.83489726  0.29481284  0.60623598  1
  O2-  O260  1  0.82825777  0.29632211  0.93166759  1
  O2-  O261  1  0.83220731  0.79239981  0.26625041  1
  O2-  O262  1  0.83650217  0.79289477  0.60470911  1
  O2-  O263  1  0.83321183  0.78463699  0.93075526  1
  O2-  O264  1  0.41452957  0.04830986  0.06632685  1
  O2-  O265  1  0.41818733  0.04753740  0.39166932  1
  O2-  O266  1  0.42053466  0.05109956  0.73306253  1
  O2-  O267  1  0.41980767  0.53969310  0.06935466  1
  O2-  O268  1  0.41752251  0.55266253  0.39596717  1
  O2-  O269  1  0.41695865  0.54362525  0.73204883  1
  O2-  O270  1  0.91485508  0.04575083  0.06027695  1
  O2-  O271  1  0.91327992  0.03561865  0.40252314  1
  O2-  O272  1  0.91939675  0.04215721  0.73835190  1
  O2-  O273  1  0.91787313  0.55091480  0.05879774  1
  O2-  O274  1  0.92247991  0.55304023  0.39833094  1
  O2-  O275  1  0.92147388  0.54419615  0.73645749  1
  O2-  O276  1  0.29788234  0.17107035  0.06071963  1
  O2-  O277  1  0.29511183  0.16359756  0.39402333  1
  O2-  O278  1  0.28698884  0.16922826  0.73353452  1
  O2-  O279  1  0.29204222  0.66442918  0.07367850  1
  O2-  O280  1  0.29294673  0.66433733  0.39789659  1
  O2-  O281  1  0.28459777  0.66206336  0.73441593  1
  O2-  O282  1  0.79509703  0.16628550  0.06122061  1
  O2-  O283  1  0.79376172  0.16612697  0.40061802  1
  O2-  O284  1  0.79776969  0.17017107  0.73903834  1
  O2-  O285  1  0.78741751  0.65937426  0.06292247  1
  O2-  O286  1  0.78811109  0.67034723  0.39905901  1
  O2-  O287  1  0.79358692  0.66890705  0.73688130  1
