# generated using pymatgen
data_Ca2Al2SiO7
_symmetry_space_group_name_H-M   'P 1'
_cell_length_a   15.45983799
_cell_length_b   15.46103643
_cell_length_c   15.28520708
_cell_angle_alpha   89.99445460
_cell_angle_beta   89.99438944
_cell_angle_gamma   89.99144831
_symmetry_Int_Tables_number   1
_chemical_formula_structural   Ca2Al2SiO7
_chemical_formula_sum   'Ca48 Al48 Si24 O168'
_cell_volume   3653.54835833
_cell_formula_units_Z   24
loop_
 _symmetry_equiv_pos_site_id
 _symmetry_equiv_pos_as_xyz
  1  'x, y, z'
loop_
 _atom_type_symbol
 _atom_type_oxidation_number
  Ca2+  2.0
  Al0+  0.0
  Si0+  0.0
  O2-  -2.0
loop_
 _atom_site_type_symbol
 _atom_site_label
 _atom_site_symmetry_multiplicity
 _atom_site_fract_x
 _atom_site_fract_y
 _atom_site_fract_z
 _atom_site_occupancy
  Ca2+  Ca0  1  0.16765962  0.08374873  0.17015701  1
  Ca2+  Ca1  1  0.15956541  0.07744312  0.49828922  1
  Ca2+  Ca2  1  0.17442131  0.08221957  0.84406660  1
  Ca2+  Ca3  1  0.18132845  0.59067697  0.17085187  1
  Ca2+  Ca4  1  0.17560031  0.59216964  0.50723260  1
  Ca2+  Ca5  1  0.17514257  0.59273855  0.83536782  1
  Ca2+  Ca6  1  0.66457875  0.06785249  0.16608479  1
  Ca2+  Ca7  1  0.67292663  0.07752864  0.50738964  1
  Ca2+  Ca8  1  0.67561349  0.08125091  0.84378019  1
  Ca2+  Ca9  1  0.65666309  0.57564261  0.17266630  1
  Ca2+  Ca10  1  0.66285498  0.57954618  0.49639307  1
  Ca2+  Ca11  1  0.66026885  0.57601929  0.84284108  1
  Ca2+  Ca12  1  0.07954129  0.32381029  0.16298130  1
  Ca2+  Ca13  1  0.07476469  0.32571151  0.48794663  1
  Ca2+  Ca14  1  0.08617763  0.32585599  0.83332331  1
  Ca2+  Ca15  1  0.07162679  0.84506471  0.16563909  1
  Ca2+  Ca16  1  0.07364572  0.83463316  0.49669773  1
  Ca2+  Ca17  1  0.07098145  0.83233058  0.82886039  1
  Ca2+  Ca18  1  0.58891418  0.32996533  0.16025435  1
  Ca2+  Ca19  1  0.58813130  0.32759745  0.49628211  1
  Ca2+  Ca20  1  0.59054705  0.32138445  0.83466077  1
  Ca2+  Ca21  1  0.58519581  0.82375649  0.15681478  1
  Ca2+  Ca22  1  0.57724150  0.82944594  0.49144002  1
  Ca2+  Ca23  1  0.57146969  0.84034800  0.83498781  1
  Ca2+  Ca24  1  0.33825929  0.43039047  0.17099511  1
  Ca2+  Ca25  1  0.33239868  0.43012817  0.50410774  1
  Ca2+  Ca26  1  0.33555084  0.43066759  0.84007027  1
  Ca2+  Ca27  1  0.33091348  0.91990969  0.16863235  1
  Ca2+  Ca28  1  0.32543909  0.90972858  0.50344658  1
  Ca2+  Ca29  1  0.33519823  0.91563681  0.84140205  1
  Ca2+  Ca30  1  0.82291526  0.41413000  0.17137637  1
  Ca2+  Ca31  1  0.82965888  0.41067234  0.50036162  1
  Ca2+  Ca32  1  0.82708823  0.42182131  0.84126090  1
  Ca2+  Ca33  1  0.82618145  0.91300723  0.16965710  1
  Ca2+  Ca34  1  0.83157852  0.91570914  0.50299562  1
  Ca2+  Ca35  1  0.83274330  0.92305535  0.84145553  1
  Ca2+  Ca36  1  0.42224707  0.16682734  0.15487994  1
  Ca2+  Ca37  1  0.42497890  0.16780943  0.49840144  1
  Ca2+  Ca38  1  0.43314539  0.15543099  0.83357613  1
  Ca2+  Ca39  1  0.42312885  0.66839382  0.15961683  1
  Ca2+  Ca40  1  0.41668898  0.66712185  0.49687625  1
  Ca2+  Ca41  1  0.41597274  0.67320050  0.83307786  1
  Ca2+  Ca42  1  0.92570963  0.16271459  0.16227817  1
  Ca2+  Ca43  1  0.91817559  0.16858076  0.49172265  1
  Ca2+  Ca44  1  0.91633629  0.15959633  0.83299641  1
  Ca2+  Ca45  1  0.91355752  0.68073585  0.16171796  1
  Ca2+  Ca46  1  0.92040069  0.67642091  0.49415253  1
  Ca2+  Ca47  1  0.91776044  0.68161301  0.82665688  1
  Al0+  Al48  1  0.00115459  0.00148844  -0.00657738  1
  Al0+  Al49  1  0.00133427  0.00039357  0.33068674  1
  Al0+  Al50  1  -0.00046779  0.00020477  0.66748036  1
  Al0+  Al51  1  0.00028120  0.49897295  0.00017866  1
  Al0+  Al52  1  0.00058818  0.50056000  0.32684304  1
  Al0+  Al53  1  0.00034894  0.49808399  0.66455280  1
  Al0+  Al54  1  0.50060091  0.00017454  0.00133828  1
  Al0+  Al55  1  0.50009080  0.00009733  0.33837419  1
  Al0+  Al56  1  0.49934276  -0.00073028  0.65523252  1
  Al0+  Al57  1  0.49890440  0.49968031  0.00434872  1
  Al0+  Al58  1  0.50092673  0.49936990  0.34125012  1
  Al0+  Al59  1  0.49793188  0.49921025  0.67226054  1
  Al0+  Al60  1  0.24936507  0.25104889  -0.00091013  1
  Al0+  Al61  1  0.25203899  0.25253472  0.33183155  1
  Al0+  Al62  1  0.25109746  0.25053579  0.66526609  1
  Al0+  Al63  1  0.24918627  0.75064518  0.00324511  1
  Al0+  Al64  1  0.25013588  0.75364320  0.34216376  1
  Al0+  Al65  1  0.25002970  0.75054803  0.66587928  1
  Al0+  Al66  1  0.75231206  0.25098770  0.00404965  1
  Al0+  Al67  1  0.74964277  0.25014961  0.33356538  1
  Al0+  Al68  1  0.75046189  0.24754337  0.66676956  1
  Al0+  Al69  1  0.75025472  0.74864458  -0.00807692  1
  Al0+  Al70  1  0.74851369  0.74817758  0.33111532  1
  Al0+  Al71  1  0.74734514  0.74868392  0.66392850  1
  Al0+  Al72  1  0.31895306  0.57154779  0.68368584  1
  Al0+  Al73  1  0.68023063  0.43083716  0.01342664  1
  Al0+  Al74  1  0.06985988  0.67896520  0.65233514  1
  Al0+  Al75  1  0.31977985  0.57089548  0.34917922  1
  Al0+  Al76  1  0.57198995  0.18021396  0.65194213  1
  Al0+  Al77  1  0.82389129  0.07078374  0.01680199  1
  Al0+  Al78  1  0.32218354  0.07145430  0.01154768  1
  Al0+  Al79  1  0.07153995  0.18001177  0.98377871  1
  Al0+  Al80  1  0.31859845  0.57174910  0.01505577  1
  Al0+  Al81  1  0.82008533  0.06920722  0.68008792  1
  Al0+  Al82  1  0.92919944  0.81955523  0.31900755  1
  Al0+  Al83  1  0.07191194  0.17938472  0.31781150  1
  Al0+  Al84  1  0.57049328  0.67615932  0.98460905  1
  Al0+  Al85  1  0.42814225  0.82118463  0.98772377  1
  Al0+  Al86  1  0.92640105  0.32282685  0.31648214  1
  Al0+  Al87  1  0.17912426  0.93295651  0.34792951  1
  Al0+  Al88  1  0.67938960  0.92737041  0.01300833  1
  Al0+  Al89  1  0.68125763  0.42825617  0.34931758  1
  Al0+  Al90  1  0.92686370  0.82296440  0.64996713  1
  Al0+  Al91  1  0.56776862  0.67905215  0.32080531  1
  Al0+  Al92  1  0.57209611  0.17967665  0.98907025  1
  Al0+  Al93  1  0.42990065  0.82005689  0.65135275  1
  Al0+  Al94  1  0.92861215  0.82110122  0.98546189  1
  Al0+  Al95  1  0.67827059  0.92577971  0.34810279  1
  Si0+  Si96  1  0.07203327  0.67627837  0.98546827  1
  Si0+  Si97  1  0.17976324  0.93102759  0.68284139  1
  Si0+  Si98  1  0.42747098  0.32246276  0.98395300  1
  Si0+  Si99  1  0.82418737  0.57303470  0.01517391  1
  Si0+  Si100  1  0.32373540  0.07587615  0.35186306  1
  Si0+  Si101  1  0.07529179  0.67908999  0.31664207  1
  Si0+  Si102  1  0.68034888  0.42870652  0.68214277  1
  Si0+  Si103  1  0.57054252  0.17776207  0.31784767  1
  Si0+  Si104  1  0.57085279  0.67317539  0.64931485  1
  Si0+  Si105  1  0.92903430  0.31989374  0.65290689  1
  Si0+  Si106  1  0.17811180  0.92900800  0.01529391  1
  Si0+  Si107  1  0.43129720  0.32130515  0.31991157  1
  Si0+  Si108  1  0.07345033  0.17942982  0.65178900  1
  Si0+  Si109  1  0.17654663  0.42573295  0.68355985  1
  Si0+  Si110  1  0.82397944  0.57244056  0.34914122  1
  Si0+  Si111  1  0.42835535  0.32333132  0.65014320  1
  Si0+  Si112  1  0.82048660  0.06939476  0.34876640  1
  Si0+  Si113  1  0.92840686  0.32256353  0.98122389  1
  Si0+  Si114  1  0.17719623  0.42782299  0.34951605  1
  Si0+  Si115  1  0.32201040  0.07236824  0.68018901  1
  Si0+  Si116  1  0.67508449  0.92639447  0.68196769  1
  Si0+  Si117  1  0.42644069  0.82352464  0.31681243  1
  Si0+  Si118  1  0.82263008  0.57098155  0.68015048  1
  Si0+  Si119  1  0.17641359  0.42694771  0.01797837  1
  O2-  O120  1  0.24829970  -0.00326131  0.05859752  1
  O2-  O121  1  0.25408933  0.00787356  0.39578973  1
  O2-  O122  1  0.25119794  0.00223042  0.72370340  1
  O2-  O123  1  0.24300422  0.49752973  0.06181019  1
  O2-  O124  1  0.24030179  0.50028157  0.39576352  1
  O2-  O125  1  0.24268658  0.49645038  0.72822538  1
  O2-  O126  1  0.75288667  -0.00284745  0.06518779  1
  O2-  O127  1  0.75279484  0.00086259  0.39489231  1
  O2-  O128  1  0.74711237  -0.00799944  0.72519899  1
  O2-  O129  1  0.75281234  0.50765946  0.05987066  1
  O2-  O130  1  0.75969983  0.49978827  0.39516505  1
  O2-  O131  1  0.74848124  0.50300702  0.72315460  1
  O2-  O132  1  -0.00015413  0.25158158  0.26822310  1
  O2-  O133  1  0.00182671  0.25039959  0.61124806  1
  O2-  O134  1  -0.00369539  0.25376549  0.93574689  1
  O2-  O135  1  0.00410332  0.74439143  0.27198580  1
  O2-  O136  1  -0.00331426  0.74838983  0.60055127  1
  O2-  O137  1  0.00154603  0.74278231  0.94164659  1
  O2-  O138  1  0.49725822  0.24664891  0.27655966  1
  O2-  O139  1  0.49724781  0.25532682  0.60508750  1
  O2-  O140  1  0.49510736  0.25219067  0.94045044  1
  O2-  O141  1  0.49611560  0.75625905  0.27360775  1
  O2-  O142  1  0.50545453  0.74533187  0.60614132  1
  O2-  O143  1  0.50055971  0.75057826  0.93539315  1
  O2-  O144  1  0.07301723  0.18196397  0.09631397  1
  O2-  O145  1  0.06968564  0.18043917  0.43244212  1
  O2-  O146  1  0.07632294  0.18098879  0.75654298  1
  O2-  O147  1  0.07215446  0.67589434  0.09099379  1
  O2-  O148  1  0.07403043  0.67993137  0.42227912  1
  O2-  O149  1  0.06797960  0.68159493  0.76616578  1
  O2-  O150  1  0.56934483  0.18088693  0.10224935  1
  O2-  O151  1  0.57027926  0.17957438  0.42339282  1
  O2-  O152  1  0.57251307  0.18111158  0.76489162  1
  O2-  O153  1  0.56716292  0.67454012  0.09826608  1
  O2-  O154  1  0.56546123  0.67879642  0.43438701  1
  O2-  O155  1  0.56972693  0.66913573  0.75429248  1
  O2-  O156  1  0.18167393  0.42587105  0.24428446  1
  O2-  O157  1  0.17796955  0.42239689  0.57815434  1
  O2-  O158  1  0.17704571  0.42623938  0.91212740  1
  O2-  O159  1  0.18041412  0.93348560  0.23496851  1
  O2-  O160  1  0.17876598  0.93331027  0.57763339  1
  O2-  O161  1  0.17847617  0.92951481  0.90925032  1
  O2-  O162  1  0.67858756  0.42908724  0.23679994  1
  O2-  O163  1  0.68172057  0.42751902  0.57700906  1
  O2-  O164  1  0.68262984  0.42956792  0.89949443  1
  O2-  O165  1  0.67685486  0.92647157  0.23550605  1
  O2-  O166  1  0.67538100  0.92881403  0.57605999  1
  O2-  O167  1  0.67788207  0.93119105  0.89917689  1
  O2-  O168  1  0.42808399  0.32215071  0.08993361  1
  O2-  O169  1  0.43262078  0.31987324  0.42533500  1
  O2-  O170  1  0.42806480  0.32419465  0.75525888  1
  O2-  O171  1  0.42596043  0.81983554  0.10110999  1
  O2-  O172  1  0.42685034  0.82170301  0.42276544  1
  O2-  O173  1  0.42917303  0.82243925  0.76409239  1
  O2-  O174  1  0.93020882  0.32451470  0.08622200  1
  O2-  O175  1  0.92715767  0.31923190  0.43123631  1
  O2-  O176  1  0.92823334  0.32095605  0.75770374  1
  O2-  O177  1  0.93048702  0.82110862  0.09870815  1
  O2-  O178  1  0.93038093  0.81903546  0.43200197  1
  O2-  O179  1  0.92975896  0.82352639  0.76340810  1
  O2-  O180  1  0.32592459  0.07601258  0.24647215  1
  O2-  O181  1  0.31942584  0.07440274  0.57511275  1
  O2-  O182  1  0.32120333  0.07005874  0.89778609  1
  O2-  O183  1  0.32060641  0.56893301  0.23620879  1
  O2-  O184  1  0.31926267  0.56829939  0.57051720  1
  O2-  O185  1  0.31675585  0.57127273  0.90184821  1
  O2-  O186  1  0.81934896  0.06881104  0.24374283  1
  O2-  O187  1  0.81903394  0.07253653  0.56679192  1
  O2-  O188  1  0.82150351  0.06971451  0.90264285  1
  O2-  O189  1  0.82139192  0.57367587  0.24384298  1
  O2-  O190  1  0.82401228  0.56802211  0.57517910  1
  O2-  O191  1  0.82657795  0.56836046  0.90912106  1
  O2-  O192  1  0.04384470  0.08201929  0.26425319  1
  O2-  O193  1  0.04459293  0.08783843  0.60554960  1
  O2-  O194  1  0.04360152  0.08446421  0.92680429  1
  O2-  O195  1  0.05698361  0.58378339  0.27117755  1
  O2-  O196  1  0.04657172  0.57814387  0.60057425  1
  O2-  O197  1  0.05094018  0.58134308  0.93917887  1
  O2-  O198  1  0.54318391  0.08490200  0.27275300  1
  O2-  O199  1  0.54002867  0.08619612  0.59409794  1
  O2-  O200  1  0.54065934  0.08440586  0.93334284  1
  O2-  O201  1  0.53498981  0.58132519  0.27033503  1
  O2-  O202  1  0.54147623  0.58017739  0.60308734  1
  O2-  O203  1  0.53789442  0.57820258  0.93228079  1
  O2-  O204  1  0.17195999  0.20731345  0.26738204  1
  O2-  O205  1  0.16484243  0.20659409  0.60260493  1
  O2-  O206  1  0.16771364  0.21318030  0.92853064  1
  O2-  O207  1  0.16850679  0.70973011  0.27299477  1
  O2-  O208  1  0.16707153  0.71046500  0.59986407  1
  O2-  O209  1  0.16435864  0.70553895  0.93921795  1
  O2-  O210  1  0.66138447  0.20779219  0.27205575  1
  O2-  O211  1  0.66741528  0.21354679  0.59670415  1
  O2-  O212  1  0.66812999  0.21371700  0.93534366  1
  O2-  O213  1  0.66544304  0.70404200  0.26737148  1
  O2-  O214  1  0.66609097  0.69366168  0.60407991  1
  O2-  O215  1  0.67030320  0.69619598  0.93130151  1
  O2-  O216  1  0.08166513  0.44950908  0.06330870  1
  O2-  O217  1  0.08036151  0.44735874  0.39187168  1
  O2-  O218  1  0.08148641  0.44708856  0.72905059  1
  O2-  O219  1  0.08594206  0.95930808  0.06029455  1
  O2-  O220  1  0.08308529  0.96525319  0.40377527  1
  O2-  O221  1  0.08854669  0.95979920  0.73056805  1
  O2-  O222  1  0.58296201  0.45702721  0.06805232  1
  O2-  O223  1  0.58694739  0.46120132  0.40705218  1
  O2-  O224  1  0.58745427  0.45258524  0.72886163  1
  O2-  O225  1  0.58251184  0.95793125  0.06798967  1
  O2-  O226  1  0.58186638  0.95737157  0.40327495  1
  O2-  O227  1  0.58128363  0.95711542  0.72446079  1
  O2-  O228  1  0.20388570  0.33447852  0.06453676  1
  O2-  O229  1  0.20719691  0.33590930  0.39813727  1
  O2-  O230  1  0.20549120  0.33272178  0.73069164  1
  O2-  O231  1  0.20003310  0.83581591  0.06316757  1
  O2-  O232  1  0.20893047  0.83802421  0.40645994  1
  O2-  O233  1  0.20795528  0.83951602  0.72931103  1
  O2-  O234  1  0.71304305  0.33607742  0.06900707  1
  O2-  O235  1  0.71063386  0.33102863  0.40479289  1
  O2-  O236  1  0.71236186  0.33817096  0.72919422  1
  O2-  O237  1  0.70614143  0.82649684  0.06185333  1
  O2-  O238  1  0.70869181  0.82911583  0.40195926  1
  O2-  O239  1  0.69374711  0.82995338  0.72501456  1
  O2-  O240  1  0.46387287  0.41152985  0.27352060  1
  O2-  O241  1  0.45485131  0.41668075  0.60388470  1
  O2-  O242  1  0.45590874  0.41479209  0.93766840  1
  O2-  O243  1  0.44937213  0.91955124  0.27488864  1
  O2-  O244  1  0.45633532  0.91553870  0.59240113  1
  O2-  O245  1  0.45632143  0.91949057  0.93362852  1
  O2-  O246  1  0.95122789  0.42199998  0.26302055  1
  O2-  O247  1  0.95418414  0.41134030  0.60329691  1
  O2-  O248  1  0.95488222  0.41632272  0.93387410  1
  O2-  O249  1  0.96176942  0.91547057  0.26601651  1
  O2-  O250  1  0.95998527  0.92063637  0.59759609  1
  O2-  O251  1  0.96357900  0.91509678  0.92948737  1
  O2-  O252  1  0.33814489  0.30050179  0.27214637  1
  O2-  O253  1  0.33516377  0.29673822  0.60243842  1
  O2-  O254  1  0.33331410  0.30116145  0.93779842  1
  O2-  O255  1  0.33180628  0.79814957  0.27389429  1
  O2-  O256  1  0.33342778  0.78838677  0.59789503  1
  O2-  O257  1  0.32883830  0.79297470  0.93500697  1
  O2-  O258  1  0.82765658  0.29408278  0.26529655  1
  O2-  O259  1  0.83857879  0.28965756  0.60448386  1
  O2-  O260  1  0.83493354  0.29737150  0.93517446  1
  O2-  O261  1  0.83338048  0.78720320  0.26530346  1
  O2-  O262  1  0.82668814  0.79625473  0.59962209  1
  O2-  O263  1  0.83393355  0.79176640  0.92739241  1
  O2-  O264  1  0.41734497  0.04279505  0.06824415  1
  O2-  O265  1  0.41639108  0.04957887  0.39994550  1
  O2-  O266  1  0.41507138  0.04280592  0.72346891  1
  O2-  O267  1  0.41337529  0.53741556  0.06984489  1
  O2-  O268  1  0.41290736  0.53351050  0.40556882  1
  O2-  O269  1  0.41484975  0.53846003  0.73824579  1
  O2-  O270  1  0.92434978  0.04376220  0.06520950  1
  O2-  O271  1  0.91485245  0.04531246  0.39396747  1
  O2-  O272  1  0.91827289  0.04251170  0.73377238  1
  O2-  O273  1  0.91715406  0.54616358  0.06260680  1
  O2-  O274  1  0.92044013  0.55176825  0.39253559  1
  O2-  O275  1  0.91294777  0.53978151  0.72890771  1
  O2-  O276  1  0.29198954  0.16879347  0.06465638  1
  O2-  O277  1  0.30022620  0.17066142  0.39753154  1
  O2-  O278  1  0.29574097  0.16484844  0.72738533  1
  O2-  O279  1  0.28781682  0.66752879  0.07091909  1
  O2-  O280  1  0.29246834  0.66809314  0.40370808  1
  O2-  O281  1  0.28704271  0.66833542  0.73643452  1
  O2-  O282  1  0.79856815  0.17007993  0.06769401  1
  O2-  O283  1  0.79361234  0.16306876  0.39484653  1
  O2-  O284  1  0.78840057  0.16571983  0.73480420  1
  O2-  O285  1  0.80245008  0.66821651  0.05764551  1
  O2-  O286  1  0.79275888  0.66296191  0.39814890  1
  O2-  O287  1  0.79754960  0.66424075  0.72627097  1
