# generated using pymatgen
data_Ca2Al2SiO7
_symmetry_space_group_name_H-M   'P 1'
_cell_length_a   15.46101064
_cell_length_b   15.46128457
_cell_length_c   15.28625471
_cell_angle_alpha   89.99585224
_cell_angle_beta   89.98245344
_cell_angle_gamma   89.98655837
_symmetry_Int_Tables_number   1
_chemical_formula_structural   Ca2Al2SiO7
_chemical_formula_sum   'Ca48 Al48 Si24 O168'
_cell_volume   3654.13435083
_cell_formula_units_Z   24
loop_
 _symmetry_equiv_pos_site_id
 _symmetry_equiv_pos_as_xyz
  1  'x, y, z'
loop_
 _atom_type_symbol
 _atom_type_oxidation_number
  Ca2+  2.0
  Al0+  0.0
  Si0+  0.0
  O2-  -2.0
loop_
 _atom_site_type_symbol
 _atom_site_label
 _atom_site_symmetry_multiplicity
 _atom_site_fract_x
 _atom_site_fract_y
 _atom_site_fract_z
 _atom_site_occupancy
  Ca2+  Ca0  1  0.16167376  0.08178786  0.16885124  1
  Ca2+  Ca1  1  0.17505990  0.07454004  0.50974701  1
  Ca2+  Ca2  1  0.16842960  0.08394720  0.83489436  1
  Ca2+  Ca3  1  0.17251086  0.57926747  0.17465907  1
  Ca2+  Ca4  1  0.17573534  0.57611838  0.49987275  1
  Ca2+  Ca5  1  0.17574898  0.57344096  0.83393043  1
  Ca2+  Ca6  1  0.67439537  0.09274282  0.17157928  1
  Ca2+  Ca7  1  0.66907304  0.09747119  0.49894868  1
  Ca2+  Ca8  1  0.66975147  0.08977217  0.84147474  1
  Ca2+  Ca9  1  0.67394970  0.58697708  0.17022563  1
  Ca2+  Ca10  1  0.66462759  0.58301626  0.50107119  1
  Ca2+  Ca11  1  0.67322366  0.57664110  0.84311656  1
  Ca2+  Ca12  1  0.07513689  0.33271148  0.16219307  1
  Ca2+  Ca13  1  0.07693089  0.34733079  0.49622105  1
  Ca2+  Ca14  1  0.07366045  0.33675637  0.83016869  1
  Ca2+  Ca15  1  0.08044197  0.82477493  0.16198756  1
  Ca2+  Ca16  1  0.09089437  0.82645997  0.49468239  1
  Ca2+  Ca17  1  0.07983436  0.83517343  0.83165157  1
  Ca2+  Ca18  1  0.58017875  0.32564315  0.16812207  1
  Ca2+  Ca19  1  0.56734039  0.32672311  0.49762637  1
  Ca2+  Ca20  1  0.58068671  0.32212864  0.82719437  1
  Ca2+  Ca21  1  0.57358713  0.82795406  0.16613699  1
  Ca2+  Ca22  1  0.57476079  0.82452841  0.49004522  1
  Ca2+  Ca23  1  0.57697549  0.83179837  0.83387053  1
  Ca2+  Ca24  1  0.32856021  0.42505656  0.17913786  1
  Ca2+  Ca25  1  0.32868888  0.41923121  0.50872408  1
  Ca2+  Ca26  1  0.33921872  0.42387353  0.83709606  1
  Ca2+  Ca27  1  0.33902313  0.91497715  0.17005159  1
  Ca2+  Ca28  1  0.33209888  0.91960414  0.50685425  1
  Ca2+  Ca29  1  0.32981747  0.91973050  0.83427558  1
  Ca2+  Ca30  1  0.83637842  0.41344269  0.16978954  1
  Ca2+  Ca31  1  0.83463242  0.41187540  0.50234294  1
  Ca2+  Ca32  1  0.83685901  0.41629709  0.83995546  1
  Ca2+  Ca33  1  0.83822039  0.92895454  0.17054963  1
  Ca2+  Ca34  1  0.83023099  0.92611582  0.50203452  1
  Ca2+  Ca35  1  0.83033892  0.92286963  0.84599374  1
  Ca2+  Ca36  1  0.42526452  0.17161686  0.16183973  1
  Ca2+  Ca37  1  0.41843302  0.17253770  0.49393734  1
  Ca2+  Ca38  1  0.42710714  0.16775922  0.82215823  1
  Ca2+  Ca39  1  0.40873266  0.67342106  0.16409516  1
  Ca2+  Ca40  1  0.41195248  0.66877498  0.48929425  1
  Ca2+  Ca41  1  0.40521681  0.66830186  0.83271258  1
  Ca2+  Ca42  1  0.91700357  0.17339772  0.15914221  1
  Ca2+  Ca43  1  0.91899780  0.17721954  0.49357044  1
  Ca2+  Ca44  1  0.91954915  0.17330698  0.83354080  1
  Ca2+  Ca45  1  0.92373361  0.66711732  0.15935703  1
  Ca2+  Ca46  1  0.92758287  0.66944625  0.49113297  1
  Ca2+  Ca47  1  0.91147392  0.67157232  0.83154481  1
  Al0+  Al48  1  -0.00029260  -0.00122059  -0.00249215  1
  Al0+  Al49  1  -0.00103139  0.00208578  0.34213799  1
  Al0+  Al50  1  -0.00311304  0.00129021  0.66928027  1
  Al0+  Al51  1  0.00138773  0.50026966  -0.00043122  1
  Al0+  Al52  1  0.00046013  0.50231128  0.32804732  1
  Al0+  Al53  1  0.00140557  0.50387003  0.66647441  1
  Al0+  Al54  1  0.49912888  -0.00242564  -0.00732928  1
  Al0+  Al55  1  0.50231108  -0.00174012  0.32739943  1
  Al0+  Al56  1  0.50323385  -0.00392862  0.66523331  1
  Al0+  Al57  1  0.50122796  0.50088828  0.00735666  1
  Al0+  Al58  1  0.50366959  0.50063876  0.32976678  1
  Al0+  Al59  1  0.50320391  0.49850203  0.66936547  1
  Al0+  Al60  1  0.25001428  0.24891458  -0.00168564  1
  Al0+  Al61  1  0.24720707  0.24920211  0.33432802  1
  Al0+  Al62  1  0.24779038  0.24885394  0.67247368  1
  Al0+  Al63  1  0.24928183  0.75014449  -0.00195151  1
  Al0+  Al64  1  0.24818871  0.74931680  0.32803761  1
  Al0+  Al65  1  0.24812988  0.74943057  0.67387051  1
  Al0+  Al66  1  0.74949378  0.25011210  -0.00268515  1
  Al0+  Al67  1  0.75152865  0.25241799  0.33248142  1
  Al0+  Al68  1  0.75149561  0.25173701  0.66063198  1
  Al0+  Al69  1  0.74880773  0.74940453  0.00150848  1
  Al0+  Al70  1  0.74906143  0.75368349  0.33228996  1
  Al0+  Al71  1  0.74984967  0.75272963  0.66527742  1
  Al0+  Al72  1  0.56958045  0.17969097  0.98616353  1
  Al0+  Al73  1  0.17620229  0.42764575  0.68298541  1
  Al0+  Al74  1  0.07269245  0.17659379  0.98471345  1
  Al0+  Al75  1  0.57142665  0.17616328  0.65030499  1
  Al0+  Al76  1  0.93121713  0.32080129  0.31943506  1
  Al0+  Al77  1  0.17762624  0.92869777  0.68299832  1
  Al0+  Al78  1  0.32375391  0.56851177  0.68192586  1
  Al0+  Al79  1  0.32015475  0.57065005  0.01647810  1
  Al0+  Al80  1  0.42803653  0.81895367  0.31901105  1
  Al0+  Al81  1  0.82207262  0.57162453  0.01369399  1
  Al0+  Al82  1  0.42658468  0.32160551  0.65424384  1
  Al0+  Al83  1  0.57431977  0.67666583  0.31782670  1
  Al0+  Al84  1  0.06955293  0.68057234  0.31908660  1
  Al0+  Al85  1  0.32361612  0.07069730  0.68096085  1
  Al0+  Al86  1  0.93310068  0.32239922  0.65146142  1
  Al0+  Al87  1  0.42812399  0.81873802  0.98265383  1
  Al0+  Al88  1  0.56995691  0.18035382  0.31769700  1
  Al0+  Al89  1  0.42419019  0.32211634  0.31895510  1
  Al0+  Al90  1  0.81982612  0.07315988  0.34909980  1
  Al0+  Al91  1  0.32225713  0.57113614  0.34682581  1
  Al0+  Al92  1  0.82020251  0.07016967  0.01327880  1
  Al0+  Al93  1  0.92798166  0.81934235  0.98782859  1
  Al0+  Al94  1  0.92975874  0.32135668  0.98448108  1
  Al0+  Al95  1  0.17775813  0.42780401  0.34746636  1
  Si0+  Si96  1  0.68189943  0.42916517  0.68126429  1
  Si0+  Si97  1  0.07142392  0.17435277  0.31921494  1
  Si0+  Si98  1  0.57373235  0.67859420  0.65380381  1
  Si0+  Si99  1  0.82100880  0.57415516  0.34806451  1
  Si0+  Si100  1  0.06975544  0.68288715  0.65156186  1
  Si0+  Si101  1  0.68098135  0.42923887  0.34981157  1
  Si0+  Si102  1  0.17830352  0.42597598  0.01765876  1
  Si0+  Si103  1  0.07188310  0.67838342  0.98025068  1
  Si0+  Si104  1  0.42828769  0.32337849  0.98529860  1
  Si0+  Si105  1  0.17905511  0.92992854  0.01620317  1
  Si0+  Si106  1  0.67756569  0.92870834  0.35152163  1
  Si0+  Si107  1  0.81745831  0.07267400  0.68280617  1
  Si0+  Si108  1  0.32333858  0.06986348  0.34481523  1
  Si0+  Si109  1  0.57202991  0.67684214  0.98265417  1
  Si0+  Si110  1  0.42808281  0.81645228  0.65248887  1
  Si0+  Si111  1  0.92623799  0.82314658  0.65038433  1
  Si0+  Si112  1  0.17906613  0.92924174  0.34631364  1
  Si0+  Si113  1  0.92809061  0.82487571  0.31890456  1
  Si0+  Si114  1  0.07149526  0.17543326  0.64925899  1
  Si0+  Si115  1  0.68082493  0.92572771  0.68335886  1
  Si0+  Si116  1  0.82066370  0.57309469  0.67925893  1
  Si0+  Si117  1  0.67571161  0.92733493  0.01788955  1
  Si0+  Si118  1  0.67943805  0.42769189  0.01862341  1
  Si0+  Si119  1  0.32261844  0.07008223  0.01470687  1
  O2-  O120  1  0.24920457  0.00184021  0.05856935  1
  O2-  O121  1  0.25175949  -0.00105166  0.38709984  1
  O2-  O122  1  0.24853236  0.00187432  0.73277306  1
  O2-  O123  1  0.24916276  0.49235115  0.06146717  1
  O2-  O124  1  0.25671963  0.49320975  0.39687456  1
  O2-  O125  1  0.25686176  0.49114927  0.73187588  1
  O2-  O126  1  0.74502735  -0.00420918  0.06119201  1
  O2-  O127  1  0.74379564  -0.00041030  0.39667590  1
  O2-  O128  1  0.74608647  0.00195907  0.72499686  1
  O2-  O129  1  0.74929143  0.49622300  0.06181007  1
  O2-  O130  1  0.74879576  0.50510290  0.39144096  1
  O2-  O131  1  0.75223024  0.50116621  0.72308464  1
  O2-  O132  1  0.00639841  0.24606785  0.27523078  1
  O2-  O133  1  0.01045346  0.25058891  0.60424921  1
  O2-  O134  1  0.00258753  0.25034443  0.93457158  1
  O2-  O135  1  -0.00616237  0.75499576  0.27369172  1
  O2-  O136  1  0.00071996  0.75637499  0.60826459  1
  O2-  O137  1  -0.00154343  0.74282195  0.93662413  1
  O2-  O138  1  0.49441341  0.24840425  0.26810123  1
  O2-  O139  1  0.49184933  0.24244853  0.60458323  1
  O2-  O140  1  0.49400983  0.25296805  0.93960878  1
  O2-  O141  1  0.49679353  0.74335956  0.26928586  1
  O2-  O142  1  0.49598525  0.74197207  0.61163843  1
  O2-  O143  1  0.50132855  0.74199408  0.93617390  1
  O2-  O144  1  0.07100736  0.17622270  0.09870763  1
  O2-  O145  1  0.06880396  0.16812833  0.42440328  1
  O2-  O146  1  0.06422254  0.17029545  0.75425148  1
  O2-  O147  1  0.07184754  0.68150285  0.08589246  1
  O2-  O148  1  0.06886800  0.68332363  0.43274468  1
  O2-  O149  1  0.06594783  0.68307984  0.75649113  1
  O2-  O150  1  0.56890131  0.18086513  0.09888338  1
  O2-  O151  1  0.56795560  0.18282512  0.43114672  1
  O2-  O152  1  0.57457682  0.17979551  0.76404580  1
  O2-  O153  1  0.57410849  0.67954048  0.08762622  1
  O2-  O154  1  0.57824147  0.68194352  0.43215845  1
  O2-  O155  1  0.58053356  0.68302962  0.75835954  1
  O2-  O156  1  0.17528612  0.43056810  0.23390050  1
  O2-  O157  1  0.17225251  0.43676930  0.57005567  1
  O2-  O158  1  0.17734211  0.42790649  0.91212711  1
  O2-  O159  1  0.17520694  0.93085218  0.24133898  1
  O2-  O160  1  0.18037023  0.92657494  0.56872169  1
  O2-  O161  1  0.17972373  0.92938182  0.91133677  1
  O2-  O162  1  0.68482798  0.42657571  0.24487523  1
  O2-  O163  1  0.68198862  0.43118776  0.57617739  1
  O2-  O164  1  0.67837737  0.42959963  0.91249375  1
  O2-  O165  1  0.67949426  0.92610380  0.24644435  1
  O2-  O166  1  0.68514984  0.91756664  0.57894267  1
  O2-  O167  1  0.67752243  0.92661266  0.91159730  1
  O2-  O168  1  0.42912772  0.32131746  0.09075091  1
  O2-  O169  1  0.42464736  0.32015244  0.43257131  1
  O2-  O170  1  0.43571506  0.32524636  0.76781867  1
  O2-  O171  1  0.42897501  0.81956228  0.09519556  1
  O2-  O172  1  0.42795958  0.82041096  0.43328909  1
  O2-  O173  1  0.42976984  0.81671650  0.75746720  1
  O2-  O174  1  0.92999873  0.32050974  0.09790696  1
  O2-  O175  1  0.93166490  0.32081317  0.43280230  1
  O2-  O176  1  0.92961189  0.32135553  0.76403554  1
  O2-  O177  1  0.93278657  0.82035681  0.10082720  1
  O2-  O178  1  0.92927429  0.82335781  0.42516462  1
  O2-  O179  1  0.92249083  0.81978499  0.75520302  1
  O2-  O180  1  0.32210454  0.06820972  0.23950547  1
  O2-  O181  1  0.32340963  0.06494808  0.56656800  1
  O2-  O182  1  0.32369291  0.06740414  0.91003874  1
  O2-  O183  1  0.31529947  0.57353220  0.23343600  1
  O2-  O184  1  0.32239951  0.57375591  0.56884891  1
  O2-  O185  1  0.31872460  0.56930856  0.90322894  1
  O2-  O186  1  0.82136549  0.07062990  0.23622901  1
  O2-  O187  1  0.81736587  0.07088428  0.57758742  1
  O2-  O188  1  0.81800558  0.06869162  0.89958954  1
  O2-  O189  1  0.82092215  0.57424333  0.24321618  1
  O2-  O190  1  0.81874547  0.57534060  0.57403535  1
  O2-  O191  1  0.81784027  0.57254111  0.89982820  1
  O2-  O192  1  0.04146484  0.08193829  0.27194985  1
  O2-  O193  1  0.03823756  0.08404198  0.60102632  1
  O2-  O194  1  0.04307568  0.07917061  0.93081121  1
  O2-  O195  1  0.03658915  0.58738763  0.26144886  1
  O2-  O196  1  0.03808734  0.59369414  0.60231066  1
  O2-  O197  1  0.05042196  0.58361413  0.93611072  1
  O2-  O198  1  0.54924510  0.08009656  0.26602304  1
  O2-  O199  1  0.55450654  0.07339722  0.60093489  1
  O2-  O200  1  0.54139215  0.08281132  0.93161371  1
  O2-  O201  1  0.55976820  0.57596217  0.26635687  1
  O2-  O202  1  0.55478473  0.58399758  0.60931765  1
  O2-  O203  1  0.55003652  0.58105233  0.93936060  1
  O2-  O204  1  0.16617165  0.19364635  0.27365007  1
  O2-  O205  1  0.16916535  0.18987863  0.60874753  1
  O2-  O206  1  0.17303178  0.20003500  0.93268392  1
  O2-  O207  1  0.16257657  0.71407302  0.26152212  1
  O2-  O208  1  0.16196760  0.71135864  0.60545131  1
  O2-  O209  1  0.16219765  0.71095847  0.93282225  1
  O2-  O210  1  0.66716171  0.21510117  0.26660061  1
  O2-  O211  1  0.66681981  0.21356608  0.59696629  1
  O2-  O212  1  0.66505784  0.21188072  0.93108620  1
  O2-  O213  1  0.67065289  0.71250146  0.26352743  1
  O2-  O214  1  0.66217625  0.71350430  0.60286638  1
  O2-  O215  1  0.66450002  0.70498100  0.93488796  1
  O2-  O216  1  0.08540665  0.45476023  0.06332214  1
  O2-  O217  1  0.08119564  0.46678979  0.39937328  1
  O2-  O218  1  0.08171448  0.46916355  0.73811105  1
  O2-  O219  1  0.08734206  0.95653238  0.06427333  1
  O2-  O220  1  0.08905464  0.95647699  0.39837356  1
  O2-  O221  1  0.07675241  0.95441733  0.73324802  1
  O2-  O222  1  0.58735195  0.45395565  0.06720005  1
  O2-  O223  1  0.58849348  0.45370118  0.39768604  1
  O2-  O224  1  0.59207477  0.45628675  0.73242182  1
  O2-  O225  1  0.58131697  0.95338644  0.06116207  1
  O2-  O226  1  0.58280026  0.95144315  0.39704107  1
  O2-  O227  1  0.58689791  0.94606586  0.72915823  1
  O2-  O228  1  0.20003198  0.33062286  0.06213220  1
  O2-  O229  1  0.19428083  0.32570374  0.39883075  1
  O2-  O230  1  0.18777254  0.32482140  0.73157538  1
  O2-  O231  1  0.20824090  0.83819142  0.06270452  1
  O2-  O232  1  0.20672577  0.83741982  0.39330075  1
  O2-  O233  1  0.20653361  0.83216116  0.73893339  1
  O2-  O234  1  0.70598519  0.33462579  0.06414122  1
  O2-  O235  1  0.71516886  0.34107639  0.39981685  1
  O2-  O236  1  0.71257127  0.33808504  0.72837419  1
  O2-  O237  1  0.70004404  0.83349688  0.06322061  1
  O2-  O238  1  0.70678820  0.83662547  0.40079355  1
  O2-  O239  1  0.71472696  0.83715178  0.73485489  1
  O2-  O240  1  0.45640161  0.41924155  0.26660101  1
  O2-  O241  1  0.46395024  0.41789875  0.60045721  1
  O2-  O242  1  0.45752124  0.41727528  0.94184002  1
  O2-  O243  1  0.45988906  0.91526436  0.26343816  1
  O2-  O244  1  0.45979024  0.90646685  0.60432930  1
  O2-  O245  1  0.46086730  0.91330375  0.92599975  1
  O2-  O246  1  0.95823620  0.41776440  0.26529486  1
  O2-  O247  1  0.95909411  0.42195508  0.59964214  1
  O2-  O248  1  0.95741928  0.42089398  0.93201819  1
  O2-  O249  1  0.95717995  0.91832769  0.27546879  1
  O2-  O250  1  0.94904491  0.91699299  0.60501727  1
  O2-  O251  1  0.96080139  0.91369431  0.93126029  1
  O2-  O252  1  0.32512874  0.29511367  0.26626477  1
  O2-  O253  1  0.32389839  0.30221990  0.60701835  1
  O2-  O254  1  0.33361407  0.30186073  0.94064924  1
  O2-  O255  1  0.32957909  0.79529344  0.26428609  1
  O2-  O256  1  0.33425747  0.79214408  0.60757583  1
  O2-  O257  1  0.33118670  0.78871192  0.92882384  1
  O2-  O258  1  0.83561829  0.28918353  0.26551840  1
  O2-  O259  1  0.83742170  0.28948395  0.59680875  1
  O2-  O260  1  0.83125032  0.29363057  0.93169081  1
  O2-  O261  1  0.83386395  0.80375766  0.27412330  1
  O2-  O262  1  0.83679754  0.79103935  0.60024150  1
  O2-  O263  1  0.83011786  0.79150739  0.93340371  1
  O2-  O264  1  0.41334555  0.03742538  0.06158520  1
  O2-  O265  1  0.41508736  0.04103697  0.39148776  1
  O2-  O266  1  0.42211368  0.03736818  0.73234459  1
  O2-  O267  1  0.41923650  0.54727436  0.06896218  1
  O2-  O268  1  0.42600630  0.55426154  0.39324574  1
  O2-  O269  1  0.42482368  0.54726280  0.73499571  1
  O2-  O270  1  0.91680829  0.03718600  0.06635865  1
  O2-  O271  1  0.91429707  0.03999832  0.40754672  1
  O2-  O272  1  0.90874874  0.04395088  0.72991931  1
  O2-  O273  1  0.92038654  0.54482190  0.06585087  1
  O2-  O274  1  0.91250666  0.54497411  0.39501570  1
  O2-  O275  1  0.91242497  0.54847385  0.72689136  1
  O2-  O276  1  0.29877862  0.16341410  0.06133548  1
  O2-  O277  1  0.29583571  0.16081151  0.39340424  1
  O2-  O278  1  0.30083796  0.16956507  0.73510241  1
  O2-  O279  1  0.28517482  0.66780738  0.06670321  1
  O2-  O280  1  0.28618846  0.66881197  0.39877617  1
  O2-  O281  1  0.28787093  0.66448677  0.73629430  1
  O2-  O282  1  0.78909923  0.16741561  0.06547094  1
  O2-  O283  1  0.78871658  0.16978648  0.40321532  1
  O2-  O284  1  0.78975305  0.16513705  0.72830510  1
  O2-  O285  1  0.79058779  0.66780396  0.06878916  1
  O2-  O286  1  0.79558567  0.66725607  0.39558217  1
  O2-  O287  1  0.79063275  0.66479250  0.72669035  1
