# generated using pymatgen
data_Ca2Al2SiO7
_symmetry_space_group_name_H-M   'P 1'
_cell_length_a   15.45551638
_cell_length_b   15.45491931
_cell_length_c   15.28156705
_cell_angle_alpha   89.99411181
_cell_angle_beta   89.99736449
_cell_angle_gamma   89.98812100
_symmetry_Int_Tables_number   1
_chemical_formula_structural   Ca2Al2SiO7
_chemical_formula_sum   'Ca48 Al48 Si24 O168'
_cell_volume   3650.21244208
_cell_formula_units_Z   24
loop_
 _symmetry_equiv_pos_site_id
 _symmetry_equiv_pos_as_xyz
  1  'x, y, z'
loop_
 _atom_type_symbol
 _atom_type_oxidation_number
  Ca2+  2.0
  Al0+  0.0
  Si0+  0.0
  O2-  -2.0
loop_
 _atom_site_type_symbol
 _atom_site_label
 _atom_site_symmetry_multiplicity
 _atom_site_fract_x
 _atom_site_fract_y
 _atom_site_fract_z
 _atom_site_occupancy
  Ca2+  Ca0  1  0.16633191  0.07533206  0.16863520  1
  Ca2+  Ca1  1  0.16394772  0.07882253  0.51034246  1
  Ca2+  Ca2  1  0.15558925  0.07258445  0.83334206  1
  Ca2+  Ca3  1  0.17252612  0.58243912  0.17759583  1
  Ca2+  Ca4  1  0.17732196  0.59296956  0.50467346  1
  Ca2+  Ca5  1  0.17322677  0.58939957  0.83321216  1
  Ca2+  Ca6  1  0.67173642  0.08409589  0.17408754  1
  Ca2+  Ca7  1  0.67590461  0.07754006  0.50365672  1
  Ca2+  Ca8  1  0.67795133  0.08778322  0.83920181  1
  Ca2+  Ca9  1  0.67006294  0.59009787  0.16776368  1
  Ca2+  Ca10  1  0.65964073  0.57865503  0.50776500  1
  Ca2+  Ca11  1  0.66863221  0.57973750  0.83582117  1
  Ca2+  Ca12  1  0.07035191  0.33164471  0.16266620  1
  Ca2+  Ca13  1  0.07153287  0.32972883  0.49687146  1
  Ca2+  Ca14  1  0.06909376  0.32696426  0.82383753  1
  Ca2+  Ca15  1  0.08701915  0.82805056  0.16606063  1
  Ca2+  Ca16  1  0.08263898  0.82815481  0.50343317  1
  Ca2+  Ca17  1  0.07963703  0.83382463  0.82217590  1
  Ca2+  Ca18  1  0.57836036  0.32890074  0.16437586  1
  Ca2+  Ca19  1  0.57492657  0.33953823  0.50001906  1
  Ca2+  Ca20  1  0.58367644  0.33065653  0.82741008  1
  Ca2+  Ca21  1  0.58358399  0.82985778  0.16557017  1
  Ca2+  Ca22  1  0.58099535  0.82264146  0.48988947  1
  Ca2+  Ca23  1  0.58815080  0.81899503  0.82841389  1
  Ca2+  Ca24  1  0.33338437  0.42187825  0.17672274  1
  Ca2+  Ca25  1  0.34049467  0.42642267  0.50744498  1
  Ca2+  Ca26  1  0.33543082  0.41904315  0.82988154  1
  Ca2+  Ca27  1  0.33124868  0.91141189  0.17143996  1
  Ca2+  Ca28  1  0.32869100  0.91161443  0.50537488  1
  Ca2+  Ca29  1  0.31831921  0.91324532  0.83637556  1
  Ca2+  Ca30  1  0.83622451  0.41807876  0.16868327  1
  Ca2+  Ca31  1  0.82864692  0.41324693  0.50651734  1
  Ca2+  Ca32  1  0.83256607  0.41742759  0.83773886  1
  Ca2+  Ca33  1  0.82416221  0.93026996  0.17621449  1
  Ca2+  Ca34  1  0.83552632  0.92398155  0.50515633  1
  Ca2+  Ca35  1  0.84206241  0.92872400  0.83621877  1
  Ca2+  Ca36  1  0.42336417  0.17047127  0.16149386  1
  Ca2+  Ca37  1  0.41264457  0.18151688  0.49464501  1
  Ca2+  Ca38  1  0.42445103  0.17179674  0.82742670  1
  Ca2+  Ca39  1  0.42721207  0.66719506  0.16970632  1
  Ca2+  Ca40  1  0.42400318  0.66461611  0.49290824  1
  Ca2+  Ca41  1  0.42706471  0.66135253  0.82679154  1
  Ca2+  Ca42  1  0.90256337  0.17591103  0.16437802  1
  Ca2+  Ca43  1  0.91189103  0.17048974  0.50173034  1
  Ca2+  Ca44  1  0.91357053  0.17243653  0.82495984  1
  Ca2+  Ca45  1  0.92154872  0.66403683  0.16088206  1
  Ca2+  Ca46  1  0.92766933  0.67048289  0.49700763  1
  Ca2+  Ca47  1  0.92129076  0.67346587  0.82342310  1
  Al0+  Al48  1  -0.00016359  -0.00009745  0.01402067  1
  Al0+  Al49  1  0.00091938  0.00023520  0.33691151  1
  Al0+  Al50  1  -0.00040522  0.00018829  0.66704072  1
  Al0+  Al51  1  0.00052100  0.49971946  -0.00140020  1
  Al0+  Al52  1  0.00029797  0.49813360  0.32643082  1
  Al0+  Al53  1  0.00187898  0.49996383  0.65904630  1
  Al0+  Al54  1  0.49797070  -0.00021590  -0.00692542  1
  Al0+  Al55  1  0.49914224  -0.00062407  0.33515406  1
  Al0+  Al56  1  0.50101258  -0.00104562  0.66929753  1
  Al0+  Al57  1  0.49963925  0.50082083  -0.00197795  1
  Al0+  Al58  1  0.49996586  0.50051129  0.32685879  1
  Al0+  Al59  1  0.50104276  0.49911276  0.67055864  1
  Al0+  Al60  1  0.24853410  0.24943903  0.00049857  1
  Al0+  Al61  1  0.24674164  0.24989806  0.32781610  1
  Al0+  Al62  1  0.25060574  0.25145730  0.66113361  1
  Al0+  Al63  1  0.25085459  0.74940328  0.00565865  1
  Al0+  Al64  1  0.25128229  0.74874077  0.32998362  1
  Al0+  Al65  1  0.25179982  0.75036265  0.67474270  1
  Al0+  Al66  1  0.74730237  0.25227725  -0.00321804  1
  Al0+  Al67  1  0.74988484  0.25149658  0.33502611  1
  Al0+  Al68  1  0.74806614  0.24945110  0.67108328  1
  Al0+  Al69  1  0.75124884  0.74986589  -0.00046187  1
  Al0+  Al70  1  0.75225822  0.75034672  0.33361527  1
  Al0+  Al71  1  0.75042122  0.74926647  0.65757407  1
  Al0+  Al72  1  0.17945863  0.92889956  0.01695366  1
  Al0+  Al73  1  0.18132781  0.93139357  0.67939227  1
  Al0+  Al74  1  0.82030754  0.07285209  0.35138963  1
  Al0+  Al75  1  0.42923209  0.82228628  0.31916266  1
  Al0+  Al76  1  0.07025055  0.17850491  0.65300280  1
  Al0+  Al77  1  0.92880824  0.82224381  0.65215705  1
  Al0+  Al78  1  0.92793840  0.31862262  0.31819917  1
  Al0+  Al79  1  0.68036395  0.43073417  0.68037224  1
  Al0+  Al80  1  0.56983824  0.17879954  0.98644259  1
  Al0+  Al81  1  0.42723879  0.32183758  0.31908237  1
  Al0+  Al82  1  0.07468604  0.67872502  0.65334770  1
  Al0+  Al83  1  0.92951787  0.32083925  0.98508299  1
  Al0+  Al84  1  0.57409644  0.67826322  0.31702279  1
  Al0+  Al85  1  0.07022671  0.68069393  0.31862283  1
  Al0+  Al86  1  0.43087924  0.31949765  0.65410416  1
  Al0+  Al87  1  0.92570304  0.32151372  0.65131540  1
  Al0+  Al88  1  0.57196792  0.68050221  0.98410369  1
  Al0+  Al89  1  0.67689581  0.92701031  0.34928090  1
  Al0+  Al90  1  0.32010311  0.56839692  0.34679816  1
  Al0+  Al91  1  0.56988734  0.67875293  0.65328986  1
  Al0+  Al92  1  0.82177839  0.57124198  0.01206464  1
  Al0+  Al93  1  0.32031356  0.56965733  0.68161219  1
  Al0+  Al94  1  0.81834754  0.07290734  0.01493879  1
  Al0+  Al95  1  0.81879504  0.06810281  0.68218316  1
  Si0+  Si96  1  0.82453627  0.57108859  0.34754751  1
  Si0+  Si97  1  0.17855519  0.42836399  0.01457598  1
  Si0+  Si98  1  0.32163054  0.56936177  0.01753070  1
  Si0+  Si99  1  0.18127104  0.92854066  0.34997716  1
  Si0+  Si100  1  0.67669637  0.92442314  0.68431182  1
  Si0+  Si101  1  0.07209509  0.17627116  0.98517360  1
  Si0+  Si102  1  0.67971921  0.43153781  0.34644532  1
  Si0+  Si103  1  0.17649096  0.42609904  0.68262605  1
  Si0+  Si104  1  0.93119107  0.82151484  0.98868482  1
  Si0+  Si105  1  0.17624120  0.42661585  0.35013687  1
  Si0+  Si106  1  0.67698155  0.42978853  0.01816744  1
  Si0+  Si107  1  0.07188411  0.17527648  0.31408428  1
  Si0+  Si108  1  0.67662711  0.92729150  0.01411669  1
  Si0+  Si109  1  0.82508470  0.57301178  0.67970640  1
  Si0+  Si110  1  0.57250900  0.17550534  0.64928354  1
  Si0+  Si111  1  0.42576805  0.82118218  0.98093679  1
  Si0+  Si112  1  0.42833235  0.82240725  0.65315856  1
  Si0+  Si113  1  0.56993244  0.17922928  0.31978889  1
  Si0+  Si114  1  0.07247261  0.67908242  0.98553007  1
  Si0+  Si115  1  0.32079758  0.07348677  0.34756931  1
  Si0+  Si116  1  0.42559501  0.32229671  0.98282946  1
  Si0+  Si117  1  0.32400515  0.07615635  0.68290824  1
  Si0+  Si118  1  0.32336556  0.07252907  0.01635194  1
  Si0+  Si119  1  0.92896177  0.82392464  0.31460197  1
  O2-  O120  1  0.25581979  0.00336032  0.06208634  1
  O2-  O121  1  0.25105639  0.00161616  0.39074504  1
  O2-  O122  1  0.25491712  0.00766470  0.72699091  1
  O2-  O123  1  0.25121286  0.49710193  0.05835979  1
  O2-  O124  1  0.24698388  0.49255357  0.39471248  1
  O2-  O125  1  0.24241164  0.49732824  0.72837623  1
  O2-  O126  1  0.74043835  0.00002553  0.05934458  1
  O2-  O127  1  0.75094201  -0.00294795  0.39923236  1
  O2-  O128  1  0.74461308  -0.00711415  0.73008343  1
  O2-  O129  1  0.74610884  0.49840738  0.06168203  1
  O2-  O130  1  0.74861769  0.50486381  0.38860259  1
  O2-  O131  1  0.75902447  0.50252880  0.72534332  1
  O2-  O132  1  0.00035572  0.24153434  0.27096408  1
  O2-  O133  1  -0.00072578  0.25069332  0.60209596  1
  O2-  O134  1  0.00216058  0.24305659  0.94089880  1
  O2-  O135  1  -0.00508811  0.75317222  0.26883107  1
  O2-  O136  1  -0.00072758  0.74731179  0.60395898  1
  O2-  O137  1  0.00232336  0.75108715  0.94469670  1
  O2-  O138  1  0.49904196  0.24457455  0.27319223  1
  O2-  O139  1  0.50085041  0.24124949  0.60556549  1
  O2-  O140  1  0.49367837  0.25266234  0.94030667  1
  O2-  O141  1  0.50512685  0.75453749  0.26874617  1
  O2-  O142  1  0.49922398  0.75742500  0.60814446  1
  O2-  O143  1  0.49719128  0.75541000  0.93723313  1
  O2-  O144  1  0.07565533  0.17956909  0.09072496  1
  O2-  O145  1  0.07632899  0.17620459  0.41910441  1
  O2-  O146  1  0.06812185  0.17858919  0.76716691  1
  O2-  O147  1  0.07248065  0.67864373  0.09077665  1
  O2-  O148  1  0.07118873  0.68312710  0.43112622  1
  O2-  O149  1  0.07404667  0.68154337  0.76777593  1
  O2-  O150  1  0.56779192  0.18093630  0.10000464  1
  O2-  O151  1  0.56862220  0.18159264  0.42512223  1
  O2-  O152  1  0.57129565  0.17710915  0.75525278  1
  O2-  O153  1  0.57059655  0.68110746  0.09676341  1
  O2-  O154  1  0.56907935  0.67449406  0.43031054  1
  O2-  O155  1  0.56919904  0.67859461  0.76686058  1
  O2-  O156  1  0.17709774  0.42861275  0.24368084  1
  O2-  O157  1  0.17868766  0.42416913  0.57738416  1
  O2-  O158  1  0.17891415  0.42926201  0.90976254  1
  O2-  O159  1  0.18221076  0.92955240  0.24450269  1
  O2-  O160  1  0.18444265  0.93049927  0.56616276  1
  O2-  O161  1  0.17834980  0.92869042  0.90412596  1
  O2-  O162  1  0.68088296  0.42908778  0.24118743  1
  O2-  O163  1  0.67752704  0.43268190  0.56678768  1
  O2-  O164  1  0.67616357  0.43053882  0.91270489  1
  O2-  O165  1  0.67750484  0.93050651  0.23480953  1
  O2-  O166  1  0.67461078  0.92717838  0.57917907  1
  O2-  O167  1  0.68064987  0.92558119  0.90866830  1
  O2-  O168  1  0.42534590  0.32218938  0.08863764  1
  O2-  O169  1  0.42948676  0.32264319  0.43188928  1
  O2-  O170  1  0.43264578  0.31841670  0.76754653  1
  O2-  O171  1  0.42461551  0.82047807  0.08636559  1
  O2-  O172  1  0.42629546  0.81970500  0.43264696  1
  O2-  O173  1  0.42814612  0.82084845  0.75900057  1
  O2-  O174  1  0.93127430  0.32098221  0.09834345  1
  O2-  O175  1  0.92820156  0.31962807  0.43057603  1
  O2-  O176  1  0.92696357  0.32059763  0.76519970  1
  O2-  O177  1  0.93237148  0.81874350  0.09369910  1
  O2-  O178  1  0.93163691  0.82369740  0.41986118  1
  O2-  O179  1  0.93088418  0.82250965  0.76682503  1
  O2-  O180  1  0.31902384  0.07402038  0.24219818  1
  O2-  O181  1  0.32428184  0.07544183  0.57711637  1
  O2-  O182  1  0.32299964  0.07364046  0.91115700  1
  O2-  O183  1  0.31846088  0.56637423  0.23300143  1
  O2-  O184  1  0.32153829  0.56963161  0.56872995  1
  O2-  O185  1  0.32130388  0.56982728  0.91243160  1
  O2-  O186  1  0.81557957  0.07419984  0.23730338  1
  O2-  O187  1  0.81691277  0.06823432  0.56948297  1
  O2-  O188  1  0.82119250  0.07051497  0.90198439  1
  O2-  O189  1  0.82574755  0.56850629  0.24204917  1
  O2-  O190  1  0.82346298  0.57260587  0.57393505  1
  O2-  O191  1  0.82304707  0.57096358  0.89921054  1
  O2-  O192  1  0.04941459  0.08013265  0.26957399  1
  O2-  O193  1  0.04189029  0.08126626  0.59918710  1
  O2-  O194  1  0.04621785  0.08033503  0.94500295  1
  O2-  O195  1  0.04148255  0.58366403  0.26359880  1
  O2-  O196  1  0.05384663  0.57987999  0.59881761  1
  O2-  O197  1  0.04567846  0.58766887  0.93799753  1
  O2-  O198  1  0.54666856  0.08531475  0.27371290  1
  O2-  O199  1  0.55086062  0.07998086  0.60566938  1
  O2-  O200  1  0.54212070  0.08246197  0.92962377  1
  O2-  O201  1  0.54090439  0.58287142  0.26036641  1
  O2-  O202  1  0.53434130  0.58356510  0.60113451  1
  O2-  O203  1  0.53934814  0.58323237  0.93190955  1
  O2-  O204  1  0.16350065  0.20295699  0.26392379  1
  O2-  O205  1  0.16934622  0.20354900  0.59943380  1
  O2-  O206  1  0.16584635  0.20092670  0.93838505  1
  O2-  O207  1  0.16543644  0.71307121  0.26269554  1
  O2-  O208  1  0.17234046  0.71322949  0.60265708  1
  O2-  O209  1  0.16567014  0.70652875  0.94094477  1
  O2-  O210  1  0.66163158  0.21000339  0.27295511  1
  O2-  O211  1  0.66410983  0.20541272  0.60363980  1
  O2-  O212  1  0.66374347  0.21282755  0.93007326  1
  O2-  O213  1  0.67482123  0.70255833  0.26623998  1
  O2-  O214  1  0.66665409  0.70285006  0.59753414  1
  O2-  O215  1  0.66928459  0.71064317  0.93044233  1
  O2-  O216  1  0.08829087  0.45895900  0.06348622  1
  O2-  O217  1  0.08267899  0.45433188  0.39421129  1
  O2-  O218  1  0.08141558  0.44942769  0.72743606  1
  O2-  O219  1  0.08589668  0.95942244  0.07714881  1
  O2-  O220  1  0.08879838  0.95428775  0.39633047  1
  O2-  O221  1  0.08506977  0.96171848  0.73455749  1
  O2-  O222  1  0.58248744  0.45514636  0.06360091  1
  O2-  O223  1  0.58705062  0.45863514  0.39228862  1
  O2-  O224  1  0.58674816  0.46445493  0.73842862  1
  O2-  O225  1  0.57958790  0.94810533  0.05533896  1
  O2-  O226  1  0.57822159  0.95500941  0.40262117  1
  O2-  O227  1  0.58243773  0.94763340  0.73182671  1
  O2-  O228  1  0.20313241  0.33547133  0.06262062  1
  O2-  O229  1  0.19780746  0.33072418  0.39261272  1
  O2-  O230  1  0.20634258  0.33391559  0.73041326  1
  O2-  O231  1  0.21142087  0.83231281  0.07182327  1
  O2-  O232  1  0.21160449  0.83730238  0.39569898  1
  O2-  O233  1  0.21301488  0.83716508  0.73831739  1
  O2-  O234  1  0.70259849  0.33639255  0.06415327  1
  O2-  O235  1  0.70814213  0.34104641  0.39568324  1
  O2-  O236  1  0.70600262  0.33349042  0.73587827  1
  O2-  O237  1  0.70662723  0.83596903  0.06223944  1
  O2-  O238  1  0.70398433  0.82718339  0.40035241  1
  O2-  O239  1  0.70321298  0.82945545  0.72720772  1
  O2-  O240  1  0.46180662  0.41472954  0.26120562  1
  O2-  O241  1  0.46720919  0.41426622  0.60114719  1
  O2-  O242  1  0.45223410  0.41563407  0.93736935  1
  O2-  O243  1  0.45175623  0.92282952  0.26586297  1
  O2-  O244  1  0.44808789  0.91821841  0.60846245  1
  O2-  O245  1  0.44390037  0.91632422  0.93524802  1
  O2-  O246  1  0.96115874  0.41344304  0.26141863  1
  O2-  O247  1  0.95166612  0.41986474  0.59748334  1
  O2-  O248  1  0.96404353  0.41644377  0.93110376  1
  O2-  O249  1  0.95785493  0.91723733  0.26921124  1
  O2-  O250  1  0.96189474  0.91779600  0.59795426  1
  O2-  O251  1  0.96095852  0.91459183  0.94496491  1
  O2-  O252  1  0.32991041  0.29351224  0.26447371  1
  O2-  O253  1  0.33418799  0.29489524  0.59765568  1
  O2-  O254  1  0.33132871  0.29749145  0.93739483  1
  O2-  O255  1  0.33349243  0.78939970  0.26284653  1
  O2-  O256  1  0.33553435  0.79422612  0.60833720  1
  O2-  O257  1  0.33276055  0.78982625  0.93613702  1
  O2-  O258  1  0.83039131  0.28981567  0.26386611  1
  O2-  O259  1  0.82712761  0.29058255  0.60061748  1
  O2-  O260  1  0.83127418  0.29503287  0.93354946  1
  O2-  O261  1  0.83444009  0.80120868  0.26979680  1
  O2-  O262  1  0.83147655  0.79734677  0.59600900  1
  O2-  O263  1  0.83992086  0.79551041  0.94015282  1
  O2-  O264  1  0.41755696  0.04730528  0.06214007  1
  O2-  O265  1  0.41294338  0.05007007  0.39541928  1
  O2-  O266  1  0.41781942  0.05046366  0.72970486  1
  O2-  O267  1  0.41374223  0.54130479  0.06417379  1
  O2-  O268  1  0.41810906  0.53725375  0.39752127  1
  O2-  O269  1  0.41391030  0.53296079  0.73819025  1
  O2-  O270  1  0.91292479  0.04230514  0.07291713  1
  O2-  O271  1  0.92099397  0.04656001  0.40075812  1
  O2-  O272  1  0.91558044  0.03783265  0.73617017  1
  O2-  O273  1  0.91862215  0.53960514  0.06681812  1
  O2-  O274  1  0.91481490  0.53788167  0.39434495  1
  O2-  O275  1  0.92079423  0.55162405  0.72404728  1
  O2-  O276  1  0.29721162  0.16630822  0.06354333  1
  O2-  O277  1  0.29069777  0.16554010  0.39393264  1
  O2-  O278  1  0.29996225  0.17027362  0.72854198  1
  O2-  O279  1  0.29285248  0.66042242  0.06535919  1
  O2-  O280  1  0.28779709  0.66537968  0.39871751  1
  O2-  O281  1  0.29199795  0.66512839  0.74000577  1
  O2-  O282  1  0.78540764  0.17024873  0.06641218  1
  O2-  O283  1  0.78843202  0.17055522  0.40375222  1
  O2-  O284  1  0.78651334  0.16420334  0.73665475  1
  O2-  O285  1  0.79232288  0.66802106  0.06763145  1
  O2-  O286  1  0.80479935  0.66534369  0.39266754  1
  O2-  O287  1  0.79722232  0.66681471  0.72480902  1
