# generated using pymatgen
data_Ca2Al2SiO7
_symmetry_space_group_name_H-M   'P 1'
_cell_length_a   15.46140154
_cell_length_b   15.46069413
_cell_length_c   15.28609981
_cell_angle_alpha   89.98706283
_cell_angle_beta   90.00858696
_cell_angle_gamma   90.00269474
_symmetry_Int_Tables_number   1
_chemical_formula_structural   Ca2Al2SiO7
_chemical_formula_sum   'Ca48 Al48 Si24 O168'
_cell_volume   3654.05030603
_cell_formula_units_Z   24
loop_
 _symmetry_equiv_pos_site_id
 _symmetry_equiv_pos_as_xyz
  1  'x, y, z'
loop_
 _atom_type_symbol
 _atom_type_oxidation_number
  Ca2+  2.0
  Al0+  0.0
  Si0+  0.0
  O2-  -2.0
loop_
 _atom_site_type_symbol
 _atom_site_label
 _atom_site_symmetry_multiplicity
 _atom_site_fract_x
 _atom_site_fract_y
 _atom_site_fract_z
 _atom_site_occupancy
  Ca2+  Ca0  1  0.16479930  0.07813029  0.16520961  1
  Ca2+  Ca1  1  0.16751965  0.07518750  0.51326597  1
  Ca2+  Ca2  1  0.17238862  0.08354151  0.84073045  1
  Ca2+  Ca3  1  0.16516096  0.57971084  0.16220622  1
  Ca2+  Ca4  1  0.16810761  0.57440845  0.51057281  1
  Ca2+  Ca5  1  0.16276630  0.57403604  0.84102894  1
  Ca2+  Ca6  1  0.67166385  0.08493819  0.17283573  1
  Ca2+  Ca7  1  0.66783895  0.08967314  0.50617736  1
  Ca2+  Ca8  1  0.67791573  0.09380304  0.83568054  1
  Ca2+  Ca9  1  0.67206694  0.58546780  0.16487242  1
  Ca2+  Ca10  1  0.66799513  0.58146624  0.50718571  1
  Ca2+  Ca11  1  0.66909251  0.58485729  0.84179567  1
  Ca2+  Ca12  1  0.07499763  0.33015428  0.15555190  1
  Ca2+  Ca13  1  0.08409602  0.32494870  0.50044769  1
  Ca2+  Ca14  1  0.08682154  0.32591827  0.83134565  1
  Ca2+  Ca15  1  0.08953602  0.83106896  0.15788725  1
  Ca2+  Ca16  1  0.09346188  0.83041906  0.49994931  1
  Ca2+  Ca17  1  0.09518172  0.82561368  0.82995811  1
  Ca2+  Ca18  1  0.57658950  0.32978795  0.16677933  1
  Ca2+  Ca19  1  0.57139049  0.32015712  0.49758722  1
  Ca2+  Ca20  1  0.57202716  0.32861124  0.82440875  1
  Ca2+  Ca21  1  0.58398006  0.83133687  0.15946608  1
  Ca2+  Ca22  1  0.58595411  0.83155474  0.49624807  1
  Ca2+  Ca23  1  0.58320528  0.82151873  0.82981592  1
  Ca2+  Ca24  1  0.33079074  0.41912113  0.16440162  1
  Ca2+  Ca25  1  0.33233997  0.41146976  0.50775512  1
  Ca2+  Ca26  1  0.32207647  0.41623412  0.83862563  1
  Ca2+  Ca27  1  0.32239234  0.91982543  0.16675376  1
  Ca2+  Ca28  1  0.32442442  0.92542646  0.50763087  1
  Ca2+  Ca29  1  0.32439392  0.92751004  0.83724979  1
  Ca2+  Ca30  1  0.84460542  0.42109702  0.16737233  1
  Ca2+  Ca31  1  0.83413802  0.41263523  0.50254710  1
  Ca2+  Ca32  1  0.83214942  0.42068285  0.84346102  1
  Ca2+  Ca33  1  0.82960668  0.92522022  0.16877461  1
  Ca2+  Ca34  1  0.82483037  0.92441195  0.50595911  1
  Ca2+  Ca35  1  0.83383144  0.92926786  0.83588337  1
  Ca2+  Ca36  1  0.41901458  0.16397935  0.16391850  1
  Ca2+  Ca37  1  0.41474312  0.17340897  0.49710805  1
  Ca2+  Ca38  1  0.41489305  0.16758204  0.82273052  1
  Ca2+  Ca39  1  0.42091159  0.66760302  0.15458780  1
  Ca2+  Ca40  1  0.42204005  0.66762686  0.49909362  1
  Ca2+  Ca41  1  0.42396643  0.66002470  0.82996678  1
  Ca2+  Ca42  1  0.91953151  0.17610191  0.15593864  1
  Ca2+  Ca43  1  0.92012472  0.16761422  0.49940875  1
  Ca2+  Ca44  1  0.92701558  0.16199839  0.83224775  1
  Ca2+  Ca45  1  0.92172109  0.67126532  0.15448925  1
  Ca2+  Ca46  1  0.92496556  0.66889817  0.50071308  1
  Ca2+  Ca47  1  0.92623155  0.66659466  0.83278450  1
  Al0+  Al48  1  -0.00279680  0.00118209  0.00573842  1
  Al0+  Al49  1  -0.00147979  -0.00244611  0.33845988  1
  Al0+  Al50  1  -0.00356459  -0.00205569  0.66906528  1
  Al0+  Al51  1  -0.00251946  0.50233314  0.00136347  1
  Al0+  Al52  1  0.00258447  0.50147207  0.33254045  1
  Al0+  Al53  1  -0.00006080  0.50197507  0.66552479  1
  Al0+  Al54  1  0.49941162  -0.00130703  0.00062500  1
  Al0+  Al55  1  0.49990269  -0.00243889  0.33322464  1
  Al0+  Al56  1  0.50102648  -0.00336364  0.66788891  1
  Al0+  Al57  1  0.50021298  0.49895337  -0.00051990  1
  Al0+  Al58  1  0.50242942  0.49992832  0.33051227  1
  Al0+  Al59  1  0.50160204  0.49908214  0.65777440  1
  Al0+  Al60  1  0.24956699  0.25030272  0.00689707  1
  Al0+  Al61  1  0.24980514  0.25139568  0.32843050  1
  Al0+  Al62  1  0.24696923  0.25021061  0.66505874  1
  Al0+  Al63  1  0.25171548  0.75062119  0.00114685  1
  Al0+  Al64  1  0.25294083  0.74869077  0.33717001  1
  Al0+  Al65  1  0.25259684  0.74821545  0.66389400  1
  Al0+  Al66  1  0.74771191  0.25136224  0.00228167  1
  Al0+  Al67  1  0.75042989  0.25328005  0.32704376  1
  Al0+  Al68  1  0.74867243  0.25205731  0.66828876  1
  Al0+  Al69  1  0.74988238  0.74867060  -0.00119776  1
  Al0+  Al70  1  0.75352657  0.75082147  0.33752520  1
  Al0+  Al71  1  0.75140640  0.75010541  0.66251238  1
  Al0+  Al72  1  0.42624739  0.31903767  0.65328045  1
  Al0+  Al73  1  0.67891978  0.92886444  0.34656847  1
  Al0+  Al74  1  0.07086343  0.17884511  0.98581658  1
  Al0+  Al75  1  0.92689523  0.32244172  0.98402332  1
  Al0+  Al76  1  0.81838226  0.07284302  0.68044420  1
  Al0+  Al77  1  0.57040164  0.67879410  0.98694385  1
  Al0+  Al78  1  0.93149498  0.32146584  0.32020596  1
  Al0+  Al79  1  0.07225192  0.68157338  0.98711292  1
  Al0+  Al80  1  0.17766533  0.92641589  0.68242271  1
  Al0+  Al81  1  0.57240545  0.67943870  0.65121130  1
  Al0+  Al82  1  0.17852116  0.92802890  0.34902650  1
  Al0+  Al83  1  0.07215805  0.67937758  0.65267482  1
  Al0+  Al84  1  0.17765009  0.42930493  0.67928789  1
  Al0+  Al85  1  0.56956302  0.17728194  0.31727422  1
  Al0+  Al86  1  0.17690099  0.42950512  0.01606108  1
  Al0+  Al87  1  0.57252313  0.17698518  0.65439045  1
  Al0+  Al88  1  0.17837020  0.92920109  0.01431242  1
  Al0+  Al89  1  0.42696256  0.32275418  0.31467283  1
  Al0+  Al90  1  0.32269752  0.57030592  0.01297281  1
  Al0+  Al91  1  0.81962660  0.57099150  0.01306151  1
  Al0+  Al92  1  0.32062009  0.07178650  0.67987306  1
  Al0+  Al93  1  0.81966449  0.07298106  0.01512865  1
  Al0+  Al94  1  0.32311506  0.07283112  0.01648462  1
  Al0+  Al95  1  0.06917518  0.17697781  0.65427538  1
  Si0+  Si96  1  0.92647794  0.82296508  0.98367588  1
  Si0+  Si97  1  0.56979838  0.17693307  0.98528982  1
  Si0+  Si98  1  0.42816894  0.82280068  0.98159763  1
  Si0+  Si99  1  0.67912392  0.43044757  0.34969279  1
  Si0+  Si100  1  0.82077941  0.57215023  0.68131930  1
  Si0+  Si101  1  0.07257109  0.68118190  0.31831620  1
  Si0+  Si102  1  0.92858195  0.82022775  0.31851861  1
  Si0+  Si103  1  0.81942983  0.07483154  0.35067717  1
  Si0+  Si104  1  0.42897924  0.82112906  0.64773131  1
  Si0+  Si105  1  0.57417199  0.68007945  0.31756294  1
  Si0+  Si106  1  0.82314547  0.57097637  0.35036916  1
  Si0+  Si107  1  0.07096607  0.17453758  0.31797891  1
  Si0+  Si108  1  0.32076935  0.07199101  0.34954301  1
  Si0+  Si109  1  0.42939526  0.81861590  0.31756921  1
  Si0+  Si110  1  0.67926827  0.92782611  0.01449163  1
  Si0+  Si111  1  0.92750353  0.82161542  0.64819410  1
  Si0+  Si112  1  0.42920913  0.32038603  0.98511069  1
  Si0+  Si113  1  0.67671864  0.42807622  0.01821206  1
  Si0+  Si114  1  0.92778059  0.32308754  0.65158422  1
  Si0+  Si115  1  0.17894532  0.43049520  0.34891213  1
  Si0+  Si116  1  0.67807341  0.92502254  0.68455888  1
  Si0+  Si117  1  0.67925284  0.43087363  0.68068239  1
  Si0+  Si118  1  0.32450577  0.57005878  0.68077439  1
  Si0+  Si119  1  0.32377515  0.56993972  0.34911523  1
  O2-  O120  1  0.24846159  0.00267475  0.06541776  1
  O2-  O121  1  0.24768162  0.00824096  0.39414866  1
  O2-  O122  1  0.24571806  0.00284091  0.73027087  1
  O2-  O123  1  0.24907006  0.50213232  0.06620795  1
  O2-  O124  1  0.25555133  0.49613879  0.39079423  1
  O2-  O125  1  0.25403739  0.50353044  0.72395630  1
  O2-  O126  1  0.74389605  -0.00119866  0.06080612  1
  O2-  O127  1  0.74779102  0.00850955  0.39420085  1
  O2-  O128  1  0.74061166  -0.00009453  0.72700033  1
  O2-  O129  1  0.74814955  0.49447470  0.06231862  1
  O2-  O130  1  0.75215579  0.50004513  0.39254018  1
  O2-  O131  1  0.74958932  0.50189651  0.72348171  1
  O2-  O132  1  0.00255893  0.24375012  0.27444260  1
  O2-  O133  1  -0.00537307  0.25269602  0.60752209  1
  O2-  O134  1  -0.00027266  0.25168936  0.93459884  1
  O2-  O135  1  0.00463838  0.75494808  0.27634268  1
  O2-  O136  1  0.00152691  0.75759160  0.60431120  1
  O2-  O137  1  0.00063147  0.75962555  0.94060524  1
  O2-  O138  1  0.49573268  0.24686858  0.26567029  1
  O2-  O139  1  0.49443906  0.24220952  0.60458033  1
  O2-  O140  1  0.49553309  0.24456428  0.94365691  1
  O2-  O141  1  0.50343759  0.75041809  0.27489566  1
  O2-  O142  1  0.49968100  0.75422348  0.60222232  1
  O2-  O143  1  0.49465289  0.75090345  0.93854645  1
  O2-  O144  1  0.06784912  0.17876391  0.10007698  1
  O2-  O145  1  0.06977295  0.17519466  0.42387941  1
  O2-  O146  1  0.06970130  0.17776720  0.76655403  1
  O2-  O147  1  0.06903518  0.68272277  0.10111852  1
  O2-  O148  1  0.07025264  0.67943782  0.42350636  1
  O2-  O149  1  0.06819707  0.67756504  0.76517987  1
  O2-  O150  1  0.57013413  0.17803234  0.09046373  1
  O2-  O151  1  0.56958274  0.17960755  0.43060347  1
  O2-  O152  1  0.57488041  0.18432361  0.76797406  1
  O2-  O153  1  0.57131202  0.68230186  0.10063716  1
  O2-  O154  1  0.57329440  0.68023843  0.42270501  1
  O2-  O155  1  0.57266745  0.67914198  0.76400978  1
  O2-  O156  1  0.17506232  0.43490368  0.24447723  1
  O2-  O157  1  0.17713385  0.43152064  0.56528673  1
  O2-  O158  1  0.17872419  0.43012994  0.90247801  1
  O2-  O159  1  0.18115363  0.92440262  0.23652868  1
  O2-  O160  1  0.18213891  0.92747436  0.56816412  1
  O2-  O161  1  0.18145067  0.92781859  0.90142450  1
  O2-  O162  1  0.67699161  0.43390448  0.24482711  1
  O2-  O163  1  0.68162288  0.43196067  0.57528173  1
  O2-  O164  1  0.67532460  0.42990511  0.91238283  1
  O2-  O165  1  0.68445383  0.92424981  0.23373001  1
  O2-  O166  1  0.68229004  0.92098227  0.57885195  1
  O2-  O167  1  0.68102996  0.92638026  0.90910899  1
  O2-  O168  1  0.43358086  0.32315881  0.09011526  1
  O2-  O169  1  0.42837899  0.32418345  0.42800308  1
  O2-  O170  1  0.43003112  0.32377448  0.76685092  1
  O2-  O171  1  0.43134326  0.82271836  0.08778780  1
  O2-  O172  1  0.42884321  0.81475256  0.42245643  1
  O2-  O173  1  0.42954408  0.81886603  0.75297644  1
  O2-  O174  1  0.92903050  0.32079856  0.09810851  1
  O2-  O175  1  0.93269440  0.32267233  0.43363629  1
  O2-  O176  1  0.92642843  0.32549303  0.75637880  1
  O2-  O177  1  0.92268937  0.81931258  0.08984014  1
  O2-  O178  1  0.92547492  0.81686857  0.42322896  1
  O2-  O179  1  0.92081681  0.81769649  0.75318158  1
  O2-  O180  1  0.32172991  0.06844313  0.24417839  1
  O2-  O181  1  0.31935648  0.07041088  0.56574715  1
  O2-  O182  1  0.32647640  0.07127227  0.90328511  1
  O2-  O183  1  0.32297319  0.57317702  0.24446409  1
  O2-  O184  1  0.32405114  0.56928624  0.57431686  1
  O2-  O185  1  0.32677178  0.56563090  0.89971407  1
  O2-  O186  1  0.82010112  0.07253215  0.24516384  1
  O2-  O187  1  0.81722390  0.07186030  0.56683197  1
  O2-  O188  1  0.81778769  0.07161721  0.90211130  1
  O2-  O189  1  0.82248511  0.57283269  0.24549175  1
  O2-  O190  1  0.82061381  0.57088901  0.57554677  1
  O2-  O191  1  0.81617407  0.57258451  0.89988241  1
  O2-  O192  1  0.04504270  0.07997758  0.27399446  1
  O2-  O193  1  0.03652205  0.08048884  0.60007536  1
  O2-  O194  1  0.03931911  0.07995575  0.93550632  1
  O2-  O195  1  0.04119630  0.59080060  0.27094594  1
  O2-  O196  1  0.03542483  0.58530190  0.59526815  1
  O2-  O197  1  0.03630793  0.58669839  0.93419921  1
  O2-  O198  1  0.54556436  0.07664320  0.26586648  1
  O2-  O199  1  0.55675815  0.07383299  0.60705469  1
  O2-  O200  1  0.54802036  0.08338615  0.93902764  1
  O2-  O201  1  0.54746574  0.58821320  0.27081529  1
  O2-  O202  1  0.54227293  0.58424721  0.59351615  1
  O2-  O203  1  0.54224642  0.58129287  0.93316383  1
  O2-  O204  1  0.16478756  0.19893540  0.27290714  1
  O2-  O205  1  0.16342230  0.20918542  0.59679282  1
  O2-  O206  1  0.17144312  0.20641494  0.93685567  1
  O2-  O207  1  0.16630163  0.70590467  0.27374597  1
  O2-  O208  1  0.17015684  0.70449579  0.59746614  1
  O2-  O209  1  0.17043056  0.70699811  0.93398766  1
  O2-  O210  1  0.66718440  0.20965531  0.26422464  1
  O2-  O211  1  0.66738088  0.21488166  0.59874741  1
  O2-  O212  1  0.66034111  0.20918271  0.93872071  1
  O2-  O213  1  0.66743813  0.70799713  0.27302279  1
  O2-  O214  1  0.66914254  0.70910086  0.59590482  1
  O2-  O215  1  0.66594432  0.71138755  0.93177257  1
  O2-  O216  1  0.07944582  0.46089968  0.06926983  1
  O2-  O217  1  0.08998515  0.46509333  0.39852929  1
  O2-  O218  1  0.08181547  0.46312193  0.73250037  1
  O2-  O219  1  0.07890004  0.95284482  0.06802224  1
  O2-  O220  1  0.07902397  0.95052093  0.40216439  1
  O2-  O221  1  0.07530041  0.94401408  0.72935860  1
  O2-  O222  1  0.58557059  0.45830320  0.06625045  1
  O2-  O223  1  0.58874935  0.46171597  0.39835425  1
  O2-  O224  1  0.58714930  0.46005121  0.72643974  1
  O2-  O225  1  0.58464968  0.94934909  0.05989808  1
  O2-  O226  1  0.57948591  0.94992227  0.39939775  1
  O2-  O227  1  0.58208641  0.93976561  0.72839685  1
  O2-  O228  1  0.20569605  0.33301517  0.07170608  1
  O2-  O229  1  0.20124089  0.33553595  0.39294765  1
  O2-  O230  1  0.20617958  0.33303191  0.73286298  1
  O2-  O231  1  0.21028763  0.83195466  0.06892198  1
  O2-  O232  1  0.21480592  0.83214660  0.40280200  1
  O2-  O233  1  0.21160954  0.82796894  0.73193385  1
  O2-  O234  1  0.69830120  0.33441807  0.06521944  1
  O2-  O235  1  0.70772894  0.33835725  0.39569557  1
  O2-  O236  1  0.70612360  0.34060949  0.73054573  1
  O2-  O237  1  0.70781055  0.83551436  0.06187822  1
  O2-  O238  1  0.71535643  0.83426654  0.40324543  1
  O2-  O239  1  0.71179654  0.83351133  0.73106981  1
  O2-  O240  1  0.46200678  0.42020788  0.26231144  1
  O2-  O241  1  0.46049216  0.41443239  0.59623513  1
  O2-  O242  1  0.46244579  0.40959258  0.93617156  1
  O2-  O243  1  0.45395710  0.91064877  0.27001722  1
  O2-  O244  1  0.45358724  0.91450489  0.60064461  1
  O2-  O245  1  0.45803122  0.91447188  0.93387097  1
  O2-  O246  1  0.96448842  0.41853391  0.26717922  1
  O2-  O247  1  0.95389760  0.41601837  0.60350785  1
  O2-  O248  1  0.95028931  0.42319280  0.93480731  1
  O2-  O249  1  0.94987680  0.91469175  0.27343123  1
  O2-  O250  1  0.94611759  0.91634926  0.60217441  1
  O2-  O251  1  0.94555697  0.91882169  0.94145570  1
  O2-  O252  1  0.32675326  0.30072749  0.26264460  1
  O2-  O253  1  0.32808129  0.29495547  0.59812475  1
  O2-  O254  1  0.33494977  0.29780239  0.94195259  1
  O2-  O255  1  0.33913598  0.78579268  0.26960187  1
  O2-  O256  1  0.33773274  0.79192154  0.59837912  1
  O2-  O257  1  0.33461675  0.79942233  0.93650816  1
  O2-  O258  1  0.83361054  0.29881098  0.26560574  1
  O2-  O259  1  0.83389282  0.29796932  0.60504747  1
  O2-  O260  1  0.82595361  0.29648397  0.93475488  1
  O2-  O261  1  0.83948912  0.78634371  0.26903461  1
  O2-  O262  1  0.83772386  0.78854253  0.59717074  1
  O2-  O263  1  0.83618597  0.79057030  0.93510395  1
  O2-  O264  1  0.42092181  0.03994436  0.07006850  1
  O2-  O265  1  0.41293847  0.04135391  0.39529786  1
  O2-  O266  1  0.41987082  0.04224406  0.73172615  1
  O2-  O267  1  0.42009599  0.53949772  0.06858204  1
  O2-  O268  1  0.41776069  0.54590879  0.39491261  1
  O2-  O269  1  0.41909251  0.54380486  0.72416217  1
  O2-  O270  1  0.91342794  0.04141509  0.07320854  1
  O2-  O271  1  0.91173845  0.04498872  0.39738457  1
  O2-  O272  1  0.91265994  0.03808183  0.73563967  1
  O2-  O273  1  0.91525015  0.54451456  0.07071805  1
  O2-  O274  1  0.91525628  0.54264415  0.39766976  1
  O2-  O275  1  0.91225151  0.54468394  0.72808204  1
  O2-  O276  1  0.29861227  0.17072894  0.07143196  1
  O2-  O277  1  0.30018658  0.16889437  0.39103968  1
  O2-  O278  1  0.29459135  0.17087530  0.73109921  1
  O2-  O279  1  0.29914159  0.66984806  0.06577198  1
  O2-  O280  1  0.29371711  0.65988021  0.39928862  1
  O2-  O281  1  0.30297211  0.66471103  0.72464580  1
  O2-  O282  1  0.78695388  0.16873923  0.06988234  1
  O2-  O283  1  0.79654547  0.17023186  0.39415379  1
  O2-  O284  1  0.78882485  0.16963843  0.73483279  1
  O2-  O285  1  0.78565157  0.66634779  0.06940732  1
  O2-  O286  1  0.79472519  0.66179853  0.39945582  1
  O2-  O287  1  0.79243687  0.66402557  0.72706416  1
