# generated using pymatgen
data_Ca2Al2SiO7
_symmetry_space_group_name_H-M   'P 1'
_cell_length_a   15.46180638
_cell_length_b   15.46087634
_cell_length_c   15.28633129
_cell_angle_alpha   89.99602673
_cell_angle_beta   90.00459319
_cell_angle_gamma   90.00616650
_symmetry_Int_Tables_number   1
_chemical_formula_structural   Ca2Al2SiO7
_chemical_formula_sum   'Ca48 Al48 Si24 O168'
_cell_volume   3654.24448086
_cell_formula_units_Z   24
loop_
 _symmetry_equiv_pos_site_id
 _symmetry_equiv_pos_as_xyz
  1  'x, y, z'
loop_
 _atom_type_symbol
 _atom_type_oxidation_number
  Ca2+  2.0
  Al0+  0.0
  Si0+  0.0
  O2-  -2.0
loop_
 _atom_site_type_symbol
 _atom_site_label
 _atom_site_symmetry_multiplicity
 _atom_site_fract_x
 _atom_site_fract_y
 _atom_site_fract_z
 _atom_site_occupancy
  Ca2+  Ca0  1  0.17161669  0.08167700  0.17231618  1
  Ca2+  Ca1  1  0.16972424  0.07661750  0.50641689  1
  Ca2+  Ca2  1  0.15567682  0.07859562  0.83302874  1
  Ca2+  Ca3  1  0.16297489  0.57524339  0.17283344  1
  Ca2+  Ca4  1  0.16268047  0.58032898  0.50850024  1
  Ca2+  Ca5  1  0.16928226  0.57890341  0.83690110  1
  Ca2+  Ca6  1  0.66651459  0.06830038  0.17259487  1
  Ca2+  Ca7  1  0.67261098  0.07594264  0.50626470  1
  Ca2+  Ca8  1  0.67404219  0.08081670  0.83507273  1
  Ca2+  Ca9  1  0.67678556  0.58715034  0.17551213  1
  Ca2+  Ca10  1  0.67167535  0.59058448  0.49700131  1
  Ca2+  Ca11  1  0.67476366  0.58472060  0.84052662  1
  Ca2+  Ca12  1  0.09371817  0.32901994  0.16139946  1
  Ca2+  Ca13  1  0.09301439  0.33124663  0.49784238  1
  Ca2+  Ca14  1  0.09402269  0.32581688  0.83079213  1
  Ca2+  Ca15  1  0.07071125  0.82629348  0.16302227  1
  Ca2+  Ca16  1  0.07743013  0.82570302  0.49650059  1
  Ca2+  Ca17  1  0.07266998  0.82981762  0.82075912  1
  Ca2+  Ca18  1  0.58548297  0.33506137  0.16517423  1
  Ca2+  Ca19  1  0.58648306  0.32794699  0.49470988  1
  Ca2+  Ca20  1  0.58124108  0.32780716  0.82288654  1
  Ca2+  Ca21  1  0.57837988  0.83514076  0.16558586  1
  Ca2+  Ca22  1  0.57780565  0.82887585  0.48751793  1
  Ca2+  Ca23  1  0.57721294  0.83807786  0.83601879  1
  Ca2+  Ca24  1  0.32410190  0.42372539  0.16922050  1
  Ca2+  Ca25  1  0.32239803  0.42704260  0.50703727  1
  Ca2+  Ca26  1  0.32507934  0.42971973  0.83652759  1
  Ca2+  Ca27  1  0.34093961  0.92112540  0.17315854  1
  Ca2+  Ca28  1  0.33042047  0.91740337  0.50236876  1
  Ca2+  Ca29  1  0.32326389  0.91204041  0.83568317  1
  Ca2+  Ca30  1  0.83134286  0.43112686  0.17520992  1
  Ca2+  Ca31  1  0.83111747  0.42376730  0.49732575  1
  Ca2+  Ca32  1  0.83475802  0.42503384  0.83854905  1
  Ca2+  Ca33  1  0.82493628  0.90506759  0.17037211  1
  Ca2+  Ca34  1  0.83318497  0.91244286  0.50398389  1
  Ca2+  Ca35  1  0.83415189  0.91667765  0.83835009  1
  Ca2+  Ca36  1  0.41472874  0.16678808  0.16393009  1
  Ca2+  Ca37  1  0.42016612  0.16391672  0.49484453  1
  Ca2+  Ca38  1  0.42509726  0.16915472  0.82668050  1
  Ca2+  Ca39  1  0.42028441  0.67418924  0.16242421  1
  Ca2+  Ca40  1  0.41921212  0.67064445  0.49132806  1
  Ca2+  Ca41  1  0.40942835  0.66680460  0.83145912  1
  Ca2+  Ca42  1  0.92491003  0.17172509  0.15975259  1
  Ca2+  Ca43  1  0.92025772  0.16421072  0.50209006  1
  Ca2+  Ca44  1  0.92634836  0.16659737  0.82457392  1
  Ca2+  Ca45  1  0.91275383  0.66939733  0.16669923  1
  Ca2+  Ca46  1  0.92578306  0.67274817  0.49216183  1
  Ca2+  Ca47  1  0.91807421  0.67572246  0.82839436  1
  Al0+  Al48  1  -0.00035404  0.00071645  -0.00514748  1
  Al0+  Al49  1  0.00124449  0.00071244  0.32778878  1
  Al0+  Al50  1  -0.00144354  0.00307935  0.66541269  1
  Al0+  Al51  1  -0.00084452  0.49853821  0.00788266  1
  Al0+  Al52  1  -0.00130109  0.49777022  0.33905682  1
  Al0+  Al53  1  -0.00205838  0.49879241  0.66979665  1
  Al0+  Al54  1  0.50015745  -0.00122621  -0.00237298  1
  Al0+  Al55  1  0.50248178  0.00172432  0.33886854  1
  Al0+  Al56  1  0.50129069  -0.00003178  0.66303212  1
  Al0+  Al57  1  0.49889384  0.49979259  0.00161378  1
  Al0+  Al58  1  0.49876976  0.49748135  0.33152166  1
  Al0+  Al59  1  0.49936523  0.50014496  0.66964744  1
  Al0+  Al60  1  0.25265087  0.24932045  -0.00354068  1
  Al0+  Al61  1  0.25329907  0.24971096  0.34112568  1
  Al0+  Al62  1  0.25214181  0.25115631  0.66515486  1
  Al0+  Al63  1  0.25009016  0.75075852  0.00078630  1
  Al0+  Al64  1  0.24850905  0.75083960  0.32351756  1
  Al0+  Al65  1  0.24925106  0.75161280  0.67019490  1
  Al0+  Al66  1  0.75216985  0.24853561  -0.00111070  1
  Al0+  Al67  1  0.75152251  0.24940314  0.33365430  1
  Al0+  Al68  1  0.75016243  0.24779149  0.66613414  1
  Al0+  Al69  1  0.74827114  0.75021149  0.00238226  1
  Al0+  Al70  1  0.74898159  0.74984004  0.33734603  1
  Al0+  Al71  1  0.74674965  0.75081980  0.66560390  1
  Al0+  Al72  1  0.67924078  0.93206301  0.01339705  1
  Al0+  Al73  1  0.07114815  0.67811047  0.65419604  1
  Al0+  Al74  1  0.68133842  0.92960238  0.34830876  1
  Al0+  Al75  1  0.67667570  0.42678727  0.34810614  1
  Al0+  Al76  1  0.92746129  0.81840841  0.98523756  1
  Al0+  Al77  1  0.32106092  0.06963553  0.34676810  1
  Al0+  Al78  1  0.17984149  0.42986737  0.34860174  1
  Al0+  Al79  1  0.92888245  0.82209956  0.31771316  1
  Al0+  Al80  1  0.81947982  0.57060438  0.01309703  1
  Al0+  Al81  1  0.07233962  0.18141684  0.65076339  1
  Al0+  Al82  1  0.32164252  0.57315629  0.68085875  1
  Al0+  Al83  1  0.81978238  0.57193540  0.35187378  1
  Al0+  Al84  1  0.18107014  0.42825207  0.01579179  1
  Al0+  Al85  1  0.17932458  0.93151115  0.67886353  1
  Al0+  Al86  1  0.92683379  0.82204565  0.65159588  1
  Al0+  Al87  1  0.17644990  0.42809175  0.68336699  1
  Al0+  Al88  1  0.82003618  0.07024699  0.68079336  1
  Al0+  Al89  1  0.42915032  0.82360496  0.31885919  1
  Al0+  Al90  1  0.07234885  0.18067418  0.98641693  1
  Al0+  Al91  1  0.32214858  0.57438033  0.01862015  1
  Al0+  Al92  1  0.56999572  0.67659916  0.31832164  1
  Al0+  Al93  1  0.42808732  0.82176233  0.98432036  1
  Al0+  Al94  1  0.07062810  0.67503419  0.31742670  1
  Al0+  Al95  1  0.57176610  0.17888861  0.65146885  1
  Si0+  Si96  1  0.67750181  0.42473539  0.01389170  1
  Si0+  Si97  1  0.92744086  0.32282700  0.98393276  1
  Si0+  Si98  1  0.82478844  0.07295036  0.34850299  1
  Si0+  Si99  1  0.57035004  0.67778430  0.98290602  1
  Si0+  Si100  1  0.43056528  0.32265773  0.64820476  1
  Si0+  Si101  1  0.32453143  0.07173440  0.68382544  1
  Si0+  Si102  1  0.43062115  0.32121052  0.98397208  1
  Si0+  Si103  1  0.42815804  0.31889279  0.31755471  1
  Si0+  Si104  1  0.67660479  0.92663809  0.68505462  1
  Si0+  Si105  1  0.17578186  0.92928461  0.01458782  1
  Si0+  Si106  1  0.67956868  0.42872393  0.68099767  1
  Si0+  Si107  1  0.57259189  0.17992662  0.31691386  1
  Si0+  Si108  1  0.32098604  0.06864944  0.01196065  1
  Si0+  Si109  1  0.07155150  0.67590066  0.98412793  1
  Si0+  Si110  1  0.07399637  0.18105531  0.31915831  1
  Si0+  Si111  1  0.32092526  0.57424654  0.34772821  1
  Si0+  Si112  1  0.81911687  0.57258420  0.68243579  1
  Si0+  Si113  1  0.82423125  0.07268581  0.01759995  1
  Si0+  Si114  1  0.57009447  0.67743999  0.65318482  1
  Si0+  Si115  1  0.92834121  0.31932674  0.31868223  1
  Si0+  Si116  1  0.42837334  0.82093319  0.65240946  1
  Si0+  Si117  1  0.92608526  0.32249261  0.64929413  1
  Si0+  Si118  1  0.17621695  0.92753632  0.34741439  1
  Si0+  Si119  1  0.57163827  0.17845028  0.98600618  1
  O2-  O120  1  0.24983523  -0.00141166  0.05529236  1
  O2-  O121  1  0.24872732  -0.00747553  0.39166269  1
  O2-  O122  1  0.25331427  0.00685212  0.72888205  1
  O2-  O123  1  0.24728293  0.50462795  0.06727658  1
  O2-  O124  1  0.24803985  0.51115643  0.39342761  1
  O2-  O125  1  0.24630335  0.50381779  0.73014479  1
  O2-  O126  1  0.75603902  0.00422432  0.06166501  1
  O2-  O127  1  0.76066530  0.00042690  0.39284980  1
  O2-  O128  1  0.74798936  -0.00699499  0.72804888  1
  O2-  O129  1  0.74520175  0.49356266  0.05726217  1
  O2-  O130  1  0.74389827  0.50168859  0.40010473  1
  O2-  O131  1  0.74880375  0.50015871  0.72454716  1
  O2-  O132  1  0.00259748  0.25125203  0.27651002  1
  O2-  O133  1  0.00057973  0.25967064  0.60496146  1
  O2-  O134  1  -0.00268416  0.25560129  0.94010919  1
  O2-  O135  1  -0.00138509  0.74765531  0.26788402  1
  O2-  O136  1  -0.00127815  0.74929677  0.60362806  1
  O2-  O137  1  0.00397308  0.74539614  0.93917116  1
  O2-  O138  1  0.50288743  0.25175221  0.27364271  1
  O2-  O139  1  0.49658285  0.25185771  0.60294438  1
  O2-  O140  1  0.50726799  0.25506009  0.94291304  1
  O2-  O141  1  0.49859099  0.74933914  0.26836725  1
  O2-  O142  1  0.49797023  0.74776143  0.61249041  1
  O2-  O143  1  0.49857971  0.74267289  0.93729575  1
  O2-  O144  1  0.07306741  0.18108074  0.10023447  1
  O2-  O145  1  0.07355773  0.18065856  0.42395629  1
  O2-  O146  1  0.06957832  0.18150373  0.76394927  1
  O2-  O147  1  0.06984531  0.67714206  0.08958576  1
  O2-  O148  1  0.07098650  0.67642019  0.43106114  1
  O2-  O149  1  0.06845341  0.67948541  0.76819969  1
  O2-  O150  1  0.56921673  0.17810399  0.09115076  1
  O2-  O151  1  0.57180773  0.18072658  0.42186916  1
  O2-  O152  1  0.57039846  0.18174924  0.76544716  1
  O2-  O153  1  0.57103689  0.67857733  0.08791354  1
  O2-  O154  1  0.56657704  0.67812185  0.43279482  1
  O2-  O155  1  0.57307282  0.67707735  0.75829256  1
  O2-  O156  1  0.18433338  0.42437370  0.23580121  1
  O2-  O157  1  0.18072645  0.42815100  0.56975706  1
  O2-  O158  1  0.18454397  0.42613854  0.90280202  1
  O2-  O159  1  0.17369909  0.93328989  0.24161604  1
  O2-  O160  1  0.18332314  0.93178213  0.56579572  1
  O2-  O161  1  0.17533876  0.93136580  0.90937317  1
  O2-  O162  1  0.68272134  0.42270447  0.23441099  1
  O2-  O163  1  0.67915102  0.42883853  0.57650906  1
  O2-  O164  1  0.67822746  0.42319807  0.90779969  1
  O2-  O165  1  0.67862077  0.93361317  0.23509277  1
  O2-  O166  1  0.67449171  0.92722130  0.57976337  1
  O2-  O167  1  0.67768454  0.93614758  0.90025008  1
  O2-  O168  1  0.42924645  0.31809956  0.08918344  1
  O2-  O169  1  0.42749750  0.31552133  0.42235977  1
  O2-  O170  1  0.43481272  0.32191362  0.75423084  1
  O2-  O171  1  0.43355330  0.82801892  0.09645122  1
  O2-  O172  1  0.43024531  0.82322286  0.43302890  1
  O2-  O173  1  0.43036524  0.82362135  0.75756906  1
  O2-  O174  1  0.92337582  0.31910959  0.08933672  1
  O2-  O175  1  0.92564753  0.31633140  0.42360308  1
  O2-  O176  1  0.92124177  0.32014892  0.75487780  1
  O2-  O177  1  0.92769675  0.81809219  0.09788400  1
  O2-  O178  1  0.93297302  0.82459923  0.43097917  1
  O2-  O179  1  0.92567740  0.81893278  0.76569417  1
  O2-  O180  1  0.31892114  0.07317403  0.23288832  1
  O2-  O181  1  0.32607227  0.06838844  0.57832055  1
  O2-  O182  1  0.32332573  0.06865857  0.90713283  1
  O2-  O183  1  0.32230962  0.56950441  0.24243740  1
  O2-  O184  1  0.32703098  0.57097653  0.56744890  1
  O2-  O185  1  0.32306362  0.57052074  0.90518332  1
  O2-  O186  1  0.82211095  0.07743069  0.24294423  1
  O2-  O187  1  0.81705760  0.07194036  0.56774341  1
  O2-  O188  1  0.82203549  0.07509617  0.91216410  1
  O2-  O189  1  0.81947545  0.56905613  0.23815380  1
  O2-  O190  1  0.81736817  0.57272834  0.57795963  1
  O2-  O191  1  0.81716433  0.56904605  0.89915393  1
  O2-  O192  1  0.04831365  0.08983916  0.26944306  1
  O2-  O193  1  0.03770836  0.08674543  0.59600716  1
  O2-  O194  1  0.04020997  0.08529427  0.93115075  1
  O2-  O195  1  0.04089288  0.57522417  0.26748753  1
  O2-  O196  1  0.04287419  0.57834707  0.60400112  1
  O2-  O197  1  0.04526963  0.58090388  0.94127897  1
  O2-  O198  1  0.54152102  0.08922207  0.27011622  1
  O2-  O199  1  0.54226744  0.08215062  0.59705850  1
  O2-  O200  1  0.53728757  0.09060584  0.93602698  1
  O2-  O201  1  0.54523881  0.57676789  0.26555098  1
  O2-  O202  1  0.54464292  0.58492707  0.60635016  1
  O2-  O203  1  0.54990393  0.58164664  0.93797953  1
  O2-  O204  1  0.16616157  0.21107306  0.27339700  1
  O2-  O205  1  0.17149881  0.20659582  0.59818353  1
  O2-  O206  1  0.16921188  0.20915136  0.93112308  1
  O2-  O207  1  0.16820835  0.70137258  0.26168424  1
  O2-  O208  1  0.17011480  0.70704351  0.60254662  1
  O2-  O209  1  0.16620558  0.70029306  0.94037249  1
  O2-  O210  1  0.66463450  0.20630007  0.26886355  1
  O2-  O211  1  0.66710970  0.21139811  0.59719978  1
  O2-  O212  1  0.66586794  0.20035278  0.93971599  1
  O2-  O213  1  0.66902561  0.70553582  0.26874146  1
  O2-  O214  1  0.66025462  0.70679787  0.60380417  1
  O2-  O215  1  0.66203151  0.70796650  0.93522503  1
  O2-  O216  1  0.08033875  0.44773130  0.06780903  1
  O2-  O217  1  0.08093790  0.44997391  0.40143043  1
  O2-  O218  1  0.07578936  0.44930352  0.73555875  1
  O2-  O219  1  0.08570414  0.96150176  0.06261888  1
  O2-  O220  1  0.08492311  0.95915991  0.39473665  1
  O2-  O221  1  0.08331678  0.96389338  0.73282262  1
  O2-  O222  1  0.58312647  0.44716981  0.05890425  1
  O2-  O223  1  0.57500414  0.44614430  0.39809011  1
  O2-  O224  1  0.58798029  0.45507398  0.73002115  1
  O2-  O225  1  0.58396100  0.96782778  0.06742083  1
  O2-  O226  1  0.58798357  0.96617432  0.40486420  1
  O2-  O227  1  0.58374107  0.95696250  0.73074613  1
  O2-  O228  1  0.21704066  0.33015411  0.06710091  1
  O2-  O229  1  0.21799416  0.33634820  0.40412709  1
  O2-  O230  1  0.21076688  0.32994539  0.73443426  1
  O2-  O231  1  0.20016694  0.83687201  0.06075230  1
  O2-  O232  1  0.19847866  0.83200640  0.38994176  1
  O2-  O233  1  0.21038396  0.83688576  0.73622792  1
  O2-  O234  1  0.70179802  0.33039688  0.05985355  1
  O2-  O235  1  0.71035015  0.32940106  0.40157402  1
  O2-  O236  1  0.70814148  0.33730044  0.72883126  1
  O2-  O237  1  0.70631124  0.83463189  0.06614417  1
  O2-  O238  1  0.70525809  0.83278123  0.40357228  1
  O2-  O239  1  0.69825770  0.83211612  0.73139910  1
  O2-  O240  1  0.45122607  0.41083556  0.26850145  1
  O2-  O241  1  0.45969322  0.41538011  0.60259175  1
  O2-  O242  1  0.45503238  0.41382981  0.93631066  1
  O2-  O243  1  0.46242643  0.92251091  0.26824049  1
  O2-  O244  1  0.45770560  0.91185652  0.60397921  1
  O2-  O245  1  0.46378254  0.91651736  0.92790208  1
  O2-  O246  1  0.95292469  0.41200614  0.27308912  1
  O2-  O247  1  0.94477032  0.41830736  0.60578448  1
  O2-  O248  1  0.95074603  0.41758472  0.93955789  1
  O2-  O249  1  0.95687011  0.92065947  0.26238551  1
  O2-  O250  1  0.95386278  0.92098926  0.60110155  1
  O2-  O251  1  0.95657306  0.91658896  0.93309932  1
  O2-  O252  1  0.33891339  0.28380602  0.26924296  1
  O2-  O253  1  0.33671252  0.29922856  0.60292397  1
  O2-  O254  1  0.34316368  0.28636138  0.93350787  1
  O2-  O255  1  0.32988770  0.80290597  0.26468130  1
  O2-  O256  1  0.33635723  0.79590842  0.60549536  1
  O2-  O257  1  0.32919834  0.79595254  0.93157960  1
  O2-  O258  1  0.83873688  0.28821132  0.26801434  1
  O2-  O259  1  0.83557488  0.28993742  0.60102461  1
  O2-  O260  1  0.83400152  0.29700929  0.93534316  1
  O2-  O261  1  0.82885652  0.79408164  0.26917285  1
  O2-  O262  1  0.82696582  0.79419403  0.60117368  1
  O2-  O263  1  0.83018142  0.78787382  0.93197957  1
  O2-  O264  1  0.41212967  0.04079061  0.06094080  1
  O2-  O265  1  0.41773519  0.04326709  0.40226919  1
  O2-  O266  1  0.41799667  0.04373095  0.72985396  1
  O2-  O267  1  0.42046605  0.54160262  0.07009717  1
  O2-  O268  1  0.41293934  0.54302407  0.39388614  1
  O2-  O269  1  0.41887892  0.54033940  0.73686545  1
  O2-  O270  1  0.91857156  0.04860213  0.06222514  1
  O2-  O271  1  0.92077805  0.05213678  0.39170617  1
  O2-  O272  1  0.91704438  0.04432713  0.73537841  1
  O2-  O273  1  0.91433811  0.54077850  0.07002473  1
  O2-  O274  1  0.91530409  0.53693618  0.40616474  1
  O2-  O275  1  0.90977279  0.54495329  0.73142599  1
  O2-  O276  1  0.29446458  0.16079762  0.05942111  1
  O2-  O277  1  0.28939043  0.16343594  0.40500564  1
  O2-  O278  1  0.30460357  0.16778410  0.72640426  1
  O2-  O279  1  0.30008031  0.67541468  0.06827460  1
  O2-  O280  1  0.30163795  0.67112382  0.38912554  1
  O2-  O281  1  0.29738409  0.67177652  0.73456264  1
  O2-  O282  1  0.79881871  0.16693203  0.06367561  1
  O2-  O283  1  0.79483066  0.16412476  0.39672950  1
  O2-  O284  1  0.78534308  0.16561679  0.73659468  1
  O2-  O285  1  0.78538825  0.66498255  0.06790714  1
  O2-  O286  1  0.79236115  0.66929707  0.40622363  1
  O2-  O287  1  0.78680518  0.66312570  0.73026383  1
