# generated using pymatgen
data_Ca2Al2SiO7
_symmetry_space_group_name_H-M   'P 1'
_cell_length_a   15.45619345
_cell_length_b   15.45633224
_cell_length_c   15.28230563
_cell_angle_alpha   89.99058424
_cell_angle_beta   90.00142062
_cell_angle_gamma   90.01193502
_symmetry_Int_Tables_number   1
_chemical_formula_structural   Ca2Al2SiO7
_chemical_formula_sum   'Ca48 Al48 Si24 O168'
_cell_volume   3650.88248996
_cell_formula_units_Z   24
loop_
 _symmetry_equiv_pos_site_id
 _symmetry_equiv_pos_as_xyz
  1  'x, y, z'
loop_
 _atom_type_symbol
 _atom_type_oxidation_number
  Ca2+  2.0
  Al0+  0.0
  Si0+  0.0
  O2-  -2.0
loop_
 _atom_site_type_symbol
 _atom_site_label
 _atom_site_symmetry_multiplicity
 _atom_site_fract_x
 _atom_site_fract_y
 _atom_site_fract_z
 _atom_site_occupancy
  Ca2+  Ca0  1  0.16638517  0.07990390  0.16199118  1
  Ca2+  Ca1  1  0.16887066  0.07791057  0.51350151  1
  Ca2+  Ca2  1  0.17005621  0.08098143  0.83824406  1
  Ca2+  Ca3  1  0.16982607  0.58934460  0.17404782  1
  Ca2+  Ca4  1  0.17904048  0.58710642  0.50376463  1
  Ca2+  Ca5  1  0.17219288  0.58521492  0.83709964  1
  Ca2+  Ca6  1  0.66938113  0.07552947  0.16989507  1
  Ca2+  Ca7  1  0.67673479  0.07920430  0.50944688  1
  Ca2+  Ca8  1  0.66798361  0.07391281  0.83727644  1
  Ca2+  Ca9  1  0.67465429  0.58610878  0.16493429  1
  Ca2+  Ca10  1  0.67008755  0.57983190  0.50829894  1
  Ca2+  Ca11  1  0.66423963  0.57526263  0.83994897  1
  Ca2+  Ca12  1  0.07998406  0.32663029  0.15693944  1
  Ca2+  Ca13  1  0.07922422  0.32689696  0.50284841  1
  Ca2+  Ca14  1  0.07592132  0.32116184  0.82468720  1
  Ca2+  Ca15  1  0.08352578  0.82285267  0.15792548  1
  Ca2+  Ca16  1  0.08536918  0.83097027  0.49691379  1
  Ca2+  Ca17  1  0.08981013  0.83399000  0.83292609  1
  Ca2+  Ca18  1  0.57961309  0.33607145  0.16425765  1
  Ca2+  Ca19  1  0.57445253  0.33881390  0.50084511  1
  Ca2+  Ca20  1  0.58257750  0.33658914  0.82484168  1
  Ca2+  Ca21  1  0.57781809  0.82871860  0.15178500  1
  Ca2+  Ca22  1  0.58693737  0.83020747  0.50207196  1
  Ca2+  Ca23  1  0.58975019  0.82551032  0.82935720  1
  Ca2+  Ca24  1  0.33173358  0.42393061  0.17408450  1
  Ca2+  Ca25  1  0.34142561  0.42423511  0.50539984  1
  Ca2+  Ca26  1  0.34047176  0.42286116  0.83236063  1
  Ca2+  Ca27  1  0.33233187  0.91629461  0.16237205  1
  Ca2+  Ca28  1  0.32547048  0.92463656  0.51215586  1
  Ca2+  Ca29  1  0.32652760  0.92638479  0.84078721  1
  Ca2+  Ca30  1  0.82943860  0.42715498  0.16727377  1
  Ca2+  Ca31  1  0.82964715  0.41995692  0.50767700  1
  Ca2+  Ca32  1  0.82375671  0.41631547  0.83843591  1
  Ca2+  Ca33  1  0.82802668  0.91851267  0.16810941  1
  Ca2+  Ca34  1  0.83171378  0.92789920  0.50840296  1
  Ca2+  Ca35  1  0.82409679  0.91751503  0.83247315  1
  Ca2+  Ca36  1  0.41140204  0.17402575  0.16072966  1
  Ca2+  Ca37  1  0.40936986  0.17938658  0.49917281  1
  Ca2+  Ca38  1  0.41181851  0.17037314  0.82571673  1
  Ca2+  Ca39  1  0.42128345  0.67292745  0.15630794  1
  Ca2+  Ca40  1  0.42128061  0.66010878  0.49939167  1
  Ca2+  Ca41  1  0.42646316  0.67199128  0.82837674  1
  Ca2+  Ca42  1  0.91990117  0.16469580  0.16051161  1
  Ca2+  Ca43  1  0.91301578  0.16591050  0.50094374  1
  Ca2+  Ca44  1  0.92454555  0.16510841  0.82293117  1
  Ca2+  Ca45  1  0.92408208  0.65777981  0.16026251  1
  Ca2+  Ca46  1  0.92298106  0.66737813  0.49155206  1
  Ca2+  Ca47  1  0.92005848  0.66352519  0.83262428  1
  Al0+  Al48  1  0.00215969  -0.00162179  -0.00020169  1
  Al0+  Al49  1  -0.00137907  -0.00104239  0.33531493  1
  Al0+  Al50  1  0.00017926  -0.00251083  0.66956067  1
  Al0+  Al51  1  -0.00006973  0.49882074  -0.00315633  1
  Al0+  Al52  1  0.00011469  0.49754844  0.33383466  1
  Al0+  Al53  1  0.00235269  0.49952874  0.66084532  1
  Al0+  Al54  1  0.49881103  0.00370832  0.00563705  1
  Al0+  Al55  1  0.49889478  0.00025566  0.33432887  1
  Al0+  Al56  1  0.49914401  -0.00167539  0.67155929  1
  Al0+  Al57  1  0.49972031  0.50034932  0.00256411  1
  Al0+  Al58  1  0.49908890  0.50007455  0.33026528  1
  Al0+  Al59  1  0.50205430  0.50146322  0.66667514  1
  Al0+  Al60  1  0.24885456  0.25086139  -0.00106131  1
  Al0+  Al61  1  0.24875370  0.25013392  0.32760140  1
  Al0+  Al62  1  0.24847059  0.25206892  0.65967287  1
  Al0+  Al63  1  0.24991279  0.75200160  -0.00477091  1
  Al0+  Al64  1  0.25065070  0.74962852  0.33433652  1
  Al0+  Al65  1  0.25312743  0.74988276  0.67374766  1
  Al0+  Al66  1  0.74712039  0.25178367  0.00577249  1
  Al0+  Al67  1  0.74906789  0.24886954  0.33497150  1
  Al0+  Al68  1  0.75009744  0.25120537  0.66959953  1
  Al0+  Al69  1  0.75184970  0.74960965  0.00430460  1
  Al0+  Al70  1  0.75020715  0.74949897  0.33650877  1
  Al0+  Al71  1  0.75256956  0.74922162  0.66282343  1
  Al0+  Al72  1  0.42930400  0.32098419  0.31746027  1
  Al0+  Al73  1  0.32242343  0.56916278  0.68201386  1
  Al0+  Al74  1  0.32032158  0.07504874  0.67990505  1
  Al0+  Al75  1  0.67573686  0.42812123  0.01800713  1
  Al0+  Al76  1  0.32034601  0.07426478  0.01712440  1
  Al0+  Al77  1  0.17882779  0.92796650  0.01811478  1
  Al0+  Al78  1  0.68039417  0.43130181  0.67851288  1
  Al0+  Al79  1  0.42904410  0.82448375  0.98334989  1
  Al0+  Al80  1  0.31997152  0.57058424  0.34606119  1
  Al0+  Al81  1  0.06967209  0.17868564  0.98601115  1
  Al0+  Al82  1  0.82060939  0.07004944  0.34672994  1
  Al0+  Al83  1  0.92630286  0.32143988  0.65088488  1
  Al0+  Al84  1  0.57245679  0.67948520  0.98511286  1
  Al0+  Al85  1  0.82251322  0.57054210  0.34878611  1
  Al0+  Al86  1  0.82275654  0.57027698  0.01347768  1
  Al0+  Al87  1  0.57170260  0.67999937  0.65173491  1
  Al0+  Al88  1  0.82061227  0.07216389  0.68308188  1
  Al0+  Al89  1  0.07057964  0.67964679  0.32123048  1
  Al0+  Al90  1  0.67885288  0.92888549  0.01385620  1
  Al0+  Al91  1  0.06934297  0.17677885  0.65013504  1
  Al0+  Al92  1  0.67892247  0.92651119  0.68098382  1
  Al0+  Al93  1  0.43039364  0.32060579  0.65406453  1
  Al0+  Al94  1  0.07090958  0.67744805  0.98497919  1
  Al0+  Al95  1  0.17864359  0.92794649  0.68231947  1
  Si0+  Si96  1  0.17749729  0.42471325  0.35001238  1
  Si0+  Si97  1  0.67557245  0.92754627  0.35040043  1
  Si0+  Si98  1  0.92685998  0.32006145  0.31657981  1
  Si0+  Si99  1  0.57197417  0.17722271  0.31661450  1
  Si0+  Si100  1  0.67821199  0.42919428  0.35092882  1
  Si0+  Si101  1  0.31962141  0.57115048  0.01441044  1
  Si0+  Si102  1  0.92808063  0.82223657  0.98293824  1
  Si0+  Si103  1  0.42917323  0.82236785  0.31958187  1
  Si0+  Si104  1  0.57222838  0.17463577  0.65181303  1
  Si0+  Si105  1  0.82582784  0.57215120  0.68129735  1
  Si0+  Si106  1  0.92601540  0.32083684  0.98442362  1
  Si0+  Si107  1  0.57183911  0.67959238  0.31791027  1
  Si0+  Si108  1  0.92973545  0.81891898  0.65073996  1
  Si0+  Si109  1  0.42887495  0.32128907  0.98511097  1
  Si0+  Si110  1  0.18045585  0.92958577  0.34745241  1
  Si0+  Si111  1  0.32060358  0.07297464  0.34825234  1
  Si0+  Si112  1  0.17673931  0.42937088  0.68285667  1
  Si0+  Si113  1  0.92775382  0.82226241  0.31655972  1
  Si0+  Si114  1  0.82211979  0.07188312  0.01561864  1
  Si0+  Si115  1  0.42783722  0.82170865  0.64923292  1
  Si0+  Si116  1  0.06963088  0.17717605  0.31678411  1
  Si0+  Si117  1  0.17933590  0.42944050  0.01304612  1
  Si0+  Si118  1  0.07459125  0.67876263  0.65114164  1
  Si0+  Si119  1  0.57190467  0.18037750  0.98629463  1
  O2-  O120  1  0.25123310  -0.00033335  0.06849012  1
  O2-  O121  1  0.24954920  0.00223457  0.38995862  1
  O2-  O122  1  0.24779488  0.00389302  0.72946084  1
  O2-  O123  1  0.24633109  0.50300972  0.05759051  1
  O2-  O124  1  0.24592399  0.49464340  0.39274409  1
  O2-  O125  1  0.24663260  0.49564211  0.72881199  1
  O2-  O126  1  0.75380904  0.00348919  0.06109145  1
  O2-  O127  1  0.74511796  -0.00400570  0.39270938  1
  O2-  O128  1  0.74578350  0.00268831  0.73162489  1
  O2-  O129  1  0.74818730  0.50124848  0.06492252  1
  O2-  O130  1  0.74698203  0.49729443  0.39567782  1
  O2-  O131  1  0.75882432  0.50223073  0.72462224  1
  O2-  O132  1  -0.00176180  0.24852473  0.27490879  1
  O2-  O133  1  -0.00505700  0.24641018  0.59918289  1
  O2-  O134  1  -0.01021557  0.24792284  0.94071872  1
  O2-  O135  1  -0.00728662  0.75010936  0.27244461  1
  O2-  O136  1  0.00281055  0.74902881  0.60916665  1
  O2-  O137  1  -0.00379435  0.75237815  0.93901850  1
  O2-  O138  1  0.50254699  0.24472263  0.27096737  1
  O2-  O139  1  0.50152468  0.24173682  0.60711799  1
  O2-  O140  1  0.50117360  0.25156026  0.94413122  1
  O2-  O141  1  0.50278852  0.75360677  0.27769216  1
  O2-  O142  1  0.49833025  0.75566471  0.60304980  1
  O2-  O143  1  0.50407591  0.75473166  0.93458847  1
  O2-  O144  1  0.06795980  0.18200712  0.10025313  1
  O2-  O145  1  0.07102126  0.17680675  0.42128859  1
  O2-  O146  1  0.06934583  0.17972971  0.76354850  1
  O2-  O147  1  0.07060464  0.67709853  0.09859160  1
  O2-  O148  1  0.07249578  0.68465058  0.43443802  1
  O2-  O149  1  0.07259328  0.67706340  0.75602787  1
  O2-  O150  1  0.57265811  0.18156504  0.09180659  1
  O2-  O151  1  0.57149102  0.17650982  0.42183675  1
  O2-  O152  1  0.57216797  0.17616194  0.75750763  1
  O2-  O153  1  0.56872501  0.67967958  0.09977461  1
  O2-  O154  1  0.57123989  0.67898190  0.42308674  1
  O2-  O155  1  0.57144661  0.67906855  0.76415384  1
  O2-  O156  1  0.17830342  0.42344983  0.24388679  1
  O2-  O157  1  0.17548416  0.43260123  0.57700712  1
  O2-  O158  1  0.18182392  0.42912155  0.90832863  1
  O2-  O159  1  0.18088667  0.92911522  0.24283919  1
  O2-  O160  1  0.18106374  0.92632063  0.56727389  1
  O2-  O161  1  0.17932076  0.92999033  0.90543140  1
  O2-  O162  1  0.67910658  0.42978088  0.24545255  1
  O2-  O163  1  0.67885255  0.43484484  0.56500971  1
  O2-  O164  1  0.67572179  0.42656186  0.90474487  1
  O2-  O165  1  0.67460913  0.92825811  0.24478111  1
  O2-  O166  1  0.68316889  0.92686967  0.56679550  1
  O2-  O167  1  0.68105711  0.92996744  0.90141807  1
  O2-  O168  1  0.42798311  0.32087242  0.09057807  1
  O2-  O169  1  0.43052921  0.32115848  0.43032858  1
  O2-  O170  1  0.43310258  0.32204713  0.76727253  1
  O2-  O171  1  0.42959415  0.81915179  0.09852231  1
  O2-  O172  1  0.42868645  0.82392683  0.42448731  1
  O2-  O173  1  0.42664844  0.81936474  0.75403016  1
  O2-  O174  1  0.92929050  0.32124309  0.09081453  1
  O2-  O175  1  0.92650245  0.31994589  0.42120241  1
  O2-  O176  1  0.92968578  0.32350001  0.76434595  1
  O2-  O177  1  0.92924040  0.82368423  0.08894469  1
  O2-  O178  1  0.93088895  0.82392957  0.42222051  1
  O2-  O179  1  0.92629998  0.81636067  0.75546233  1
  O2-  O180  1  0.32059244  0.07305865  0.24350454  1
  O2-  O181  1  0.31859554  0.07283754  0.56502673  1
  O2-  O182  1  0.31760614  0.07910232  0.90437720  1
  O2-  O183  1  0.31840007  0.57111903  0.23262640  1
  O2-  O184  1  0.32101754  0.56882435  0.56837923  1
  O2-  O185  1  0.32102788  0.56735385  0.90954397  1
  O2-  O186  1  0.82071341  0.06777971  0.23333623  1
  O2-  O187  1  0.81958623  0.06909692  0.56893699  1
  O2-  O188  1  0.82014355  0.07277244  0.91067733  1
  O2-  O189  1  0.82253275  0.56901064  0.23614454  1
  O2-  O190  1  0.82489964  0.57210939  0.57520935  1
  O2-  O191  1  0.82545241  0.56608335  0.90012929  1
  O2-  O192  1  0.04041394  0.08513407  0.27003093  1
  O2-  O193  1  0.04362558  0.07635336  0.59911312  1
  O2-  O194  1  0.04447120  0.08035052  0.93431613  1
  O2-  O195  1  0.04522165  0.58000397  0.26974577  1
  O2-  O196  1  0.04932460  0.58741040  0.60134828  1
  O2-  O197  1  0.04146843  0.58075791  0.92977292  1
  O2-  O198  1  0.54670680  0.08274231  0.27076464  1
  O2-  O199  1  0.55023234  0.07982998  0.60579858  1
  O2-  O200  1  0.54505165  0.08858797  0.93993079  1
  O2-  O201  1  0.54233842  0.58891015  0.27012528  1
  O2-  O202  1  0.53697197  0.58555936  0.59579912  1
  O2-  O203  1  0.53968240  0.58096294  0.93482517  1
  O2-  O204  1  0.16078150  0.20524360  0.26781151  1
  O2-  O205  1  0.16550717  0.20949878  0.59371955  1
  O2-  O206  1  0.16407079  0.21600072  0.93280205  1
  O2-  O207  1  0.16661132  0.71334053  0.26689191  1
  O2-  O208  1  0.16693498  0.70856581  0.60562385  1
  O2-  O209  1  0.16686481  0.70770651  0.93064168  1
  O2-  O210  1  0.66530529  0.20365128  0.26940588  1
  O2-  O211  1  0.66512494  0.20281028  0.60570833  1
  O2-  O212  1  0.66394243  0.20771000  0.93895220  1
  O2-  O213  1  0.66508095  0.70553065  0.27196118  1
  O2-  O214  1  0.66887018  0.70928090  0.59607843  1
  O2-  O215  1  0.67339342  0.70327223  0.93625095  1
  O2-  O216  1  0.08616616  0.45254087  0.06006221  1
  O2-  O217  1  0.08357659  0.44772778  0.39555573  1
  O2-  O218  1  0.08414861  0.45727711  0.72984789  1
  O2-  O219  1  0.08004726  0.95639570  0.07175381  1
  O2-  O220  1  0.08773149  0.95546124  0.39411031  1
  O2-  O221  1  0.07916028  0.94953029  0.73412194  1
  O2-  O222  1  0.57762049  0.45691836  0.07218950  1
  O2-  O223  1  0.58416905  0.45647606  0.39464615  1
  O2-  O224  1  0.58656294  0.46576072  0.73431997  1
  O2-  O225  1  0.58398586  0.96174118  0.07025311  1
  O2-  O226  1  0.58202062  0.95323611  0.39720144  1
  O2-  O227  1  0.57889049  0.94691860  0.73233481  1
  O2-  O228  1  0.21006336  0.34000524  0.06355046  1
  O2-  O229  1  0.20439021  0.33114440  0.39551937  1
  O2-  O230  1  0.20045782  0.33464562  0.72560713  1
  O2-  O231  1  0.20855539  0.82851380  0.06973835  1
  O2-  O232  1  0.21048127  0.83919580  0.39607141  1
  O2-  O233  1  0.20908059  0.83140232  0.73654058  1
  O2-  O234  1  0.70416216  0.33058189  0.07435659  1
  O2-  O235  1  0.70226657  0.33459941  0.39520340  1
  O2-  O236  1  0.70488673  0.33391120  0.73317647  1
  O2-  O237  1  0.70953958  0.83351335  0.07040472  1
  O2-  O238  1  0.70025007  0.83371991  0.39583532  1
  O2-  O239  1  0.71500997  0.82974843  0.73251509  1
  O2-  O240  1  0.46027628  0.41728001  0.26210478  1
  O2-  O241  1  0.46661129  0.41526043  0.59894749  1
  O2-  O242  1  0.45562888  0.41377657  0.93927673  1
  O2-  O243  1  0.45366355  0.91528608  0.27158016  1
  O2-  O244  1  0.45074324  0.91668756  0.60334162  1
  O2-  O245  1  0.45202494  0.92660468  0.93741109  1
  O2-  O246  1  0.95640985  0.41110618  0.26846382  1
  O2-  O247  1  0.95944251  0.41849879  0.59496987  1
  O2-  O248  1  0.95597858  0.41159212  0.93651012  1
  O2-  O249  1  0.95638279  0.91464799  0.26909683  1
  O2-  O250  1  0.95722620  0.91061422  0.60279863  1
  O2-  O251  1  0.95452651  0.91492812  0.93598082  1
  O2-  O252  1  0.33208052  0.29132844  0.26263165  1
  O2-  O253  1  0.33327966  0.29661418  0.59662819  1
  O2-  O254  1  0.33750455  0.29360956  0.93765156  1
  O2-  O255  1  0.33860643  0.79151028  0.27180802  1
  O2-  O256  1  0.33490359  0.79215555  0.60250556  1
  O2-  O257  1  0.33214095  0.79409186  0.93054100  1
  O2-  O258  1  0.83486199  0.29197941  0.26920145  1
  O2-  O259  1  0.82673911  0.29654835  0.59775084  1
  O2-  O260  1  0.82965821  0.29991210  0.94282172  1
  O2-  O261  1  0.83169144  0.80073582  0.27343111  1
  O2-  O262  1  0.84062440  0.79027385  0.59799717  1
  O2-  O263  1  0.83471528  0.79634870  0.93739390  1
  O2-  O264  1  0.41921176  0.05118524  0.07223080  1
  O2-  O265  1  0.41289760  0.04630316  0.39512610  1
  O2-  O266  1  0.41878556  0.04851451  0.73232886  1
  O2-  O267  1  0.40959509  0.54074496  0.06385262  1
  O2-  O268  1  0.41723073  0.53928817  0.39874881  1
  O2-  O269  1  0.41732122  0.53595666  0.73606880  1
  O2-  O270  1  0.91555760  0.04542293  0.06151585  1
  O2-  O271  1  0.91664878  0.03844950  0.40198610  1
  O2-  O272  1  0.91731329  0.03904732  0.73474373  1
  O2-  O273  1  0.92027484  0.53667986  0.06783244  1
  O2-  O274  1  0.91940377  0.53931236  0.40211223  1
  O2-  O275  1  0.92113812  0.54917083  0.72458931  1
  O2-  O276  1  0.28621120  0.17174679  0.07138887  1
  O2-  O277  1  0.29194067  0.16555825  0.39318279  1
  O2-  O278  1  0.29373947  0.17517537  0.72934529  1
  O2-  O279  1  0.29355868  0.66394562  0.05957925  1
  O2-  O280  1  0.28888006  0.66652510  0.40187516  1
  O2-  O281  1  0.29258667  0.66455235  0.73688337  1
  O2-  O282  1  0.79632854  0.16509254  0.06327490  1
  O2-  O283  1  0.79076059  0.16695965  0.40047880  1
  O2-  O284  1  0.79740481  0.17142288  0.73481896  1
  O2-  O285  1  0.79975474  0.66896980  0.06866026  1
  O2-  O286  1  0.79464579  0.66871660  0.40183059  1
  O2-  O287  1  0.80024205  0.66558013  0.72571843  1
