# generated using pymatgen
data_Ca2Al2SiO7
_symmetry_space_group_name_H-M   'P 1'
_cell_length_a   15.46086778
_cell_length_b   15.46361302
_cell_length_c   15.28667904
_cell_angle_alpha   89.99471713
_cell_angle_beta   90.00515424
_cell_angle_gamma   90.00233561
_symmetry_Int_Tables_number   1
_chemical_formula_structural   Ca2Al2SiO7
_chemical_formula_sum   'Ca48 Al48 Si24 O168'
_cell_volume   3654.75258531
_cell_formula_units_Z   24
loop_
 _symmetry_equiv_pos_site_id
 _symmetry_equiv_pos_as_xyz
  1  'x, y, z'
loop_
 _atom_type_symbol
 _atom_type_oxidation_number
  Ca2+  2.0
  Al0+  0.0
  Si0+  0.0
  O2-  -2.0
loop_
 _atom_site_type_symbol
 _atom_site_label
 _atom_site_symmetry_multiplicity
 _atom_site_fract_x
 _atom_site_fract_y
 _atom_site_fract_z
 _atom_site_occupancy
  Ca2+  Ca0  1  0.16824827  0.07057375  0.17199963  1
  Ca2+  Ca1  1  0.17090197  0.06904435  0.50829745  1
  Ca2+  Ca2  1  0.17312421  0.07081548  0.83726850  1
  Ca2+  Ca3  1  0.17345559  0.58323429  0.17978406  1
  Ca2+  Ca4  1  0.17176064  0.58913920  0.50415363  1
  Ca2+  Ca5  1  0.17178891  0.59301792  0.82919711  1
  Ca2+  Ca6  1  0.66836595  0.08700384  0.16682743  1
  Ca2+  Ca7  1  0.66877042  0.07966300  0.50964588  1
  Ca2+  Ca8  1  0.66960633  0.08181932  0.83335872  1
  Ca2+  Ca9  1  0.65796022  0.58049842  0.17091408  1
  Ca2+  Ca10  1  0.67482813  0.58802460  0.50594100  1
  Ca2+  Ca11  1  0.66807733  0.58085332  0.84030572  1
  Ca2+  Ca12  1  0.07804153  0.33957729  0.16726603  1
  Ca2+  Ca13  1  0.07779299  0.33314194  0.49090852  1
  Ca2+  Ca14  1  0.08132887  0.32835383  0.82660747  1
  Ca2+  Ca15  1  0.08056932  0.83723692  0.16533942  1
  Ca2+  Ca16  1  0.08466332  0.82723993  0.49500513  1
  Ca2+  Ca17  1  0.08034093  0.83695422  0.82898899  1
  Ca2+  Ca18  1  0.58724520  0.32472662  0.16007896  1
  Ca2+  Ca19  1  0.58348338  0.31918748  0.49538332  1
  Ca2+  Ca20  1  0.59233911  0.32327061  0.83222655  1
  Ca2+  Ca21  1  0.57546909  0.81847217  0.15781284  1
  Ca2+  Ca22  1  0.57658973  0.83381963  0.49671301  1
  Ca2+  Ca23  1  0.57144139  0.83991004  0.82792945  1
  Ca2+  Ca24  1  0.32639723  0.42398585  0.17799233  1
  Ca2+  Ca25  1  0.33041960  0.42945349  0.50111794  1
  Ca2+  Ca26  1  0.33795993  0.42509623  0.83479021  1
  Ca2+  Ca27  1  0.32435505  0.90751597  0.16791907  1
  Ca2+  Ca28  1  0.32377530  0.91410945  0.50928047  1
  Ca2+  Ca29  1  0.32525920  0.90563739  0.83301686  1
  Ca2+  Ca30  1  0.82815232  0.41696620  0.16964617  1
  Ca2+  Ca31  1  0.83532058  0.42278113  0.50481403  1
  Ca2+  Ca32  1  0.82849567  0.42691311  0.83601877  1
  Ca2+  Ca33  1  0.84051115  0.91945506  0.16950987  1
  Ca2+  Ca34  1  0.82499205  0.91708029  0.50887685  1
  Ca2+  Ca35  1  0.82979826  0.92490381  0.83916113  1
  Ca2+  Ca36  1  0.42950884  0.16488715  0.16128058  1
  Ca2+  Ca37  1  0.42736629  0.15463454  0.49915008  1
  Ca2+  Ca38  1  0.42660267  0.16273678  0.82361220  1
  Ca2+  Ca39  1  0.42193034  0.66512436  0.16215356  1
  Ca2+  Ca40  1  0.41529425  0.66818866  0.49777690  1
  Ca2+  Ca41  1  0.42002186  0.67535823  0.82941732  1
  Ca2+  Ca42  1  0.91425576  0.17129871  0.16316560  1
  Ca2+  Ca43  1  0.91306394  0.17195144  0.49541913  1
  Ca2+  Ca44  1  0.90898892  0.16383926  0.83078253  1
  Ca2+  Ca45  1  0.92334675  0.68198408  0.16508248  1
  Ca2+  Ca46  1  0.92728043  0.66978959  0.49280274  1
  Ca2+  Ca47  1  0.92144568  0.67204466  0.82636464  1
  Al0+  Al48  1  0.00096619  0.00139101  0.00472666  1
  Al0+  Al49  1  0.00010214  0.00315233  0.33679709  1
  Al0+  Al50  1  -0.00067652  0.00143679  0.67162251  1
  Al0+  Al51  1  -0.00102629  0.50008959  -0.00066680  1
  Al0+  Al52  1  -0.00177212  0.49994168  0.32646607  1
  Al0+  Al53  1  -0.00083949  0.50047952  0.66815132  1
  Al0+  Al54  1  0.50070017  0.00014276  -0.00687536  1
  Al0+  Al55  1  0.50243476  -0.00135535  0.32568482  1
  Al0+  Al56  1  0.49984660  -0.00032864  0.66254879  1
  Al0+  Al57  1  0.50003253  0.49820149  0.00137771  1
  Al0+  Al58  1  0.49948432  0.49688716  0.33672724  1
  Al0+  Al59  1  0.49900487  0.49778193  0.67002889  1
  Al0+  Al60  1  0.25012064  0.24941131  0.00119509  1
  Al0+  Al61  1  0.25155769  0.24976638  0.33822406  1
  Al0+  Al62  1  0.24927596  0.25064755  0.66691886  1
  Al0+  Al63  1  0.24997213  0.74827641  0.00266978  1
  Al0+  Al64  1  0.25008967  0.75071244  0.33824566  1
  Al0+  Al65  1  0.25034906  0.74795710  0.66714232  1
  Al0+  Al66  1  0.75070786  0.25227676  0.00327134  1
  Al0+  Al67  1  0.75068553  0.25033793  0.32607953  1
  Al0+  Al68  1  0.74917721  0.25048218  0.66420136  1
  Al0+  Al69  1  0.75274871  0.75052796  -0.00615919  1
  Al0+  Al70  1  0.74889595  0.75050546  0.32554759  1
  Al0+  Al71  1  0.74937504  0.75008794  0.67738847  1
  Al0+  Al72  1  0.43041705  0.81887838  0.65119834  1
  Al0+  Al73  1  0.93139394  0.82430158  0.98469717  1
  Al0+  Al74  1  0.06863514  0.68024508  0.65337919  1
  Al0+  Al75  1  0.57073450  0.67726416  0.32265231  1
  Al0+  Al76  1  0.18125769  0.92914753  0.01551754  1
  Al0+  Al77  1  0.17975363  0.92740749  0.68255622  1
  Al0+  Al78  1  0.42785897  0.81908274  0.98443198  1
  Al0+  Al79  1  0.32154836  0.56981268  0.68282377  1
  Al0+  Al80  1  0.68065779  0.43251361  0.01449656  1
  Al0+  Al81  1  0.57217298  0.18071811  0.98371797  1
  Al0+  Al82  1  0.32181309  0.57094068  0.34983585  1
  Al0+  Al83  1  0.32161616  0.07249592  0.68039194  1
  Al0+  Al84  1  0.07296041  0.68041410  0.31851900  1
  Al0+  Al85  1  0.17851765  0.93071921  0.34871295  1
  Al0+  Al86  1  0.92842701  0.82396265  0.32078226  1
  Al0+  Al87  1  0.56961738  0.18062159  0.65172677  1
  Al0+  Al88  1  0.57046413  0.17845922  0.31750168  1
  Al0+  Al89  1  0.93008003  0.32116527  0.31875027  1
  Al0+  Al90  1  0.67717971  0.92767594  0.68125526  1
  Al0+  Al91  1  0.17529566  0.42826113  0.34854300  1
  Al0+  Al92  1  0.82235612  0.57163096  0.67911046  1
  Al0+  Al93  1  0.82010394  0.07274143  0.67997009  1
  Al0+  Al94  1  0.57154510  0.67536576  0.98401800  1
  Al0+  Al95  1  0.81903329  0.06989912  0.01623659  1
  Si0+  Si96  1  0.82467697  0.57439313  0.01944891  1
  Si0+  Si97  1  0.42589530  0.32057993  0.98343315  1
  Si0+  Si98  1  0.93008770  0.32002852  0.65280047  1
  Si0+  Si99  1  0.92985871  0.32142517  0.98284509  1
  Si0+  Si100  1  0.17711425  0.42572717  0.01421472  1
  Si0+  Si101  1  0.57341963  0.67502923  0.65198726  1
  Si0+  Si102  1  0.42785981  0.32161055  0.31711576  1
  Si0+  Si103  1  0.07105309  0.67676396  0.98324483  1
  Si0+  Si104  1  0.67608890  0.92676376  0.01803762  1
  Si0+  Si105  1  0.07414539  0.17848953  0.31772185  1
  Si0+  Si106  1  0.92625977  0.82441430  0.65222981  1
  Si0+  Si107  1  0.32593774  0.07092161  0.34791786  1
  Si0+  Si108  1  0.81826104  0.57200852  0.34539762  1
  Si0+  Si109  1  0.81919869  0.07283646  0.34749312  1
  Si0+  Si110  1  0.67968077  0.42658165  0.34913571  1
  Si0+  Si111  1  0.07175929  0.18008228  0.98562038  1
  Si0+  Si112  1  0.32389793  0.07401815  0.01705145  1
  Si0+  Si113  1  0.17638038  0.42846204  0.68381605  1
  Si0+  Si114  1  0.42487414  0.32411334  0.64786847  1
  Si0+  Si115  1  0.31887920  0.56824555  0.01518676  1
  Si0+  Si116  1  0.07241287  0.17801292  0.65194719  1
  Si0+  Si117  1  0.67973709  0.92798950  0.34494961  1
  Si0+  Si118  1  0.67898977  0.42819801  0.68114720  1
  Si0+  Si119  1  0.42823915  0.82134395  0.31709930  1
  O2-  O120  1  0.25900351  0.00189620  0.06146457  1
  O2-  O121  1  0.25513624  0.00499544  0.39225986  1
  O2-  O122  1  0.25208901  -0.00035308  0.73244761  1
  O2-  O123  1  0.24707313  0.49728881  0.05595999  1
  O2-  O124  1  0.24456870  0.50266638  0.39839435  1
  O2-  O125  1  0.24701333  0.49410741  0.72943117  1
  O2-  O126  1  0.74566646  -0.00578637  0.06418427  1
  O2-  O127  1  0.75114669  -0.00126731  0.38793031  1
  O2-  O128  1  0.75133142  -0.00155195  0.73014646  1
  O2-  O129  1  0.75035592  0.51129458  0.06328873  1
  O2-  O130  1  0.74773853  0.50085448  0.39025430  1
  O2-  O131  1  0.74220513  0.50200121  0.72477316  1
  O2-  O132  1  0.00878327  0.25009105  0.27228198  1
  O2-  O133  1  0.00033725  0.24864005  0.61031730  1
  O2-  O134  1  0.00200035  0.25173076  0.94118204  1
  O2-  O135  1  0.00424669  0.75612539  0.26980350  1
  O2-  O136  1  -0.00600700  0.75550660  0.60737680  1
  O2-  O137  1  0.00315869  0.74607524  0.93944394  1
  O2-  O138  1  0.49381400  0.25133147  0.27142641  1
  O2-  O139  1  0.49135039  0.25232753  0.60489106  1
  O2-  O140  1  0.49325396  0.25173024  0.93798881  1
  O2-  O141  1  0.49317025  0.74814223  0.27510409  1
  O2-  O142  1  0.50667028  0.74422192  0.60608604  1
  O2-  O143  1  0.50450829  0.75169678  0.93424820  1
  O2-  O144  1  0.07191638  0.18318252  0.09069963  1
  O2-  O145  1  0.06997586  0.17799779  0.42342335  1
  O2-  O146  1  0.07361769  0.18104660  0.75721724  1
  O2-  O147  1  0.07068182  0.67414373  0.08863338  1
  O2-  O148  1  0.06973403  0.67970453  0.43207920  1
  O2-  O149  1  0.06648731  0.67903786  0.76673481  1
  O2-  O150  1  0.57136359  0.18361865  0.09714042  1
  O2-  O151  1  0.57181930  0.17869126  0.43045584  1
  O2-  O152  1  0.57299342  0.18576772  0.76451846  1
  O2-  O153  1  0.56520574  0.67354414  0.09797569  1
  O2-  O154  1  0.57535233  0.68140423  0.43556295  1
  O2-  O155  1  0.57037047  0.67285835  0.75717624  1
  O2-  O156  1  0.17887525  0.42874443  0.23418601  1
  O2-  O157  1  0.17366517  0.42911363  0.57879664  1
  O2-  O158  1  0.17686044  0.42284030  0.90930892  1
  O2-  O159  1  0.17948790  0.93262335  0.23529136  1
  O2-  O160  1  0.17904115  0.92919154  0.56889364  1
  O2-  O161  1  0.18038192  0.93078933  0.90295430  1
  O2-  O162  1  0.68098778  0.42581582  0.24408707  1
  O2-  O163  1  0.68208974  0.42600447  0.57522984  1
  O2-  O164  1  0.68554258  0.43120432  0.90127353  1
  O2-  O165  1  0.67896296  0.92888067  0.24012013  1
  O2-  O166  1  0.67912630  0.92771175  0.56651680  1
  O2-  O167  1  0.67630910  0.93012921  0.91278411  1
  O2-  O168  1  0.42451788  0.31926649  0.08909825  1
  O2-  O169  1  0.43122277  0.32317226  0.42236591  1
  O2-  O170  1  0.42568724  0.32585058  0.75357907  1
  O2-  O171  1  0.42602655  0.81443434  0.09848662  1
  O2-  O172  1  0.43144020  0.82526440  0.42245806  1
  O2-  O173  1  0.42959346  0.81666631  0.76399897  1
  O2-  O174  1  0.93100275  0.32210730  0.08787398  1
  O2-  O175  1  0.92617592  0.31803673  0.43221060  1
  O2-  O176  1  0.93123696  0.32034117  0.75811570  1
  O2-  O177  1  0.93491456  0.82447876  0.09788942  1
  O2-  O178  1  0.92355388  0.82031214  0.43415596  1
  O2-  O179  1  0.92912141  0.82418040  0.75779991  1
  O2-  O180  1  0.32612215  0.07025475  0.24205404  1
  O2-  O181  1  0.31810668  0.07079627  0.56640461  1
  O2-  O182  1  0.31931687  0.08052045  0.91232640  1
  O2-  O183  1  0.32325498  0.56705393  0.23556543  1
  O2-  O184  1  0.32176009  0.56845122  0.57033714  1
  O2-  O185  1  0.31799460  0.56760671  0.91010590  1
  O2-  O186  1  0.81826593  0.07438188  0.24244342  1
  O2-  O187  1  0.81818434  0.07526757  0.56590242  1
  O2-  O188  1  0.81795145  0.07104617  0.90351833  1
  O2-  O189  1  0.81577304  0.57060679  0.24056522  1
  O2-  O190  1  0.82319299  0.56852475  0.56536768  1
  O2-  O191  1  0.82964959  0.56814109  0.91396199  1
  O2-  O192  1  0.04366794  0.08729520  0.26984310  1
  O2-  O193  1  0.04398053  0.08638206  0.60473176  1
  O2-  O194  1  0.04206114  0.08935168  0.93887919  1
  O2-  O195  1  0.04291160  0.58325896  0.26421426  1
  O2-  O196  1  0.03697735  0.58282899  0.60059181  1
  O2-  O197  1  0.04518723  0.58300874  0.93623562  1
  O2-  O198  1  0.54223054  0.08235264  0.26063020  1
  O2-  O199  1  0.54214802  0.08411773  0.59592891  1
  O2-  O200  1  0.54670766  0.08306677  0.93068076  1
  O2-  O201  1  0.54312280  0.57827385  0.27127815  1
  O2-  O202  1  0.54860203  0.58038239  0.60672554  1
  O2-  O203  1  0.53988865  0.57747497  0.93162310  1
  O2-  O204  1  0.17003299  0.19868788  0.27395809  1
  O2-  O205  1  0.16305990  0.20629715  0.60264802  1
  O2-  O206  1  0.16346249  0.20779633  0.93744934  1
  O2-  O207  1  0.17300827  0.70599200  0.26752217  1
  O2-  O208  1  0.16575602  0.70875921  0.60073415  1
  O2-  O209  1  0.16534703  0.70191444  0.93940793  1
  O2-  O210  1  0.66485698  0.21346014  0.26236054  1
  O2-  O211  1  0.66501322  0.21583144  0.59607199  1
  O2-  O212  1  0.66778017  0.21878772  0.93264190  1
  O2-  O213  1  0.66390414  0.70915372  0.26298226  1
  O2-  O214  1  0.66957099  0.69910107  0.61019165  1
  O2-  O215  1  0.67399275  0.69400888  0.93671858  1
  O2-  O216  1  0.08426015  0.45298641  0.06011689  1
  O2-  O217  1  0.07336636  0.45108614  0.39661252  1
  O2-  O218  1  0.08425646  0.45567659  0.73259588  1
  O2-  O219  1  0.08730758  0.96589908  0.07054079  1
  O2-  O220  1  0.08267909  0.96361282  0.40361748  1
  O2-  O221  1  0.08164849  0.95766622  0.73482452  1
  O2-  O222  1  0.58176513  0.45603980  0.06885815  1
  O2-  O223  1  0.58696649  0.44821810  0.39646425  1
  O2-  O224  1  0.58396162  0.44560167  0.72694096  1
  O2-  O225  1  0.58186797  0.95346731  0.06283980  1
  O2-  O226  1  0.58771822  0.95709494  0.39164974  1
  O2-  O227  1  0.58022384  0.96023784  0.73281217  1
  O2-  O228  1  0.20420448  0.33472530  0.06388033  1
  O2-  O229  1  0.20357680  0.32953760  0.40220446  1
  O2-  O230  1  0.19916169  0.33376648  0.72915241  1
  O2-  O231  1  0.21012571  0.83144209  0.06934886  1
  O2-  O232  1  0.20754414  0.83430689  0.40258065  1
  O2-  O233  1  0.20897556  0.82982380  0.73539824  1
  O2-  O234  1  0.71718061  0.33858968  0.07042188  1
  O2-  O235  1  0.71341516  0.33608383  0.39572749  1
  O2-  O236  1  0.71258975  0.33822535  0.72921599  1
  O2-  O237  1  0.70085932  0.83089027  0.06020921  1
  O2-  O238  1  0.70710638  0.83626374  0.39258506  1
  O2-  O239  1  0.69940451  0.83008019  0.73819680  1
  O2-  O240  1  0.45583391  0.41365674  0.26925982  1
  O2-  O241  1  0.45498704  0.41633462  0.60101091  1
  O2-  O242  1  0.45313825  0.41381925  0.93811880  1
  O2-  O243  1  0.45735518  0.91182246  0.26656429  1
  O2-  O244  1  0.45932500  0.91518910  0.59574972  1
  O2-  O245  1  0.45004169  0.91943722  0.93287622  1
  O2-  O246  1  0.95517655  0.41688274  0.26018079  1
  O2-  O247  1  0.95900388  0.41112035  0.60497221  1
  O2-  O248  1  0.95725288  0.41345459  0.93490680  1
  O2-  O249  1  0.95422994  0.92450375  0.27037824  1
  O2-  O250  1  0.94984573  0.91920347  0.60720073  1
  O2-  O251  1  0.96495215  0.92078849  0.93244525  1
  O2-  O252  1  0.33245644  0.29943019  0.27251391  1
  O2-  O253  1  0.32965808  0.30302892  0.60321683  1
  O2-  O254  1  0.33127876  0.29832884  0.93711405  1
  O2-  O255  1  0.33336151  0.79852765  0.27383398  1
  O2-  O256  1  0.33438556  0.78547873  0.59806064  1
  O2-  O257  1  0.33056792  0.78458067  0.93234929  1
  O2-  O258  1  0.83656433  0.28606945  0.26101836  1
  O2-  O259  1  0.83881777  0.29354385  0.60376875  1
  O2-  O260  1  0.83901159  0.29165122  0.93623644  1
  O2-  O261  1  0.83309990  0.79223243  0.26289881  1
  O2-  O262  1  0.83060677  0.79884084  0.61046032  1
  O2-  O263  1  0.83375426  0.79846954  0.93083907  1
  O2-  O264  1  0.41978176  0.05125085  0.05935226  1
  O2-  O265  1  0.41962224  0.04173454  0.39238878  1
  O2-  O266  1  0.42164012  0.04817523  0.72920646  1
  O2-  O267  1  0.41009948  0.53906443  0.06261971  1
  O2-  O268  1  0.41846846  0.53709613  0.40460233  1
  O2-  O269  1  0.41750915  0.53776057  0.73831335  1
  O2-  O270  1  0.91663138  0.04259208  0.07050131  1
  O2-  O271  1  0.91247392  0.05207759  0.39480759  1
  O2-  O272  1  0.91929788  0.05069965  0.73379530  1
  O2-  O273  1  0.91575710  0.54048075  0.06675527  1
  O2-  O274  1  0.91027114  0.54274991  0.39083102  1
  O2-  O275  1  0.91476314  0.53342849  0.73691222  1
  O2-  O276  1  0.29445930  0.16600688  0.06632892  1
  O2-  O277  1  0.30644732  0.16580630  0.39353172  1
  O2-  O278  1  0.29423621  0.17183729  0.73306077  1
  O2-  O279  1  0.29096599  0.65869245  0.06437361  1
  O2-  O280  1  0.29820292  0.67028311  0.40190628  1
  O2-  O281  1  0.28756995  0.66421210  0.73766264  1
  O2-  O282  1  0.78848799  0.16724030  0.06958227  1
  O2-  O283  1  0.78747082  0.16399787  0.39396514  1
  O2-  O284  1  0.78987890  0.17104333  0.73295842  1
  O2-  O285  1  0.80666465  0.67130670  0.06063794  1
  O2-  O286  1  0.78934653  0.66357594  0.39267148  1
  O2-  O287  1  0.79818882  0.66712574  0.73713442  1
