# generated using pymatgen
data_Ca2Al2SiO7
_symmetry_space_group_name_H-M   'P 1'
_cell_length_a   15.45823748
_cell_length_b   15.45893028
_cell_length_c   15.28473230
_cell_angle_alpha   89.99413458
_cell_angle_beta   89.99620750
_cell_angle_gamma   90.00381549
_symmetry_Int_Tables_number   1
_chemical_formula_structural   Ca2Al2SiO7
_chemical_formula_sum   'Ca48 Al48 Si24 O168'
_cell_volume   3652.55905242
_cell_formula_units_Z   24
loop_
 _symmetry_equiv_pos_site_id
 _symmetry_equiv_pos_as_xyz
  1  'x, y, z'
loop_
 _atom_type_symbol
 _atom_type_oxidation_number
  Ca2+  2.0
  Al0+  0.0
  Si0+  0.0
  O2-  -2.0
loop_
 _atom_site_type_symbol
 _atom_site_label
 _atom_site_symmetry_multiplicity
 _atom_site_fract_x
 _atom_site_fract_y
 _atom_site_fract_z
 _atom_site_occupancy
  Ca2+  Ca0  1  0.17033931  0.08953324  0.17308159  1
  Ca2+  Ca1  1  0.17293158  0.08300212  0.50009158  1
  Ca2+  Ca2  1  0.16176747  0.07710418  0.83675869  1
  Ca2+  Ca3  1  0.17409292  0.57333093  0.18012976  1
  Ca2+  Ca4  1  0.17610171  0.58232749  0.50219643  1
  Ca2+  Ca5  1  0.17525780  0.58517863  0.83454185  1
  Ca2+  Ca6  1  0.67589560  0.08205082  0.17585096  1
  Ca2+  Ca7  1  0.67343749  0.07506025  0.50722597  1
  Ca2+  Ca8  1  0.67191308  0.08279028  0.83599120  1
  Ca2+  Ca9  1  0.66495021  0.58031720  0.17789640  1
  Ca2+  Ca10  1  0.66371254  0.58044851  0.49388695  1
  Ca2+  Ca11  1  0.66397921  0.58510554  0.83860228  1
  Ca2+  Ca12  1  0.08253556  0.32489105  0.16828320  1
  Ca2+  Ca13  1  0.07684732  0.32885805  0.48613937  1
  Ca2+  Ca14  1  0.08233169  0.32415686  0.83181336  1
  Ca2+  Ca15  1  0.07467425  0.83254248  0.16209926  1
  Ca2+  Ca16  1  0.07844092  0.84025168  0.50014876  1
  Ca2+  Ca17  1  0.07189542  0.84204139  0.82696834  1
  Ca2+  Ca18  1  0.57974707  0.33053210  0.16039130  1
  Ca2+  Ca19  1  0.58743319  0.32738651  0.49657690  1
  Ca2+  Ca20  1  0.58376888  0.32059256  0.83349232  1
  Ca2+  Ca21  1  0.58694333  0.82550689  0.17007732  1
  Ca2+  Ca22  1  0.57670739  0.83605148  0.49124449  1
  Ca2+  Ca23  1  0.58132591  0.82982518  0.82472826  1
  Ca2+  Ca24  1  0.33070297  0.41774739  0.17719127  1
  Ca2+  Ca25  1  0.33215317  0.42921282  0.49989096  1
  Ca2+  Ca26  1  0.34069724  0.42039927  0.83655956  1
  Ca2+  Ca27  1  0.33436794  0.92392091  0.17669604  1
  Ca2+  Ca28  1  0.33295504  0.91541175  0.50426582  1
  Ca2+  Ca29  1  0.32868328  0.91133211  0.82990470  1
  Ca2+  Ca30  1  0.82598520  0.42170438  0.18093314  1
  Ca2+  Ca31  1  0.83222007  0.41734134  0.49519130  1
  Ca2+  Ca32  1  0.83138976  0.41988006  0.83635199  1
  Ca2+  Ca33  1  0.82903496  0.92476605  0.17211532  1
  Ca2+  Ca34  1  0.82329537  0.92316200  0.50640025  1
  Ca2+  Ca35  1  0.83342217  0.92309784  0.83624577  1
  Ca2+  Ca36  1  0.42257890  0.17120285  0.15959658  1
  Ca2+  Ca37  1  0.42412040  0.15909375  0.49459646  1
  Ca2+  Ca38  1  0.42904525  0.16851619  0.83013364  1
  Ca2+  Ca39  1  0.42596355  0.66567872  0.16780282  1
  Ca2+  Ca40  1  0.41524531  0.67598532  0.49138957  1
  Ca2+  Ca41  1  0.42226124  0.66984599  0.82586949  1
  Ca2+  Ca42  1  0.92148523  0.16341215  0.16630713  1
  Ca2+  Ca43  1  0.91951158  0.16493014  0.48972082  1
  Ca2+  Ca44  1  0.91742068  0.15603395  0.83150231  1
  Ca2+  Ca45  1  0.90981484  0.67289833  0.16295223  1
  Ca2+  Ca46  1  0.91180550  0.67255593  0.49398335  1
  Ca2+  Ca47  1  0.91534952  0.68398150  0.82773318  1
  Al0+  Al48  1  -0.00115013  0.00002549  -0.00135589  1
  Al0+  Al49  1  0.00110533  -0.00023849  0.33078258  1
  Al0+  Al50  1  0.00115076  0.00006792  0.66674855  1
  Al0+  Al51  1  0.00211878  0.49997917  -0.00011438  1
  Al0+  Al52  1  -0.00119697  0.49954788  0.33626436  1
  Al0+  Al53  1  0.00107339  0.49895546  0.66941920  1
  Al0+  Al54  1  0.49905153  -0.00202991  -0.00291083  1
  Al0+  Al55  1  0.49861066  -0.00018915  0.33386139  1
  Al0+  Al56  1  0.50087221  -0.00057226  0.66391195  1
  Al0+  Al57  1  0.50007544  0.50179483  -0.00699520  1
  Al0+  Al58  1  0.50020169  0.50005697  0.33917663  1
  Al0+  Al59  1  0.50029752  0.49852540  0.67150909  1
  Al0+  Al60  1  0.24825319  0.25050371  -0.00983459  1
  Al0+  Al61  1  0.24998405  0.24854362  0.33976470  1
  Al0+  Al62  1  0.25057597  0.25186733  0.66669722  1
  Al0+  Al63  1  0.24977122  0.74885123  0.00331113  1
  Al0+  Al64  1  0.24876506  0.75181788  0.33027929  1
  Al0+  Al65  1  0.25066219  0.74888703  0.67332052  1
  Al0+  Al66  1  0.75111209  0.25131159  0.00155902  1
  Al0+  Al67  1  0.75170511  0.25109283  0.33599650  1
  Al0+  Al68  1  0.75092215  0.25104599  0.66714932  1
  Al0+  Al69  1  0.74957946  0.75142041  -0.00875661  1
  Al0+  Al70  1  0.74800245  0.74963217  0.33607538  1
  Al0+  Al71  1  0.75038496  0.74961002  0.66485260  1
  Al0+  Al72  1  0.56930745  0.68131785  0.98557705  1
  Al0+  Al73  1  0.17854821  0.42735694  0.34822404  1
  Al0+  Al74  1  0.57410591  0.17680678  0.98698706  1
  Al0+  Al75  1  0.32088920  0.07108512  0.34473841  1
  Al0+  Al76  1  0.42653904  0.82332188  0.31647607  1
  Al0+  Al77  1  0.82021772  0.07077685  0.01615892  1
  Al0+  Al78  1  0.93084118  0.81975058  0.98654148  1
  Al0+  Al79  1  0.42898000  0.81862033  0.65330861  1
  Al0+  Al80  1  0.82140761  0.57263990  0.34711849  1
  Al0+  Al81  1  0.92736196  0.32209419  0.31745459  1
  Al0+  Al82  1  0.57112044  0.18011379  0.65122431  1
  Al0+  Al83  1  0.82297861  0.07058161  0.34781160  1
  Al0+  Al84  1  0.32120987  0.57268179  0.34714898  1
  Al0+  Al85  1  0.18089033  0.93121331  0.67996040  1
  Al0+  Al86  1  0.06894477  0.18015699  0.98466272  1
  Al0+  Al87  1  0.67732808  0.92749886  0.68330433  1
  Al0+  Al88  1  0.67721317  0.42726583  0.34797319  1
  Al0+  Al89  1  0.32050823  0.56955399  0.68286733  1
  Al0+  Al90  1  0.92962074  0.82164178  0.65000544  1
  Al0+  Al91  1  0.56994781  0.67865710  0.31971361  1
  Al0+  Al92  1  0.82049472  0.07142922  0.68240296  1
  Al0+  Al93  1  0.42840492  0.32099018  0.98578792  1
  Al0+  Al94  1  0.07194821  0.17804018  0.31864966  1
  Al0+  Al95  1  0.67831786  0.92910551  0.34729391  1
  Si0+  Si96  1  0.32031398  0.07133781  0.01185995  1
  Si0+  Si97  1  0.92838811  0.82011757  0.31867908  1
  Si0+  Si98  1  0.93009181  0.32312927  0.65187405  1
  Si0+  Si99  1  0.07125515  0.67814821  0.31930555  1
  Si0+  Si100  1  0.42394711  0.82234043  0.98223222  1
  Si0+  Si101  1  0.42814355  0.32283627  0.64744417  1
  Si0+  Si102  1  0.57171929  0.17868512  0.31976008  1
  Si0+  Si103  1  0.07392515  0.67606341  0.98371489  1
  Si0+  Si104  1  0.67950435  0.43147898  0.01335898  1
  Si0+  Si105  1  0.32185189  0.57009186  0.01657237  1
  Si0+  Si106  1  0.17707500  0.92702007  0.34786919  1
  Si0+  Si107  1  0.68017577  0.42931410  0.68459409  1
  Si0+  Si108  1  0.82302640  0.57088806  0.68332731  1
  Si0+  Si109  1  0.42985145  0.32024562  0.32251881  1
  Si0+  Si110  1  0.92799333  0.32504551  0.98288362  1
  Si0+  Si111  1  0.57286412  0.67519357  0.64837555  1
  Si0+  Si112  1  0.07144012  0.17926695  0.65102901  1
  Si0+  Si113  1  0.17846482  0.92930330  0.01557449  1
  Si0+  Si114  1  0.17919813  0.42763928  0.01505933  1
  Si0+  Si115  1  0.67611174  0.92593815  0.01644487  1
  Si0+  Si116  1  0.82133762  0.57260211  0.01169053  1
  Si0+  Si117  1  0.32339246  0.07454320  0.68500039  1
  Si0+  Si118  1  0.17679101  0.42716073  0.68680925  1
  Si0+  Si119  1  0.07121782  0.67717707  0.65095323  1
  O2-  O120  1  0.25178358  -0.00155797  0.05604982  1
  O2-  O121  1  0.24762200  -0.00560561  0.39000593  1
  O2-  O122  1  0.25413772  0.00639131  0.72955095  1
  O2-  O123  1  0.25059508  0.49852567  0.05722710  1
  O2-  O124  1  0.24765703  0.50233800  0.39743444  1
  O2-  O125  1  0.24738963  0.49348758  0.73169151  1
  O2-  O126  1  0.74027419  -0.00042338  0.05980840  1
  O2-  O127  1  0.74995204  0.00073391  0.39774203  1
  O2-  O128  1  0.74923767  -0.00065949  0.73391365  1
  O2-  O129  1  0.75232301  0.50081263  0.05484955  1
  O2-  O130  1  0.75065958  0.49907608  0.39676606  1
  O2-  O131  1  0.74917322  0.50305201  0.72640024  1
  O2-  O132  1  -0.00135368  0.24883933  0.26826050  1
  O2-  O133  1  0.00086602  0.25140983  0.61115714  1
  O2-  O134  1  -0.00760401  0.25307054  0.93726989  1
  O2-  O135  1  -0.00187198  0.74710212  0.27664242  1
  O2-  O136  1  0.00259813  0.74420875  0.60434344  1
  O2-  O137  1  0.00581393  0.74472260  0.93939065  1
  O2-  O138  1  0.50147417  0.25107552  0.27821836  1
  O2-  O139  1  0.49316440  0.25139224  0.60304015  1
  O2-  O140  1  0.49990982  0.24752662  0.93728790  1
  O2-  O141  1  0.49812585  0.75009824  0.26798692  1
  O2-  O142  1  0.50612967  0.74648569  0.60674374  1
  O2-  O143  1  0.49527040  0.75621304  0.93897507  1
  O2-  O144  1  0.07303472  0.18211448  0.09688058  1
  O2-  O145  1  0.07222050  0.17832582  0.43252010  1
  O2-  O146  1  0.07120152  0.18018235  0.75660448  1
  O2-  O147  1  0.07415917  0.67556449  0.08928498  1
  O2-  O148  1  0.07311683  0.68085441  0.42427196  1
  O2-  O149  1  0.06789273  0.67656388  0.75696577  1
  O2-  O150  1  0.57233233  0.17979728  0.10087620  1
  O2-  O151  1  0.56971738  0.17907942  0.42486649  1
  O2-  O152  1  0.57122280  0.18346818  0.76454002  1
  O2-  O153  1  0.56944091  0.67775595  0.09793037  1
  O2-  O154  1  0.56828239  0.67842936  0.43289870  1
  O2-  O155  1  0.57091428  0.67444680  0.75471928  1
  O2-  O156  1  0.18240623  0.42746556  0.23374644  1
  O2-  O157  1  0.17443923  0.42800623  0.58197984  1
  O2-  O158  1  0.17727684  0.43010158  0.90991767  1
  O2-  O159  1  0.17547679  0.92647065  0.24183907  1
  O2-  O160  1  0.18068918  0.93295355  0.56710398  1
  O2-  O161  1  0.17851739  0.92930473  0.91042650  1
  O2-  O162  1  0.67523425  0.42846989  0.23372564  1
  O2-  O163  1  0.68040485  0.42855328  0.58006790  1
  O2-  O164  1  0.68137131  0.43262710  0.90779993  1
  O2-  O165  1  0.68110459  0.92975522  0.23294534  1
  O2-  O166  1  0.67827814  0.92864941  0.57018545  1
  O2-  O167  1  0.67772115  0.92357248  0.91109287  1
  O2-  O168  1  0.42802944  0.32136019  0.09988505  1
  O2-  O169  1  0.43100159  0.31878441  0.42752162  1
  O2-  O170  1  0.43008139  0.32278260  0.75325377  1
  O2-  O171  1  0.41976963  0.82185561  0.08716895  1
  O2-  O172  1  0.42507454  0.82194255  0.42998470  1
  O2-  O173  1  0.42851059  0.81468335  0.76704006  1
  O2-  O174  1  0.93053229  0.33018722  0.08743041  1
  O2-  O175  1  0.92951808  0.32142266  0.43159280  1
  O2-  O176  1  0.93180217  0.32675053  0.75737656  1
  O2-  O177  1  0.93138641  0.81698811  0.09995016  1
  O2-  O178  1  0.93086147  0.82076005  0.42359565  1
  O2-  O179  1  0.93187682  0.82060873  0.76347843  1
  O2-  O180  1  0.32037370  0.07309833  0.23081548  1
  O2-  O181  1  0.32097734  0.07567018  0.57954283  1
  O2-  O182  1  0.31879682  0.06982373  0.90683876  1
  O2-  O183  1  0.32041511  0.56870418  0.23285743  1
  O2-  O184  1  0.31800652  0.56911373  0.57045714  1
  O2-  O185  1  0.31991634  0.57067774  0.91135972  1
  O2-  O186  1  0.82254551  0.06781289  0.23375284  1
  O2-  O187  1  0.82080974  0.07171810  0.56937856  1
  O2-  O188  1  0.82168412  0.06777862  0.90327312  1
  O2-  O189  1  0.81961133  0.57350703  0.23265325  1
  O2-  O190  1  0.82651552  0.56862966  0.57901726  1
  O2-  O191  1  0.82043686  0.57042755  0.90621981  1
  O2-  O192  1  0.04645442  0.07912069  0.26389946  1
  O2-  O193  1  0.04444740  0.08805650  0.60388884  1
  O2-  O194  1  0.03893800  0.08315899  0.93120728  1
  O2-  O195  1  0.04639237  0.58564466  0.27217408  1
  O2-  O196  1  0.04708748  0.58235038  0.60655329  1
  O2-  O197  1  0.05002043  0.58248777  0.93641081  1
  O2-  O198  1  0.54201200  0.08848534  0.27129537  1
  O2-  O199  1  0.54181127  0.08337344  0.59790131  1
  O2-  O200  1  0.54644276  0.07815512  0.93388446  1
  O2-  O201  1  0.54098136  0.57900260  0.26764633  1
  O2-  O202  1  0.54521666  0.58076494  0.60600754  1
  O2-  O203  1  0.53825591  0.58637514  0.92781428  1
  O2-  O204  1  0.17094511  0.20952802  0.26715630  1
  O2-  O205  1  0.16469264  0.20610578  0.60579558  1
  O2-  O206  1  0.16281558  0.21194423  0.92554609  1
  O2-  O207  1  0.16070562  0.70759824  0.26764271  1
  O2-  O208  1  0.16528548  0.70383067  0.60832306  1
  O2-  O209  1  0.16787505  0.70221902  0.93826084  1
  O2-  O210  1  0.66375936  0.20605946  0.27356782  1
  O2-  O211  1  0.66688235  0.21623328  0.59897717  1
  O2-  O212  1  0.67082565  0.21031350  0.93297684  1
  O2-  O213  1  0.66885075  0.70703914  0.26581764  1
  O2-  O214  1  0.66845013  0.69516476  0.60542183  1
  O2-  O215  1  0.66533735  0.70890108  0.92838253  1
  O2-  O216  1  0.08750742  0.45590118  0.06309255  1
  O2-  O217  1  0.08033599  0.45443581  0.40058569  1
  O2-  O218  1  0.08420887  0.45461581  0.73554193  1
  O2-  O219  1  0.08779832  0.95888796  0.06327008  1
  O2-  O220  1  0.08488831  0.95430600  0.39519321  1
  O2-  O221  1  0.08564465  0.96429840  0.73585287  1
  O2-  O222  1  0.58722227  0.46141043  0.05816312  1
  O2-  O223  1  0.58133765  0.45586184  0.40548790  1
  O2-  O224  1  0.58823998  0.45462369  0.73323172  1
  O2-  O225  1  0.57943697  0.94424027  0.05957004  1
  O2-  O226  1  0.58002503  0.95725894  0.39872231  1
  O2-  O227  1  0.57807903  0.95548858  0.73526207  1
  O2-  O228  1  0.20723451  0.33485202  0.05955345  1
  O2-  O229  1  0.20865990  0.33182171  0.40439795  1
  O2-  O230  1  0.20155727  0.33253402  0.73230807  1
  O2-  O231  1  0.20249734  0.83567123  0.06238463  1
  O2-  O232  1  0.19967157  0.83358266  0.39479361  1
  O2-  O233  1  0.20962568  0.83513316  0.73690108  1
  O2-  O234  1  0.70418999  0.33949076  0.06115072  1
  O2-  O235  1  0.70687860  0.33080720  0.40358297  1
  O2-  O236  1  0.71270311  0.33990304  0.73389680  1
  O2-  O237  1  0.70913257  0.83357751  0.06151975  1
  O2-  O238  1  0.70503292  0.83133000  0.40036387  1
  O2-  O239  1  0.70526737  0.82703213  0.73375148  1
  O2-  O240  1  0.45565451  0.41247976  0.27517055  1
  O2-  O241  1  0.45846240  0.41583153  0.60333806  1
  O2-  O242  1  0.45932591  0.41754049  0.93024390  1
  O2-  O243  1  0.45659107  0.92139067  0.26266311  1
  O2-  O244  1  0.45305199  0.91737186  0.60130184  1
  O2-  O245  1  0.44490206  0.91684269  0.93622503  1
  O2-  O246  1  0.95490252  0.42176978  0.26556057  1
  O2-  O247  1  0.95929299  0.41456583  0.60433649  1
  O2-  O248  1  0.95764834  0.41731866  0.93368926  1
  O2-  O249  1  0.95951452  0.90990453  0.26912376  1
  O2-  O250  1  0.96549234  0.91673786  0.59696701  1
  O2-  O251  1  0.96473729  0.91440106  0.93178679  1
  O2-  O252  1  0.33834329  0.29109880  0.27570178  1
  O2-  O253  1  0.33179970  0.30315382  0.60467106  1
  O2-  O254  1  0.33145396  0.29527957  0.92854049  1
  O2-  O255  1  0.32718574  0.79751618  0.26279109  1
  O2-  O256  1  0.33156735  0.78566992  0.60216586  1
  O2-  O257  1  0.33082657  0.79270323  0.93603933  1
  O2-  O258  1  0.82807964  0.29609272  0.26445236  1
  O2-  O259  1  0.83745295  0.29816866  0.60636987  1
  O2-  O260  1  0.83292065  0.30385374  0.93826140  1
  O2-  O261  1  0.83687984  0.79225196  0.27148443  1
  O2-  O262  1  0.83298029  0.78962887  0.59754796  1
  O2-  O263  1  0.83649283  0.78881347  0.92870046  1
  O2-  O264  1  0.41328892  0.04667032  0.05921789  1
  O2-  O265  1  0.41613202  0.04127838  0.40060440  1
  O2-  O266  1  0.41652132  0.04736741  0.72996781  1
  O2-  O267  1  0.41447620  0.54155202  0.06103218  1
  O2-  O268  1  0.41665448  0.54254666  0.40293030  1
  O2-  O269  1  0.41720867  0.53802424  0.73804628  1
  O2-  O270  1  0.91647376  0.03534411  0.06866761  1
  O2-  O271  1  0.92178606  0.04107556  0.39867959  1
  O2-  O272  1  0.91962118  0.04171741  0.73357961  1
  O2-  O273  1  0.91519002  0.54855899  0.05729341  1
  O2-  O274  1  0.91956412  0.54766390  0.40182244  1
  O2-  O275  1  0.91341565  0.54001550  0.73313097  1
  O2-  O276  1  0.28960619  0.16381683  0.05621476  1
  O2-  O277  1  0.29020065  0.16408010  0.40486242  1
  O2-  O278  1  0.29859344  0.16929130  0.73003835  1
  O2-  O279  1  0.29398255  0.66188831  0.06408679  1
  O2-  O280  1  0.29071300  0.67145336  0.39752574  1
  O2-  O281  1  0.28741785  0.66344101  0.74098639  1
  O2-  O282  1  0.79571757  0.17060857  0.06732430  1
  O2-  O283  1  0.79861008  0.16988564  0.39849575  1
  O2-  O284  1  0.79409598  0.17137888  0.73488281  1
  O2-  O285  1  0.79294680  0.66504462  0.05655611  1
  O2-  O286  1  0.79182573  0.66887378  0.40281433  1
  O2-  O287  1  0.79674898  0.66337482  0.73000389  1
