# generated using pymatgen
data_Ca2Al2SiO7
_symmetry_space_group_name_H-M   'P 1'
_cell_length_a   15.45505214
_cell_length_b   15.45471863
_cell_length_c   15.28109543
_cell_angle_alpha   89.99972065
_cell_angle_beta   90.00570858
_cell_angle_gamma   90.01038438
_symmetry_Int_Tables_number   1
_chemical_formula_structural   Ca2Al2SiO7
_chemical_formula_sum   'Ca48 Al48 Si24 O168'
_cell_volume   3649.94277703
_cell_formula_units_Z   24
loop_
 _symmetry_equiv_pos_site_id
 _symmetry_equiv_pos_as_xyz
  1  'x, y, z'
loop_
 _atom_type_symbol
 _atom_type_oxidation_number
  Ca2+  2.0
  Al0+  0.0
  Si0+  0.0
  O2-  -2.0
loop_
 _atom_site_type_symbol
 _atom_site_label
 _atom_site_symmetry_multiplicity
 _atom_site_fract_x
 _atom_site_fract_y
 _atom_site_fract_z
 _atom_site_occupancy
  Ca2+  Ca0  1  0.16444432  0.07840009  0.16734383  1
  Ca2+  Ca1  1  0.15291049  0.07273685  0.50251987  1
  Ca2+  Ca2  1  0.16406683  0.07855954  0.84157183  1
  Ca2+  Ca3  1  0.17165762  0.58961339  0.17179412  1
  Ca2+  Ca4  1  0.16219474  0.57600891  0.50434360  1
  Ca2+  Ca5  1  0.17284793  0.57352651  0.83813375  1
  Ca2+  Ca6  1  0.66759113  0.07352008  0.17762117  1
  Ca2+  Ca7  1  0.67652487  0.08721661  0.49858975  1
  Ca2+  Ca8  1  0.67609278  0.07796970  0.83918688  1
  Ca2+  Ca9  1  0.66887489  0.57988216  0.16831545  1
  Ca2+  Ca10  1  0.68170747  0.57757816  0.50618738  1
  Ca2+  Ca11  1  0.66668861  0.57720904  0.83935189  1
  Ca2+  Ca12  1  0.07495511  0.32242074  0.16382200  1
  Ca2+  Ca13  1  0.07940466  0.32230360  0.49116045  1
  Ca2+  Ca14  1  0.08954508  0.31964254  0.82699523  1
  Ca2+  Ca15  1  0.08021451  0.83584106  0.16275864  1
  Ca2+  Ca16  1  0.08629576  0.82869455  0.49190403  1
  Ca2+  Ca17  1  0.08021173  0.84141577  0.83229001  1
  Ca2+  Ca18  1  0.58355219  0.32653791  0.15952039  1
  Ca2+  Ca19  1  0.58773627  0.32957295  0.49639735  1
  Ca2+  Ca20  1  0.57861513  0.34470208  0.83297855  1
  Ca2+  Ca21  1  0.58293578  0.83376374  0.15922762  1
  Ca2+  Ca22  1  0.57482192  0.83894844  0.48999142  1
  Ca2+  Ca23  1  0.58892733  0.82777178  0.83404085  1
  Ca2+  Ca24  1  0.33835963  0.42050439  0.16286801  1
  Ca2+  Ca25  1  0.32468354  0.41690633  0.50526917  1
  Ca2+  Ca26  1  0.33044575  0.41623990  0.84222017  1
  Ca2+  Ca27  1  0.32493222  0.91790699  0.17204532  1
  Ca2+  Ca28  1  0.32393825  0.91513798  0.49999773  1
  Ca2+  Ca29  1  0.31984589  0.92490705  0.84254050  1
  Ca2+  Ca30  1  0.83247396  0.41875746  0.17398996  1
  Ca2+  Ca31  1  0.83895705  0.42487594  0.50440337  1
  Ca2+  Ca32  1  0.82238365  0.42118473  0.83578203  1
  Ca2+  Ca33  1  0.82458482  0.91671799  0.17093359  1
  Ca2+  Ca34  1  0.83459302  0.93123884  0.49997154  1
  Ca2+  Ca35  1  0.83528940  0.92172514  0.84020164  1
  Ca2+  Ca36  1  0.42015587  0.16849938  0.16020378  1
  Ca2+  Ca37  1  0.42624764  0.16708423  0.49238412  1
  Ca2+  Ca38  1  0.41354457  0.16864623  0.83585202  1
  Ca2+  Ca39  1  0.42073114  0.67335454  0.15935890  1
  Ca2+  Ca40  1  0.41884578  0.67542558  0.49181548  1
  Ca2+  Ca41  1  0.42156979  0.66036608  0.83593617  1
  Ca2+  Ca42  1  0.92473311  0.15839674  0.16740684  1
  Ca2+  Ca43  1  0.92024525  0.16796505  0.49214044  1
  Ca2+  Ca44  1  0.92740352  0.16145395  0.82753592  1
  Ca2+  Ca45  1  0.91994092  0.67047506  0.16361478  1
  Ca2+  Ca46  1  0.92069348  0.66190475  0.49169937  1
  Ca2+  Ca47  1  0.91049566  0.67566365  0.83140502  1
  Al0+  Al48  1  -0.00009337  -0.00075186  -0.00413420  1
  Al0+  Al49  1  -0.00079772  -0.00204953  0.33697905  1
  Al0+  Al50  1  -0.00120583  -0.00121244  0.66899061  1
  Al0+  Al51  1  -0.00027303  0.49938321  -0.00240167  1
  Al0+  Al52  1  0.00136743  0.49960485  0.32733396  1
  Al0+  Al53  1  0.00087449  0.50087681  0.67905454  1
  Al0+  Al54  1  0.49934288  0.00029035  0.00292001  1
  Al0+  Al55  1  0.49655044  0.00073095  0.32855012  1
  Al0+  Al56  1  0.49928679  0.00038273  0.66566909  1
  Al0+  Al57  1  0.50030898  0.49976736  0.00140395  1
  Al0+  Al58  1  0.49933929  0.50201682  0.33656366  1
  Al0+  Al59  1  0.50054882  0.50134353  0.66290503  1
  Al0+  Al60  1  0.25039042  0.24984797  -0.00325509  1
  Al0+  Al61  1  0.25069984  0.25036124  0.32947830  1
  Al0+  Al62  1  0.25126162  0.24845240  0.66237469  1
  Al0+  Al63  1  0.24998610  0.74872853  0.00450733  1
  Al0+  Al64  1  0.25161736  0.75092722  0.33002632  1
  Al0+  Al65  1  0.24996156  0.75102230  0.67076578  1
  Al0+  Al66  1  0.75114781  0.25064907  0.00285917  1
  Al0+  Al67  1  0.74839628  0.24981873  0.32807897  1
  Al0+  Al68  1  0.75027258  0.25048931  0.67614989  1
  Al0+  Al69  1  0.75102270  0.75052140  -0.00551332  1
  Al0+  Al70  1  0.74874950  0.74770842  0.34326805  1
  Al0+  Al71  1  0.74989839  0.75039817  0.66475864  1
  Al0+  Al72  1  0.07108286  0.17526075  0.31763442  1
  Al0+  Al73  1  0.06813739  0.18136332  0.98513775  1
  Al0+  Al74  1  0.92846593  0.32178431  0.31939100  1
  Al0+  Al75  1  0.07068570  0.17829521  0.65123501  1
  Al0+  Al76  1  0.17707511  0.92956336  0.01673376  1
  Al0+  Al77  1  0.68055477  0.92847894  0.01145968  1
  Al0+  Al78  1  0.82314981  0.57378825  0.68455589  1
  Al0+  Al79  1  0.82035148  0.07010483  0.68146674  1
  Al0+  Al80  1  0.18023784  0.42642327  0.67917193  1
  Al0+  Al81  1  0.17993191  0.92936839  0.68029000  1
  Al0+  Al82  1  0.32047782  0.07338999  0.01568105  1
  Al0+  Al83  1  0.67835039  0.42969111  0.68168121  1
  Al0+  Al84  1  0.42982284  0.82071603  0.31830956  1
  Al0+  Al85  1  0.93137732  0.81847263  0.98702447  1
  Al0+  Al86  1  0.07092692  0.67896963  0.32114920  1
  Al0+  Al87  1  0.43252904  0.31934431  0.98636161  1
  Al0+  Al88  1  0.67955418  0.42989899  0.01598761  1
  Al0+  Al89  1  0.56964887  0.68069086  0.98671915  1
  Al0+  Al90  1  0.82269381  0.56913501  0.34502505  1
  Al0+  Al91  1  0.82022607  0.07156421  0.34711372  1
  Al0+  Al92  1  0.57017651  0.18065174  0.31990677  1
  Al0+  Al93  1  0.67507036  0.92795084  0.34867248  1
  Al0+  Al94  1  0.18010641  0.92949877  0.34752838  1
  Al0+  Al95  1  0.32029369  0.56899720  0.01420210  1
  Si0+  Si96  1  0.92530166  0.32509762  0.97986193  1
  Si0+  Si97  1  0.92788085  0.32258498  0.65373968  1
  Si0+  Si98  1  0.82217681  0.57278389  0.01683221  1
  Si0+  Si99  1  0.32074529  0.07488115  0.35075133  1
  Si0+  Si100  1  0.42952613  0.32238488  0.65017653  1
  Si0+  Si101  1  0.57144594  0.67855011  0.64873945  1
  Si0+  Si102  1  0.57296400  0.67767189  0.31818683  1
  Si0+  Si103  1  0.17685942  0.42684633  0.01798789  1
  Si0+  Si104  1  0.67655379  0.42798066  0.34910810  1
  Si0+  Si105  1  0.67491441  0.92898765  0.68245188  1
  Si0+  Si106  1  0.32546829  0.07166002  0.68182744  1
  Si0+  Si107  1  0.57220387  0.17864779  0.65369058  1
  Si0+  Si108  1  0.42606242  0.82346651  0.98148961  1
  Si0+  Si109  1  0.42720881  0.32515577  0.31695143  1
  Si0+  Si110  1  0.07167040  0.67901934  0.65429622  1
  Si0+  Si111  1  0.42883774  0.82069867  0.65272393  1
  Si0+  Si112  1  0.17996493  0.42873718  0.34596574  1
  Si0+  Si113  1  0.92597719  0.82054401  0.31985418  1
  Si0+  Si114  1  0.32168700  0.57193672  0.68161393  1
  Si0+  Si115  1  0.92847428  0.82072114  0.64914585  1
  Si0+  Si116  1  0.82253187  0.07177559  0.01665347  1
  Si0+  Si117  1  0.57429226  0.17548698  0.98186225  1
  Si0+  Si118  1  0.07535502  0.67562660  0.98119585  1
  Si0+  Si119  1  0.32100921  0.57177757  0.34918008  1
  O2-  O120  1  0.25148971  -0.00088001  0.06617476  1
  O2-  O121  1  0.24923153  0.00938896  0.39567748  1
  O2-  O122  1  0.25251295  0.00702417  0.72427320  1
  O2-  O123  1  0.24117870  0.49962797  0.06267471  1
  O2-  O124  1  0.25147643  0.49907165  0.39037043  1
  O2-  O125  1  0.25656755  0.50005528  0.72523834  1
  O2-  O126  1  0.74881490  0.00794267  0.05925038  1
  O2-  O127  1  0.74738036  0.00000465  0.39818089  1
  O2-  O128  1  0.74534417  -0.00506370  0.72692895  1
  O2-  O129  1  0.75832418  0.50042573  0.06200264  1
  O2-  O130  1  0.74849708  0.49366877  0.39232233  1
  O2-  O131  1  0.74854522  0.50322753  0.73194843  1
  O2-  O132  1  -0.00363780  0.24561234  0.26947637  1
  O2-  O133  1  -0.00294633  0.25569210  0.60713117  1
  O2-  O134  1  -0.00551395  0.25664376  0.93649384  1
  O2-  O135  1  -0.00499449  0.75238857  0.27538893  1
  O2-  O136  1  -0.00111059  0.74725455  0.60977768  1
  O2-  O137  1  0.00701118  0.74486500  0.93763580  1
  O2-  O138  1  0.49697308  0.25747613  0.27444604  1
  O2-  O139  1  0.50201600  0.25136122  0.61095100  1
  O2-  O140  1  0.50674707  0.24520594  0.93662718  1
  O2-  O141  1  0.50920332  0.75016569  0.27346587  1
  O2-  O142  1  0.50149860  0.75177392  0.60864261  1
  O2-  O143  1  0.49595139  0.75584266  0.93675202  1
  O2-  O144  1  0.06620575  0.18080095  0.09795032  1
  O2-  O145  1  0.07085495  0.17818004  0.43159704  1
  O2-  O146  1  0.07101968  0.17856443  0.76438338  1
  O2-  O147  1  0.07373368  0.67436375  0.08679157  1
  O2-  O148  1  0.07119892  0.67736253  0.43510303  1
  O2-  O149  1  0.07412944  0.68160230  0.75900640  1
  O2-  O150  1  0.57318271  0.17670959  0.08727349  1
  O2-  O151  1  0.56942751  0.18336244  0.43414840  1
  O2-  O152  1  0.56925046  0.17499454  0.75830331  1
  O2-  O153  1  0.56943023  0.68212146  0.09977687  1
  O2-  O154  1  0.56790843  0.67491918  0.42406559  1
  O2-  O155  1  0.56992876  0.67700864  0.75381881  1
  O2-  O156  1  0.18193368  0.42955137  0.24122639  1
  O2-  O157  1  0.18088834  0.42914353  0.56550656  1
  O2-  O158  1  0.18038774  0.42704076  0.91191395  1
  O2-  O159  1  0.18162344  0.92751066  0.23530753  1
  O2-  O160  1  0.18233241  0.92521709  0.56717803  1
  O2-  O161  1  0.17773987  0.93213821  0.90261659  1
  O2-  O162  1  0.67260269  0.43168635  0.24384670  1
  O2-  O163  1  0.67810363  0.43053184  0.56788721  1
  O2-  O164  1  0.67840029  0.43388389  0.90295792  1
  O2-  O165  1  0.67770179  0.92695145  0.23503841  1
  O2-  O166  1  0.67158800  0.93161176  0.57725481  1
  O2-  O167  1  0.68399540  0.92899650  0.89773717  1
  O2-  O168  1  0.43511767  0.31988450  0.09939124  1
  O2-  O169  1  0.42606629  0.32572327  0.42311381  1
  O2-  O170  1  0.42835333  0.32472051  0.75490509  1
  O2-  O171  1  0.42672323  0.82111730  0.08694133  1
  O2-  O172  1  0.42779282  0.81671839  0.43255048  1
  O2-  O173  1  0.42916434  0.82002889  0.75738509  1
  O2-  O174  1  0.92662445  0.32742630  0.08521576  1
  O2-  O175  1  0.93296717  0.32530166  0.43355052  1
  O2-  O176  1  0.92894610  0.31942370  0.75918462  1
  O2-  O177  1  0.92955867  0.81630081  0.10010351  1
  O2-  O178  1  0.92859194  0.81966546  0.42586332  1
  O2-  O179  1  0.92830362  0.82133795  0.75434278  1
  O2-  O180  1  0.32149360  0.07475619  0.24568659  1
  O2-  O181  1  0.33276229  0.06884633  0.57660078  1
  O2-  O182  1  0.31843003  0.07236253  0.90123807  1
  O2-  O183  1  0.32287264  0.57095231  0.24448633  1
  O2-  O184  1  0.32039661  0.57298310  0.57559133  1
  O2-  O185  1  0.31987966  0.56550604  0.90048636  1
  O2-  O186  1  0.81981339  0.06789820  0.23375992  1
  O2-  O187  1  0.81914655  0.07129415  0.56863532  1
  O2-  O188  1  0.82267786  0.06958078  0.91049092  1
  O2-  O189  1  0.82095388  0.56979095  0.23214200  1
  O2-  O190  1  0.82462302  0.57187500  0.57067280  1
  O2-  O191  1  0.81926660  0.57306104  0.91125277  1
  O2-  O192  1  0.04285599  0.07596038  0.26668450  1
  O2-  O193  1  0.03581633  0.08154474  0.59994393  1
  O2-  O194  1  0.03640229  0.08533032  0.93026998  1
  O2-  O195  1  0.04345903  0.58396318  0.26331716  1
  O2-  O196  1  0.04558386  0.58484743  0.60988576  1
  O2-  O197  1  0.05048532  0.58117780  0.93524734  1
  O2-  O198  1  0.53728991  0.08574693  0.26499504  1
  O2-  O199  1  0.54261118  0.08793415  0.60390539  1
  O2-  O200  1  0.54756186  0.08214975  0.93500584  1
  O2-  O201  1  0.54218284  0.58538695  0.27169426  1
  O2-  O202  1  0.54168901  0.58840350  0.59857940  1
  O2-  O203  1  0.53477501  0.58557067  0.93196852  1
  O2-  O204  1  0.16941984  0.20611428  0.26614788  1
  O2-  O205  1  0.16898975  0.20512894  0.59757374  1
  O2-  O206  1  0.16487684  0.21214017  0.93088091  1
  O2-  O207  1  0.16667672  0.71020370  0.26670649  1
  O2-  O208  1  0.16376378  0.70741435  0.60623806  1
  O2-  O209  1  0.17007158  0.69910978  0.93630454  1
  O2-  O210  1  0.66528955  0.20770308  0.26220147  1
  O2-  O211  1  0.66454403  0.20775613  0.60806183  1
  O2-  O212  1  0.66959172  0.19998936  0.93845715  1
  O2-  O213  1  0.66911637  0.69707900  0.27592146  1
  O2-  O214  1  0.66411046  0.70426425  0.60181433  1
  O2-  O215  1  0.66490860  0.71111848  0.92941116  1
  O2-  O216  1  0.08078330  0.44830339  0.06044355  1
  O2-  O217  1  0.08941278  0.45879785  0.39360582  1
  O2-  O218  1  0.08712715  0.45717870  0.73849180  1
  O2-  O219  1  0.07874784  0.96024370  0.06768398  1
  O2-  O220  1  0.08217459  0.95376460  0.40249062  1
  O2-  O221  1  0.08298380  0.95789355  0.73314202  1
  O2-  O222  1  0.58492084  0.46409646  0.07028707  1
  O2-  O223  1  0.58400287  0.45611300  0.39806864  1
  O2-  O224  1  0.57853497  0.45999513  0.73179986  1
  O2-  O225  1  0.58178579  0.95228883  0.06336125  1
  O2-  O226  1  0.57557244  0.95827814  0.39895444  1
  O2-  O227  1  0.58212594  0.95526035  0.73027422  1
  O2-  O228  1  0.20761259  0.33550978  0.06362549  1
  O2-  O229  1  0.20839469  0.33716161  0.39451357  1
  O2-  O230  1  0.21326525  0.32998880  0.73197129  1
  O2-  O231  1  0.20106732  0.82894328  0.06621751  1
  O2-  O232  1  0.21701797  0.83364938  0.40126536  1
  O2-  O233  1  0.21239573  0.83426007  0.73651681  1
  O2-  O234  1  0.70603289  0.33119020  0.06823647  1
  O2-  O235  1  0.69790291  0.33286819  0.39244610  1
  O2-  O236  1  0.70327236  0.33251570  0.73815569  1
  O2-  O237  1  0.71471008  0.83279450  0.06462038  1
  O2-  O238  1  0.69915512  0.82927915  0.40364891  1
  O2-  O239  1  0.69873997  0.83349027  0.72451121  1
  O2-  O240  1  0.45185180  0.42015621  0.27305393  1
  O2-  O241  1  0.45547974  0.41433142  0.60051606  1
  O2-  O242  1  0.46377905  0.41551226  0.93131677  1
  O2-  O243  1  0.45279991  0.91811558  0.26395104  1
  O2-  O244  1  0.45523521  0.91288572  0.60423521  1
  O2-  O245  1  0.45009893  0.91803626  0.93652133  1
  O2-  O246  1  0.96237613  0.41626553  0.26153883  1
  O2-  O247  1  0.95340231  0.41878107  0.61246238  1
  O2-  O248  1  0.94900831  0.41948694  0.93353169  1
  O2-  O249  1  0.95102730  0.91358340  0.27379350  1
  O2-  O250  1  0.95915831  0.91138011  0.60184112  1
  O2-  O251  1  0.96131935  0.91407389  0.92971929  1
  O2-  O252  1  0.33463949  0.30038075  0.26914021  1
  O2-  O253  1  0.33937844  0.29342504  0.59970538  1
  O2-  O254  1  0.33564961  0.29043960  0.93092156  1
  O2-  O255  1  0.33698808  0.78343760  0.26247559  1
  O2-  O256  1  0.33760264  0.78972230  0.60479701  1
  O2-  O257  1  0.33259524  0.79448032  0.93646142  1
  O2-  O258  1  0.82849767  0.30097414  0.26723023  1
  O2-  O259  1  0.83296631  0.29769063  0.60970653  1
  O2-  O260  1  0.83091148  0.29911092  0.93527566  1
  O2-  O261  1  0.83155115  0.79323368  0.27654397  1
  O2-  O262  1  0.83546022  0.79637597  0.60200324  1
  O2-  O263  1  0.83690248  0.78705081  0.92809776  1
  O2-  O264  1  0.42059436  0.04925514  0.06656506  1
  O2-  O265  1  0.41292695  0.04476665  0.39741857  1
  O2-  O266  1  0.41653399  0.04267685  0.73202167  1
  O2-  O267  1  0.41438135  0.53440510  0.06972798  1
  O2-  O268  1  0.41250662  0.54547116  0.39955883  1
  O2-  O269  1  0.41664449  0.54851612  0.72484853  1
  O2-  O270  1  0.91359920  0.03914279  0.06171057  1
  O2-  O271  1  0.91715960  0.04148237  0.40289967  1
  O2-  O272  1  0.91465785  0.03503740  0.73666286  1
  O2-  O273  1  0.91878455  0.55190555  0.05910789  1
  O2-  O274  1  0.92023661  0.53807328  0.39851275  1
  O2-  O275  1  0.91985925  0.54859729  0.74150571  1
  O2-  O276  1  0.29204149  0.17182082  0.06774855  1
  O2-  O277  1  0.30129290  0.17080369  0.39598323  1
  O2-  O278  1  0.30384537  0.16734267  0.72424322  1
  O2-  O279  1  0.29464253  0.66637376  0.06894849  1
  O2-  O280  1  0.29118145  0.66229584  0.39732359  1
  O2-  O281  1  0.29442375  0.66352107  0.73012821  1
  O2-  O282  1  0.80452903  0.16753676  0.06034235  1
  O2-  O283  1  0.79094788  0.17098893  0.39881746  1
  O2-  O284  1  0.79107168  0.16498177  0.73870532  1
  O2-  O285  1  0.79232736  0.66501001  0.06177045  1
  O2-  O286  1  0.79342350  0.66335127  0.40492271  1
  O2-  O287  1  0.79264118  0.67332065  0.73434740  1
