# generated using pymatgen
data_Ca2Al2SiO7
_symmetry_space_group_name_H-M   'P 1'
_cell_length_a   15.45441846
_cell_length_b   15.45538338
_cell_length_c   15.28199143
_cell_angle_alpha   89.99467010
_cell_angle_beta   89.98903385
_cell_angle_gamma   90.00049514
_symmetry_Int_Tables_number   1
_chemical_formula_structural   Ca2Al2SiO7
_chemical_formula_sum   'Ca48 Al48 Si24 O168'
_cell_volume   3650.16411974
_cell_formula_units_Z   24
loop_
 _symmetry_equiv_pos_site_id
 _symmetry_equiv_pos_as_xyz
  1  'x, y, z'
loop_
 _atom_type_symbol
 _atom_type_oxidation_number
  Ca2+  2.0
  Al0+  0.0
  Si0+  0.0
  O2-  -2.0
loop_
 _atom_site_type_symbol
 _atom_site_label
 _atom_site_symmetry_multiplicity
 _atom_site_fract_x
 _atom_site_fract_y
 _atom_site_fract_z
 _atom_site_occupancy
  Ca2+  Ca0  1  0.16734945  0.09096182  0.17628565  1
  Ca2+  Ca1  1  0.17729131  0.09170678  0.49904320  1
  Ca2+  Ca2  1  0.17124369  0.09270156  0.83580252  1
  Ca2+  Ca3  1  0.17045339  0.56584870  0.17624212  1
  Ca2+  Ca4  1  0.17385068  0.58066533  0.50494843  1
  Ca2+  Ca5  1  0.16833879  0.58012402  0.83678649  1
  Ca2+  Ca6  1  0.67436908  0.08427988  0.17529585  1
  Ca2+  Ca7  1  0.67227288  0.08556817  0.50850818  1
  Ca2+  Ca8  1  0.66970056  0.08437061  0.82905614  1
  Ca2+  Ca9  1  0.67345572  0.57812431  0.17041401  1
  Ca2+  Ca10  1  0.67026523  0.58562390  0.49816662  1
  Ca2+  Ca11  1  0.67550391  0.57324615  0.84534342  1
  Ca2+  Ca12  1  0.08760812  0.32629485  0.16096128  1
  Ca2+  Ca13  1  0.07945983  0.32999446  0.49532718  1
  Ca2+  Ca14  1  0.07377310  0.33786134  0.83578442  1
  Ca2+  Ca15  1  0.06854142  0.83330419  0.16244467  1
  Ca2+  Ca16  1  0.08023361  0.82714056  0.49487200  1
  Ca2+  Ca17  1  0.07702895  0.82572121  0.82876484  1
  Ca2+  Ca18  1  0.57347946  0.33559120  0.16439879  1
  Ca2+  Ca19  1  0.57667619  0.31998993  0.49194928  1
  Ca2+  Ca20  1  0.58111601  0.33278048  0.82902729  1
  Ca2+  Ca21  1  0.58488176  0.82502747  0.16785484  1
  Ca2+  Ca22  1  0.58656790  0.83002851  0.49490989  1
  Ca2+  Ca23  1  0.58501089  0.83329653  0.82781420  1
  Ca2+  Ca24  1  0.32572157  0.40895532  0.17446464  1
  Ca2+  Ca25  1  0.33105018  0.41964587  0.49758993  1
  Ca2+  Ca26  1  0.32933061  0.41931346  0.84084395  1
  Ca2+  Ca27  1  0.32693210  0.92570718  0.17416111  1
  Ca2+  Ca28  1  0.33721868  0.92999962  0.50415692  1
  Ca2+  Ca29  1  0.33243052  0.92571014  0.83329763  1
  Ca2+  Ca30  1  0.83626413  0.42446523  0.16891857  1
  Ca2+  Ca31  1  0.83611173  0.41902736  0.50365234  1
  Ca2+  Ca32  1  0.83248468  0.41619265  0.84398693  1
  Ca2+  Ca33  1  0.83861179  0.92010752  0.17590193  1
  Ca2+  Ca34  1  0.83128686  0.92825550  0.50224911  1
  Ca2+  Ca35  1  0.83240509  0.91962494  0.83411435  1
  Ca2+  Ca36  1  0.41443222  0.17811576  0.16698805  1
  Ca2+  Ca37  1  0.42447765  0.16340832  0.49031893  1
  Ca2+  Ca38  1  0.42048973  0.17419712  0.82703632  1
  Ca2+  Ca39  1  0.42335885  0.65401013  0.16952412  1
  Ca2+  Ca40  1  0.41892296  0.66311560  0.49205982  1
  Ca2+  Ca41  1  0.41528692  0.66715625  0.82573146  1
  Ca2+  Ca42  1  0.92853969  0.16877727  0.16034691  1
  Ca2+  Ca43  1  0.91520052  0.16908359  0.49325762  1
  Ca2+  Ca44  1  0.91595140  0.17906363  0.82764558  1
  Ca2+  Ca45  1  0.90418564  0.67530841  0.16340045  1
  Ca2+  Ca46  1  0.92014272  0.67160911  0.49249358  1
  Ca2+  Ca47  1  0.92001347  0.66579935  0.83029218  1
  Al0+  Al48  1  0.00173741  -0.00247917  -0.01087763  1
  Al0+  Al49  1  -0.00141852  -0.00062942  0.33138757  1
  Al0+  Al50  1  0.00025817  0.00062337  0.67041587  1
  Al0+  Al51  1  0.00258210  0.50097410  0.00684735  1
  Al0+  Al52  1  -0.00016402  0.50035857  0.34259707  1
  Al0+  Al53  1  0.00094901  0.50038805  0.65783644  1
  Al0+  Al54  1  0.50025250  -0.00089103  0.00170075  1
  Al0+  Al55  1  0.50040021  -0.00254948  0.33066948  1
  Al0+  Al56  1  0.49960576  -0.00034524  0.67234645  1
  Al0+  Al57  1  0.50212705  0.49977639  -0.00270142  1
  Al0+  Al58  1  0.49991609  0.49930861  0.32936862  1
  Al0+  Al59  1  0.49899918  0.50083579  0.66992363  1
  Al0+  Al60  1  0.25380362  0.25146735  -0.00593249  1
  Al0+  Al61  1  0.24924204  0.24895202  0.33734319  1
  Al0+  Al62  1  0.24758452  0.25274041  0.67217314  1
  Al0+  Al63  1  0.25115146  0.75328458  0.00153424  1
  Al0+  Al64  1  0.24878532  0.74908195  0.33387214  1
  Al0+  Al65  1  0.25072732  0.74992241  0.66599417  1
  Al0+  Al66  1  0.74940143  0.24762744  0.00304529  1
  Al0+  Al67  1  0.74994590  0.25074112  0.33272272  1
  Al0+  Al68  1  0.74895963  0.25088541  0.66228246  1
  Al0+  Al69  1  0.74853824  0.75140159  -0.00323335  1
  Al0+  Al70  1  0.74863564  0.74901712  0.33009422  1
  Al0+  Al71  1  0.75019283  0.75027577  0.67005849  1
  Al0+  Al72  1  0.93093313  0.81815068  0.32154250  1
  Al0+  Al73  1  0.32095142  0.57080489  0.68139472  1
  Al0+  Al74  1  0.32004321  0.07247722  0.68149055  1
  Al0+  Al75  1  0.92858879  0.31997422  0.65192783  1
  Al0+  Al76  1  0.82131840  0.07207375  0.34440362  1
  Al0+  Al77  1  0.67794729  0.42535918  0.01610817  1
  Al0+  Al78  1  0.81887033  0.57199686  0.34899943  1
  Al0+  Al79  1  0.56748089  0.17947626  0.65377903  1
  Al0+  Al80  1  0.82237000  0.07395331  0.68298978  1
  Al0+  Al81  1  0.57404429  0.17522785  0.31728483  1
  Al0+  Al82  1  0.42956812  0.31863999  0.31998587  1
  Al0+  Al83  1  0.56946099  0.67929786  0.31974777  1
  Al0+  Al84  1  0.32206786  0.57088488  0.34773798  1
  Al0+  Al85  1  0.17831422  0.42615822  0.35167756  1
  Al0+  Al86  1  0.07141270  0.68026458  0.65219096  1
  Al0+  Al87  1  0.32070198  0.06903697  0.34521584  1
  Al0+  Al88  1  0.92859968  0.32201248  0.98851620  1
  Al0+  Al89  1  0.92719205  0.82000070  0.98309357  1
  Al0+  Al90  1  0.06823205  0.18104540  0.32282962  1
  Al0+  Al91  1  0.18161428  0.42946758  0.01318983  1
  Al0+  Al92  1  0.43181899  0.32127020  0.98402828  1
  Al0+  Al93  1  0.67975672  0.92824892  0.68193409  1
  Al0+  Al94  1  0.07308375  0.17888533  0.98306867  1
  Al0+  Al95  1  0.82182787  0.57159595  0.01441922  1
  Si0+  Si96  1  0.07364052  0.67557502  0.31575600  1
  Si0+  Si97  1  0.57162875  0.67801151  0.65344952  1
  Si0+  Si98  1  0.67879632  0.92771160  0.34759503  1
  Si0+  Si99  1  0.82285313  0.06844608  0.01405784  1
  Si0+  Si100  1  0.42494676  0.82259778  0.31603741  1
  Si0+  Si101  1  0.57250583  0.17458514  0.98285823  1
  Si0+  Si102  1  0.67725299  0.42804760  0.35142139  1
  Si0+  Si103  1  0.42831279  0.82299037  0.98383506  1
  Si0+  Si104  1  0.42997636  0.82047336  0.65228773  1
  Si0+  Si105  1  0.82208991  0.57053349  0.68038325  1
  Si0+  Si106  1  0.07432995  0.67916212  0.98599337  1
  Si0+  Si107  1  0.42583213  0.32417141  0.65021568  1
  Si0+  Si108  1  0.17836482  0.92854682  0.01472882  1
  Si0+  Si109  1  0.92671305  0.32536851  0.31694171  1
  Si0+  Si110  1  0.32030574  0.07033718  0.01497782  1
  Si0+  Si111  1  0.32292518  0.57531562  0.01592786  1
  Si0+  Si112  1  0.67923325  0.43022042  0.67960493  1
  Si0+  Si113  1  0.17577535  0.92730294  0.34903676  1
  Si0+  Si114  1  0.17589611  0.43000999  0.68591241  1
  Si0+  Si115  1  0.67793966  0.92912502  0.01694413  1
  Si0+  Si116  1  0.17857087  0.92678514  0.68358387  1
  Si0+  Si117  1  0.56929600  0.68072305  0.98280819  1
  Si0+  Si118  1  0.07297016  0.17692944  0.64961467  1
  Si0+  Si119  1  0.92643015  0.82249694  0.64891855  1
  O2-  O120  1  0.24475640  0.00384579  0.05687888  1
  O2-  O121  1  0.24816256  -0.00773323  0.39295560  1
  O2-  O122  1  0.24171653  0.00084156  0.72849532  1
  O2-  O123  1  0.25563612  0.50567644  0.05907473  1
  O2-  O124  1  0.24845080  0.50197354  0.39922654  1
  O2-  O125  1  0.24756480  0.49637504  0.72950370  1
  O2-  O126  1  0.75105484  -0.00189097  0.05769320  1
  O2-  O127  1  0.74111493  0.00238173  0.39061332  1
  O2-  O128  1  0.75213669  -0.00063853  0.73299489  1
  O2-  O129  1  0.75327603  0.49560042  0.06384201  1
  O2-  O130  1  0.74812049  0.49418864  0.39717714  1
  O2-  O131  1  0.75124018  0.50000522  0.72258461  1
  O2-  O132  1  -0.00493788  0.25588043  0.27408013  1
  O2-  O133  1  0.00050643  0.24181250  0.60636175  1
  O2-  O134  1  -0.00138289  0.24958464  0.93517836  1
  O2-  O135  1  0.00332275  0.74248575  0.27141641  1
  O2-  O136  1  -0.00291499  0.75564032  0.60558076  1
  O2-  O137  1  0.00123228  0.74269114  0.94008425  1
  O2-  O138  1  0.50194428  0.24731754  0.26822162  1
  O2-  O139  1  0.48954058  0.25071421  0.60690585  1
  O2-  O140  1  0.50874202  0.24800469  0.93866424  1
  O2-  O141  1  0.49047221  0.75023633  0.27239923  1
  O2-  O142  1  0.50160699  0.74979884  0.61096460  1
  O2-  O143  1  0.49568156  0.74914063  0.94041156  1
  O2-  O144  1  0.07274534  0.17729606  0.09683275  1
  O2-  O145  1  0.06758657  0.18042550  0.43589929  1
  O2-  O146  1  0.07421404  0.18015025  0.75505488  1
  O2-  O147  1  0.07889899  0.68467497  0.09091536  1
  O2-  O148  1  0.07396851  0.67981178  0.42159278  1
  O2-  O149  1  0.06914317  0.68029839  0.76591990  1
  O2-  O150  1  0.56869546  0.16923029  0.08786241  1
  O2-  O151  1  0.57191666  0.17518934  0.43125316  1
  O2-  O152  1  0.56746308  0.18313960  0.76720525  1
  O2-  O153  1  0.56931513  0.68251119  0.08775884  1
  O2-  O154  1  0.57079502  0.68302419  0.43336543  1
  O2-  O155  1  0.57008180  0.67832919  0.75870720  1
  O2-  O156  1  0.17988331  0.42495749  0.23773919  1
  O2-  O157  1  0.17626569  0.42999622  0.58073446  1
  O2-  O158  1  0.18195504  0.43302424  0.89981174  1
  O2-  O159  1  0.17589665  0.92868797  0.24296591  1
  O2-  O160  1  0.18194493  0.92397485  0.57820591  1
  O2-  O161  1  0.18291857  0.92377169  0.90985094  1
  O2-  O162  1  0.67733774  0.43019233  0.24600045  1
  O2-  O163  1  0.67755647  0.43335765  0.57475710  1
  O2-  O164  1  0.67675889  0.42996294  0.90151740  1
  O2-  O165  1  0.68144138  0.92544279  0.24149369  1
  O2-  O166  1  0.68014383  0.92533382  0.56859186  1
  O2-  O167  1  0.67526481  0.92922648  0.91209721  1
  O2-  O168  1  0.42852974  0.31843992  0.09659616  1
  O2-  O169  1  0.43133080  0.31776427  0.43391098  1
  O2-  O170  1  0.42977107  0.32542337  0.75609578  1
  O2-  O171  1  0.42923923  0.82608063  0.08841580  1
  O2-  O172  1  0.42725003  0.82568543  0.42167622  1
  O2-  O173  1  0.42950402  0.81916570  0.75796850  1
  O2-  O174  1  0.92984581  0.31971924  0.10171033  1
  O2-  O175  1  0.92686678  0.32320303  0.42290721  1
  O2-  O176  1  0.92901254  0.32359533  0.76502040  1
  O2-  O177  1  0.92800460  0.82216927  0.09626581  1
  O2-  O178  1  0.93280969  0.81806495  0.43457733  1
  O2-  O179  1  0.92614761  0.81883345  0.75472049  1
  O2-  O180  1  0.31777463  0.06845524  0.23169295  1
  O2-  O181  1  0.32147660  0.06981294  0.56853986  1
  O2-  O182  1  0.32182850  0.06655873  0.90967598  1
  O2-  O183  1  0.32035915  0.56979515  0.23390708  1
  O2-  O184  1  0.32283094  0.57091502  0.56913817  1
  O2-  O185  1  0.32063273  0.57764571  0.90985964  1
  O2-  O186  1  0.82441534  0.06717204  0.23089504  1
  O2-  O187  1  0.82079804  0.07243127  0.56933524  1
  O2-  O188  1  0.82005664  0.06799594  0.90909462  1
  O2-  O189  1  0.81586381  0.57390913  0.23625891  1
  O2-  O190  1  0.81904558  0.57238580  0.57541993  1
  O2-  O191  1  0.81918407  0.57249674  0.89991040  1
  O2-  O192  1  0.03919037  0.08439283  0.26736901  1
  O2-  O193  1  0.05475891  0.08015333  0.60737163  1
  O2-  O194  1  0.05009659  0.07950902  0.92933750  1
  O2-  O195  1  0.04878425  0.58017763  0.27454785  1
  O2-  O196  1  0.04099074  0.58586341  0.59520017  1
  O2-  O197  1  0.05284898  0.58423884  0.94167860  1
  O2-  O198  1  0.54848696  0.07557617  0.26527727  1
  O2-  O199  1  0.53942827  0.08055980  0.60329360  1
  O2-  O200  1  0.54101264  0.08258414  0.93535037  1
  O2-  O201  1  0.54169918  0.58342645  0.26301088  1
  O2-  O202  1  0.54294171  0.58671477  0.60581580  1
  O2-  O203  1  0.54509252  0.58855827  0.93454685  1
  O2-  O204  1  0.16533992  0.21004739  0.26937063  1
  O2-  O205  1  0.16620274  0.20742565  0.60439119  1
  O2-  O206  1  0.17065694  0.20918422  0.92992532  1
  O2-  O207  1  0.16692548  0.70089548  0.26907005  1
  O2-  O208  1  0.16790909  0.71236760  0.59830151  1
  O2-  O209  1  0.16624528  0.71070201  0.93742588  1
  O2-  O210  1  0.67267860  0.20388326  0.26485107  1
  O2-  O211  1  0.66260840  0.21213447  0.59890141  1
  O2-  O212  1  0.66821612  0.19467419  0.93946177  1
  O2-  O213  1  0.66256414  0.71514919  0.26224082  1
  O2-  O214  1  0.66415074  0.70526882  0.60687568  1
  O2-  O215  1  0.65894220  0.71230629  0.93348271  1
  O2-  O216  1  0.08642885  0.45753011  0.07066095  1
  O2-  O217  1  0.08017972  0.45292966  0.40571863  1
  O2-  O218  1  0.08297103  0.46181666  0.73013172  1
  O2-  O219  1  0.08384860  0.95156414  0.05858061  1
  O2-  O220  1  0.08435064  0.95575650  0.39685833  1
  O2-  O221  1  0.08298659  0.94516502  0.72850092  1
  O2-  O222  1  0.58085669  0.46082033  0.06815024  1
  O2-  O223  1  0.58484830  0.45716881  0.39724712  1
  O2-  O224  1  0.58846016  0.45917937  0.72926947  1
  O2-  O225  1  0.58629973  0.95661232  0.06556686  1
  O2-  O226  1  0.58254784  0.94443560  0.39128084  1
  O2-  O227  1  0.58168897  0.95525277  0.73724289  1
  O2-  O228  1  0.21608856  0.33257147  0.06454653  1
  O2-  O229  1  0.21019629  0.33042729  0.40730965  1
  O2-  O230  1  0.19767005  0.33622482  0.73300807  1
  O2-  O231  1  0.21106138  0.83995115  0.06606335  1
  O2-  O232  1  0.19764721  0.83247595  0.39396261  1
  O2-  O233  1  0.21117529  0.83634244  0.73258816  1
  O2-  O234  1  0.69802378  0.32485381  0.06779102  1
  O2-  O235  1  0.70066056  0.33360823  0.39689898  1
  O2-  O236  1  0.70594010  0.33854898  0.72656371  1
  O2-  O237  1  0.70365974  0.83614628  0.06249388  1
  O2-  O238  1  0.70970859  0.83669677  0.39517371  1
  O2-  O239  1  0.70733132  0.82946706  0.73769256  1
  O2-  O240  1  0.45637210  0.41659040  0.26546835  1
  O2-  O241  1  0.45668538  0.41661428  0.60475120  1
  O2-  O242  1  0.45984296  0.41902088  0.92947107  1
  O2-  O243  1  0.45433795  0.91312897  0.26543075  1
  O2-  O244  1  0.45834944  0.91219442  0.60577539  1
  O2-  O245  1  0.46016976  0.91322662  0.93478058  1
  O2-  O246  1  0.95212540  0.42043498  0.27459207  1
  O2-  O247  1  0.96092447  0.41488437  0.59535766  1
  O2-  O248  1  0.95797313  0.42194104  0.93719583  1
  O2-  O249  1  0.96345983  0.91305178  0.26472742  1
  O2-  O250  1  0.95033585  0.91803107  0.60659933  1
  O2-  O251  1  0.96173944  0.91284840  0.92463422  1
  O2-  O252  1  0.33189851  0.28649124  0.26793747  1
  O2-  O253  1  0.32904012  0.30428102  0.60989174  1
  O2-  O254  1  0.33820395  0.28801855  0.92614787  1
  O2-  O255  1  0.32965186  0.80192770  0.27084338  1
  O2-  O256  1  0.33906845  0.79327669  0.60402908  1
  O2-  O257  1  0.33566534  0.79828182  0.93581756  1
  O2-  O258  1  0.83230557  0.30318358  0.27235740  1
  O2-  O259  1  0.83173680  0.29334200  0.59641255  1
  O2-  O260  1  0.82868738  0.29412782  0.93640874  1
  O2-  O261  1  0.83449116  0.78859270  0.26647419  1
  O2-  O262  1  0.83321600  0.79397578  0.60383602  1
  O2-  O263  1  0.82975160  0.79226018  0.92892649  1
  O2-  O264  1  0.41013233  0.03659591  0.06243475  1
  O2-  O265  1  0.41775663  0.03664738  0.39838881  1
  O2-  O266  1  0.41336363  0.03651107  0.73853490  1
  O2-  O267  1  0.41814217  0.55036258  0.05722556  1
  O2-  O268  1  0.42141842  0.54318237  0.39926566  1
  O2-  O269  1  0.41801891  0.54241122  0.73743571  1
  O2-  O270  1  0.91600170  0.03763914  0.05682763  1
  O2-  O271  1  0.91498998  0.03505266  0.40032462  1
  O2-  O272  1  0.92189200  0.04867522  0.73582670  1
  O2-  O273  1  0.92150381  0.55215484  0.06788436  1
  O2-  O274  1  0.91621070  0.54699292  0.40400883  1
  O2-  O275  1  0.91495323  0.54262569  0.72463576  1
  O2-  O276  1  0.29628832  0.16380328  0.05908261  1
  O2-  O277  1  0.28868522  0.16266556  0.40242423  1
  O2-  O278  1  0.29192776  0.16991293  0.73620695  1
  O2-  O279  1  0.30023707  0.66983001  0.06169762  1
  O2-  O280  1  0.29781398  0.67188998  0.39913890  1
  O2-  O281  1  0.29089070  0.66839741  0.73487484  1
  O2-  O282  1  0.79752418  0.15985963  0.06268260  1
  O2-  O283  1  0.79618723  0.17020407  0.39798527  1
  O2-  O284  1  0.78841231  0.17174333  0.73474153  1
  O2-  O285  1  0.78537357  0.66947639  0.06472463  1
  O2-  O286  1  0.78260176  0.66722934  0.40304956  1
  O2-  O287  1  0.79510914  0.66197310  0.72895024  1
