# generated using pymatgen
data_Ca2Al2SiO7
_symmetry_space_group_name_H-M   'P 1'
_cell_length_a   15.45947113
_cell_length_b   15.45933547
_cell_length_c   15.28477949
_cell_angle_alpha   90.00326416
_cell_angle_beta   90.00528275
_cell_angle_gamma   90.00949871
_symmetry_Int_Tables_number   1
_chemical_formula_structural   Ca2Al2SiO7
_chemical_formula_sum   'Ca48 Al48 Si24 O168'
_cell_volume   3652.95753111
_cell_formula_units_Z   24
loop_
 _symmetry_equiv_pos_site_id
 _symmetry_equiv_pos_as_xyz
  1  'x, y, z'
loop_
 _atom_type_symbol
 _atom_type_oxidation_number
  Ca2+  2.0
  Al0+  0.0
  Si0+  0.0
  O2-  -2.0
loop_
 _atom_site_type_symbol
 _atom_site_label
 _atom_site_symmetry_multiplicity
 _atom_site_fract_x
 _atom_site_fract_y
 _atom_site_fract_z
 _atom_site_occupancy
  Ca2+  Ca0  1  0.17165857  0.07793229  0.16987812  1
  Ca2+  Ca1  1  0.15777190  0.07307410  0.50693362  1
  Ca2+  Ca2  1  0.16795211  0.07649745  0.83845283  1
  Ca2+  Ca3  1  0.16989756  0.58140185  0.16828296  1
  Ca2+  Ca4  1  0.17005309  0.56673110  0.50791346  1
  Ca2+  Ca5  1  0.17641241  0.57743665  0.83690011  1
  Ca2+  Ca6  1  0.66541119  0.08552240  0.17011685  1
  Ca2+  Ca7  1  0.67432065  0.08933654  0.50498461  1
  Ca2+  Ca8  1  0.66071013  0.08107518  0.83713292  1
  Ca2+  Ca9  1  0.66290567  0.57185122  0.16694759  1
  Ca2+  Ca10  1  0.67540384  0.58068271  0.50868444  1
  Ca2+  Ca11  1  0.67278398  0.57662139  0.83736697  1
  Ca2+  Ca12  1  0.07618441  0.34216231  0.16690036  1
  Ca2+  Ca13  1  0.08305624  0.33053870  0.49616712  1
  Ca2+  Ca14  1  0.08624489  0.32515349  0.82361154  1
  Ca2+  Ca15  1  0.08303182  0.83654493  0.16111710  1
  Ca2+  Ca16  1  0.07967085  0.83554684  0.49247912  1
  Ca2+  Ca17  1  0.09362120  0.82923146  0.83030241  1
  Ca2+  Ca18  1  0.57625152  0.32284027  0.15765513  1
  Ca2+  Ca19  1  0.57404760  0.32506850  0.49398382  1
  Ca2+  Ca20  1  0.57479682  0.32616906  0.82913468  1
  Ca2+  Ca21  1  0.58415016  0.83227162  0.15950919  1
  Ca2+  Ca22  1  0.58736020  0.83283462  0.49980617  1
  Ca2+  Ca23  1  0.58576927  0.83807958  0.82844229  1
  Ca2+  Ca24  1  0.33574373  0.41749402  0.17030508  1
  Ca2+  Ca25  1  0.32872017  0.41180356  0.50553211  1
  Ca2+  Ca26  1  0.34015906  0.42041910  0.83624617  1
  Ca2+  Ca27  1  0.32454347  0.92313201  0.16649200  1
  Ca2+  Ca28  1  0.32098926  0.91880767  0.50513670  1
  Ca2+  Ca29  1  0.32535610  0.92633944  0.84116411  1
  Ca2+  Ca30  1  0.82636867  0.40948671  0.17080508  1
  Ca2+  Ca31  1  0.83715763  0.42067590  0.50498933  1
  Ca2+  Ca32  1  0.82834166  0.41967455  0.83687909  1
  Ca2+  Ca33  1  0.83049971  0.92314532  0.17334039  1
  Ca2+  Ca34  1  0.83218020  0.92870559  0.50639034  1
  Ca2+  Ca35  1  0.82205188  0.92509734  0.83295976  1
  Ca2+  Ca36  1  0.42049307  0.17447450  0.15695411  1
  Ca2+  Ca37  1  0.42655339  0.17388235  0.49494718  1
  Ca2+  Ca38  1  0.42169445  0.17155121  0.82613189  1
  Ca2+  Ca39  1  0.41284251  0.66777811  0.16020174  1
  Ca2+  Ca40  1  0.41291355  0.66536105  0.50209092  1
  Ca2+  Ca41  1  0.41143801  0.66499673  0.82960966  1
  Ca2+  Ca42  1  0.91425720  0.16835866  0.16996103  1
  Ca2+  Ca43  1  0.91861856  0.16354111  0.49626394  1
  Ca2+  Ca44  1  0.92163130  0.16396837  0.82640742  1
  Ca2+  Ca45  1  0.92637567  0.67586247  0.15986017  1
  Ca2+  Ca46  1  0.91490839  0.67487138  0.49307280  1
  Ca2+  Ca47  1  0.92252372  0.66647551  0.82936209  1
  Al0+  Al48  1  -0.00370325  0.00025935  0.00239981  1
  Al0+  Al49  1  -0.00238295  -0.00045506  0.33474979  1
  Al0+  Al50  1  -0.00313843  -0.00168745  0.67250892  1
  Al0+  Al51  1  0.00067307  0.50379712  -0.00597006  1
  Al0+  Al52  1  0.00180794  0.50040302  0.33253706  1
  Al0+  Al53  1  0.00253664  0.50096313  0.67464348  1
  Al0+  Al54  1  0.49977789  -0.00057620  0.00526062  1
  Al0+  Al55  1  0.49944036  -0.00335081  0.33038165  1
  Al0+  Al56  1  0.49889523  -0.00163112  0.66205247  1
  Al0+  Al57  1  0.50130414  0.50059398  0.00482948  1
  Al0+  Al58  1  0.50113253  0.50031903  0.33224643  1
  Al0+  Al59  1  0.50044369  0.50176713  0.66400033  1
  Al0+  Al60  1  0.24799838  0.25184182  0.00060090  1
  Al0+  Al61  1  0.25127741  0.24983354  0.33334232  1
  Al0+  Al62  1  0.24785097  0.24703886  0.65908584  1
  Al0+  Al63  1  0.24941324  0.74807679  0.00303156  1
  Al0+  Al64  1  0.25162595  0.74947514  0.33766842  1
  Al0+  Al65  1  0.24975242  0.74736343  0.66974387  1
  Al0+  Al66  1  0.74935051  0.25085322  -0.00084541  1
  Al0+  Al67  1  0.75065474  0.24925969  0.33152884  1
  Al0+  Al68  1  0.75135524  0.25163837  0.66739684  1
  Al0+  Al69  1  0.75192724  0.75180295  0.00258153  1
  Al0+  Al70  1  0.75070693  0.74986680  0.32612270  1
  Al0+  Al71  1  0.75069818  0.75029197  0.67386646  1
  Al0+  Al72  1  0.67758762  0.93054115  0.67979509  1
  Al0+  Al73  1  0.92959238  0.82222184  0.31945233  1
  Al0+  Al74  1  0.57270986  0.17676016  0.65015624  1
  Al0+  Al75  1  0.06844048  0.17633946  0.65380752  1
  Al0+  Al76  1  0.17798093  0.92903648  0.01510773  1
  Al0+  Al77  1  0.68139811  0.42995246  0.01358601  1
  Al0+  Al78  1  0.17872306  0.42888697  0.34643020  1
  Al0+  Al79  1  0.57143688  0.17790851  0.31660104  1
  Al0+  Al80  1  0.42869121  0.32277305  0.64981021  1
  Al0+  Al81  1  0.42769831  0.32181449  0.31568903  1
  Al0+  Al82  1  0.81804622  0.07078415  0.34727396  1
  Al0+  Al83  1  0.82016597  0.07419190  0.68249528  1
  Al0+  Al84  1  0.17994383  0.42439550  0.68246456  1
  Al0+  Al85  1  0.17963241  0.93044548  0.34769928  1
  Al0+  Al86  1  0.32072231  0.56880070  0.01478979  1
  Al0+  Al87  1  0.82243068  0.57204278  0.67993415  1
  Al0+  Al88  1  0.17758817  0.92862486  0.68014242  1
  Al0+  Al89  1  0.07191679  0.68165747  0.98393088  1
  Al0+  Al90  1  0.32174906  0.56857874  0.68142598  1
  Al0+  Al91  1  0.42733625  0.32300743  0.98384214  1
  Al0+  Al92  1  0.67900447  0.92934213  0.01534269  1
  Al0+  Al93  1  0.93112610  0.32247135  0.32111807  1
  Al0+  Al94  1  0.57041517  0.17736652  0.98304931  1
  Al0+  Al95  1  0.32062042  0.07417801  0.01397561  1
  Si0+  Si96  1  0.42731483  0.81855391  0.31769435  1
  Si0+  Si97  1  0.92945319  0.32487639  0.65228160  1
  Si0+  Si98  1  0.07155516  0.17645869  0.31693793  1
  Si0+  Si99  1  0.32184067  0.07045280  0.67974012  1
  Si0+  Si100  1  0.57289324  0.67927997  0.98511486  1
  Si0+  Si101  1  0.57267534  0.67933217  0.31736258  1
  Si0+  Si102  1  0.67675986  0.92476852  0.34925755  1
  Si0+  Si103  1  0.32421773  0.57159789  0.35141054  1
  Si0+  Si104  1  0.07260816  0.67882741  0.65030712  1
  Si0+  Si105  1  0.92862169  0.32221896  0.98466925  1
  Si0+  Si106  1  0.32373929  0.07154809  0.35104220  1
  Si0+  Si107  1  0.42976709  0.81919108  0.98593489  1
  Si0+  Si108  1  0.57298356  0.68060197  0.65318614  1
  Si0+  Si109  1  0.07259920  0.67899629  0.31831155  1
  Si0+  Si110  1  0.82127411  0.07360567  0.01891340  1
  Si0+  Si111  1  0.82060498  0.57167302  0.34518219  1
  Si0+  Si112  1  0.42667796  0.81983452  0.65200936  1
  Si0+  Si113  1  0.06944428  0.17851710  0.98727586  1
  Si0+  Si114  1  0.92837348  0.81768410  0.65274484  1
  Si0+  Si115  1  0.67981517  0.42954909  0.34888094  1
  Si0+  Si116  1  0.67816973  0.42902722  0.68148493  1
  Si0+  Si117  1  0.92689839  0.82387068  0.97985222  1
  Si0+  Si118  1  0.82439285  0.57249798  0.01873443  1
  Si0+  Si119  1  0.17517091  0.42778773  0.01658673  1
  O2-  O120  1  0.24691164  0.00358936  0.06476570  1
  O2-  O121  1  0.25136125  0.00678284  0.39617595  1
  O2-  O122  1  0.25128503  0.00422305  0.72515982  1
  O2-  O123  1  0.24778387  0.49239477  0.06075697  1
  O2-  O124  1  0.25763440  0.49992772  0.39256395  1
  O2-  O125  1  0.25559706  0.49240066  0.73242758  1
  O2-  O126  1  0.75134513  0.00558346  0.06193870  1
  O2-  O127  1  0.74165540  -0.00339038  0.39262323  1
  O2-  O128  1  0.74133163  0.00884995  0.73109875  1
  O2-  O129  1  0.75698448  0.50334953  0.06357665  1
  O2-  O130  1  0.75171506  0.50039840  0.39046338  1
  O2-  O131  1  0.75017466  0.49486380  0.72540086  1
  O2-  O132  1  0.00726171  0.24977335  0.27267048  1
  O2-  O133  1  -0.00497528  0.25346867  0.60804262  1
  O2-  O134  1  0.00064830  0.25184799  0.94439318  1
  O2-  O135  1  0.00757628  0.75065399  0.27315811  1
  O2-  O136  1  0.00089924  0.74904001  0.60798682  1
  O2-  O137  1  -0.00115651  0.75818294  0.93620475  1
  O2-  O138  1  0.49725696  0.24741483  0.26660027  1
  O2-  O139  1  0.50164759  0.25048359  0.60136677  1
  O2-  O140  1  0.49578239  0.24735285  0.93436809  1
  O2-  O141  1  0.50028635  0.74906233  0.27571423  1
  O2-  O142  1  0.50092344  0.75059873  0.61067668  1
  O2-  O143  1  0.50328337  0.75104801  0.94237619  1
  O2-  O144  1  0.06735112  0.17771915  0.09238160  1
  O2-  O145  1  0.06727441  0.17414953  0.42239995  1
  O2-  O146  1  0.06687884  0.17583592  0.76745808  1
  O2-  O147  1  0.06916492  0.68086380  0.09749330  1
  O2-  O148  1  0.06924065  0.67858199  0.42404627  1
  O2-  O149  1  0.07278354  0.68089106  0.75522667  1
  O2-  O150  1  0.57180302  0.17975716  0.09647823  1
  O2-  O151  1  0.57208375  0.18107079  0.43012732  1
  O2-  O152  1  0.56897157  0.17613274  0.76343092  1
  O2-  O153  1  0.57214717  0.68024255  0.09070431  1
  O2-  O154  1  0.57646177  0.67969439  0.42256497  1
  O2-  O155  1  0.57453096  0.68088234  0.75807215  1
  O2-  O156  1  0.17424667  0.43584787  0.23351852  1
  O2-  O157  1  0.17627879  0.42882880  0.56871928  1
  O2-  O158  1  0.17213933  0.42881160  0.91154767  1
  O2-  O159  1  0.18197297  0.92970836  0.23497510  1
  O2-  O160  1  0.17806388  0.92771174  0.56664980  1
  O2-  O161  1  0.18113109  0.92998876  0.90155160  1
  O2-  O162  1  0.68013230  0.43216190  0.24379360  1
  O2-  O163  1  0.67895141  0.43288191  0.57536807  1
  O2-  O164  1  0.68461015  0.43348845  0.90051809  1
  O2-  O165  1  0.67933456  0.92164885  0.24377956  1
  O2-  O166  1  0.68294961  0.92315559  0.56650165  1
  O2-  O167  1  0.68066173  0.92669858  0.90263991  1
  O2-  O168  1  0.43031260  0.32361557  0.09728920  1
  O2-  O169  1  0.43100393  0.32359224  0.42908311  1
  O2-  O170  1  0.43199360  0.32434621  0.76315268  1
  O2-  O171  1  0.43048856  0.81572406  0.09149093  1
  O2-  O172  1  0.42620053  0.81674859  0.42294680  1
  O2-  O173  1  0.42550930  0.81904216  0.75697414  1
  O2-  O174  1  0.92876584  0.32299403  0.09000730  1
  O2-  O175  1  0.93158127  0.32562185  0.43378658  1
  O2-  O176  1  0.93094531  0.32581270  0.75819538  1
  O2-  O177  1  0.92616751  0.82165315  0.08575010  1
  O2-  O178  1  0.92759217  0.81873950  0.43284437  1
  O2-  O179  1  0.92764802  0.81479796  0.75756479  1
  O2-  O180  1  0.32292618  0.06819786  0.24555612  1
  O2-  O181  1  0.32232333  0.06548589  0.57403528  1
  O2-  O182  1  0.31902478  0.07143168  0.90000941  1
  O2-  O183  1  0.32379465  0.57523708  0.24592155  1
  O2-  O184  1  0.31779867  0.57282206  0.56779515  1
  O2-  O185  1  0.32045077  0.57071346  0.90230012  1
  O2-  O186  1  0.81899263  0.06898846  0.23416211  1
  O2-  O187  1  0.82282191  0.06976964  0.56891585  1
  O2-  O188  1  0.82428500  0.07287317  0.91367801  1
  O2-  O189  1  0.81800381  0.57159455  0.24039338  1
  O2-  O190  1  0.81990215  0.57386928  0.56597551  1
  O2-  O191  1  0.82305668  0.57154794  0.91298109  1
  O2-  O192  1  0.03981948  0.08567773  0.26885182  1
  O2-  O193  1  0.03333235  0.07981245  0.60063024  1
  O2-  O194  1  0.03892916  0.08729240  0.93950189  1
  O2-  O195  1  0.04303437  0.58802034  0.26969309  1
  O2-  O196  1  0.04391427  0.58597999  0.60560431  1
  O2-  O197  1  0.03924152  0.58644125  0.92722238  1
  O2-  O198  1  0.54804321  0.07587765  0.26805378  1
  O2-  O199  1  0.54482040  0.07790975  0.59620983  1
  O2-  O200  1  0.54436143  0.07614656  0.93467560  1
  O2-  O201  1  0.54519269  0.58753872  0.26984218  1
  O2-  O202  1  0.54733483  0.59002827  0.60202047  1
  O2-  O203  1  0.54456106  0.58801326  0.93841982  1
  O2-  O204  1  0.16736615  0.19627033  0.27404896  1
  O2-  O205  1  0.16443832  0.20053166  0.59577340  1
  O2-  O206  1  0.16117926  0.20375340  0.93913269  1
  O2-  O207  1  0.16829549  0.70153018  0.27529685  1
  O2-  O208  1  0.16371330  0.70714942  0.60195456  1
  O2-  O209  1  0.16901066  0.71135890  0.93041575  1
  O2-  O210  1  0.66918145  0.20896907  0.26427083  1
  O2-  O211  1  0.67290063  0.20590965  0.60037841  1
  O2-  O212  1  0.66947990  0.20833021  0.93190526  1
  O2-  O213  1  0.66237407  0.70665449  0.26540770  1
  O2-  O214  1  0.66422284  0.71074132  0.60461826  1
  O2-  O215  1  0.66613658  0.70570017  0.93949048  1
  O2-  O216  1  0.08260331  0.46063547  0.06201434  1
  O2-  O217  1  0.08361465  0.46401550  0.40227540  1
  O2-  O218  1  0.08431947  0.45736769  0.73820902  1
  O2-  O219  1  0.07742416  0.95449204  0.06524302  1
  O2-  O220  1  0.08184995  0.95860479  0.40025713  1
  O2-  O221  1  0.08149133  0.95564720  0.73532216  1
  O2-  O222  1  0.58781361  0.46459181  0.07070795  1
  O2-  O223  1  0.58920477  0.46099863  0.39645408  1
  O2-  O224  1  0.58710907  0.46065513  0.72766402  1
  O2-  O225  1  0.58161729  0.95330826  0.07047375  1
  O2-  O226  1  0.58046246  0.94310348  0.39268613  1
  O2-  O227  1  0.57535655  0.94896536  0.72920796  1
  O2-  O228  1  0.19278501  0.33291404  0.06244120  1
  O2-  O229  1  0.20306034  0.32967316  0.39834835  1
  O2-  O230  1  0.20096756  0.32253325  0.73022647  1
  O2-  O231  1  0.20980073  0.83214246  0.06830451  1
  O2-  O232  1  0.21207537  0.83367468  0.40180485  1
  O2-  O233  1  0.21128256  0.83280878  0.73265255  1
  O2-  O234  1  0.71357597  0.33426441  0.06855154  1
  O2-  O235  1  0.70860836  0.33853510  0.39532377  1
  O2-  O236  1  0.70079674  0.33569289  0.72803107  1
  O2-  O237  1  0.71118294  0.83254474  0.07010523  1
  O2-  O238  1  0.70561108  0.83082992  0.39378914  1
  O2-  O239  1  0.71138737  0.83508994  0.73640767  1
  O2-  O240  1  0.45816362  0.42161304  0.26558762  1
  O2-  O241  1  0.45716302  0.42229099  0.59683770  1
  O2-  O242  1  0.46222338  0.42144253  0.93398480  1
  O2-  O243  1  0.45255461  0.90998943  0.26887113  1
  O2-  O244  1  0.45127631  0.91029889  0.60078878  1
  O2-  O245  1  0.45524899  0.91175673  0.94002341  1
  O2-  O246  1  0.96021776  0.41900713  0.26422558  1
  O2-  O247  1  0.95750026  0.41869741  0.60682983  1
  O2-  O248  1  0.95348718  0.41496565  0.93763965  1
  O2-  O249  1  0.95855373  0.91834919  0.26434857  1
  O2-  O250  1  0.95483260  0.91037745  0.60728039  1
  O2-  O251  1  0.94747279  0.91952222  0.93638815  1
  O2-  O252  1  0.32710730  0.29799857  0.26468306  1
  O2-  O253  1  0.33045979  0.29366082  0.59695835  1
  O2-  O254  1  0.32523439  0.30171894  0.93502858  1
  O2-  O255  1  0.33690307  0.78756926  0.26890811  1
  O2-  O256  1  0.33711295  0.78647995  0.60225175  1
  O2-  O257  1  0.33909846  0.78823514  0.93897705  1
  O2-  O258  1  0.83561575  0.29009210  0.26590666  1
  O2-  O259  1  0.83400102  0.30599952  0.60743206  1
  O2-  O260  1  0.83792831  0.29368860  0.93625369  1
  O2-  O261  1  0.83524628  0.78819572  0.26208631  1
  O2-  O262  1  0.83753816  0.78608751  0.60510290  1
  O2-  O263  1  0.83452240  0.79300126  0.93390575  1
  O2-  O264  1  0.41629836  0.04154674  0.06927693  1
  O2-  O265  1  0.41572819  0.03912965  0.39692533  1
  O2-  O266  1  0.41387845  0.04144130  0.72644417  1
  O2-  O267  1  0.41830318  0.54433830  0.07023119  1
  O2-  O268  1  0.41976441  0.55023326  0.39613920  1
  O2-  O269  1  0.42373777  0.54991841  0.73138057  1
  O2-  O270  1  0.91346704  0.04613136  0.06733607  1
  O2-  O271  1  0.91378704  0.03789069  0.40158680  1
  O2-  O272  1  0.91334663  0.03596834  0.73961320  1
  O2-  O273  1  0.91884979  0.54781623  0.06279297  1
  O2-  O274  1  0.91292620  0.54657883  0.39235554  1
  O2-  O275  1  0.91805548  0.54474554  0.73647318  1
  O2-  O276  1  0.29167932  0.17207438  0.06808442  1
  O2-  O277  1  0.30393723  0.16703172  0.39437680  1
  O2-  O278  1  0.29826809  0.16476571  0.72287618  1
  O2-  O279  1  0.28742443  0.66399232  0.07068306  1
  O2-  O280  1  0.29740197  0.66420470  0.39914344  1
  O2-  O281  1  0.28928472  0.66522973  0.73574265  1
  O2-  O282  1  0.79744044  0.16795110  0.06369412  1
  O2-  O283  1  0.79063668  0.16839255  0.40133522  1
  O2-  O284  1  0.80349597  0.17591494  0.73311554  1
  O2-  O285  1  0.79855384  0.66625070  0.06374166  1
  O2-  O286  1  0.78976461  0.66313311  0.39240081  1
  O2-  O287  1  0.78762401  0.66455870  0.73836023  1
