# generated using pymatgen
data_Ca2Al2SiO7
_symmetry_space_group_name_H-M   'P 1'
_cell_length_a   15.46281922
_cell_length_b   15.46401021
_cell_length_c   15.28744005
_cell_angle_alpha   90.01344273
_cell_angle_beta   89.99969465
_cell_angle_gamma   90.01447303
_symmetry_Int_Tables_number   1
_chemical_formula_structural   Ca2Al2SiO7
_chemical_formula_sum   'Ca48 Al48 Si24 O168'
_cell_volume   3655.48955724
_cell_formula_units_Z   24
loop_
 _symmetry_equiv_pos_site_id
 _symmetry_equiv_pos_as_xyz
  1  'x, y, z'
loop_
 _atom_type_symbol
 _atom_type_oxidation_number
  Ca2+  2.0
  Al0+  0.0
  Si0+  0.0
  O2-  -2.0
loop_
 _atom_site_type_symbol
 _atom_site_label
 _atom_site_symmetry_multiplicity
 _atom_site_fract_x
 _atom_site_fract_y
 _atom_site_fract_z
 _atom_site_occupancy
  Ca2+  Ca0  1  0.18025087  0.07326687  0.17324816  1
  Ca2+  Ca1  1  0.17146257  0.07654786  0.49724046  1
  Ca2+  Ca2  1  0.17634502  0.07436636  0.84422998  1
  Ca2+  Ca3  1  0.17392504  0.57587311  0.17339254  1
  Ca2+  Ca4  1  0.16965412  0.57861831  0.50235530  1
  Ca2+  Ca5  1  0.16390582  0.57525245  0.83369454  1
  Ca2+  Ca6  1  0.66103109  0.07117296  0.17346634  1
  Ca2+  Ca7  1  0.65420134  0.07474070  0.50137347  1
  Ca2+  Ca8  1  0.65760442  0.07443181  0.83220123  1
  Ca2+  Ca9  1  0.67075975  0.58970462  0.17210229  1
  Ca2+  Ca10  1  0.67190086  0.58320838  0.50835884  1
  Ca2+  Ca11  1  0.67818845  0.58562275  0.83527329  1
  Ca2+  Ca12  1  0.08266425  0.34236769  0.16568161  1
  Ca2+  Ca13  1  0.07919717  0.34158735  0.49359765  1
  Ca2+  Ca14  1  0.08752164  0.33713825  0.82752565  1
  Ca2+  Ca15  1  0.08123516  0.84287650  0.16379130  1
  Ca2+  Ca16  1  0.07679582  0.82860659  0.49125746  1
  Ca2+  Ca17  1  0.08446356  0.82514613  0.82464738  1
  Ca2+  Ca18  1  0.58094331  0.32391891  0.16447616  1
  Ca2+  Ca19  1  0.58778442  0.32418023  0.49474280  1
  Ca2+  Ca20  1  0.57618998  0.32573069  0.81862099  1
  Ca2+  Ca21  1  0.57513469  0.83591253  0.16747459  1
  Ca2+  Ca22  1  0.57758962  0.83263798  0.49165905  1
  Ca2+  Ca23  1  0.57437086  0.84163731  0.82933444  1
  Ca2+  Ca24  1  0.32293166  0.42166269  0.17778151  1
  Ca2+  Ca25  1  0.32760297  0.41937913  0.50443743  1
  Ca2+  Ca26  1  0.32411878  0.41025551  0.83607077  1
  Ca2+  Ca27  1  0.33237444  0.91930340  0.17395470  1
  Ca2+  Ca28  1  0.34424747  0.91923260  0.49875617  1
  Ca2+  Ca29  1  0.33485353  0.91983927  0.84306205  1
  Ca2+  Ca30  1  0.83550612  0.42280588  0.17060744  1
  Ca2+  Ca31  1  0.82785810  0.42008478  0.50785034  1
  Ca2+  Ca32  1  0.82825626  0.42711010  0.83250265  1
  Ca2+  Ca33  1  0.82190336  0.91109174  0.17453611  1
  Ca2+  Ca34  1  0.82083525  0.90989568  0.50133594  1
  Ca2+  Ca35  1  0.81780743  0.91423265  0.83729951  1
  Ca2+  Ca36  1  0.41714651  0.15403226  0.16820309  1
  Ca2+  Ca37  1  0.42434559  0.17093343  0.49753936  1
  Ca2+  Ca38  1  0.41820106  0.16947831  0.82530113  1
  Ca2+  Ca39  1  0.41491393  0.67527127  0.16616517  1
  Ca2+  Ca40  1  0.42126282  0.67520872  0.48928316  1
  Ca2+  Ca41  1  0.41188067  0.68308926  0.82781435  1
  Ca2+  Ca42  1  0.91833340  0.17398590  0.16636046  1
  Ca2+  Ca43  1  0.91909143  0.17512959  0.48966085  1
  Ca2+  Ca44  1  0.92245157  0.16755586  0.82872254  1
  Ca2+  Ca45  1  0.91631318  0.67186851  0.16538875  1
  Ca2+  Ca46  1  0.92214212  0.66448867  0.49629478  1
  Ca2+  Ca47  1  0.92004520  0.66005892  0.82817683  1
  Al0+  Al48  1  -0.00219210  0.00234158  -0.00110157  1
  Al0+  Al49  1  -0.00010328  0.00221726  0.33132887  1
  Al0+  Al50  1  -0.00005890  -0.00034892  0.66622634  1
  Al0+  Al51  1  -0.00211522  0.50134085  0.00638667  1
  Al0+  Al52  1  -0.00127399  0.50101271  0.33085101  1
  Al0+  Al53  1  0.00183043  0.49995038  0.66947076  1
  Al0+  Al54  1  0.50167627  -0.00066385  0.00240399  1
  Al0+  Al55  1  0.50030006  -0.00019637  0.33403706  1
  Al0+  Al56  1  0.49927613  0.00201357  0.66412654  1
  Al0+  Al57  1  0.50160339  0.49904328  -0.00313088  1
  Al0+  Al58  1  0.50150371  0.49832285  0.33206149  1
  Al0+  Al59  1  0.49718224  0.50238800  0.66941327  1
  Al0+  Al60  1  0.24909503  0.24849505  0.00834093  1
  Al0+  Al61  1  0.24898203  0.24823003  0.34189705  1
  Al0+  Al62  1  0.25069850  0.24853978  0.66593635  1
  Al0+  Al63  1  0.24826649  0.74808486  -0.00278751  1
  Al0+  Al64  1  0.24908340  0.74818575  0.33592180  1
  Al0+  Al65  1  0.24764203  0.74934128  0.65636801  1
  Al0+  Al66  1  0.75049112  0.25153476  -0.00411592  1
  Al0+  Al67  1  0.75130473  0.25015642  0.32126667  1
  Al0+  Al68  1  0.75164111  0.24859005  0.66778576  1
  Al0+  Al69  1  0.75111288  0.74951131  0.00657485  1
  Al0+  Al70  1  0.75183065  0.74987508  0.33155468  1
  Al0+  Al71  1  0.74966571  0.75246643  0.67740357  1
  Al0+  Al72  1  0.57204103  0.18125213  0.65139651  1
  Al0+  Al73  1  0.93061678  0.32204657  0.31873055  1
  Al0+  Al74  1  0.43025669  0.81932348  0.98652694  1
  Al0+  Al75  1  0.17674840  0.92541977  0.01170458  1
  Al0+  Al76  1  0.32486285  0.57114953  0.34879320  1
  Al0+  Al77  1  0.18033515  0.42979199  0.01394929  1
  Al0+  Al78  1  0.17778598  0.43065312  0.34990034  1
  Al0+  Al79  1  0.81893778  0.56910465  0.01703730  1
  Al0+  Al80  1  0.42630362  0.32408545  0.65224604  1
  Al0+  Al81  1  0.32164181  0.06915589  0.01444123  1
  Al0+  Al82  1  0.18252530  0.42956771  0.68053732  1
  Al0+  Al83  1  0.32255466  0.06877555  0.35326549  1
  Al0+  Al84  1  0.06832028  0.67762196  0.65209830  1
  Al0+  Al85  1  0.68147523  0.92934361  0.34774566  1
  Al0+  Al86  1  0.67830598  0.93210796  0.68028879  1
  Al0+  Al87  1  0.68094566  0.93120781  0.01568874  1
  Al0+  Al88  1  0.67555729  0.42613834  0.68000723  1
  Al0+  Al89  1  0.93051984  0.82174077  0.32008923  1
  Al0+  Al90  1  0.42831292  0.81980699  0.31748562  1
  Al0+  Al91  1  0.82069056  0.57053172  0.68075300  1
  Al0+  Al92  1  0.17602891  0.92724117  0.34970173  1
  Al0+  Al93  1  0.56963789  0.17963938  0.31726796  1
  Al0+  Al94  1  0.42963785  0.82102923  0.65251534  1
  Al0+  Al95  1  0.57304242  0.67615845  0.31981427  1
  Si0+  Si96  1  0.32429390  0.57243007  0.01403862  1
  Si0+  Si97  1  0.93180991  0.31961667  0.65384132  1
  Si0+  Si98  1  0.07215847  0.17637276  0.65196068  1
  Si0+  Si99  1  0.92647586  0.82311354  0.65206196  1
  Si0+  Si100  1  0.32143100  0.57659714  0.68400107  1
  Si0+  Si101  1  0.06861085  0.67849153  0.98533703  1
  Si0+  Si102  1  0.07091728  0.18039646  0.98455011  1
  Si0+  Si103  1  0.68035874  0.42593271  0.34471125  1
  Si0+  Si104  1  0.07382187  0.17813765  0.31499354  1
  Si0+  Si105  1  0.67685569  0.42613961  0.01719727  1
  Si0+  Si106  1  0.82114920  0.07495054  0.34778203  1
  Si0+  Si107  1  0.92744702  0.82249256  0.98407605  1
  Si0+  Si108  1  0.57087903  0.17973190  0.98408028  1
  Si0+  Si109  1  0.31875728  0.06813963  0.68166241  1
  Si0+  Si110  1  0.82303228  0.07571362  0.01682478  1
  Si0+  Si111  1  0.42718295  0.32146912  0.98675833  1
  Si0+  Si112  1  0.57457829  0.67683726  0.98168534  1
  Si0+  Si113  1  0.82646987  0.07291252  0.68311375  1
  Si0+  Si114  1  0.57473606  0.67922200  0.65425902  1
  Si0+  Si115  1  0.42632484  0.32132369  0.31676554  1
  Si0+  Si116  1  0.17640765  0.92742827  0.68027016  1
  Si0+  Si117  1  0.81918514  0.57061029  0.34836617  1
  Si0+  Si118  1  0.07106309  0.67775158  0.31461365  1
  Si0+  Si119  1  0.93004312  0.32329873  0.98172272  1
  O2-  O120  1  0.25188693  -0.00646150  0.06156354  1
  O2-  O121  1  0.25226467  -0.00635533  0.40205369  1
  O2-  O122  1  0.24904724  -0.00426160  0.72361564  1
  O2-  O123  1  0.25907664  0.50050535  0.05820911  1
  O2-  O124  1  0.25238957  0.49949662  0.39937066  1
  O2-  O125  1  0.25903061  0.50169712  0.72882097  1
  O2-  O126  1  0.75615761  0.00632527  0.06110368  1
  O2-  O127  1  0.75564031  0.00519756  0.39422527  1
  O2-  O128  1  0.75518181  0.00615208  0.72597813  1
  O2-  O129  1  0.74168296  0.49704205  0.06337374  1
  O2-  O130  1  0.74608048  0.50109462  0.38836315  1
  O2-  O131  1  0.74473127  0.50146668  0.73012370  1
  O2-  O132  1  0.00809362  0.25046694  0.27114406  1
  O2-  O133  1  0.00045892  0.24705502  0.61084825  1
  O2-  O134  1  0.00119946  0.25215377  0.93965640  1
  O2-  O135  1  0.00924284  0.75276439  0.27024738  1
  O2-  O136  1  -0.00738771  0.75248510  0.60790598  1
  O2-  O137  1  0.00248073  0.75496924  0.94284862  1
  O2-  O138  1  0.49226932  0.25135976  0.26968021  1
  O2-  O139  1  0.50683718  0.26071137  0.60339390  1
  O2-  O140  1  0.49952870  0.25154322  0.94397672  1
  O2-  O141  1  0.49885595  0.74527219  0.26872018  1
  O2-  O142  1  0.50415627  0.74472444  0.60925860  1
  O2-  O143  1  0.50385664  0.74359485  0.93778377  1
  O2-  O144  1  0.06812054  0.18083784  0.08899021  1
  O2-  O145  1  0.06939683  0.17653703  0.42095788  1
  O2-  O146  1  0.07113143  0.17551171  0.75757390  1
  O2-  O147  1  0.06649924  0.67600799  0.08991591  1
  O2-  O148  1  0.06440623  0.67362256  0.42004091  1
  O2-  O149  1  0.06782170  0.67861450  0.76608996  1
  O2-  O150  1  0.57268229  0.18104136  0.08897402  1
  O2-  O151  1  0.57299182  0.18319335  0.42984331  1
  O2-  O152  1  0.56690934  0.17803815  0.76574462  1
  O2-  O153  1  0.57443123  0.67627463  0.08688585  1
  O2-  O154  1  0.57639489  0.67773448  0.43367460  1
  O2-  O155  1  0.57553466  0.68253143  0.76003786  1
  O2-  O156  1  0.17776720  0.43373498  0.23590159  1
  O2-  O157  1  0.17895404  0.43107778  0.56847854  1
  O2-  O158  1  0.17985378  0.42998537  0.90058888  1
  O2-  O159  1  0.17445079  0.93280304  0.23611819  1
  O2-  O160  1  0.17129191  0.93133125  0.57614300  1
  O2-  O161  1  0.17699159  0.92786615  0.89725843  1
  O2-  O162  1  0.68386782  0.42492864  0.23943594  1
  O2-  O163  1  0.68254839  0.42473590  0.56615378  1
  O2-  O164  1  0.67946040  0.42441608  0.91193683  1
  O2-  O165  1  0.68267786  0.93046646  0.23458275  1
  O2-  O166  1  0.68001069  0.93106526  0.56764746  1
  O2-  O167  1  0.68012863  0.93405843  0.90219912  1
  O2-  O168  1  0.42901229  0.32361796  0.09147240  1
  O2-  O169  1  0.43014816  0.32180780  0.42200285  1
  O2-  O170  1  0.42189649  0.31510484  0.76665108  1
  O2-  O171  1  0.42986375  0.81859650  0.09865801  1
  O2-  O172  1  0.43427527  0.82022411  0.43112444  1
  O2-  O173  1  0.42882668  0.82285808  0.76636979  1
  O2-  O174  1  0.92950440  0.32243364  0.08660499  1
  O2-  O175  1  0.92885779  0.32097507  0.43228110  1
  O2-  O176  1  0.93406273  0.31868696  0.75937798  1
  O2-  O177  1  0.92697614  0.82126678  0.08899606  1
  O2-  O178  1  0.92782498  0.81643515  0.43329340  1
  O2-  O179  1  0.92974054  0.82577194  0.75798866  1
  O2-  O180  1  0.32089711  0.06807461  0.23957662  1
  O2-  O181  1  0.31802894  0.06840932  0.57724526  1
  O2-  O182  1  0.31952131  0.07139641  0.90005152  1
  O2-  O183  1  0.32267437  0.56818381  0.23427989  1
  O2-  O184  1  0.31797003  0.57841028  0.57911421  1
  O2-  O185  1  0.32181569  0.57341001  0.90838341  1
  O2-  O186  1  0.81892081  0.07538772  0.24198360  1
  O2-  O187  1  0.83384826  0.07322262  0.57830795  1
  O2-  O188  1  0.82459069  0.07608810  0.91105420  1
  O2-  O189  1  0.82010915  0.56939280  0.24311601  1
  O2-  O190  1  0.82162929  0.56887625  0.56704093  1
  O2-  O191  1  0.82085103  0.56691779  0.90408242  1
  O2-  O192  1  0.04393559  0.08739801  0.26584835  1
  O2-  O193  1  0.04398242  0.08518053  0.60353880  1
  O2-  O194  1  0.04139953  0.08952084  0.93420384  1
  O2-  O195  1  0.03689708  0.58797751  0.26544697  1
  O2-  O196  1  0.03612115  0.58164785  0.59799399  1
  O2-  O197  1  0.03330787  0.58842426  0.93783829  1
  O2-  O198  1  0.53929612  0.08297593  0.26408436  1
  O2-  O199  1  0.53526531  0.08643708  0.59778728  1
  O2-  O200  1  0.54260951  0.08804226  0.93733612  1
  O2-  O201  1  0.55154006  0.57566007  0.26613154  1
  O2-  O202  1  0.55489533  0.58338271  0.61081671  1
  O2-  O203  1  0.55419181  0.58113587  0.93612348  1
  O2-  O204  1  0.16897654  0.20113019  0.27198631  1
  O2-  O205  1  0.16297889  0.20399785  0.60469377  1
  O2-  O206  1  0.16374260  0.20767627  0.93841199  1
  O2-  O207  1  0.16742244  0.69406830  0.27215241  1
  O2-  O208  1  0.16228259  0.70799765  0.59454256  1
  O2-  O209  1  0.16134460  0.69897302  0.93600850  1
  O2-  O210  1  0.66399580  0.21229607  0.25926169  1
  O2-  O211  1  0.67430443  0.19974320  0.60152746  1
  O2-  O212  1  0.66314810  0.20672215  0.93596352  1
  O2-  O213  1  0.67016640  0.70766952  0.26557069  1
  O2-  O214  1  0.66884694  0.70643618  0.60971998  1
  O2-  O215  1  0.66872026  0.70584966  0.93809044  1
  O2-  O216  1  0.08492473  0.46337591  0.06727558  1
  O2-  O217  1  0.07887417  0.46265639  0.40028937  1
  O2-  O218  1  0.08676244  0.46203774  0.73610430  1
  O2-  O219  1  0.07821911  0.95762957  0.06212395  1
  O2-  O220  1  0.07831630  0.96177021  0.40256146  1
  O2-  O221  1  0.08540805  0.95634267  0.73003198  1
  O2-  O222  1  0.58117358  0.44657865  0.06108767  1
  O2-  O223  1  0.58673783  0.44518067  0.39051657  1
  O2-  O224  1  0.57495792  0.44808724  0.73202961  1
  O2-  O225  1  0.58583942  0.96337181  0.06977924  1
  O2-  O226  1  0.58569160  0.96130822  0.40050259  1
  O2-  O227  1  0.58276200  0.96743820  0.73481033  1
  O2-  O228  1  0.20577480  0.33316289  0.06928164  1
  O2-  O229  1  0.19845395  0.33023889  0.40079408  1
  O2-  O230  1  0.21000416  0.33082526  0.73422783  1
  O2-  O231  1  0.19717998  0.82468828  0.06190683  1
  O2-  O232  1  0.19355539  0.82528632  0.39780974  1
  O2-  O233  1  0.20217481  0.83354151  0.72370540  1
  O2-  O234  1  0.70686440  0.33330887  0.06293111  1
  O2-  O235  1  0.71541313  0.33599158  0.39087000  1
  O2-  O236  1  0.70838595  0.32903716  0.73490850  1
  O2-  O237  1  0.71256549  0.83533505  0.06881441  1
  O2-  O238  1  0.71579086  0.83333858  0.40068017  1
  O2-  O239  1  0.70772192  0.83772849  0.73980483  1
  O2-  O240  1  0.45368169  0.41339320  0.26853277  1
  O2-  O241  1  0.44096133  0.42770614  0.60600160  1
  O2-  O242  1  0.45172743  0.41357491  0.93709759  1
  O2-  O243  1  0.46023574  0.91759356  0.26598096  1
  O2-  O244  1  0.46258785  0.91663344  0.59963563  1
  O2-  O245  1  0.46352949  0.91645431  0.93323341  1
  O2-  O246  1  0.95980584  0.41840131  0.26267631  1
  O2-  O247  1  0.96191870  0.41024119  0.60659579  1
  O2-  O248  1  0.95959961  0.41528992  0.93629267  1
  O2-  O249  1  0.95388224  0.92065156  0.26631801  1
  O2-  O250  1  0.95342487  0.91577466  0.60473804  1
  O2-  O251  1  0.94821811  0.91678954  0.93750530  1
  O2-  O252  1  0.33037069  0.29732197  0.27501911  1
  O2-  O253  1  0.33155235  0.28669462  0.59739109  1
  O2-  O254  1  0.33475255  0.29099252  0.94158952  1
  O2-  O255  1  0.32751351  0.79454554  0.26742229  1
  O2-  O256  1  0.33306365  0.79376482  0.59793784  1
  O2-  O257  1  0.33238099  0.78968385  0.93170548  1
  O2-  O258  1  0.83790695  0.28906059  0.25803738  1
  O2-  O259  1  0.83949152  0.29446603  0.60676077  1
  O2-  O260  1  0.83805778  0.29541387  0.93373198  1
  O2-  O261  1  0.83718373  0.78495046  0.26357563  1
  O2-  O262  1  0.83106897  0.79917298  0.61004846  1
  O2-  O263  1  0.83699682  0.78905724  0.93701969  1
  O2-  O264  1  0.42030083  0.04373414  0.06618292  1
  O2-  O265  1  0.42145247  0.04214684  0.40536230  1
  O2-  O266  1  0.41052017  0.04127295  0.72922899  1
  O2-  O267  1  0.41991986  0.55091882  0.05727298  1
  O2-  O268  1  0.42388100  0.54295397  0.40103807  1
  O2-  O269  1  0.41727307  0.56164956  0.72944398  1
  O2-  O270  1  0.91714451  0.05308159  0.06252599  1
  O2-  O271  1  0.91620711  0.05426271  0.39184296  1
  O2-  O272  1  0.91860396  0.04486422  0.73334389  1
  O2-  O273  1  0.91300506  0.53532655  0.07330481  1
  O2-  O274  1  0.91011228  0.53981581  0.39469587  1
  O2-  O275  1  0.91650548  0.53582393  0.73565549  1
  O2-  O276  1  0.29104269  0.16512796  0.07056290  1
  O2-  O277  1  0.29237517  0.16641992  0.40679429  1
  O2-  O278  1  0.28865160  0.15893046  0.72995220  1
  O2-  O279  1  0.29350548  0.66362665  0.06113876  1
  O2-  O280  1  0.29723349  0.66913231  0.40148635  1
  O2-  O281  1  0.28619237  0.66785532  0.73048500  1
  O2-  O282  1  0.79717465  0.17020404  0.06098034  1
  O2-  O283  1  0.79401167  0.16912669  0.39197342  1
  O2-  O284  1  0.80387566  0.16660668  0.73057643  1
  O2-  O285  1  0.79209279  0.66598986  0.07149568  1
  O2-  O286  1  0.79393598  0.66203323  0.39637501  1
  O2-  O287  1  0.79715639  0.66892653  0.73728385  1
