# generated using pymatgen
data_Ca2Al2SiO7
_symmetry_space_group_name_H-M   'P 1'
_cell_length_a   15.46146606
_cell_length_b   15.45862629
_cell_length_c   15.28525047
_cell_angle_alpha   89.99753461
_cell_angle_beta   89.99734839
_cell_angle_gamma   89.98965949
_symmetry_Int_Tables_number   1
_chemical_formula_structural   Ca2Al2SiO7
_chemical_formula_sum   'Ca48 Al48 Si24 O168'
_cell_volume   3653.37389532
_cell_formula_units_Z   24
loop_
 _symmetry_equiv_pos_site_id
 _symmetry_equiv_pos_as_xyz
  1  'x, y, z'
loop_
 _atom_type_symbol
 _atom_type_oxidation_number
  Ca2+  2.0
  Al0+  0.0
  Si0+  0.0
  O2-  -2.0
loop_
 _atom_site_type_symbol
 _atom_site_label
 _atom_site_symmetry_multiplicity
 _atom_site_fract_x
 _atom_site_fract_y
 _atom_site_fract_z
 _atom_site_occupancy
  Ca2+  Ca0  1  0.16350199  0.07906432  0.17863298  1
  Ca2+  Ca1  1  0.16177945  0.07916642  0.49809375  1
  Ca2+  Ca2  1  0.17245186  0.08362312  0.83767579  1
  Ca2+  Ca3  1  0.17454090  0.58450374  0.16696538  1
  Ca2+  Ca4  1  0.17068341  0.58322519  0.51070148  1
  Ca2+  Ca5  1  0.17614229  0.58852214  0.83298410  1
  Ca2+  Ca6  1  0.67642387  0.08769622  0.16803159  1
  Ca2+  Ca7  1  0.66526918  0.08482213  0.50336483  1
  Ca2+  Ca8  1  0.66292000  0.07568056  0.84098110  1
  Ca2+  Ca9  1  0.66632253  0.57187721  0.17209885  1
  Ca2+  Ca10  1  0.67849380  0.57854019  0.50121455  1
  Ca2+  Ca11  1  0.66837116  0.57667472  0.84014673  1
  Ca2+  Ca12  1  0.07399790  0.32669710  0.16343401  1
  Ca2+  Ca13  1  0.07599721  0.32915565  0.49700022  1
  Ca2+  Ca14  1  0.06927480  0.33800963  0.82970645  1
  Ca2+  Ca15  1  0.07005352  0.83855829  0.16587204  1
  Ca2+  Ca16  1  0.07880026  0.82647560  0.49179916  1
  Ca2+  Ca17  1  0.07364921  0.82753579  0.83027726  1
  Ca2+  Ca18  1  0.59381127  0.32665961  0.16419554  1
  Ca2+  Ca19  1  0.57749551  0.32960666  0.49391076  1
  Ca2+  Ca20  1  0.58879172  0.32183574  0.82973251  1
  Ca2+  Ca21  1  0.58942472  0.82397224  0.15761794  1
  Ca2+  Ca22  1  0.58091161  0.83720384  0.50129690  1
  Ca2+  Ca23  1  0.58580325  0.83015054  0.82747648  1
  Ca2+  Ca24  1  0.33927737  0.42068420  0.17114666  1
  Ca2+  Ca25  1  0.33592050  0.41615724  0.50712293  1
  Ca2+  Ca26  1  0.34244345  0.42693113  0.83539712  1
  Ca2+  Ca27  1  0.32397759  0.91894240  0.17279737  1
  Ca2+  Ca28  1  0.32781768  0.91389108  0.50667446  1
  Ca2+  Ca29  1  0.33409237  0.91227016  0.83430355  1
  Ca2+  Ca30  1  0.82233272  0.41633254  0.17150699  1
  Ca2+  Ca31  1  0.83121895  0.42096529  0.50583111  1
  Ca2+  Ca32  1  0.83350417  0.41838882  0.83882474  1
  Ca2+  Ca33  1  0.83426370  0.92326061  0.17096605  1
  Ca2+  Ca34  1  0.83018419  0.92305971  0.50182954  1
  Ca2+  Ca35  1  0.82097157  0.92111788  0.84207378  1
  Ca2+  Ca36  1  0.43048213  0.17313865  0.16444422  1
  Ca2+  Ca37  1  0.42930496  0.17565865  0.49353574  1
  Ca2+  Ca38  1  0.43034621  0.17156571  0.82363163  1
  Ca2+  Ca39  1  0.42375793  0.66577748  0.15805989  1
  Ca2+  Ca40  1  0.41308283  0.67040650  0.50143830  1
  Ca2+  Ca41  1  0.42045912  0.66642223  0.82975195  1
  Ca2+  Ca42  1  0.91568747  0.16292987  0.16087367  1
  Ca2+  Ca43  1  0.91590113  0.17071026  0.49363866  1
  Ca2+  Ca44  1  0.90516532  0.17848289  0.83526851  1
  Ca2+  Ca45  1  0.90443135  0.68000073  0.16462577  1
  Ca2+  Ca46  1  0.91439172  0.66766668  0.49555523  1
  Ca2+  Ca47  1  0.91687673  0.67029374  0.82523341  1
  Al0+  Al48  1  0.00102127  -0.00121718  -0.00507443  1
  Al0+  Al49  1  -0.00087091  -0.00186840  0.33654536  1
  Al0+  Al50  1  -0.00080622  -0.00064341  0.67085851  1
  Al0+  Al51  1  0.00342286  0.50027513  -0.00131652  1
  Al0+  Al52  1  0.00425446  0.50139735  0.33410843  1
  Al0+  Al53  1  0.00116933  0.50033455  0.66281460  1
  Al0+  Al54  1  0.49775171  -0.00086727  0.00245603  1
  Al0+  Al55  1  0.49847404  0.00177706  0.32750489  1
  Al0+  Al56  1  0.49857913  -0.00177523  0.66234517  1
  Al0+  Al57  1  0.50067716  0.50166941  0.00463345  1
  Al0+  Al58  1  0.49959205  0.50217445  0.33673674  1
  Al0+  Al59  1  0.50153662  0.50048316  0.66724130  1
  Al0+  Al60  1  0.24985850  0.25138581  0.00057157  1
  Al0+  Al61  1  0.25029834  0.25070926  0.32623466  1
  Al0+  Al62  1  0.24860201  0.24881574  0.66639552  1
  Al0+  Al63  1  0.24983828  0.74961268  0.00596344  1
  Al0+  Al64  1  0.24831880  0.75042840  0.33543758  1
  Al0+  Al65  1  0.24935943  0.74848112  0.66453603  1
  Al0+  Al66  1  0.75061794  0.24961265  -0.00119993  1
  Al0+  Al67  1  0.74893190  0.25056398  0.33971865  1
  Al0+  Al68  1  0.75184784  0.25015185  0.65749699  1
  Al0+  Al69  1  0.74926892  0.75000679  -0.00843542  1
  Al0+  Al70  1  0.74897101  0.75055955  0.33376912  1
  Al0+  Al71  1  0.75028966  0.75069039  0.67269547  1
  Al0+  Al72  1  0.82036980  0.06997706  0.34746352  1
  Al0+  Al73  1  0.42955864  0.81857506  0.65375950  1
  Al0+  Al74  1  0.82241849  0.57277854  0.34651744  1
  Al0+  Al75  1  0.06958684  0.68111517  0.65333583  1
  Al0+  Al76  1  0.57063223  0.67818196  0.98622533  1
  Al0+  Al77  1  0.57132285  0.17763695  0.65095191  1
  Al0+  Al78  1  0.17922401  0.92988673  0.34827633  1
  Al0+  Al79  1  0.42969035  0.32390268  0.31692599  1
  Al0+  Al80  1  0.31983888  0.56951147  0.01466264  1
  Al0+  Al81  1  0.68149721  0.42959611  0.01162879  1
  Al0+  Al82  1  0.93064318  0.32040970  0.65194646  1
  Al0+  Al83  1  0.57022855  0.17900185  0.98598180  1
  Al0+  Al84  1  0.67839077  0.42885072  0.35111708  1
  Al0+  Al85  1  0.57361415  0.17889683  0.31479789  1
  Al0+  Al86  1  0.32165769  0.57042716  0.68035796  1
  Al0+  Al87  1  0.06791650  0.17902173  0.32136283  1
  Al0+  Al88  1  0.42832060  0.32281655  0.65355812  1
  Al0+  Al89  1  0.92873149  0.81863283  0.32141853  1
  Al0+  Al90  1  0.92858380  0.82128260  0.98405554  1
  Al0+  Al91  1  0.92992913  0.32077485  0.98870236  1
  Al0+  Al92  1  0.67771707  0.93157242  0.67941497  1
  Al0+  Al93  1  0.67637631  0.92631775  0.01562955  1
  Al0+  Al94  1  0.82015972  0.06926557  0.01366484  1
  Al0+  Al95  1  0.82267806  0.56961829  0.68148082  1
  Si0+  Si96  1  0.92650477  0.82270130  0.64923237  1
  Si0+  Si97  1  0.56924240  0.68200521  0.32007918  1
  Si0+  Si98  1  0.67523608  0.92721311  0.34885775  1
  Si0+  Si99  1  0.82323377  0.07366458  0.68397548  1
  Si0+  Si100  1  0.67969246  0.42739718  0.68364368  1
  Si0+  Si101  1  0.42680086  0.32273024  0.98350891  1
  Si0+  Si102  1  0.18035302  0.93064534  0.01457103  1
  Si0+  Si103  1  0.32009591  0.57150042  0.35005963  1
  Si0+  Si104  1  0.92843100  0.32452739  0.31746552  1
  Si0+  Si105  1  0.18031042  0.42731126  0.34872009  1
  Si0+  Si106  1  0.42571778  0.82061104  0.98563641  1
  Si0+  Si107  1  0.32165420  0.07284506  0.35023515  1
  Si0+  Si108  1  0.82579617  0.57269409  0.01410800  1
  Si0+  Si109  1  0.17825231  0.42618928  0.68352829  1
  Si0+  Si110  1  0.07454899  0.67697988  0.31439663  1
  Si0+  Si111  1  0.32131370  0.07420045  0.01568944  1
  Si0+  Si112  1  0.42556858  0.82141457  0.31775925  1
  Si0+  Si113  1  0.07327433  0.17482506  0.65096399  1
  Si0+  Si114  1  0.17824686  0.92734734  0.68337129  1
  Si0+  Si115  1  0.07414669  0.67917720  0.98400951  1
  Si0+  Si116  1  0.07416017  0.17690808  0.98263067  1
  Si0+  Si117  1  0.17622764  0.42643244  0.01881882  1
  Si0+  Si118  1  0.57470151  0.67747379  0.64871987  1
  Si0+  Si119  1  0.31950455  0.06982060  0.68075632  1
  O2-  O120  1  0.24779754  0.00487229  0.05718953  1
  O2-  O121  1  0.25489239  0.00294852  0.39638930  1
  O2-  O122  1  0.24757128  0.00016380  0.72567585  1
  O2-  O123  1  0.24751230  0.49294845  0.06250058  1
  O2-  O124  1  0.25094028  0.49860166  0.39135114  1
  O2-  O125  1  0.25124736  0.49104712  0.72694494  1
  O2-  O126  1  0.74917344  -0.00278777  0.06578532  1
  O2-  O127  1  0.74066194  -0.00085412  0.39236870  1
  O2-  O128  1  0.75187461  0.00693917  0.72588113  1
  O2-  O129  1  0.75733325  0.50411616  0.05787549  1
  O2-  O130  1  0.75605341  0.49673704  0.39845372  1
  O2-  O131  1  0.74806491  0.49568281  0.72906099  1
  O2-  O132  1  -0.00781195  0.25129045  0.27281054  1
  O2-  O133  1  0.00337969  0.24223973  0.60799946  1
  O2-  O134  1  0.00538592  0.24606261  0.94059260  1
  O2-  O135  1  0.00056578  0.74090683  0.27268713  1
  O2-  O136  1  -0.00561830  0.75384251  0.60467457  1
  O2-  O137  1  0.00016252  0.74167666  0.93987043  1
  O2-  O138  1  0.50444178  0.25525914  0.26663091  1
  O2-  O139  1  0.50141455  0.25297783  0.60312476  1
  O2-  O140  1  0.49389058  0.25285457  0.93971310  1
  O2-  O141  1  0.49939660  0.75398068  0.27614800  1
  O2-  O142  1  0.50454522  0.74544264  0.60474239  1
  O2-  O143  1  0.49830414  0.75674180  0.94167814  1
  O2-  O144  1  0.07575656  0.17566714  0.08817199  1
  O2-  O145  1  0.06791904  0.18136112  0.43459413  1
  O2-  O146  1  0.07651300  0.17438745  0.75647857  1
  O2-  O147  1  0.07779574  0.68221599  0.08950216  1
  O2-  O148  1  0.07954311  0.67896820  0.41973422  1
  O2-  O149  1  0.07080687  0.68472458  0.76664959  1
  O2-  O150  1  0.57026369  0.18076562  0.09854555  1
  O2-  O151  1  0.56862590  0.17545895  0.42799102  1
  O2-  O152  1  0.56944123  0.17701388  0.76498057  1
  O2-  O153  1  0.56767139  0.67750203  0.09998692  1
  O2-  O154  1  0.56796128  0.68350564  0.42518339  1
  O2-  O155  1  0.57330095  0.67763188  0.75427040  1
  O2-  O156  1  0.17931164  0.42915035  0.24362228  1
  O2-  O157  1  0.17792050  0.42685747  0.57767129  1
  O2-  O158  1  0.17423422  0.42591445  0.91354646  1
  O2-  O159  1  0.18107420  0.93039720  0.23467309  1
  O2-  O160  1  0.17813152  0.92795933  0.57847295  1
  O2-  O161  1  0.18294212  0.92962314  0.90917521  1
  O2-  O162  1  0.67856040  0.43135969  0.23715711  1
  O2-  O163  1  0.68029746  0.42990448  0.57825984  1
  O2-  O164  1  0.68193405  0.42995696  0.89840930  1
  O2-  O165  1  0.67722653  0.92284477  0.24374658  1
  O2-  O166  1  0.67937094  0.93150221  0.56596466  1
  O2-  O167  1  0.67593431  0.92870132  0.90186716  1
  O2-  O168  1  0.42464695  0.32060595  0.08882026  1
  O2-  O169  1  0.42802377  0.32196943  0.43045034  1
  O2-  O170  1  0.42806766  0.32005208  0.76736333  1
  O2-  O171  1  0.42116033  0.81731114  0.09140553  1
  O2-  O172  1  0.42348133  0.81947398  0.42284902  1
  O2-  O173  1  0.42824895  0.81766074  0.76678440  1
  O2-  O174  1  0.93225762  0.32032110  0.10163353  1
  O2-  O175  1  0.93404525  0.32550343  0.42302971  1
  O2-  O176  1  0.93097536  0.32017672  0.76534537  1
  O2-  O177  1  0.93147904  0.82281929  0.09739340  1
  O2-  O178  1  0.93094863  0.81801176  0.43448705  1
  O2-  O179  1  0.92965004  0.82282558  0.75484806  1
  O2-  O180  1  0.31914627  0.06985192  0.24428939  1
  O2-  O181  1  0.31707632  0.06809310  0.57598913  1
  O2-  O182  1  0.31994489  0.07394652  0.91024445  1
  O2-  O183  1  0.31856391  0.57366595  0.24485045  1
  O2-  O184  1  0.31708054  0.57244973  0.56713966  1
  O2-  O185  1  0.31766560  0.57140498  0.90172825  1
  O2-  O186  1  0.82344141  0.06739126  0.23463387  1
  O2-  O187  1  0.82774997  0.07068270  0.57844663  1
  O2-  O188  1  0.81825143  0.06970283  0.90003751  1
  O2-  O189  1  0.81728293  0.57494254  0.23279255  1
  O2-  O190  1  0.82150160  0.56923401  0.56850495  1
  O2-  O191  1  0.82660105  0.56977091  0.90837537  1
  O2-  O192  1  0.03973530  0.08148905  0.26840215  1
  O2-  O193  1  0.04866054  0.07984839  0.60657668  1
  O2-  O194  1  0.05160537  0.08360968  0.93484025  1
  O2-  O195  1  0.05707333  0.58122351  0.26950963  1
  O2-  O196  1  0.04376280  0.58415414  0.59845232  1
  O2-  O197  1  0.05733230  0.58314656  0.93988842  1
  O2-  O198  1  0.54184746  0.08109822  0.26067519  1
  O2-  O199  1  0.53800429  0.08155100  0.59709505  1
  O2-  O200  1  0.53697952  0.08132795  0.93458214  1
  O2-  O201  1  0.53894372  0.59105504  0.27306442  1
  O2-  O202  1  0.54941810  0.58413072  0.60292836  1
  O2-  O203  1  0.53519611  0.58317082  0.93184265  1
  O2-  O204  1  0.16375038  0.20896913  0.26509750  1
  O2-  O205  1  0.16586872  0.20020367  0.60290187  1
  O2-  O206  1  0.16810431  0.20325156  0.93622784  1
  O2-  O207  1  0.16586702  0.70961154  0.26652546  1
  O2-  O208  1  0.16449245  0.71371456  0.59732105  1
  O2-  O209  1  0.16537533  0.71285557  0.93710841  1
  O2-  O210  1  0.67406341  0.20669821  0.26577121  1
  O2-  O211  1  0.66998415  0.20187098  0.59805357  1
  O2-  O212  1  0.66574477  0.21097271  0.93151590  1
  O2-  O213  1  0.66034703  0.70863757  0.27137845  1
  O2-  O214  1  0.66767729  0.70677032  0.60358543  1
  O2-  O215  1  0.66631190  0.70383675  0.92868003  1
  O2-  O216  1  0.08474340  0.45557602  0.06794880  1
  O2-  O217  1  0.08916085  0.45490170  0.39790480  1
  O2-  O218  1  0.08720177  0.45865997  0.73031269  1
  O2-  O219  1  0.08778202  0.95658855  0.06044171  1
  O2-  O220  1  0.08469960  0.96109385  0.40466110  1
  O2-  O221  1  0.08626519  0.95348876  0.73220250  1
  O2-  O222  1  0.58600672  0.46082607  0.06732822  1
  O2-  O223  1  0.58170677  0.46415103  0.40417909  1
  O2-  O224  1  0.58594574  0.45229128  0.72953515  1
  O2-  O225  1  0.57563603  0.94918128  0.06699471  1
  O2-  O226  1  0.57877637  0.94970731  0.39140339  1
  O2-  O227  1  0.57918274  0.95838602  0.73222112  1
  O2-  O228  1  0.19919655  0.33164082  0.06453831  1
  O2-  O229  1  0.20785518  0.33517757  0.39538892  1
  O2-  O230  1  0.19688399  0.33068066  0.72931396  1
  O2-  O231  1  0.21069789  0.84102515  0.06468795  1
  O2-  O232  1  0.21061116  0.83316110  0.40248399  1
  O2-  O233  1  0.21012644  0.83737544  0.73103734  1
  O2-  O234  1  0.71431203  0.33456425  0.06669034  1
  O2-  O235  1  0.70111812  0.33010151  0.40470790  1
  O2-  O236  1  0.70724866  0.33244031  0.72581431  1
  O2-  O237  1  0.70546308  0.82579656  0.06405819  1
  O2-  O238  1  0.70304386  0.83539138  0.39745043  1
  O2-  O239  1  0.70797963  0.83534287  0.73460042  1
  O2-  O240  1  0.45323728  0.42558580  0.26796993  1
  O2-  O241  1  0.45353331  0.42248620  0.60140538  1
  O2-  O242  1  0.45393754  0.41692233  0.94099577  1
  O2-  O243  1  0.44644552  0.91473949  0.27072889  1
  O2-  O244  1  0.45666342  0.91436624  0.59661343  1
  O2-  O245  1  0.44364577  0.91661061  0.94186617  1
  O2-  O246  1  0.95963464  0.41642426  0.27053681  1
  O2-  O247  1  0.96552186  0.41452706  0.59654811  1
  O2-  O248  1  0.96243426  0.41722854  0.93350678  1
  O2-  O249  1  0.96507268  0.91306101  0.26735166  1
  O2-  O250  1  0.95388544  0.91713524  0.60570069  1
  O2-  O251  1  0.96571650  0.91468830  0.92710451  1
  O2-  O252  1  0.33225164  0.29432919  0.26195598  1
  O2-  O253  1  0.32869603  0.29419096  0.60241325  1
  O2-  O254  1  0.33160276  0.30045021  0.93809073  1
  O2-  O255  1  0.33501390  0.78951130  0.26964960  1
  O2-  O256  1  0.33387076  0.78682380  0.59804425  1
  O2-  O257  1  0.33351187  0.79027368  0.93839757  1
  O2-  O258  1  0.83214227  0.30351611  0.27770011  1
  O2-  O259  1  0.83575711  0.29272512  0.59412651  1
  O2-  O260  1  0.83548649  0.28928444  0.93156914  1
  O2-  O261  1  0.83155569  0.79048023  0.26632066  1
  O2-  O262  1  0.83240718  0.79728267  0.60531545  1
  O2-  O263  1  0.83283045  0.79402171  0.92780964  1
  O2-  O264  1  0.41045282  0.04371215  0.06577616  1
  O2-  O265  1  0.41587905  0.04714528  0.39439440  1
  O2-  O266  1  0.40999379  0.03913007  0.72840366  1
  O2-  O267  1  0.41554912  0.54090678  0.07098960  1
  O2-  O268  1  0.41211997  0.54825954  0.39808685  1
  O2-  O269  1  0.42008416  0.54479754  0.73413623  1
  O2-  O270  1  0.92170426  0.04225493  0.06219022  1
  O2-  O271  1  0.91418296  0.03465113  0.40411322  1
  O2-  O272  1  0.91627833  0.04779002  0.73233022  1
  O2-  O273  1  0.92063803  0.55094782  0.05961479  1
  O2-  O274  1  0.92502094  0.55222151  0.39498622  1
  O2-  O275  1  0.92034891  0.53928775  0.73371611  1
  O2-  O276  1  0.29564657  0.16656551  0.06297335  1
  O2-  O277  1  0.29325783  0.16641898  0.39399680  1
  O2-  O278  1  0.29190283  0.16119023  0.73016999  1
  O2-  O279  1  0.28659674  0.66483577  0.07161741  1
  O2-  O280  1  0.28949887  0.66266786  0.39734806  1
  O2-  O281  1  0.28538874  0.66563815  0.73449879  1
  O2-  O282  1  0.79270376  0.16769660  0.06642717  1
  O2-  O283  1  0.79569415  0.16751227  0.40214561  1
  O2-  O284  1  0.79916653  0.16939231  0.72559803  1
  O2-  O285  1  0.79827273  0.66710025  0.05582325  1
  O2-  O286  1  0.78833608  0.66905037  0.40171567  1
  O2-  O287  1  0.79372513  0.66674902  0.73530032  1
