# generated using pymatgen
data_Ca2Al2SiO7
_symmetry_space_group_name_H-M   'P 1'
_cell_length_a   15.46172555
_cell_length_b   15.46224785
_cell_length_c   15.28591683
_cell_angle_alpha   89.99547161
_cell_angle_beta   90.00867799
_cell_angle_gamma   90.00322572
_symmetry_Int_Tables_number   1
_chemical_formula_structural   Ca2Al2SiO7
_chemical_formula_sum   'Ca48 Al48 Si24 O168'
_cell_volume   3654.45043161
_cell_formula_units_Z   24
loop_
 _symmetry_equiv_pos_site_id
 _symmetry_equiv_pos_as_xyz
  1  'x, y, z'
loop_
 _atom_type_symbol
 _atom_type_oxidation_number
  Ca2+  2.0
  Al0+  0.0
  Si0+  0.0
  O2-  -2.0
loop_
 _atom_site_type_symbol
 _atom_site_label
 _atom_site_symmetry_multiplicity
 _atom_site_fract_x
 _atom_site_fract_y
 _atom_site_fract_z
 _atom_site_occupancy
  Ca2+  Ca0  1  0.16339007  0.07295377  0.17395545  1
  Ca2+  Ca1  1  0.16455816  0.07956715  0.50792121  1
  Ca2+  Ca2  1  0.16497014  0.07863373  0.83083031  1
  Ca2+  Ca3  1  0.17750701  0.58021307  0.17453356  1
  Ca2+  Ca4  1  0.17157186  0.58805196  0.50047616  1
  Ca2+  Ca5  1  0.17448281  0.57234506  0.84460293  1
  Ca2+  Ca6  1  0.67605249  0.08318914  0.17899130  1
  Ca2+  Ca7  1  0.67385116  0.09043599  0.50496596  1
  Ca2+  Ca8  1  0.67911995  0.09678174  0.83215843  1
  Ca2+  Ca9  1  0.66385203  0.57623057  0.17749699  1
  Ca2+  Ca10  1  0.65562381  0.57355028  0.50468652  1
  Ca2+  Ca11  1  0.66287278  0.57864079  0.82980842  1
  Ca2+  Ca12  1  0.08685270  0.32644416  0.16283723  1
  Ca2+  Ca13  1  0.07801381  0.31929586  0.49673824  1
  Ca2+  Ca14  1  0.07821535  0.32858555  0.82122743  1
  Ca2+  Ca15  1  0.09166537  0.83152391  0.16724294  1
  Ca2+  Ca16  1  0.07990301  0.83961715  0.49483296  1
  Ca2+  Ca17  1  0.08175676  0.83960419  0.82671036  1
  Ca2+  Ca18  1  0.58133886  0.33049399  0.16698948  1
  Ca2+  Ca19  1  0.58618866  0.32574116  0.50050350  1
  Ca2+  Ca20  1  0.57126825  0.33193758  0.82288047  1
  Ca2+  Ca21  1  0.58907298  0.82834403  0.16745375  1
  Ca2+  Ca22  1  0.58798609  0.82356326  0.49153804  1
  Ca2+  Ca23  1  0.58169322  0.82421809  0.82410417  1
  Ca2+  Ca24  1  0.33584907  0.42277213  0.16577835  1
  Ca2+  Ca25  1  0.34039181  0.42167236  0.50320625  1
  Ca2+  Ca26  1  0.33204826  0.41498388  0.84058199  1
  Ca2+  Ca27  1  0.32261233  0.91426036  0.17252427  1
  Ca2+  Ca28  1  0.32106091  0.92304651  0.50701987  1
  Ca2+  Ca29  1  0.32364287  0.92351731  0.83361243  1
  Ca2+  Ca30  1  0.82475294  0.41755813  0.17595892  1
  Ca2+  Ca31  1  0.82210166  0.41217334  0.50617392  1
  Ca2+  Ca32  1  0.82551739  0.40622495  0.83048711  1
  Ca2+  Ca33  1  0.82765888  0.92822468  0.17411090  1
  Ca2+  Ca34  1  0.83156544  0.92584476  0.50343986  1
  Ca2+  Ca35  1  0.83852752  0.92882059  0.83347202  1
  Ca2+  Ca36  1  0.42540171  0.17025492  0.16113321  1
  Ca2+  Ca37  1  0.42444148  0.16610264  0.49693755  1
  Ca2+  Ca38  1  0.41779111  0.17676251  0.82058240  1
  Ca2+  Ca39  1  0.41649194  0.66006820  0.16821813  1
  Ca2+  Ca40  1  0.42441391  0.66590201  0.49436430  1
  Ca2+  Ca41  1  0.41903584  0.66465759  0.82870858  1
  Ca2+  Ca42  1  0.91742318  0.15831095  0.16929487  1
  Ca2+  Ca43  1  0.92258366  0.15933622  0.49861489  1
  Ca2+  Ca44  1  0.92067532  0.16660149  0.82268833  1
  Ca2+  Ca45  1  0.92544545  0.66652841  0.16562832  1
  Ca2+  Ca46  1  0.92260298  0.67622671  0.49477940  1
  Ca2+  Ca47  1  0.92025904  0.67796313  0.82223411  1
  Al0+  Al48  1  -0.00095158  -0.00045087  0.00834905  1
  Al0+  Al49  1  -0.00119135  0.00068908  0.33440169  1
  Al0+  Al50  1  -0.00219146  -0.00141982  0.66669262  1
  Al0+  Al51  1  -0.00032374  0.49888136  0.00157211  1
  Al0+  Al52  1  0.00041708  0.50055340  0.32899517  1
  Al0+  Al53  1  -0.00058613  0.50198677  0.66259791  1
  Al0+  Al54  1  0.50237702  -0.00343118  -0.00349698  1
  Al0+  Al55  1  0.49938281  -0.00067358  0.32960099  1
  Al0+  Al56  1  0.49868729  -0.00075150  0.66844320  1
  Al0+  Al57  1  0.50117128  0.49831891  -0.00056356  1
  Al0+  Al58  1  0.49900973  0.50148363  0.33655710  1
  Al0+  Al59  1  0.50054968  0.50025632  0.66557607  1
  Al0+  Al60  1  0.25072040  0.24822909  -0.00031500  1
  Al0+  Al61  1  0.24823190  0.25127293  0.32624952  1
  Al0+  Al62  1  0.24936866  0.25194226  0.66135640  1
  Al0+  Al63  1  0.25241190  0.74916248  0.00473110  1
  Al0+  Al64  1  0.24962670  0.74945222  0.33870583  1
  Al0+  Al65  1  0.25117020  0.74943881  0.67241686  1
  Al0+  Al66  1  0.75228686  0.24991566  0.00612572  1
  Al0+  Al67  1  0.74939923  0.25167808  0.33624806  1
  Al0+  Al68  1  0.74737962  0.25234058  0.67134285  1
  Al0+  Al69  1  0.75192668  0.74997206  -0.00201651  1
  Al0+  Al70  1  0.75107285  0.75048870  0.32915494  1
  Al0+  Al71  1  0.75162963  0.74891364  0.65844187  1
  Al0+  Al72  1  0.57046174  0.17727313  0.65342811  1
  Al0+  Al73  1  0.67950072  0.43093035  0.68257658  1
  Al0+  Al74  1  0.31867601  0.56847976  0.34974972  1
  Al0+  Al75  1  0.81781514  0.06994052  0.68101560  1
  Al0+  Al76  1  0.81868219  0.07084536  0.35151774  1
  Al0+  Al77  1  0.17819573  0.92941106  0.68199228  1
  Al0+  Al78  1  0.07226908  0.67951595  0.31893168  1
  Al0+  Al79  1  0.32249712  0.07448064  0.68039230  1
  Al0+  Al80  1  0.07017660  0.17833981  0.31699918  1
  Al0+  Al81  1  0.93040667  0.82159226  0.65260614  1
  Al0+  Al82  1  0.32245910  0.56910746  0.01548899  1
  Al0+  Al83  1  0.18079851  0.93082746  0.34785165  1
  Al0+  Al84  1  0.67630224  0.92721936  0.34799177  1
  Al0+  Al85  1  0.43100481  0.31884701  0.98660118  1
  Al0+  Al86  1  0.06914585  0.17889281  0.65298257  1
  Al0+  Al87  1  0.67947333  0.43170689  0.34802765  1
  Al0+  Al88  1  0.56923576  0.68085711  0.65300508  1
  Al0+  Al89  1  0.81876710  0.07058948  0.01509874  1
  Al0+  Al90  1  0.57126811  0.17895240  0.31926298  1
  Al0+  Al91  1  0.42714161  0.32214249  0.65024172  1
  Al0+  Al92  1  0.18077092  0.93118628  0.01511547  1
  Al0+  Al93  1  0.92667972  0.32378494  0.65220340  1
  Al0+  Al94  1  0.17661838  0.42545284  0.01495769  1
  Al0+  Al95  1  0.57037842  0.67939223  0.31834223  1
  Si0+  Si96  1  0.42748461  0.82109004  0.98351924  1
  Si0+  Si97  1  0.32106309  0.56950410  0.68238904  1
  Si0+  Si98  1  0.82506668  0.57304690  0.34930190  1
  Si0+  Si99  1  0.06876621  0.17732674  0.98642446  1
  Si0+  Si100  1  0.92778375  0.32197554  0.31553791  1
  Si0+  Si101  1  0.42675733  0.82116122  0.31667107  1
  Si0+  Si102  1  0.32570485  0.07195375  0.01624834  1
  Si0+  Si103  1  0.93105012  0.82011433  0.98555562  1
  Si0+  Si104  1  0.17554775  0.42598920  0.35129403  1
  Si0+  Si105  1  0.92799181  0.32227846  0.98593803  1
  Si0+  Si106  1  0.07460857  0.67808625  0.65200000  1
  Si0+  Si107  1  0.42566222  0.82215364  0.65066029  1
  Si0+  Si108  1  0.57466266  0.17668333  0.98428721  1
  Si0+  Si109  1  0.68134646  0.43157529  0.01536024  1
  Si0+  Si110  1  0.67753826  0.92383879  0.01506316  1
  Si0+  Si111  1  0.42777972  0.32316791  0.31517858  1
  Si0+  Si112  1  0.82366000  0.57371686  0.68273898  1
  Si0+  Si113  1  0.82193884  0.57464053  0.01423897  1
  Si0+  Si114  1  0.32283462  0.07553145  0.34661556  1
  Si0+  Si115  1  0.07274773  0.67837211  0.98555219  1
  Si0+  Si116  1  0.92907415  0.82236586  0.31295011  1
  Si0+  Si117  1  0.57204011  0.67901921  0.98495252  1
  Si0+  Si118  1  0.17663024  0.43018764  0.67859625  1
  Si0+  Si119  1  0.67743487  0.92345661  0.68268188  1
  O2-  O120  1  0.25723801  0.00400455  0.06193581  1
  O2-  O121  1  0.25300093  0.00862407  0.39149049  1
  O2-  O122  1  0.24961184  0.00283053  0.73100018  1
  O2-  O123  1  0.24839022  0.49834822  0.06430983  1
  O2-  O124  1  0.24445940  0.49356049  0.39685294  1
  O2-  O125  1  0.24848543  0.49968473  0.72281206  1
  O2-  O126  1  0.73945169  -0.00121606  0.05773866  1
  O2-  O127  1  0.74341088  0.00162770  0.40027814  1
  O2-  O128  1  0.74081626  -0.00344240  0.72856211  1
  O2-  O129  1  0.75228169  0.50287448  0.05712718  1
  O2-  O130  1  0.75432618  0.50730198  0.39348524  1
  O2-  O131  1  0.75746422  0.50350847  0.72927701  1
  O2-  O132  1  -0.00318860  0.25454741  0.26952037  1
  O2-  O133  1  -0.00438291  0.24945482  0.60238340  1
  O2-  O134  1  0.00256018  0.25394652  0.94551517  1
  O2-  O135  1  -0.00204329  0.75313511  0.26899250  1
  O2-  O136  1  0.00821761  0.74884010  0.60848201  1
  O2-  O137  1  0.00270053  0.74976919  0.94220936  1
  O2-  O138  1  0.49432536  0.25153983  0.27179537  1
  O2-  O139  1  0.49531737  0.24560901  0.60276164  1
  O2-  O140  1  0.50166025  0.24023993  0.94022940  1
  O2-  O141  1  0.49908574  0.75656705  0.27018133  1
  O2-  O142  1  0.49876581  0.75894467  0.60606062  1
  O2-  O143  1  0.50072553  0.75028565  0.94346682  1
  O2-  O144  1  0.06578624  0.17646148  0.09147812  1
  O2-  O145  1  0.07061966  0.17834441  0.42941467  1
  O2-  O146  1  0.06840601  0.18070926  0.76760234  1
  O2-  O147  1  0.07050597  0.67901969  0.09042917  1
  O2-  O148  1  0.07007940  0.68106050  0.43192962  1
  O2-  O149  1  0.07274213  0.67603909  0.75814148  1
  O2-  O150  1  0.57509807  0.17932551  0.09002505  1
  O2-  O151  1  0.57132895  0.18047603  0.43161358  1
  O2-  O152  1  0.57162145  0.18280654  0.76769998  1
  O2-  O153  1  0.57413157  0.67931887  0.08977745  1
  O2-  O154  1  0.56724993  0.67840653  0.43087033  1
  O2-  O155  1  0.56697039  0.68028033  0.76727515  1
  O2-  O156  1  0.17638428  0.42741796  0.24553269  1
  O2-  O157  1  0.17522486  0.43373480  0.57391297  1
  O2-  O158  1  0.17431446  0.42855692  0.90090424  1
  O2-  O159  1  0.18328090  0.93009342  0.23419475  1
  O2-  O160  1  0.18001799  0.92760156  0.56879410  1
  O2-  O161  1  0.17892071  0.93227414  0.90248423  1
  O2-  O162  1  0.68068660  0.43302361  0.23363962  1
  O2-  O163  1  0.67814271  0.43349769  0.57008684  1
  O2-  O164  1  0.68153648  0.43213518  0.91051516  1
  O2-  O165  1  0.68030351  0.92758955  0.23353158  1
  O2-  O166  1  0.68115722  0.91998916  0.57779893  1
  O2-  O167  1  0.67995519  0.91614239  0.90998627  1
  O2-  O168  1  0.43606855  0.32063733  0.09968346  1
  O2-  O169  1  0.42753394  0.32321912  0.42030090  1
  O2-  O170  1  0.42885580  0.32454858  0.76444394  1
  O2-  O171  1  0.42692395  0.82310874  0.08820960  1
  O2-  O172  1  0.42539197  0.81789389  0.42196744  1
  O2-  O173  1  0.42473115  0.81713884  0.75688825  1
  O2-  O174  1  0.92439243  0.32342553  0.09070858  1
  O2-  O175  1  0.92917649  0.32333817  0.42053757  1
  O2-  O176  1  0.93087032  0.32297042  0.76692055  1
  O2-  O177  1  0.92919123  0.81699653  0.09013749  1
  O2-  O178  1  0.92967477  0.82129975  0.41841458  1
  O2-  O179  1  0.93063175  0.82012207  0.76686247  1
  O2-  O180  1  0.32221489  0.07344749  0.24043996  1
  O2-  O181  1  0.32194314  0.07138638  0.56678524  1
  O2-  O182  1  0.32474598  0.07089518  0.91103390  1
  O2-  O183  1  0.31945819  0.56665874  0.23663941  1
  O2-  O184  1  0.32044350  0.57134902  0.57753832  1
  O2-  O185  1  0.32163025  0.56893862  0.90147987  1
  O2-  O186  1  0.81839761  0.06841306  0.23723728  1
  O2-  O187  1  0.81908114  0.06857340  0.56897272  1
  O2-  O188  1  0.82084491  0.07065921  0.90201754  1
  O2-  O189  1  0.82491730  0.56998189  0.24267173  1
  O2-  O190  1  0.82390292  0.57456310  0.57769784  1
  O2-  O191  1  0.82088939  0.57843586  0.90952146  1
  O2-  O192  1  0.03625671  0.08235799  0.26271206  1
  O2-  O193  1  0.04067978  0.08075541  0.60142314  1
  O2-  O194  1  0.03471521  0.08689108  0.94014388  1
  O2-  O195  1  0.04228586  0.58297647  0.26261791  1
  O2-  O196  1  0.04788031  0.58676553  0.60270596  1
  O2-  O197  1  0.04397091  0.58622676  0.93866209  1
  O2-  O198  1  0.54368800  0.08165017  0.26314421  1
  O2-  O199  1  0.54956362  0.07597212  0.60318815  1
  O2-  O200  1  0.55816667  0.07976727  0.94108973  1
  O2-  O201  1  0.53555558  0.58359108  0.26413430  1
  O2-  O202  1  0.53348940  0.58670100  0.59952885  1
  O2-  O203  1  0.54387152  0.58745138  0.93756973  1
  O2-  O204  1  0.16660810  0.20756946  0.26008102  1
  O2-  O205  1  0.16592459  0.20807554  0.59854355  1
  O2-  O206  1  0.16332427  0.19773086  0.94172192  1
  O2-  O207  1  0.16888565  0.71185442  0.26573604  1
  O2-  O208  1  0.16961083  0.70124715  0.60838465  1
  O2-  O209  1  0.16591594  0.70438178  0.94030177  1
  O2-  O210  1  0.66700786  0.21431059  0.26508670  1
  O2-  O211  1  0.66705745  0.21196875  0.60204586  1
  O2-  O212  1  0.66753836  0.20917503  0.94054263  1
  O2-  O213  1  0.66874420  0.70524411  0.26338527  1
  O2-  O214  1  0.66670058  0.70446409  0.59874224  1
  O2-  O215  1  0.66397132  0.70686452  0.93675834  1
  O2-  O216  1  0.07743224  0.45247104  0.06787446  1
  O2-  O217  1  0.08140960  0.45262207  0.39481692  1
  O2-  O218  1  0.08529981  0.45917173  0.72772150  1
  O2-  O219  1  0.08533768  0.96157443  0.07114194  1
  O2-  O220  1  0.08286155  0.95904456  0.39824124  1
  O2-  O221  1  0.07984732  0.95718843  0.73513047  1
  O2-  O222  1  0.59059883  0.46064123  0.06314368  1
  O2-  O223  1  0.58391321  0.46341284  0.40130940  1
  O2-  O224  1  0.58436983  0.46787336  0.73741653  1
  O2-  O225  1  0.58111970  0.94141444  0.05855735  1
  O2-  O226  1  0.57406886  0.94641452  0.39565697  1
  O2-  O227  1  0.58099890  0.94098772  0.72645321  1
  O2-  O228  1  0.20492771  0.32671497  0.06722355  1
  O2-  O229  1  0.20035362  0.33112161  0.39431552  1
  O2-  O230  1  0.20238018  0.33815334  0.72588759  1
  O2-  O231  1  0.21124625  0.83378879  0.06775456  1
  O2-  O232  1  0.21191230  0.83552556  0.40263837  1
  O2-  O233  1  0.20808660  0.83108313  0.73702449  1
  O2-  O234  1  0.71010694  0.34057581  0.06380182  1
  O2-  O235  1  0.71119216  0.33644191  0.40189195  1
  O2-  O236  1  0.70755429  0.33591490  0.74127423  1
  O2-  O237  1  0.70982856  0.83286993  0.06400055  1
  O2-  O238  1  0.70776077  0.82820430  0.39809567  1
  O2-  O239  1  0.70839806  0.83080682  0.72940583  1
  O2-  O240  1  0.45911841  0.41535850  0.26964464  1
  O2-  O241  1  0.46138763  0.41866725  0.59810388  1
  O2-  O242  1  0.46493807  0.41483440  0.93210163  1
  O2-  O243  1  0.44539641  0.91575065  0.26921367  1
  O2-  O244  1  0.44341334  0.91777815  0.60765368  1
  O2-  O245  1  0.45431038  0.91233340  0.93322982  1
  O2-  O246  1  0.95108399  0.41619449  0.26813834  1
  O2-  O247  1  0.95410452  0.42200615  0.59855526  1
  O2-  O248  1  0.95005963  0.41574552  0.93833682  1
  O2-  O249  1  0.95644302  0.91520855  0.26702980  1
  O2-  O250  1  0.95942743  0.91649509  0.59683276  1
  O2-  O251  1  0.96022906  0.91270363  0.94059387  1
  O2-  O252  1  0.33342171  0.30232297  0.26797603  1
  O2-  O253  1  0.32768582  0.30255761  0.59698525  1
  O2-  O254  1  0.33192845  0.29325151  0.93404994  1
  O2-  O255  1  0.33537266  0.78849966  0.26979693  1
  O2-  O256  1  0.33397007  0.79030197  0.60437423  1
  O2-  O257  1  0.33674830  0.79040801  0.93531517  1
  O2-  O258  1  0.83437921  0.29559496  0.26902647  1
  O2-  O259  1  0.82599384  0.30014985  0.60513453  1
  O2-  O260  1  0.83682732  0.29060674  0.93858807  1
  O2-  O261  1  0.83628335  0.79614071  0.26494131  1
  O2-  O262  1  0.83705046  0.78790442  0.59530010  1
  O2-  O263  1  0.83984045  0.79159543  0.93643419  1
  O2-  O264  1  0.42077466  0.04568958  0.06005287  1
  O2-  O265  1  0.41624088  0.04934913  0.39155128  1
  O2-  O266  1  0.42030622  0.04580846  0.73653031  1
  O2-  O267  1  0.42111418  0.53911809  0.06789413  1
  O2-  O268  1  0.41480634  0.53839984  0.40411632  1
  O2-  O269  1  0.41188682  0.54048835  0.73041678  1
  O2-  O270  1  0.91202123  0.03461457  0.07168773  1
  O2-  O271  1  0.91638790  0.03846929  0.40193221  1
  O2-  O272  1  0.91328462  0.03597130  0.73589808  1
  O2-  O273  1  0.91385547  0.54767466  0.06162869  1
  O2-  O274  1  0.91860473  0.54741976  0.39489413  1
  O2-  O275  1  0.91866003  0.55193146  0.72900127  1
  O2-  O276  1  0.30190244  0.16561849  0.06212353  1
  O2-  O277  1  0.29904403  0.17057938  0.38937108  1
  O2-  O278  1  0.29343657  0.17389181  0.73196787  1
  O2-  O279  1  0.29668709  0.66767620  0.06877632  1
  O2-  O280  1  0.28731262  0.66404760  0.40461897  1
  O2-  O281  1  0.29551166  0.66100776  0.73226596  1
  O2-  O282  1  0.79219004  0.16742287  0.07144059  1
  O2-  O283  1  0.79468529  0.17088823  0.40099317  1
  O2-  O284  1  0.78929243  0.16699484  0.73658538  1
  O2-  O285  1  0.79392250  0.66544855  0.06367876  1
  O2-  O286  1  0.80326231  0.66862485  0.39085042  1
  O2-  O287  1  0.79434533  0.66652538  0.72978500  1
