# generated using pymatgen
data_Ca2Al2SiO7
_symmetry_space_group_name_H-M   'P 1'
_cell_length_a   15.46501094
_cell_length_b   15.46611041
_cell_length_c   15.28954704
_cell_angle_alpha   90.00206325
_cell_angle_beta   90.00494735
_cell_angle_gamma   90.02578868
_symmetry_Int_Tables_number   1
_chemical_formula_structural   Ca2Al2SiO7
_chemical_formula_sum   'Ca48 Al48 Si24 O168'
_cell_volume   3657.00800814
_cell_formula_units_Z   24
loop_
 _symmetry_equiv_pos_site_id
 _symmetry_equiv_pos_as_xyz
  1  'x, y, z'
loop_
 _atom_type_symbol
 _atom_type_oxidation_number
  Ca2+  2.0
  Al0+  0.0
  Si0+  0.0
  O2-  -2.0
loop_
 _atom_site_type_symbol
 _atom_site_label
 _atom_site_symmetry_multiplicity
 _atom_site_fract_x
 _atom_site_fract_y
 _atom_site_fract_z
 _atom_site_occupancy
  Ca2+  Ca0  1  0.16649617  0.07391471  0.17482183  1
  Ca2+  Ca1  1  0.17473419  0.07475968  0.50230456  1
  Ca2+  Ca2  1  0.17014394  0.07180673  0.83759440  1
  Ca2+  Ca3  1  0.16624609  0.57563317  0.17667039  1
  Ca2+  Ca4  1  0.16334338  0.57778172  0.50758548  1
  Ca2+  Ca5  1  0.17043124  0.58540594  0.82968393  1
  Ca2+  Ca6  1  0.67312910  0.07568637  0.17371365  1
  Ca2+  Ca7  1  0.66873183  0.07681970  0.49684248  1
  Ca2+  Ca8  1  0.67419146  0.07530962  0.84308541  1
  Ca2+  Ca9  1  0.67839181  0.58007192  0.17514631  1
  Ca2+  Ca10  1  0.66760062  0.58597215  0.50041377  1
  Ca2+  Ca11  1  0.67119098  0.59097481  0.83919546  1
  Ca2+  Ca12  1  0.08860227  0.31791810  0.16450336  1
  Ca2+  Ca13  1  0.08977354  0.32974617  0.49035765  1
  Ca2+  Ca14  1  0.08544151  0.32695246  0.83035830  1
  Ca2+  Ca15  1  0.08994634  0.83009245  0.16449769  1
  Ca2+  Ca16  1  0.09580720  0.82435993  0.49503040  1
  Ca2+  Ca17  1  0.08541291  0.83221644  0.82663224  1
  Ca2+  Ca18  1  0.57924813  0.33497506  0.16167899  1
  Ca2+  Ca19  1  0.58224494  0.33253319  0.49281228  1
  Ca2+  Ca20  1  0.57629375  0.33306034  0.83145904  1
  Ca2+  Ca21  1  0.57372422  0.84726827  0.16428852  1
  Ca2+  Ca22  1  0.57233898  0.83282241  0.49492300  1
  Ca2+  Ca23  1  0.57386061  0.83345045  0.82597925  1
  Ca2+  Ca24  1  0.33045500  0.41675142  0.17286473  1
  Ca2+  Ca25  1  0.31886782  0.42373723  0.50723140  1
  Ca2+  Ca26  1  0.33204815  0.42137588  0.83330477  1
  Ca2+  Ca27  1  0.32743724  0.91775711  0.17443976  1
  Ca2+  Ca28  1  0.33003031  0.92011214  0.50350113  1
  Ca2+  Ca29  1  0.32566729  0.90786964  0.83440582  1
  Ca2+  Ca30  1  0.83224639  0.42671225  0.17416897  1
  Ca2+  Ca31  1  0.83051206  0.42135727  0.49642485  1
  Ca2+  Ca32  1  0.83155978  0.42609506  0.83966146  1
  Ca2+  Ca33  1  0.82273849  0.92476672  0.17141970  1
  Ca2+  Ca34  1  0.83235334  0.91830885  0.49690829  1
  Ca2+  Ca35  1  0.82455158  0.91804176  0.84607995  1
  Ca2+  Ca36  1  0.41292709  0.17146029  0.16304950  1
  Ca2+  Ca37  1  0.40815427  0.16418427  0.49381161  1
  Ca2+  Ca38  1  0.41174090  0.17008010  0.83070890  1
  Ca2+  Ca39  1  0.41711390  0.68296874  0.16236020  1
  Ca2+  Ca40  1  0.40983538  0.67829286  0.49818138  1
  Ca2+  Ca41  1  0.41932470  0.67758763  0.82252253  1
  Ca2+  Ca42  1  0.92606869  0.15347448  0.16378640  1
  Ca2+  Ca43  1  0.92458266  0.16801110  0.48830210  1
  Ca2+  Ca44  1  0.92386969  0.15856503  0.83417511  1
  Ca2+  Ca45  1  0.91937530  0.66039980  0.16709893  1
  Ca2+  Ca46  1  0.92828525  0.66585009  0.49236513  1
  Ca2+  Ca47  1  0.92115470  0.66773199  0.82715134  1
  Al0+  Al48  1  0.00165115  -0.00347991  0.00083381  1
  Al0+  Al49  1  -0.00006917  -0.00266386  0.33689132  1
  Al0+  Al50  1  0.00043420  0.00210713  0.66756863  1
  Al0+  Al51  1  0.00131220  0.49743974  0.00252472  1
  Al0+  Al52  1  -0.00063431  0.49891075  0.33573986  1
  Al0+  Al53  1  -0.00347366  0.49869646  0.66789615  1
  Al0+  Al54  1  0.49745870  0.00242811  -0.00412173  1
  Al0+  Al55  1  0.50081080  0.00271713  0.33495204  1
  Al0+  Al56  1  0.50248205  0.00241489  0.66690132  1
  Al0+  Al57  1  0.49919576  0.50101188  -0.00502398  1
  Al0+  Al58  1  0.50055163  0.50151805  0.33509553  1
  Al0+  Al59  1  0.50024815  0.49791494  0.66602821  1
  Al0+  Al60  1  0.24885494  0.24985513  -0.01088987  1
  Al0+  Al61  1  0.24928139  0.25067943  0.33428144  1
  Al0+  Al62  1  0.24907612  0.24929776  0.67309659  1
  Al0+  Al63  1  0.25133292  0.74773690  -0.00040400  1
  Al0+  Al64  1  0.25096282  0.74957093  0.32454043  1
  Al0+  Al65  1  0.24930989  0.74865826  0.66596770  1
  Al0+  Al66  1  0.75166381  0.25193316  0.00159973  1
  Al0+  Al67  1  0.74998029  0.25140512  0.33804244  1
  Al0+  Al68  1  0.75000517  0.25138917  0.66754098  1
  Al0+  Al69  1  0.75115167  0.74979152  0.01054272  1
  Al0+  Al70  1  0.75064075  0.74965493  0.34079079  1
  Al0+  Al71  1  0.74961067  0.75084405  0.66299298  1
  Al0+  Al72  1  0.67545568  0.92988656  0.01429228  1
  Al0+  Al73  1  0.67706081  0.92912443  0.35061955  1
  Al0+  Al74  1  0.18149120  0.92653303  0.01465748  1
  Al0+  Al75  1  0.57296901  0.67722509  0.65090257  1
  Al0+  Al76  1  0.82273991  0.07211798  0.01397923  1
  Al0+  Al77  1  0.06894607  0.17612174  0.98450172  1
  Al0+  Al78  1  0.07009318  0.67839867  0.31829131  1
  Al0+  Al79  1  0.06836151  0.67931557  0.65453944  1
  Al0+  Al80  1  0.17922499  0.92846760  0.68183732  1
  Al0+  Al81  1  0.17938630  0.92560294  0.34740680  1
  Al0+  Al82  1  0.42915629  0.32239329  0.98513425  1
  Al0+  Al83  1  0.32023523  0.07188197  0.34492600  1
  Al0+  Al84  1  0.17517877  0.42879385  0.68421053  1
  Al0+  Al85  1  0.82198411  0.57119333  0.35162847  1
  Al0+  Al86  1  0.82268857  0.57060345  0.01365364  1
  Al0+  Al87  1  0.43117381  0.82245914  0.31818571  1
  Al0+  Al88  1  0.32384954  0.07085720  0.68389429  1
  Al0+  Al89  1  0.67675711  0.42962513  0.34825167  1
  Al0+  Al90  1  0.82270136  0.07094160  0.34927297  1
  Al0+  Al91  1  0.18041203  0.42952972  0.34394847  1
  Al0+  Al92  1  0.42890568  0.82218357  0.64982395  1
  Al0+  Al93  1  0.42880918  0.82250073  0.98487038  1
  Al0+  Al94  1  0.32169316  0.57049921  0.68144284  1
  Al0+  Al95  1  0.07108173  0.17807085  0.32073270  1
  Si0+  Si96  1  0.92935093  0.81785379  0.98757263  1
  Si0+  Si97  1  0.92711338  0.32006914  0.65138484  1
  Si0+  Si98  1  0.82038569  0.07333091  0.68162515  1
  Si0+  Si99  1  0.57331884  0.67751187  0.31574490  1
  Si0+  Si100  1  0.92731392  0.82478266  0.65062454  1
  Si0+  Si101  1  0.92572116  0.82136746  0.31525432  1
  Si0+  Si102  1  0.68147241  0.92926602  0.68163074  1
  Si0+  Si103  1  0.57392391  0.17958145  0.98319313  1
  Si0+  Si104  1  0.57295636  0.67971794  0.98634030  1
  Si0+  Si105  1  0.07093610  0.67535210  0.98498424  1
  Si0+  Si106  1  0.42902150  0.32213501  0.32043709  1
  Si0+  Si107  1  0.92678614  0.32073400  0.31603567  1
  Si0+  Si108  1  0.32214462  0.57277141  0.34724847  1
  Si0+  Si109  1  0.92866420  0.32375970  0.98324245  1
  Si0+  Si110  1  0.67618795  0.42935547  0.01459241  1
  Si0+  Si111  1  0.81817161  0.57128500  0.68190415  1
  Si0+  Si112  1  0.42778634  0.31913730  0.64984296  1
  Si0+  Si113  1  0.57334407  0.18138146  0.65109139  1
  Si0+  Si114  1  0.31974520  0.07493159  0.01545557  1
  Si0+  Si115  1  0.67905483  0.42688723  0.68326996  1
  Si0+  Si116  1  0.57257284  0.18111784  0.31822769  1
  Si0+  Si117  1  0.07072698  0.17989433  0.65039071  1
  Si0+  Si118  1  0.18056167  0.42771571  0.01513199  1
  Si0+  Si119  1  0.32178554  0.56977231  0.01542772  1
  O2-  O120  1  0.25571765  0.00251755  0.05948240  1
  O2-  O121  1  0.25092103  -0.00157362  0.39570478  1
  O2-  O122  1  0.25435137  -0.00354001  0.73366900  1
  O2-  O123  1  0.25188632  0.49780318  0.05783285  1
  O2-  O124  1  0.25134062  0.50659527  0.39125102  1
  O2-  O125  1  0.24814499  0.50036171  0.73368930  1
  O2-  O126  1  0.74551352  0.00512969  0.06202740  1
  O2-  O127  1  0.75196470  -0.00146686  0.40053064  1
  O2-  O128  1  0.75435574  -0.00176031  0.72428174  1
  O2-  O129  1  0.74665188  0.49598906  0.05792547  1
  O2-  O130  1  0.74641627  0.50217704  0.40065425  1
  O2-  O131  1  0.74355111  0.50413487  0.72502742  1
  O2-  O132  1  -0.00696920  0.24956907  0.27244970  1
  O2-  O133  1  0.00120206  0.25287860  0.60891757  1
  O2-  O134  1  -0.00845656  0.24993712  0.93845157  1
  O2-  O135  1  -0.00439018  0.75334829  0.27075223  1
  O2-  O136  1  -0.00149396  0.75843312  0.60757553  1
  O2-  O137  1  -0.00048061  0.74653300  0.94392386  1
  O2-  O138  1  0.50136589  0.25285391  0.27727812  1
  O2-  O139  1  0.49712746  0.24644427  0.60775566  1
  O2-  O140  1  0.50499132  0.24822140  0.93852999  1
  O2-  O141  1  0.50838934  0.74918428  0.27093048  1
  O2-  O142  1  0.49879197  0.74674886  0.60107811  1
  O2-  O143  1  0.50815855  0.75097374  0.94097597  1
  O2-  O144  1  0.07088854  0.17826507  0.09743290  1
  O2-  O145  1  0.07135450  0.18306594  0.43396466  1
  O2-  O146  1  0.06685586  0.17841663  0.75563483  1
  O2-  O147  1  0.07051813  0.67307047  0.08983201  1
  O2-  O148  1  0.06974727  0.67734184  0.43133299  1
  O2-  O149  1  0.06353396  0.67796649  0.76834498  1
  O2-  O150  1  0.57418324  0.18142743  0.08862576  1
  O2-  O151  1  0.57300373  0.18197862  0.42358211  1
  O2-  O152  1  0.57806389  0.18615619  0.75606835  1
  O2-  O153  1  0.56919330  0.67485044  0.09139810  1
  O2-  O154  1  0.56895626  0.67530112  0.42097304  1
  O2-  O155  1  0.57778905  0.68231705  0.76502575  1
  O2-  O156  1  0.18460670  0.42756032  0.23034226  1
  O2-  O157  1  0.17649300  0.42814557  0.57059506  1
  O2-  O158  1  0.17915755  0.42992833  0.91028974  1
  O2-  O159  1  0.18175354  0.92694527  0.23344580  1
  O2-  O160  1  0.17647871  0.93161015  0.56899554  1
  O2-  O161  1  0.18026671  0.92530881  0.90175092  1
  O2-  O162  1  0.67594779  0.43060605  0.23432224  1
  O2-  O163  1  0.68285205  0.42145521  0.57900559  1
  O2-  O164  1  0.67657221  0.43029003  0.90857329  1
  O2-  O165  1  0.67594125  0.93423723  0.23717725  1
  O2-  O166  1  0.68213830  0.93096797  0.57709422  1
  O2-  O167  1  0.67954172  0.92867949  0.89987551  1
  O2-  O168  1  0.42970941  0.32274723  0.09864040  1
  O2-  O169  1  0.42900574  0.32117863  0.42540612  1
  O2-  O170  1  0.43108589  0.31957351  0.75514280  1
  O2-  O171  1  0.42790635  0.82039493  0.09781994  1
  O2-  O172  1  0.43010559  0.82096786  0.43079621  1
  O2-  O173  1  0.43245936  0.82105951  0.76385081  1
  O2-  O174  1  0.93247477  0.32959511  0.08795919  1
  O2-  O175  1  0.92744874  0.32055347  0.42214990  1
  O2-  O176  1  0.92384332  0.31814226  0.75655421  1
  O2-  O177  1  0.92944880  0.81734343  0.09200701  1
  O2-  O178  1  0.92538069  0.81977890  0.42107614  1
  O2-  O179  1  0.92353793  0.82234511  0.75675349  1
  O2-  O180  1  0.31947717  0.07474370  0.23117308  1
  O2-  O181  1  0.32028439  0.07366410  0.57069060  1
  O2-  O182  1  0.31734921  0.07620504  0.91008149  1
  O2-  O183  1  0.32264995  0.56886408  0.24100826  1
  O2-  O184  1  0.32058857  0.56726307  0.56785992  1
  O2-  O185  1  0.32084077  0.57004457  0.91065635  1
  O2-  O186  1  0.81984352  0.07065390  0.23589143  1
  O2-  O187  1  0.81826713  0.07587456  0.57714741  1
  O2-  O188  1  0.82114634  0.06783515  0.89939888  1
  O2-  O189  1  0.82199644  0.56700897  0.23773204  1
  O2-  O190  1  0.81982217  0.56850376  0.57770625  1
  O2-  O191  1  0.82198774  0.57021167  0.89985585  1
  O2-  O192  1  0.04216046  0.07974302  0.26887838  1
  O2-  O193  1  0.04083276  0.08886486  0.60285987  1
  O2-  O194  1  0.03766237  0.07955825  0.92957263  1
  O2-  O195  1  0.03791307  0.58080759  0.26511305  1
  O2-  O196  1  0.03294936  0.58305758  0.60178775  1
  O2-  O197  1  0.04248040  0.58374975  0.93734130  1
  O2-  O198  1  0.54426877  0.09060009  0.26962555  1
  O2-  O199  1  0.55302717  0.08762054  0.60526457  1
  O2-  O200  1  0.54822643  0.08720405  0.93465179  1
  O2-  O201  1  0.54558900  0.58424703  0.26853579  1
  O2-  O202  1  0.55156668  0.57515232  0.60224118  1
  O2-  O203  1  0.54640479  0.58749974  0.93684555  1
  O2-  O204  1  0.16563869  0.21461099  0.26531409  1
  O2-  O205  1  0.16369946  0.20755722  0.60631730  1
  O2-  O206  1  0.16236987  0.21072572  0.92696343  1
  O2-  O207  1  0.16622876  0.70576340  0.26089104  1
  O2-  O208  1  0.16643665  0.70277335  0.60132110  1
  O2-  O209  1  0.16281513  0.70350697  0.93847816  1
  O2-  O210  1  0.66399422  0.21000558  0.27061056  1
  O2-  O211  1  0.66251865  0.21598827  0.60194975  1
  O2-  O212  1  0.66794523  0.20539771  0.93624564  1
  O2-  O213  1  0.67003560  0.69831869  0.27460410  1
  O2-  O214  1  0.67054149  0.70753274  0.59655462  1
  O2-  O215  1  0.66932804  0.70218664  0.94408492  1
  O2-  O216  1  0.08957076  0.45551013  0.06322678  1
  O2-  O217  1  0.08332613  0.45483877  0.39777336  1
  O2-  O218  1  0.07571777  0.45556053  0.73644081  1
  O2-  O219  1  0.08418294  0.95525463  0.06682491  1
  O2-  O220  1  0.08037887  0.94875976  0.39938441  1
  O2-  O221  1  0.08013053  0.95994593  0.73483413  1
  O2-  O222  1  0.58264318  0.45588425  0.05991561  1
  O2-  O223  1  0.57812065  0.45563108  0.40262520  1
  O2-  O224  1  0.58497279  0.44696297  0.72865657  1
  O2-  O225  1  0.57625662  0.95939141  0.06426888  1
  O2-  O226  1  0.58211988  0.96469487  0.40516809  1
  O2-  O227  1  0.59107563  0.95980837  0.72951615  1
  O2-  O228  1  0.20947167  0.33477770  0.05886695  1
  O2-  O229  1  0.21469472  0.33620840  0.40077939  1
  O2-  O230  1  0.20528683  0.33137195  0.73739891  1
  O2-  O231  1  0.21149979  0.82894581  0.06734853  1
  O2-  O232  1  0.21033693  0.82658413  0.39664966  1
  O2-  O233  1  0.20252317  0.82829059  0.73330216  1
  O2-  O234  1  0.69822315  0.33500947  0.05994031  1
  O2-  O235  1  0.70558292  0.33258179  0.40339114  1
  O2-  O236  1  0.71416450  0.33872960  0.73433931  1
  O2-  O237  1  0.70510071  0.83358939  0.06969107  1
  O2-  O238  1  0.70132662  0.83013873  0.40277903  1
  O2-  O239  1  0.70838076  0.83693415  0.72872129  1
  O2-  O240  1  0.45532007  0.41444178  0.27232857  1
  O2-  O241  1  0.45699383  0.41004728  0.60236229  1
  O2-  O242  1  0.46074458  0.41792592  0.92791428  1
  O2-  O243  1  0.46180873  0.92035663  0.26568491  1
  O2-  O244  1  0.46139543  0.92117731  0.60003336  1
  O2-  O245  1  0.45277418  0.92083001  0.93095605  1
  O2-  O246  1  0.95479646  0.41360464  0.27050189  1
  O2-  O247  1  0.94996890  0.41321405  0.60500828  1
  O2-  O248  1  0.96080147  0.41450778  0.93304892  1
  O2-  O249  1  0.94940902  0.91580916  0.27076853  1
  O2-  O250  1  0.94911067  0.92000620  0.60631091  1
  O2-  O251  1  0.95680539  0.90839061  0.93742695  1
  O2-  O252  1  0.33891835  0.29236182  0.27080692  1
  O2-  O253  1  0.33422157  0.29274561  0.60545735  1
  O2-  O254  1  0.33441283  0.29242056  0.92757355  1
  O2-  O255  1  0.33714440  0.78854301  0.26049467  1
  O2-  O256  1  0.32958367  0.79465792  0.59921672  1
  O2-  O257  1  0.33434932  0.78349645  0.93117504  1
  O2-  O258  1  0.83147531  0.29948507  0.27144080  1
  O2-  O259  1  0.83681939  0.28879853  0.60259699  1
  O2-  O260  1  0.83217566  0.30609963  0.93861298  1
  O2-  O261  1  0.83154786  0.79463575  0.27033097  1
  O2-  O262  1  0.83536666  0.79707556  0.60287707  1
  O2-  O263  1  0.83657871  0.78976321  0.94047797  1
  O2-  O264  1  0.41630496  0.05625317  0.05731525  1
  O2-  O265  1  0.41949503  0.04945752  0.39761525  1
  O2-  O266  1  0.42600350  0.05150918  0.73393642  1
  O2-  O267  1  0.41407388  0.54193713  0.06155369  1
  O2-  O268  1  0.41444033  0.54693531  0.39416415  1
  O2-  O269  1  0.42012648  0.53935891  0.73469052  1
  O2-  O270  1  0.91847166  0.03715121  0.06611671  1
  O2-  O271  1  0.91984681  0.04259069  0.40431067  1
  O2-  O272  1  0.91374088  0.04984397  0.72737426  1
  O2-  O273  1  0.91826477  0.53676442  0.06777754  1
  O2-  O274  1  0.91790609  0.53696197  0.40544017  1
  O2-  O275  1  0.90727345  0.53870561  0.73178877  1
  O2-  O276  1  0.29125714  0.16880178  0.05944719  1
  O2-  O277  1  0.29039937  0.16893296  0.39984144  1
  O2-  O278  1  0.29267788  0.16820386  0.73760608  1
  O2-  O279  1  0.29202591  0.65995039  0.06407359  1
  O2-  O280  1  0.29714817  0.66673160  0.38993803  1
  O2-  O281  1  0.29369880  0.66841495  0.73503325  1
  O2-  O282  1  0.80355647  0.17406488  0.06307756  1
  O2-  O283  1  0.79415064  0.16933209  0.40177545  1
  O2-  O284  1  0.78782943  0.16312629  0.73069250  1
  O2-  O285  1  0.79494197  0.66509767  0.07172701  1
  O2-  O286  1  0.79898860  0.66978346  0.40485784  1
  O2-  O287  1  0.79412152  0.66498884  0.72826374  1
