# generated using pymatgen
data_Ca2Al2SiO7
_symmetry_space_group_name_H-M   'P 1'
_cell_length_a   15.46759748
_cell_length_b   15.46579229
_cell_length_c   15.28952399
_cell_angle_alpha   90.00765099
_cell_angle_beta   89.99248283
_cell_angle_gamma   89.98765733
_symmetry_Int_Tables_number   1
_chemical_formula_structural   Ca2Al2SiO7
_chemical_formula_sum   'Ca48 Al48 Si24 O168'
_cell_volume   3657.53913410
_cell_formula_units_Z   24
loop_
 _symmetry_equiv_pos_site_id
 _symmetry_equiv_pos_as_xyz
  1  'x, y, z'
loop_
 _atom_type_symbol
 _atom_type_oxidation_number
  Ca2+  2.0
  Al0+  0.0
  Si0+  0.0
  O2-  -2.0
loop_
 _atom_site_type_symbol
 _atom_site_label
 _atom_site_symmetry_multiplicity
 _atom_site_fract_x
 _atom_site_fract_y
 _atom_site_fract_z
 _atom_site_occupancy
  Ca2+  Ca0  1  0.17521497  0.08807832  0.17321706  1
  Ca2+  Ca1  1  0.17118978  0.08466309  0.50281153  1
  Ca2+  Ca2  1  0.16305639  0.08857371  0.83687864  1
  Ca2+  Ca3  1  0.17372264  0.57656751  0.17765010  1
  Ca2+  Ca4  1  0.17708618  0.57939771  0.50048455  1
  Ca2+  Ca5  1  0.17401000  0.58112779  0.83362632  1
  Ca2+  Ca6  1  0.66880362  0.08452847  0.17262474  1
  Ca2+  Ca7  1  0.65463671  0.07314456  0.50196564  1
  Ca2+  Ca8  1  0.66359812  0.08391760  0.83789051  1
  Ca2+  Ca9  1  0.66167446  0.56986801  0.17412444  1
  Ca2+  Ca10  1  0.66764298  0.57918535  0.50279747  1
  Ca2+  Ca11  1  0.67382011  0.57374054  0.83636768  1
  Ca2+  Ca12  1  0.07418972  0.33367402  0.16146655  1
  Ca2+  Ca13  1  0.07280908  0.34030756  0.49594496  1
  Ca2+  Ca14  1  0.07414497  0.32169782  0.82562534  1
  Ca2+  Ca15  1  0.07761498  0.83536279  0.16791113  1
  Ca2+  Ca16  1  0.07297581  0.83133585  0.49407067  1
  Ca2+  Ca17  1  0.07966476  0.83179079  0.82944691  1
  Ca2+  Ca18  1  0.59225918  0.32462337  0.16307381  1
  Ca2+  Ca19  1  0.58585411  0.32317756  0.49345097  1
  Ca2+  Ca20  1  0.58808795  0.32297780  0.82943206  1
  Ca2+  Ca21  1  0.57585201  0.83288059  0.17107962  1
  Ca2+  Ca22  1  0.58017063  0.82836835  0.49063985  1
  Ca2+  Ca23  1  0.57256492  0.83802170  0.82622786  1
  Ca2+  Ca24  1  0.32387090  0.42050363  0.18204850  1
  Ca2+  Ca25  1  0.33716149  0.42680103  0.50631763  1
  Ca2+  Ca26  1  0.34253852  0.42037808  0.83363271  1
  Ca2+  Ca27  1  0.33872507  0.91925421  0.17409414  1
  Ca2+  Ca28  1  0.34591127  0.92169356  0.50102342  1
  Ca2+  Ca29  1  0.33579313  0.91528123  0.83664329  1
  Ca2+  Ca30  1  0.82564282  0.40786478  0.17044225  1
  Ca2+  Ca31  1  0.83050537  0.41387168  0.50161226  1
  Ca2+  Ca32  1  0.83435385  0.41278211  0.83648945  1
  Ca2+  Ca33  1  0.82976130  0.92651862  0.17614898  1
  Ca2+  Ca34  1  0.81871484  0.91287692  0.50512629  1
  Ca2+  Ca35  1  0.82289669  0.92693926  0.83855128  1
  Ca2+  Ca36  1  0.42869269  0.15999740  0.16638928  1
  Ca2+  Ca37  1  0.42525101  0.16898845  0.49696334  1
  Ca2+  Ca38  1  0.42968347  0.17363247  0.82462752  1
  Ca2+  Ca39  1  0.41803087  0.67156474  0.16719283  1
  Ca2+  Ca40  1  0.41545411  0.67396494  0.49179517  1
  Ca2+  Ca41  1  0.41572108  0.67633543  0.82642390  1
  Ca2+  Ca42  1  0.91704483  0.17758466  0.15774224  1
  Ca2+  Ca43  1  0.92169905  0.17638768  0.49638797  1
  Ca2+  Ca44  1  0.91729001  0.17488927  0.83009983  1
  Ca2+  Ca45  1  0.91181881  0.67488164  0.16915282  1
  Ca2+  Ca46  1  0.91063749  0.67051047  0.49234678  1
  Ca2+  Ca47  1  0.91685229  0.66313369  0.82531777  1
  Al0+  Al48  1  -0.00016507  -0.00143652  0.00206888  1
  Al0+  Al49  1  0.00117015  0.00174084  0.33031671  1
  Al0+  Al50  1  -0.00059526  -0.00120723  0.66402137  1
  Al0+  Al51  1  0.00120804  0.50272494  -0.00257143  1
  Al0+  Al52  1  -0.00045823  0.50082543  0.33065607  1
  Al0+  Al53  1  0.00224447  0.49984702  0.66764348  1
  Al0+  Al54  1  0.49811008  -0.00055715  -0.00731759  1
  Al0+  Al55  1  0.50090442  0.00011202  0.33303128  1
  Al0+  Al56  1  0.49782777  -0.00074051  0.66658298  1
  Al0+  Al57  1  0.50178349  0.50308765  0.00473158  1
  Al0+  Al58  1  0.50054596  0.49915709  0.33881605  1
  Al0+  Al59  1  0.50188748  0.50138478  0.67256329  1
  Al0+  Al60  1  0.25016077  0.25088616  -0.00139531  1
  Al0+  Al61  1  0.24907310  0.24898358  0.34450472  1
  Al0+  Al62  1  0.25090979  0.24883681  0.66169309  1
  Al0+  Al63  1  0.24902956  0.75141881  -0.00227251  1
  Al0+  Al64  1  0.24744642  0.75110310  0.33327249  1
  Al0+  Al65  1  0.24872267  0.75045602  0.66726568  1
  Al0+  Al66  1  0.75063187  0.24921265  -0.00118843  1
  Al0+  Al67  1  0.75239208  0.24989679  0.33096167  1
  Al0+  Al68  1  0.75250365  0.24700765  0.65760514  1
  Al0+  Al69  1  0.74801166  0.74956434  -0.00024910  1
  Al0+  Al70  1  0.74837400  0.75115011  0.32531237  1
  Al0+  Al71  1  0.74787717  0.75037090  0.67895870  1
  Al0+  Al72  1  0.68152257  0.42994879  0.01296043  1
  Al0+  Al73  1  0.07358178  0.17785923  0.98671797  1
  Al0+  Al74  1  0.56961551  0.18001522  0.31860857  1
  Al0+  Al75  1  0.42778994  0.81858450  0.65197170  1
  Al0+  Al76  1  0.56992265  0.18048186  0.98710937  1
  Al0+  Al77  1  0.67993168  0.42649971  0.34768180  1
  Al0+  Al78  1  0.57171906  0.67536189  0.31856199  1
  Al0+  Al79  1  0.68129914  0.93001703  0.34519094  1
  Al0+  Al80  1  0.42988620  0.81822527  0.98520791  1
  Al0+  Al81  1  0.93054930  0.32256321  0.64889830  1
  Al0+  Al82  1  0.82027452  0.06925878  0.01356291  1
  Al0+  Al83  1  0.17615548  0.42843014  0.34927824  1
  Al0+  Al84  1  0.57154810  0.17869618  0.65017503  1
  Al0+  Al85  1  0.93094365  0.32134976  0.31731077  1
  Al0+  Al86  1  0.07152802  0.17556257  0.64930371  1
  Al0+  Al87  1  0.92930467  0.32177247  0.98419352  1
  Al0+  Al88  1  0.32185964  0.57166990  0.68249639  1
  Al0+  Al89  1  0.42816019  0.82065425  0.31883391  1
  Al0+  Al90  1  0.43014005  0.32467945  0.65231873  1
  Al0+  Al91  1  0.67670111  0.93055013  0.68200943  1
  Al0+  Al92  1  0.32196934  0.06906037  0.34772344  1
  Al0+  Al93  1  0.82189608  0.57001709  0.67851205  1
  Al0+  Al94  1  0.92707374  0.82297515  0.32055279  1
  Al0+  Al95  1  0.32173340  0.57199098  0.34833854  1
  Si0+  Si96  1  0.82406709  0.07276256  0.35097671  1
  Si0+  Si97  1  0.31940930  0.57325603  0.01490173  1
  Si0+  Si98  1  0.31995204  0.07063251  0.68380148  1
  Si0+  Si99  1  0.68055710  0.42442200  0.68250616  1
  Si0+  Si100  1  0.17942802  0.42718716  0.68531707  1
  Si0+  Si101  1  0.17988700  0.42966268  0.01345643  1
  Si0+  Si102  1  0.17559210  0.92827788  0.35089421  1
  Si0+  Si103  1  0.57263357  0.67502895  0.98047998  1
  Si0+  Si104  1  0.67445938  0.92793668  0.01794776  1
  Si0+  Si105  1  0.92683817  0.82169788  0.98403151  1
  Si0+  Si106  1  0.07031480  0.67933214  0.31624191  1
  Si0+  Si107  1  0.07426377  0.17793131  0.31642161  1
  Si0+  Si108  1  0.82379206  0.07009202  0.68201488  1
  Si0+  Si109  1  0.07120033  0.67919985  0.65203333  1
  Si0+  Si110  1  0.92713975  0.81823775  0.65489776  1
  Si0+  Si111  1  0.81996904  0.57270496  0.34607910  1
  Si0+  Si112  1  0.82514225  0.57434500  0.01829645  1
  Si0+  Si113  1  0.32035987  0.07088801  0.01273436  1
  Si0+  Si114  1  0.17884378  0.92728470  0.01537118  1
  Si0+  Si115  1  0.42655439  0.32184783  0.31926112  1
  Si0+  Si116  1  0.17668643  0.92952877  0.68228950  1
  Si0+  Si117  1  0.42700223  0.32522992  0.98783949  1
  Si0+  Si118  1  0.57386926  0.67961207  0.65300542  1
  Si0+  Si119  1  0.07026692  0.68169909  0.98409895  1
  O2-  O120  1  0.24636292  0.00240934  0.05503479  1
  O2-  O121  1  0.24737080  -0.00679818  0.39467744  1
  O2-  O122  1  0.24593981  0.00165012  0.72570056  1
  O2-  O123  1  0.25426473  0.49693434  0.05636335  1
  O2-  O124  1  0.25277367  0.49650712  0.39787983  1
  O2-  O125  1  0.25196613  0.49218526  0.73071738  1
  O2-  O126  1  0.74548714  -0.00557788  0.06114286  1
  O2-  O127  1  0.75658174  0.00280037  0.39466123  1
  O2-  O128  1  0.74954765  0.00781914  0.72728402  1
  O2-  O129  1  0.75723928  0.50459132  0.06032213  1
  O2-  O130  1  0.75254491  0.50454839  0.39199097  1
  O2-  O131  1  0.75163647  0.49170722  0.72592409  1
  O2-  O132  1  0.00720106  0.24739884  0.27207682  1
  O2-  O133  1  0.00403836  0.25142413  0.59973459  1
  O2-  O134  1  0.00087995  0.24826958  0.93608428  1
  O2-  O135  1  0.00248052  0.74922145  0.27223250  1
  O2-  O136  1  -0.00556782  0.74453801  0.61119808  1
  O2-  O137  1  -0.00519424  0.74787516  0.94093856  1
  O2-  O138  1  0.49541204  0.25560973  0.27151175  1
  O2-  O139  1  0.50364209  0.25520223  0.60145705  1
  O2-  O140  1  0.49643297  0.25774475  0.94341530  1
  O2-  O141  1  0.49659612  0.74527557  0.26915820  1
  O2-  O142  1  0.50130759  0.74264836  0.60739750  1
  O2-  O143  1  0.50641815  0.74641940  0.93710004  1
  O2-  O144  1  0.07747909  0.18157162  0.09987262  1
  O2-  O145  1  0.07070286  0.17422193  0.42155326  1
  O2-  O146  1  0.06772874  0.17458690  0.76315390  1
  O2-  O147  1  0.07285461  0.68404028  0.08874561  1
  O2-  O148  1  0.06908903  0.68020019  0.42188347  1
  O2-  O149  1  0.07198898  0.68233575  0.75781413  1
  O2-  O150  1  0.56813294  0.17802938  0.10000510  1
  O2-  O151  1  0.56780906  0.17884716  0.43113185  1
  O2-  O152  1  0.57007842  0.17916790  0.76438472  1
  O2-  O153  1  0.57063274  0.67161483  0.08547370  1
  O2-  O154  1  0.57589096  0.67846323  0.43222857  1
  O2-  O155  1  0.57344521  0.68270752  0.75893110  1
  O2-  O156  1  0.17719998  0.43122561  0.23447204  1
  O2-  O157  1  0.17682946  0.43298019  0.58035580  1
  O2-  O158  1  0.18002517  0.43196192  0.90857841  1
  O2-  O159  1  0.17308299  0.92988887  0.24496190  1
  O2-  O160  1  0.17354292  0.92790303  0.57780426  1
  O2-  O161  1  0.17933915  0.92269751  0.91018093  1
  O2-  O162  1  0.68271551  0.42538688  0.23438382  1
  O2-  O163  1  0.67996926  0.42660206  0.57715834  1
  O2-  O164  1  0.68143001  0.43200860  0.89969607  1
  O2-  O165  1  0.68237369  0.93206737  0.23186292  1
  O2-  O166  1  0.67955195  0.92655410  0.56912791  1
  O2-  O167  1  0.67542870  0.92902058  0.91204479  1
  O2-  O168  1  0.42320043  0.32366436  0.09310345  1
  O2-  O169  1  0.42883112  0.32009430  0.42448668  1
  O2-  O170  1  0.43195379  0.32158750  0.76695387  1
  O2-  O171  1  0.42718984  0.81734231  0.09765812  1
  O2-  O172  1  0.43107418  0.82005755  0.43218583  1
  O2-  O173  1  0.42689573  0.81792134  0.76559480  1
  O2-  O174  1  0.93183128  0.32196228  0.09768056  1
  O2-  O175  1  0.93139301  0.32168450  0.43002831  1
  O2-  O176  1  0.93110267  0.32231650  0.76257806  1
  O2-  O177  1  0.92938818  0.82145905  0.08892329  1
  O2-  O178  1  0.92778705  0.81963635  0.43413406  1
  O2-  O179  1  0.93127908  0.81797998  0.76032874  1
  O2-  O180  1  0.32045210  0.06809956  0.23361090  1
  O2-  O181  1  0.32121538  0.06683310  0.57905330  1
  O2-  O182  1  0.32016239  0.06925446  0.90773356  1
  O2-  O183  1  0.31753221  0.57140171  0.23372220  1
  O2-  O184  1  0.31709798  0.57552535  0.57039883  1
  O2-  O185  1  0.31632161  0.57468808  0.90970776  1
  O2-  O186  1  0.82348433  0.07121965  0.24495104  1
  O2-  O187  1  0.82851408  0.06391616  0.57698545  1
  O2-  O188  1  0.81984166  0.06676610  0.90029623  1
  O2-  O189  1  0.82018908  0.57214676  0.24043119  1
  O2-  O190  1  0.81867873  0.57570988  0.56590457  1
  O2-  O191  1  0.82546415  0.57591644  0.91258692  1
  O2-  O192  1  0.05029340  0.08449111  0.26866553  1
  O2-  O193  1  0.04130995  0.07744076  0.59593534  1
  O2-  O194  1  0.04936236  0.07639127  0.93765752  1
  O2-  O195  1  0.04363729  0.58770574  0.26712688  1
  O2-  O196  1  0.05010651  0.58611995  0.60638605  1
  O2-  O197  1  0.04729590  0.58945887  0.93510746  1
  O2-  O198  1  0.53697408  0.08452283  0.26393717  1
  O2-  O199  1  0.53529772  0.08206986  0.59953462  1
  O2-  O200  1  0.53680259  0.08576062  0.93082767  1
  O2-  O201  1  0.54408442  0.57588942  0.26653682  1
  O2-  O202  1  0.55506069  0.58316507  0.61173281  1
  O2-  O203  1  0.54417810  0.58290615  0.93260758  1
  O2-  O204  1  0.16991750  0.20176814  0.27417444  1
  O2-  O205  1  0.17241080  0.19680592  0.60029824  1
  O2-  O206  1  0.17131827  0.20724512  0.93138095  1
  O2-  O207  1  0.16278110  0.70562725  0.26816267  1
  O2-  O208  1  0.15900436  0.71439946  0.60308266  1
  O2-  O209  1  0.15923939  0.71493748  0.93393515  1
  O2-  O210  1  0.66719718  0.20969804  0.26635109  1
  O2-  O211  1  0.67132007  0.19761550  0.59730966  1
  O2-  O212  1  0.66585204  0.20998479  0.93238165  1
  O2-  O213  1  0.66684140  0.70663565  0.26052123  1
  O2-  O214  1  0.66637102  0.71036269  0.60836373  1
  O2-  O215  1  0.66825941  0.69761780  0.93652544  1
  O2-  O216  1  0.08924530  0.46244351  0.06060524  1
  O2-  O217  1  0.07992950  0.46492389  0.40170264  1
  O2-  O218  1  0.08831588  0.45866613  0.73388866  1
  O2-  O219  1  0.08587341  0.94911666  0.06297564  1
  O2-  O220  1  0.08299155  0.95697360  0.39842245  1
  O2-  O221  1  0.08440844  0.95529703  0.73159382  1
  O2-  O222  1  0.58477098  0.46061605  0.06842665  1
  O2-  O223  1  0.58308254  0.45267997  0.40233639  1
  O2-  O224  1  0.58861376  0.45153169  0.73153970  1
  O2-  O225  1  0.58054201  0.95612159  0.06105100  1
  O2-  O226  1  0.58555101  0.96108179  0.39932471  1
  O2-  O227  1  0.58002983  0.96140969  0.73642629  1
  O2-  O228  1  0.20427403  0.33711291  0.06113533  1
  O2-  O229  1  0.19569995  0.32922958  0.40248001  1
  O2-  O230  1  0.20069507  0.33093258  0.72762366  1
  O2-  O231  1  0.21065899  0.83743249  0.06471720  1
  O2-  O232  1  0.19426492  0.83280441  0.39522598  1
  O2-  O233  1  0.20554039  0.83845243  0.73153048  1
  O2-  O234  1  0.71158423  0.33328830  0.06644351  1
  O2-  O235  1  0.71572104  0.33175635  0.40180379  1
  O2-  O236  1  0.70647045  0.32943058  0.72578826  1
  O2-  O237  1  0.69735475  0.83194301  0.06025648  1
  O2-  O238  1  0.71272278  0.83250154  0.39724181  1
  O2-  O239  1  0.70984641  0.83718395  0.74160722  1
  O2-  O240  1  0.44792627  0.41689392  0.27518090  1
  O2-  O241  1  0.45361154  0.42622359  0.60415123  1
  O2-  O242  1  0.45160003  0.42012663  0.94366878  1
  O2-  O243  1  0.46169495  0.91690319  0.26476300  1
  O2-  O244  1  0.45880454  0.91532750  0.60115651  1
  O2-  O245  1  0.45758051  0.91469083  0.92916961  1
  O2-  O246  1  0.95944355  0.41878676  0.26330735  1
  O2-  O247  1  0.95948155  0.42219660  0.59799913  1
  O2-  O248  1  0.95734325  0.42174894  0.93342255  1
  O2-  O249  1  0.96035104  0.91835322  0.26494281  1
  O2-  O250  1  0.95812704  0.90756260  0.60610400  1
  O2-  O251  1  0.95904549  0.91120917  0.93546454  1
  O2-  O252  1  0.33119224  0.29542038  0.27666255  1
  O2-  O253  1  0.33182619  0.29716366  0.60043412  1
  O2-  O254  1  0.33459999  0.30001538  0.93897219  1
  O2-  O255  1  0.32666169  0.79869955  0.26830692  1
  O2-  O256  1  0.32959576  0.79120546  0.60007587  1
  O2-  O257  1  0.33289146  0.78644203  0.93099271  1
  O2-  O258  1  0.83617242  0.28684640  0.26265104  1
  O2-  O259  1  0.83341919  0.29397707  0.59463383  1
  O2-  O260  1  0.83206514  0.29171754  0.93105275  1
  O2-  O261  1  0.83448280  0.79136365  0.26053439  1
  O2-  O262  1  0.83379715  0.79163790  0.61132325  1
  O2-  O263  1  0.83320023  0.79794174  0.93810876  1
  O2-  O264  1  0.41104480  0.03844183  0.05972207  1
  O2-  O265  1  0.41706358  0.03645239  0.40256033  1
  O2-  O266  1  0.40956114  0.03878584  0.73314516  1
  O2-  O267  1  0.41364331  0.55370782  0.05982401  1
  O2-  O268  1  0.42017117  0.54840442  0.40211617  1
  O2-  O269  1  0.41976325  0.54726362  0.73890174  1
  O2-  O270  1  0.91673399  0.03736604  0.06863969  1
  O2-  O271  1  0.91879673  0.04803119  0.39465887  1
  O2-  O272  1  0.91438184  0.03737688  0.73118026  1
  O2-  O273  1  0.92070586  0.55325753  0.06265209  1
  O2-  O274  1  0.91459203  0.55006946  0.39087792  1
  O2-  O275  1  0.92068737  0.54505106  0.73297735  1
  O2-  O276  1  0.29598290  0.16369219  0.06043656  1
  O2-  O277  1  0.29269420  0.16381197  0.40542480  1
  O2-  O278  1  0.29584945  0.16400898  0.73020823  1
  O2-  O279  1  0.28334601  0.66239233  0.06209820  1
  O2-  O280  1  0.28783933  0.66973435  0.40005816  1
  O2-  O281  1  0.28240185  0.66634165  0.73730673  1
  O2-  O282  1  0.79050017  0.16581068  0.06703302  1
  O2-  O283  1  0.79790811  0.16561760  0.39605118  1
  O2-  O284  1  0.80321487  0.16659963  0.72372248  1
  O2-  O285  1  0.79890231  0.66891232  0.06308485  1
  O2-  O286  1  0.79517283  0.66710855  0.39044248  1
  O2-  O287  1  0.78983690  0.66359447  0.73945750  1
