# generated using pymatgen
data_Ca2Al2SiO7
_symmetry_space_group_name_H-M   'P 1'
_cell_length_a   15.45820815
_cell_length_b   15.45905434
_cell_length_c   15.28379473
_cell_angle_alpha   89.98260930
_cell_angle_beta   90.00179482
_cell_angle_gamma   90.02051375
_symmetry_Int_Tables_number   1
_chemical_formula_structural   Ca2Al2SiO7
_chemical_formula_sum   'Ca48 Al48 Si24 O168'
_cell_volume   3652.35701335
_cell_formula_units_Z   24
loop_
 _symmetry_equiv_pos_site_id
 _symmetry_equiv_pos_as_xyz
  1  'x, y, z'
loop_
 _atom_type_symbol
 _atom_type_oxidation_number
  Ca2+  2.0
  Al0+  0.0
  Si0+  0.0
  O2-  -2.0
loop_
 _atom_site_type_symbol
 _atom_site_label
 _atom_site_symmetry_multiplicity
 _atom_site_fract_x
 _atom_site_fract_y
 _atom_site_fract_z
 _atom_site_occupancy
  Ca2+  Ca0  1  0.17599278  0.08066384  0.17714447  1
  Ca2+  Ca1  1  0.16365763  0.08710731  0.50010421  1
  Ca2+  Ca2  1  0.16932708  0.08426518  0.83773711  1
  Ca2+  Ca3  1  0.17855184  0.59013493  0.17653938  1
  Ca2+  Ca4  1  0.17523330  0.58415116  0.50558277  1
  Ca2+  Ca5  1  0.17565411  0.58038178  0.83691870  1
  Ca2+  Ca6  1  0.66700974  0.07979959  0.17152251  1
  Ca2+  Ca7  1  0.67259389  0.07896565  0.50887251  1
  Ca2+  Ca8  1  0.67792204  0.07103479  0.83956924  1
  Ca2+  Ca9  1  0.66851989  0.58275417  0.17212377  1
  Ca2+  Ca10  1  0.66422888  0.57407261  0.50809674  1
  Ca2+  Ca11  1  0.67387608  0.58972522  0.83333251  1
  Ca2+  Ca12  1  0.07890105  0.33134391  0.16769638  1
  Ca2+  Ca13  1  0.07886585  0.32843021  0.49441062  1
  Ca2+  Ca14  1  0.08381576  0.32693169  0.82305201  1
  Ca2+  Ca15  1  0.08902681  0.83107351  0.16997203  1
  Ca2+  Ca16  1  0.07741192  0.83095957  0.49341120  1
  Ca2+  Ca17  1  0.07343794  0.83143605  0.82440498  1
  Ca2+  Ca18  1  0.58682990  0.32923354  0.16962160  1
  Ca2+  Ca19  1  0.58958175  0.33078513  0.49114346  1
  Ca2+  Ca20  1  0.58278416  0.33499916  0.82834996  1
  Ca2+  Ca21  1  0.58590147  0.82211548  0.15963414  1
  Ca2+  Ca22  1  0.58792612  0.82028485  0.49781203  1
  Ca2+  Ca23  1  0.59254338  0.82575937  0.82857929  1
  Ca2+  Ca24  1  0.33492030  0.42795581  0.17095902  1
  Ca2+  Ca25  1  0.32915961  0.42830927  0.50619972  1
  Ca2+  Ca26  1  0.32995416  0.42626859  0.83088686  1
  Ca2+  Ca27  1  0.33057646  0.92613937  0.17558636  1
  Ca2+  Ca28  1  0.32680415  0.91988384  0.49645473  1
  Ca2+  Ca29  1  0.33161217  0.92273118  0.83903932  1
  Ca2+  Ca30  1  0.82969630  0.41951651  0.17336962  1
  Ca2+  Ca31  1  0.82547565  0.41791793  0.50486397  1
  Ca2+  Ca32  1  0.82882046  0.42776954  0.83395157  1
  Ca2+  Ca33  1  0.82836777  0.92017873  0.16404553  1
  Ca2+  Ca34  1  0.83008010  0.92067596  0.51093104  1
  Ca2+  Ca35  1  0.82787084  0.91964548  0.83316886  1
  Ca2+  Ca36  1  0.41875057  0.15976345  0.16463974  1
  Ca2+  Ca37  1  0.42370941  0.17001848  0.49008976  1
  Ca2+  Ca38  1  0.41544558  0.16734067  0.82906693  1
  Ca2+  Ca39  1  0.42604433  0.65928131  0.16204993  1
  Ca2+  Ca40  1  0.42400381  0.65952327  0.49508022  1
  Ca2+  Ca41  1  0.42639292  0.65868254  0.82936454  1
  Ca2+  Ca42  1  0.91650822  0.17108772  0.16626276  1
  Ca2+  Ca43  1  0.92479394  0.16970085  0.49248098  1
  Ca2+  Ca44  1  0.92046523  0.15991353  0.82422084  1
  Ca2+  Ca45  1  0.92286639  0.66342725  0.16232914  1
  Ca2+  Ca46  1  0.91553338  0.67121754  0.49707032  1
  Ca2+  Ca47  1  0.90780944  0.67101766  0.82479729  1
  Al0+  Al48  1  -0.00105169  -0.00071708  0.00315764  1
  Al0+  Al49  1  -0.00031586  0.00027625  0.33046400  1
  Al0+  Al50  1  0.00140445  -0.00114636  0.66087994  1
  Al0+  Al51  1  -0.00061236  0.49780218  0.00094285  1
  Al0+  Al52  1  0.00003167  0.50264790  0.32474243  1
  Al0+  Al53  1  0.00095144  0.49849897  0.67278103  1
  Al0+  Al54  1  0.49974913  -0.00202047  0.00506786  1
  Al0+  Al55  1  0.49991348  -0.00050501  0.33473624  1
  Al0+  Al56  1  0.49873782  -0.00135725  0.66889340  1
  Al0+  Al57  1  0.49887444  0.49778527  -0.00218674  1
  Al0+  Al58  1  0.50160318  0.49892256  0.33614452  1
  Al0+  Al59  1  0.49840020  0.49886989  0.66944883  1
  Al0+  Al60  1  0.24979187  0.24988943  0.00307543  1
  Al0+  Al61  1  0.25059568  0.25223073  0.33221565  1
  Al0+  Al62  1  0.25052036  0.25101074  0.66444121  1
  Al0+  Al63  1  0.25117725  0.74916153  0.00117656  1
  Al0+  Al64  1  0.25006314  0.75328033  0.33862375  1
  Al0+  Al65  1  0.25208483  0.75297316  0.67139061  1
  Al0+  Al66  1  0.75050283  0.25019202  -0.00010466  1
  Al0+  Al67  1  0.74911941  0.25050719  0.32805884  1
  Al0+  Al68  1  0.75103085  0.25014114  0.67501809  1
  Al0+  Al69  1  0.75159463  0.74879403  0.00481437  1
  Al0+  Al70  1  0.75020041  0.75083186  0.32767799  1
  Al0+  Al71  1  0.74855395  0.74992058  0.66143934  1
  Al0+  Al72  1  0.57083476  0.67859946  0.98480126  1
  Al0+  Al73  1  0.68183729  0.42998966  0.34559035  1
  Al0+  Al74  1  0.82383238  0.07031707  0.67892677  1
  Al0+  Al75  1  0.07177422  0.68150288  0.32133503  1
  Al0+  Al76  1  0.32046442  0.56979960  0.01495007  1
  Al0+  Al77  1  0.31984567  0.07132637  0.01281820  1
  Al0+  Al78  1  0.67728187  0.92838715  0.67957516  1
  Al0+  Al79  1  0.07239758  0.17859061  0.31569843  1
  Al0+  Al80  1  0.82108900  0.57025592  0.01540700  1
  Al0+  Al81  1  0.56994071  0.67768937  0.31903870  1
  Al0+  Al82  1  0.82050810  0.57152159  0.67808088  1
  Al0+  Al83  1  0.67961907  0.92799462  0.01690680  1
  Al0+  Al84  1  0.67727729  0.42696746  0.68253313  1
  Al0+  Al85  1  0.92908260  0.81861563  0.65304556  1
  Al0+  Al86  1  0.07136308  0.17958854  0.65299844  1
  Al0+  Al87  1  0.32133354  0.57096195  0.34719931  1
  Al0+  Al88  1  0.57002318  0.17765432  0.32064647  1
  Al0+  Al89  1  0.17884678  0.42766268  0.68026549  1
  Al0+  Al90  1  0.82209320  0.07248887  0.01715035  1
  Al0+  Al91  1  0.92794875  0.32163816  0.31798453  1
  Al0+  Al92  1  0.56815503  0.67977891  0.65248290  1
  Al0+  Al93  1  0.17736624  0.93104835  0.35022999  1
  Al0+  Al94  1  0.32092404  0.57385398  0.68284913  1
  Al0+  Al95  1  0.32221217  0.07398522  0.35072682  1
  Si0+  Si96  1  0.92661782  0.32337108  0.65202937  1
  Si0+  Si97  1  0.42738095  0.82256372  0.98337799  1
  Si0+  Si98  1  0.93096549  0.81962732  0.98491084  1
  Si0+  Si99  1  0.42805046  0.31888703  0.98361733  1
  Si0+  Si100  1  0.32058688  0.07184245  0.68055910  1
  Si0+  Si101  1  0.57112901  0.17665299  0.98395548  1
  Si0+  Si102  1  0.07468216  0.67708450  0.65339859  1
  Si0+  Si103  1  0.42487512  0.82605169  0.64827535  1
  Si0+  Si104  1  0.17850824  0.92994387  0.68209271  1
  Si0+  Si105  1  0.17701102  0.92730089  0.01545717  1
  Si0+  Si106  1  0.17511203  0.42958148  0.34835955  1
  Si0+  Si107  1  0.42966647  0.31957397  0.65115151  1
  Si0+  Si108  1  0.42856905  0.82148460  0.31699445  1
  Si0+  Si109  1  0.67700041  0.42771362  0.01739354  1
  Si0+  Si110  1  0.07006175  0.18006499  0.98535490  1
  Si0+  Si111  1  0.81916802  0.07091192  0.34727793  1
  Si0+  Si112  1  0.42870505  0.32274278  0.31684294  1
  Si0+  Si113  1  0.67915262  0.92725499  0.34889207  1
  Si0+  Si114  1  0.57140389  0.17838739  0.65504402  1
  Si0+  Si115  1  0.82366499  0.57411461  0.34867083  1
  Si0+  Si116  1  0.92658841  0.82316836  0.31323149  1
  Si0+  Si117  1  0.17783648  0.42762567  0.01845080  1
  Si0+  Si118  1  0.92774863  0.32173362  0.98150034  1
  Si0+  Si119  1  0.07330280  0.67769875  0.98450660  1
  O2-  O120  1  0.24686189  -0.00487919  0.05820506  1
  O2-  O121  1  0.24568543  0.00683551  0.40077618  1
  O2-  O122  1  0.24967545  0.00117776  0.72362860  1
  O2-  O123  1  0.24240068  0.49966369  0.06297910  1
  O2-  O124  1  0.24367421  0.49837399  0.39230533  1
  O2-  O125  1  0.24535778  0.50429716  0.73118506  1
  O2-  O126  1  0.74663156  0.00456754  0.06774036  1
  O2-  O127  1  0.75012389  -0.00145702  0.39043509  1
  O2-  O128  1  0.74948072  0.00069944  0.72861854  1
  O2-  O129  1  0.74528283  0.49661039  0.06136229  1
  O2-  O130  1  0.75551938  0.50528946  0.39224448  1
  O2-  O131  1  0.74827057  0.50082437  0.73056124  1
  O2-  O132  1  0.00080661  0.25096978  0.26570364  1
  O2-  O133  1  -0.00542855  0.25333383  0.60872224  1
  O2-  O134  1  -0.00239812  0.24829328  0.94074977  1
  O2-  O135  1  -0.00379408  0.75398790  0.27106865  1
  O2-  O136  1  0.00260221  0.74150253  0.60843495  1
  O2-  O137  1  0.00172961  0.74793911  0.94228093  1
  O2-  O138  1  0.49180795  0.24854566  0.27253951  1
  O2-  O139  1  0.50438727  0.25181439  0.61023068  1
  O2-  O140  1  0.49917297  0.24710152  0.94148515  1
  O2-  O141  1  0.49518572  0.75181450  0.27127802  1
  O2-  O142  1  0.49195215  0.75441668  0.60664795  1
  O2-  O143  1  0.49601190  0.75433709  0.93872714  1
  O2-  O144  1  0.07112603  0.18236913  0.08982722  1
  O2-  O145  1  0.06900027  0.18016946  0.42933731  1
  O2-  O146  1  0.07300945  0.17935284  0.76702772  1
  O2-  O147  1  0.07427885  0.67998784  0.08955304  1
  O2-  O148  1  0.06982968  0.68181392  0.43443231  1
  O2-  O149  1  0.07601687  0.68183213  0.75945127  1
  O2-  O150  1  0.57054495  0.17821719  0.08905492  1
  O2-  O151  1  0.57204832  0.17934579  0.43418420  1
  O2-  O152  1  0.56640397  0.17777306  0.76032263  1
  O2-  O153  1  0.56878332  0.67809963  0.09806273  1
  O2-  O154  1  0.57025640  0.67832488  0.43194789  1
  O2-  O155  1  0.56858794  0.68153429  0.76580122  1
  O2-  O156  1  0.17690828  0.43086741  0.24235089  1
  O2-  O157  1  0.18206761  0.42637799  0.56683618  1
  O2-  O158  1  0.17965448  0.42582207  0.91296407  1
  O2-  O159  1  0.18171765  0.93004542  0.23617396  1
  O2-  O160  1  0.17849492  0.92877050  0.57766926  1
  O2-  O161  1  0.17561771  0.92900361  0.90936875  1
  O2-  O162  1  0.68160340  0.43075303  0.23229801  1
  O2-  O163  1  0.67853800  0.42525722  0.56891214  1
  O2-  O164  1  0.67809217  0.42665859  0.91198866  1
  O2-  O165  1  0.68032052  0.92721216  0.24385299  1
  O2-  O166  1  0.67772863  0.93105819  0.56550913  1
  O2-  O167  1  0.68260131  0.92828634  0.90345811  1
  O2-  O168  1  0.42770813  0.31963560  0.08850463  1
  O2-  O169  1  0.43163110  0.32351031  0.42251705  1
  O2-  O170  1  0.42731707  0.31593373  0.75673494  1
  O2-  O171  1  0.42582384  0.82204410  0.08877282  1
  O2-  O172  1  0.43091213  0.82205661  0.42260831  1
  O2-  O173  1  0.42269353  0.83068402  0.75367879  1
  O2-  O174  1  0.92903720  0.32291708  0.08638730  1
  O2-  O175  1  0.92710828  0.31968186  0.43167497  1
  O2-  O176  1  0.92830211  0.32277950  0.75789606  1
  O2-  O177  1  0.93320167  0.82016343  0.08995839  1
  O2-  O178  1  0.92406150  0.82267647  0.41875635  1
  O2-  O179  1  0.93186104  0.81983543  0.76677182  1
  O2-  O180  1  0.32315273  0.06924395  0.23699514  1
  O2-  O181  1  0.32212062  0.07216552  0.57618048  1
  O2-  O182  1  0.31677941  0.07232352  0.89894504  1
  O2-  O183  1  0.32156400  0.56850870  0.23372015  1
  O2-  O184  1  0.32069718  0.57144879  0.56924625  1
  O2-  O185  1  0.31933350  0.56744665  0.90225927  1
  O2-  O186  1  0.81699753  0.06971303  0.24213838  1
  O2-  O187  1  0.82176285  0.07053541  0.56493535  1
  O2-  O188  1  0.82457789  0.06947281  0.90382193  1
  O2-  O189  1  0.82219150  0.57341369  0.24275849  1
  O2-  O190  1  0.82078970  0.57020299  0.56456344  1
  O2-  O191  1  0.82167867  0.57052486  0.90252407  1
  O2-  O192  1  0.04406460  0.07989191  0.26321624  1
  O2-  O193  1  0.04336652  0.08334247  0.59780021  1
  O2-  O194  1  0.04491170  0.08596806  0.94012431  1
  O2-  O195  1  0.04537151  0.58625662  0.26198881  1
  O2-  O196  1  0.05498670  0.58082464  0.61125321  1
  O2-  O197  1  0.04743382  0.58406739  0.93994882  1
  O2-  O198  1  0.54161587  0.08038278  0.26602197  1
  O2-  O199  1  0.54122228  0.08725773  0.60740136  1
  O2-  O200  1  0.54297367  0.08413769  0.93820341  1
  O2-  O201  1  0.53900975  0.58086742  0.26573957  1
  O2-  O202  1  0.53697243  0.58151719  0.60104448  1
  O2-  O203  1  0.53868329  0.58142181  0.93215100  1
  O2-  O204  1  0.17213698  0.20636516  0.26419056  1
  O2-  O205  1  0.16759975  0.21127594  0.59867800  1
  O2-  O206  1  0.16216442  0.20960706  0.93810335  1
  O2-  O207  1  0.16801331  0.71595686  0.26703984  1
  O2-  O208  1  0.16739320  0.70764635  0.60809503  1
  O2-  O209  1  0.16488290  0.70608770  0.93630246  1
  O2-  O210  1  0.66336123  0.21167909  0.26269636  1
  O2-  O211  1  0.66538741  0.20319329  0.61070367  1
  O2-  O212  1  0.66312891  0.20537831  0.93704614  1
  O2-  O213  1  0.66644294  0.70933398  0.26447397  1
  O2-  O214  1  0.66329827  0.71041580  0.59578557  1
  O2-  O215  1  0.66940201  0.71046965  0.93485245  1
  O2-  O216  1  0.08271218  0.44872268  0.06229093  1
  O2-  O217  1  0.08087737  0.45525191  0.39226977  1
  O2-  O218  1  0.08025374  0.44832315  0.73603931  1
  O2-  O219  1  0.08467987  0.95274175  0.06292191  1
  O2-  O220  1  0.07633588  0.95465686  0.40029727  1
  O2-  O221  1  0.08762641  0.95875583  0.73023461  1
  O2-  O222  1  0.58252109  0.45106144  0.06179545  1
  O2-  O223  1  0.58566867  0.45831070  0.40089513  1
  O2-  O224  1  0.57804778  0.45173556  0.73445960  1
  O2-  O225  1  0.57991224  0.95146905  0.06896299  1
  O2-  O226  1  0.58734368  0.95361480  0.39545774  1
  O2-  O227  1  0.57899943  0.95523405  0.73416055  1
  O2-  O228  1  0.20790963  0.33599328  0.06575224  1
  O2-  O229  1  0.19969773  0.33557129  0.39313057  1
  O2-  O230  1  0.21464117  0.33161669  0.73563202  1
  O2-  O231  1  0.20173631  0.83339361  0.06081664  1
  O2-  O232  1  0.20937486  0.83531031  0.40640223  1
  O2-  O233  1  0.20561863  0.83963848  0.73309773  1
  O2-  O234  1  0.70334280  0.33384261  0.06253138  1
  O2-  O235  1  0.71213310  0.33234338  0.39832247  1
  O2-  O236  1  0.70479739  0.33020253  0.73971331  1
  O2-  O237  1  0.71385407  0.83260062  0.07177255  1
  O2-  O238  1  0.70909339  0.83530531  0.39493750  1
  O2-  O239  1  0.70842719  0.83098607  0.73094350  1
  O2-  O240  1  0.46198673  0.41282437  0.26806686  1
  O2-  O241  1  0.45292811  0.41260373  0.60508409  1
  O2-  O242  1  0.45708354  0.40915052  0.93376473  1
  O2-  O243  1  0.45566102  0.91467672  0.27057336  1
  O2-  O244  1  0.45177634  0.91899138  0.60044633  1
  O2-  O245  1  0.45143946  0.91730361  0.93751448  1
  O2-  O246  1  0.95436259  0.41986047  0.26242015  1
  O2-  O247  1  0.95303833  0.41669356  0.60562710  1
  O2-  O248  1  0.95813913  0.41282931  0.93358517  1
  O2-  O249  1  0.95252499  0.91610951  0.26632868  1
  O2-  O250  1  0.96319250  0.91286145  0.59663919  1
  O2-  O251  1  0.95954135  0.91174259  0.93742397  1
  O2-  O252  1  0.33331587  0.30544087  0.27117442  1
  O2-  O253  1  0.34047699  0.28800559  0.60135636  1
  O2-  O254  1  0.33619445  0.28957091  0.93601760  1
  O2-  O255  1  0.33372682  0.79947827  0.27270116  1
  O2-  O256  1  0.33017835  0.80227317  0.60292655  1
  O2-  O257  1  0.33280666  0.79825556  0.93685182  1
  O2-  O258  1  0.83204368  0.28996139  0.26118071  1
  O2-  O259  1  0.83170115  0.29869399  0.60805434  1
  O2-  O260  1  0.83461795  0.29696263  0.93530142  1
  O2-  O261  1  0.83442318  0.79673791  0.26436182  1
  O2-  O262  1  0.83371110  0.79062222  0.59573668  1
  O2-  O263  1  0.83923184  0.79074536  0.93899870  1
  O2-  O264  1  0.41639086  0.04310966  0.06689884  1
  O2-  O265  1  0.41984470  0.04127390  0.40375099  1
  O2-  O266  1  0.41138211  0.04405145  0.73032203  1
  O2-  O267  1  0.41591063  0.53326918  0.06741070  1
  O2-  O268  1  0.41579511  0.53561538  0.40151418  1
  O2-  O269  1  0.41569788  0.53741363  0.73712940  1
  O2-  O270  1  0.91921218  0.04059847  0.07099101  1
  O2-  O271  1  0.91217202  0.04494699  0.39209501  1
  O2-  O272  1  0.92165588  0.03826713  0.73133131  1
  O2-  O273  1  0.91843044  0.53858667  0.06825128  1
  O2-  O274  1  0.91880542  0.55078490  0.39158688  1
  O2-  O275  1  0.91904535  0.54708736  0.73353692  1
  O2-  O276  1  0.28918880  0.16694375  0.06811914  1
  O2-  O277  1  0.30007071  0.17554838  0.39973332  1
  O2-  O278  1  0.29253912  0.16306851  0.72861041  1
  O2-  O279  1  0.29339871  0.66807228  0.06738842  1
  O2-  O280  1  0.29361175  0.66804489  0.40022527  1
  O2-  O281  1  0.29824202  0.67351399  0.73626217  1
  O2-  O282  1  0.79605359  0.17256798  0.06734085  1
  O2-  O283  1  0.78951597  0.16228587  0.39295429  1
  O2-  O284  1  0.79932864  0.16788232  0.73449053  1
  O2-  O285  1  0.79423141  0.66632389  0.07100928  1
  O2-  O286  1  0.79825441  0.66903283  0.39172922  1
  O2-  O287  1  0.79014364  0.66941316  0.73081524  1
