# generated using pymatgen
data_Ca2Al2SiO7
_symmetry_space_group_name_H-M   'P 1'
_cell_length_a   15.47084914
_cell_length_b   15.47170752
_cell_length_c   15.29385767
_cell_angle_alpha   90.01162930
_cell_angle_beta   90.00636536
_cell_angle_gamma   89.99139623
_symmetry_Int_Tables_number   1
_chemical_formula_structural   Ca2Al2SiO7
_chemical_formula_sum   'Ca48 Al48 Si24 O168'
_cell_volume   3660.74456132
_cell_formula_units_Z   24
loop_
 _symmetry_equiv_pos_site_id
 _symmetry_equiv_pos_as_xyz
  1  'x, y, z'
loop_
 _atom_type_symbol
 _atom_type_oxidation_number
  Ca2+  2.0
  Al0+  0.0
  Si0+  0.0
  O2-  -2.0
loop_
 _atom_site_type_symbol
 _atom_site_label
 _atom_site_symmetry_multiplicity
 _atom_site_fract_x
 _atom_site_fract_y
 _atom_site_fract_z
 _atom_site_occupancy
  Ca2+  Ca0  1  0.16394359  0.07615720  0.17902701  1
  Ca2+  Ca1  1  0.15942153  0.07852680  0.49375443  1
  Ca2+  Ca2  1  0.16757868  0.08207908  0.83779046  1
  Ca2+  Ca3  1  0.16606673  0.57623760  0.17770509  1
  Ca2+  Ca4  1  0.16478531  0.58496811  0.49546308  1
  Ca2+  Ca5  1  0.15872419  0.58028719  0.83977977  1
  Ca2+  Ca6  1  0.66930497  0.07456473  0.17790126  1
  Ca2+  Ca7  1  0.66703591  0.07795066  0.49781100  1
  Ca2+  Ca8  1  0.67127412  0.07052737  0.83860365  1
  Ca2+  Ca9  1  0.67938710  0.58365888  0.17799091  1
  Ca2+  Ca10  1  0.66986242  0.58272900  0.49347792  1
  Ca2+  Ca11  1  0.67791975  0.58249431  0.84157457  1
  Ca2+  Ca12  1  0.08471954  0.33564620  0.16915470  1
  Ca2+  Ca13  1  0.07335758  0.32967703  0.48816008  1
  Ca2+  Ca14  1  0.07842093  0.33645367  0.82969444  1
  Ca2+  Ca15  1  0.07860278  0.82151861  0.16332123  1
  Ca2+  Ca16  1  0.08178051  0.82432484  0.48995550  1
  Ca2+  Ca17  1  0.07018796  0.82128863  0.82592563  1
  Ca2+  Ca18  1  0.57380588  0.34243670  0.16942803  1
  Ca2+  Ca19  1  0.58013813  0.32954184  0.48104101  1
  Ca2+  Ca20  1  0.57660839  0.33455547  0.83117654  1
  Ca2+  Ca21  1  0.58567672  0.83480360  0.16838986  1
  Ca2+  Ca22  1  0.57916535  0.83454190  0.48830653  1
  Ca2+  Ca23  1  0.58960659  0.83585805  0.83074645  1
  Ca2+  Ca24  1  0.32578411  0.41680385  0.17658900  1
  Ca2+  Ca25  1  0.33161734  0.41907698  0.49515124  1
  Ca2+  Ca26  1  0.32515684  0.41951447  0.84501551  1
  Ca2+  Ca27  1  0.32628074  0.91399489  0.17849976  1
  Ca2+  Ca28  1  0.32709395  0.90871386  0.49381663  1
  Ca2+  Ca29  1  0.33033447  0.92004388  0.83709678  1
  Ca2+  Ca30  1  0.83298963  0.42759343  0.17923897  1
  Ca2+  Ca31  1  0.83878727  0.41750222  0.49537446  1
  Ca2+  Ca32  1  0.83877327  0.42364555  0.83917151  1
  Ca2+  Ca33  1  0.82668600  0.91782752  0.17570582  1
  Ca2+  Ca34  1  0.82533016  0.91705346  0.50135868  1
  Ca2+  Ca35  1  0.82737804  0.90376363  0.83798352  1
  Ca2+  Ca36  1  0.42180072  0.17756770  0.16941656  1
  Ca2+  Ca37  1  0.42483326  0.17325571  0.48642591  1
  Ca2+  Ca38  1  0.41612600  0.17342785  0.83327653  1
  Ca2+  Ca39  1  0.42115588  0.66306151  0.17521580  1
  Ca2+  Ca40  1  0.42349189  0.66988717  0.48383320  1
  Ca2+  Ca41  1  0.42136144  0.66841661  0.83068260  1
  Ca2+  Ca42  1  0.91378881  0.16937539  0.17403966  1
  Ca2+  Ca43  1  0.91517638  0.17509079  0.48775092  1
  Ca2+  Ca44  1  0.91676227  0.17563862  0.82775351  1
  Ca2+  Ca45  1  0.92314726  0.66160855  0.16239308  1
  Ca2+  Ca46  1  0.92443618  0.66932529  0.49482489  1
  Ca2+  Ca47  1  0.92168048  0.67050770  0.83283929  1
  Al0+  Al48  1  -0.00107595  0.00083330  -0.00542922  1
  Al0+  Al49  1  -0.00079194  0.00038618  0.33890260  1
  Al0+  Al50  1  -0.00094888  0.00042676  0.66692221  1
  Al0+  Al51  1  0.00136294  0.49850127  0.00399022  1
  Al0+  Al52  1  0.00048850  0.49986039  0.33532323  1
  Al0+  Al53  1  0.00068888  0.49910118  0.66047002  1
  Al0+  Al54  1  0.50093384  0.00093960  0.00134141  1
  Al0+  Al55  1  0.49728758  0.00134036  0.32859215  1
  Al0+  Al56  1  0.49995993  0.00085696  0.67315049  1
  Al0+  Al57  1  0.49888070  0.50080072  -0.00745177  1
  Al0+  Al58  1  0.50019451  0.50264669  0.33202406  1
  Al0+  Al59  1  0.49848972  0.50067080  0.66916910  1
  Al0+  Al60  1  0.25124580  0.25057651  -0.00187599  1
  Al0+  Al61  1  0.24925002  0.24868111  0.33172826  1
  Al0+  Al62  1  0.25030471  0.25097042  0.66841697  1
  Al0+  Al63  1  0.25229865  0.74959155  -0.00525350  1
  Al0+  Al64  1  0.24952868  0.74929421  0.33277410  1
  Al0+  Al65  1  0.25225037  0.74982782  0.66761901  1
  Al0+  Al66  1  0.74854978  0.24779217  -0.00279852  1
  Al0+  Al67  1  0.75062298  0.24928019  0.33036050  1
  Al0+  Al68  1  0.74783429  0.24902568  0.66593156  1
  Al0+  Al69  1  0.74951075  0.74897999  0.00519716  1
  Al0+  Al70  1  0.74973530  0.75001412  0.33971703  1
  Al0+  Al71  1  0.75054090  0.74743608  0.66759027  1
  Al0+  Al72  1  0.92821188  0.31929464  0.65361933  1
  Al0+  Al73  1  0.42965949  0.32062426  0.98435525  1
  Al0+  Al74  1  0.92909503  0.32159198  0.31599649  1
  Al0+  Al75  1  0.92768743  0.82125390  0.98699903  1
  Al0+  Al76  1  0.07226955  0.67691386  0.98569754  1
  Al0+  Al77  1  0.82386655  0.57245431  0.35127640  1
  Al0+  Al78  1  0.07029365  0.17729361  0.31851389  1
  Al0+  Al79  1  0.17889772  0.42637638  0.35049617  1
  Al0+  Al80  1  0.82044891  0.56832148  0.01296446  1
  Al0+  Al81  1  0.67947158  0.42987387  0.34564246  1
  Al0+  Al82  1  0.92619499  0.82139934  0.64965005  1
  Al0+  Al83  1  0.68072639  0.92961910  0.01535382  1
  Al0+  Al84  1  0.17816282  0.92784123  0.34515936  1
  Al0+  Al85  1  0.42864036  0.32339711  0.31933449  1
  Al0+  Al86  1  0.57380687  0.68010583  0.31819478  1
  Al0+  Al87  1  0.82108183  0.07100533  0.34863445  1
  Al0+  Al88  1  0.18073231  0.42975462  0.01363737  1
  Al0+  Al89  1  0.06995542  0.67941912  0.31905958  1
  Al0+  Al90  1  0.32009520  0.57082500  0.34785774  1
  Al0+  Al91  1  0.67631969  0.92940160  0.34890898  1
  Al0+  Al92  1  0.42853755  0.82119282  0.31822407  1
  Al0+  Al93  1  0.68057473  0.92945343  0.68150152  1
  Al0+  Al94  1  0.07278017  0.67989434  0.64944198  1
  Al0+  Al95  1  0.57312535  0.17806525  0.31777936  1
  Si0+  Si96  1  0.82230765  0.07421642  0.68510139  1
  Si0+  Si97  1  0.82118273  0.56717268  0.68270051  1
  Si0+  Si98  1  0.92875642  0.32019181  0.98613833  1
  Si0+  Si99  1  0.67566597  0.42741046  0.68230951  1
  Si0+  Si100  1  0.17830209  0.92746363  0.68310021  1
  Si0+  Si101  1  0.42952881  0.82432593  0.98275872  1
  Si0+  Si102  1  0.57017852  0.67782311  0.65348265  1
  Si0+  Si103  1  0.67615781  0.42649502  0.01351093  1
  Si0+  Si104  1  0.32322998  0.57170072  0.68422970  1
  Si0+  Si105  1  0.07439807  0.17791306  0.65138157  1
  Si0+  Si106  1  0.82394831  0.07491325  0.01629568  1
  Si0+  Si107  1  0.32479207  0.57424315  0.01615353  1
  Si0+  Si108  1  0.57166891  0.17620648  0.97965239  1
  Si0+  Si109  1  0.92765433  0.82228269  0.31900826  1
  Si0+  Si110  1  0.43098007  0.82274448  0.65382692  1
  Si0+  Si111  1  0.42852327  0.32181527  0.65174193  1
  Si0+  Si112  1  0.18055283  0.43029265  0.68213157  1
  Si0+  Si113  1  0.57075184  0.68062462  0.98404338  1
  Si0+  Si114  1  0.56771914  0.17918913  0.65338062  1
  Si0+  Si115  1  0.32041503  0.07112181  0.01492319  1
  Si0+  Si116  1  0.17936474  0.92954546  0.01177070  1
  Si0+  Si117  1  0.31998151  0.07144946  0.68279451  1
  Si0+  Si118  1  0.07230516  0.17848177  0.98411010  1
  Si0+  Si119  1  0.32090881  0.07184413  0.34936150  1
  O2-  O120  1  0.25017301  -0.00045543  0.05580619  1
  O2-  O121  1  0.25244946  0.00295445  0.39354342  1
  O2-  O122  1  0.24668748  0.00221484  0.72527034  1
  O2-  O123  1  0.25340569  0.50759909  0.05700113  1
  O2-  O124  1  0.25029171  0.49871438  0.40118063  1
  O2-  O125  1  0.24961113  0.50297904  0.72591946  1
  O2-  O126  1  0.75729400  0.00359737  0.05799964  1
  O2-  O127  1  0.74836904  0.00046164  0.39970367  1
  O2-  O128  1  0.75950567  -0.00010381  0.72968716  1
  O2-  O129  1  0.74744354  0.49117388  0.05679344  1
  O2-  O130  1  0.75180613  0.49885019  0.39989903  1
  O2-  O131  1  0.74967207  0.49527401  0.72498203  1
  O2-  O132  1  0.00225626  0.25070568  0.26564008  1
  O2-  O133  1  0.00016287  0.24085210  0.60994907  1
  O2-  O134  1  -0.00041302  0.24867182  0.94297117  1
  O2-  O135  1  -0.00786817  0.75083944  0.27328963  1
  O2-  O136  1  0.00376538  0.75524945  0.60076819  1
  O2-  O137  1  0.00104815  0.75024145  0.93660274  1
  O2-  O138  1  0.50443730  0.25469285  0.26992387  1
  O2-  O139  1  0.50191065  0.25415556  0.61046226  1
  O2-  O140  1  0.50564748  0.24797938  0.93503434  1
  O2-  O141  1  0.50386393  0.75379433  0.26721408  1
  O2-  O142  1  0.50184351  0.75188666  0.61321973  1
  O2-  O143  1  0.50048557  0.75280609  0.94080270  1
  O2-  O144  1  0.07522511  0.17523592  0.08787472  1
  O2-  O145  1  0.06881901  0.17773432  0.43255805  1
  O2-  O146  1  0.07784626  0.18095793  0.75781584  1
  O2-  O147  1  0.07353853  0.67853753  0.09842362  1
  O2-  O148  1  0.07099862  0.68319728  0.43207406  1
  O2-  O149  1  0.07125455  0.67844303  0.76345727  1
  O2-  O150  1  0.57042733  0.17354060  0.08385292  1
  O2-  O151  1  0.56785235  0.17751013  0.43255267  1
  O2-  O152  1  0.56471090  0.18019630  0.75880909  1
  O2-  O153  1  0.56997607  0.67865654  0.08790114  1
  O2-  O154  1  0.57058186  0.68032238  0.43258972  1
  O2-  O155  1  0.56794013  0.67670915  0.75933408  1
  O2-  O156  1  0.18128150  0.42747876  0.23676977  1
  O2-  O157  1  0.18392957  0.42644488  0.57832723  1
  O2-  O158  1  0.18097967  0.42906023  0.89921216  1
  O2-  O159  1  0.17933599  0.92884686  0.23153918  1
  O2-  O160  1  0.18150419  0.92615720  0.57871770  1
  O2-  O161  1  0.18301121  0.93301132  0.90603070  1
  O2-  O162  1  0.67957683  0.43353736  0.23175246  1
  O2-  O163  1  0.66983211  0.42853888  0.57855503  1
  O2-  O164  1  0.67670049  0.42873562  0.90675578  1
  O2-  O165  1  0.67856123  0.93062076  0.23531314  1
  O2-  O166  1  0.67377996  0.93365554  0.57010421  1
  O2-  O167  1  0.68034107  0.93092303  0.90141517  1
  O2-  O168  1  0.42978326  0.31977540  0.09601753  1
  O2-  O169  1  0.42919651  0.31962332  0.43389295  1
  O2-  O170  1  0.42796045  0.32017236  0.75722151  1
  O2-  O171  1  0.42661394  0.82738495  0.08646828  1
  O2-  O172  1  0.42882035  0.81975159  0.43279859  1
  O2-  O173  1  0.43010696  0.82215247  0.75960557  1
  O2-  O174  1  0.92752680  0.31969464  0.08988120  1
  O2-  O175  1  0.93033204  0.31891390  0.42993618  1
  O2-  O176  1  0.93154131  0.32035092  0.76802691  1
  O2-  O177  1  0.93040418  0.82413636  0.09978392  1
  O2-  O178  1  0.93087114  0.82220761  0.42473831  1
  O2-  O179  1  0.92617722  0.81611478  0.76360978  1
  O2-  O180  1  0.31974142  0.07126303  0.24354947  1
  O2-  O181  1  0.32271012  0.07314573  0.57887569  1
  O2-  O182  1  0.31893828  0.07039677  0.90867448  1
  O2-  O183  1  0.31818477  0.57088560  0.23411246  1
  O2-  O184  1  0.32917981  0.57065480  0.58051073  1
  O2-  O185  1  0.32725234  0.57241946  0.90958885  1
  O2-  O186  1  0.82269076  0.06631310  0.23463760  1
  O2-  O187  1  0.81819858  0.07895421  0.58082754  1
  O2-  O188  1  0.82194060  0.07988767  0.91036145  1
  O2-  O189  1  0.82322750  0.57176726  0.23749000  1
  O2-  O190  1  0.81996388  0.56738453  0.57863254  1
  O2-  O191  1  0.81892547  0.56664579  0.89861327  1
  O2-  O192  1  0.04041289  0.07858672  0.26635938  1
  O2-  O193  1  0.05651682  0.08133938  0.60992420  1
  O2-  O194  1  0.04561897  0.08796062  0.93221334  1
  O2-  O195  1  0.04249343  0.58182237  0.26752985  1
  O2-  O196  1  0.04334848  0.58194536  0.59821817  1
  O2-  O197  1  0.04090860  0.57837385  0.93291129  1
  O2-  O198  1  0.53752797  0.08375640  0.26193443  1
  O2-  O199  1  0.53388417  0.08884455  0.60794199  1
  O2-  O200  1  0.54017167  0.08459268  0.93110836  1
  O2-  O201  1  0.54214597  0.58404918  0.26325685  1
  O2-  O202  1  0.53839106  0.58714211  0.60693569  1
  O2-  O203  1  0.54238282  0.59030215  0.93207829  1
  O2-  O204  1  0.16991302  0.20047268  0.26630258  1
  O2-  O205  1  0.16665347  0.20763618  0.60546571  1
  O2-  O206  1  0.16309475  0.20771135  0.93426570  1
  O2-  O207  1  0.16483652  0.71307871  0.26511931  1
  O2-  O208  1  0.17410023  0.70574365  0.60141931  1
  O2-  O209  1  0.17169952  0.70339623  0.93137927  1
  O2-  O210  1  0.67186011  0.19918370  0.26491966  1
  O2-  O211  1  0.66119270  0.20078226  0.60843417  1
  O2-  O212  1  0.66588588  0.19963103  0.93218461  1
  O2-  O213  1  0.67324896  0.70657308  0.26715079  1
  O2-  O214  1  0.66323187  0.70030079  0.60885269  1
  O2-  O215  1  0.66207111  0.70885168  0.93564468  1
  O2-  O216  1  0.08395240  0.45492944  0.06748369  1
  O2-  O217  1  0.08132535  0.45537731  0.40301522  1
  O2-  O218  1  0.08740315  0.45723192  0.72817968  1
  O2-  O219  1  0.08700144  0.95792710  0.05582061  1
  O2-  O220  1  0.08480704  0.95967781  0.40388253  1
  O2-  O221  1  0.08560881  0.95304383  0.73069748  1
  O2-  O222  1  0.58244111  0.45573765  0.05564463  1
  O2-  O223  1  0.58146974  0.45873694  0.39963074  1
  O2-  O224  1  0.58521792  0.45888903  0.73298748  1
  O2-  O225  1  0.58298040  0.96088672  0.06600016  1
  O2-  O226  1  0.57634211  0.95891389  0.39846837  1
  O2-  O227  1  0.58485253  0.96391385  0.73861095  1
  O2-  O228  1  0.21369578  0.33289375  0.06463096  1
  O2-  O229  1  0.20728655  0.32737088  0.40267456  1
  O2-  O230  1  0.21003615  0.33882580  0.73164388  1
  O2-  O231  1  0.20803183  0.83691244  0.05577225  1
  O2-  O232  1  0.21341362  0.83458046  0.40208385  1
  O2-  O233  1  0.21170588  0.83803045  0.73271755  1
  O2-  O234  1  0.69554003  0.33017534  0.05463388  1
  O2-  O235  1  0.70403103  0.33000514  0.39678001  1
  O2-  O236  1  0.69940441  0.33399994  0.72955136  1
  O2-  O237  1  0.70658555  0.83248536  0.06831558  1
  O2-  O238  1  0.70244134  0.83158996  0.40309113  1
  O2-  O239  1  0.70724231  0.82992732  0.73424220  1
  O2-  O240  1  0.45446890  0.42137718  0.26584382  1
  O2-  O241  1  0.45322042  0.41551201  0.60816442  1
  O2-  O242  1  0.45833659  0.41712730  0.92654624  1
  O2-  O243  1  0.44944168  0.92057281  0.26506200  1
  O2-  O244  1  0.45796779  0.91536767  0.60898854  1
  O2-  O245  1  0.45762914  0.91598084  0.93363647  1
  O2-  O246  1  0.95765761  0.42021348  0.26542697  1
  O2-  O247  1  0.96126491  0.41339685  0.59892759  1
  O2-  O248  1  0.95926879  0.41065646  0.93736054  1
  O2-  O249  1  0.95671483  0.91462422  0.27393462  1
  O2-  O250  1  0.94689070  0.92438228  0.60385630  1
  O2-  O251  1  0.95329941  0.92015742  0.93075238  1
  O2-  O252  1  0.33248914  0.28979404  0.26620338  1
  O2-  O253  1  0.33726057  0.29121891  0.60623364  1
  O2-  O254  1  0.33469404  0.28533118  0.92747832  1
  O2-  O255  1  0.33200953  0.78914517  0.26416674  1
  O2-  O256  1  0.33881135  0.79615323  0.60790215  1
  O2-  O257  1  0.33887381  0.79636492  0.93158020  1
  O2-  O258  1  0.83169354  0.29304632  0.26228452  1
  O2-  O259  1  0.82920538  0.29347145  0.60282757  1
  O2-  O260  1  0.83641336  0.29396813  0.93661037  1
  O2-  O261  1  0.83216962  0.80085821  0.27688961  1
  O2-  O262  1  0.82883989  0.78861346  0.59824070  1
  O2-  O263  1  0.82959179  0.78816582  0.93454832  1
  O2-  O264  1  0.41267201  0.04475115  0.05976369  1
  O2-  O265  1  0.41347745  0.04574848  0.39664872  1
  O2-  O266  1  0.40908917  0.04065881  0.73493886  1
  O2-  O267  1  0.41833230  0.54576168  0.05968260  1
  O2-  O268  1  0.41899147  0.54463001  0.40108226  1
  O2-  O269  1  0.41320567  0.54099152  0.73593269  1
  O2-  O270  1  0.91960895  0.05288924  0.05856517  1
  O2-  O271  1  0.91797650  0.04345727  0.40504008  1
  O2-  O272  1  0.91935322  0.05701690  0.72898119  1
  O2-  O273  1  0.91627300  0.53828690  0.06646318  1
  O2-  O274  1  0.92070241  0.54261088  0.40534437  1
  O2-  O275  1  0.91321775  0.53705038  0.72919268  1
  O2-  O276  1  0.29247231  0.16266662  0.06029299  1
  O2-  O277  1  0.29540967  0.16407041  0.39768124  1
  O2-  O278  1  0.29229225  0.16344157  0.73251267  1
  O2-  O279  1  0.30466577  0.67026645  0.05822647  1
  O2-  O280  1  0.29072953  0.66832990  0.40212646  1
  O2-  O281  1  0.29975908  0.66524191  0.73164301  1
  O2-  O282  1  0.79567291  0.16764852  0.06264279  1
  O2-  O283  1  0.79415112  0.16997818  0.40023374  1
  O2-  O284  1  0.79000531  0.16561622  0.73472939  1
  O2-  O285  1  0.78781064  0.66282348  0.06733608  1
  O2-  O286  1  0.79394806  0.66912557  0.40634882  1
  O2-  O287  1  0.79102358  0.65791961  0.73151117  1
