# generated using pymatgen
data_Ca2Al2SiO7
_symmetry_space_group_name_H-M   'P 1'
_cell_length_a   15.45526230
_cell_length_b   15.45472832
_cell_length_c   15.28154721
_cell_angle_alpha   89.99592734
_cell_angle_beta   90.00263252
_cell_angle_gamma   89.99124591
_symmetry_Int_Tables_number   1
_chemical_formula_structural   Ca2Al2SiO7
_chemical_formula_sum   'Ca48 Al48 Si24 O168'
_cell_volume   3650.10263355
_cell_formula_units_Z   24
loop_
 _symmetry_equiv_pos_site_id
 _symmetry_equiv_pos_as_xyz
  1  'x, y, z'
loop_
 _atom_type_symbol
 _atom_type_oxidation_number
  Ca2+  2.0
  Al0+  0.0
  Si0+  0.0
  O2-  -2.0
loop_
 _atom_site_type_symbol
 _atom_site_label
 _atom_site_symmetry_multiplicity
 _atom_site_fract_x
 _atom_site_fract_y
 _atom_site_fract_z
 _atom_site_occupancy
  Ca2+  Ca0  1  0.17142202  0.07814623  0.17783198  1
  Ca2+  Ca1  1  0.16946001  0.07228043  0.50517685  1
  Ca2+  Ca2  1  0.15830128  0.07953775  0.83633646  1
  Ca2+  Ca3  1  0.16696712  0.59142803  0.16814960  1
  Ca2+  Ca4  1  0.16994753  0.58551610  0.50525131  1
  Ca2+  Ca5  1  0.17776639  0.58915072  0.83845275  1
  Ca2+  Ca6  1  0.66375235  0.07952844  0.17373886  1
  Ca2+  Ca7  1  0.65714880  0.08044476  0.50006816  1
  Ca2+  Ca8  1  0.66489694  0.08647875  0.83801840  1
  Ca2+  Ca9  1  0.66910539  0.58270314  0.17081573  1
  Ca2+  Ca10  1  0.68063532  0.57973083  0.50873500  1
  Ca2+  Ca11  1  0.66611240  0.57023907  0.84087400  1
  Ca2+  Ca12  1  0.08195460  0.32591616  0.16036343  1
  Ca2+  Ca13  1  0.08041953  0.33230956  0.49897877  1
  Ca2+  Ca14  1  0.08120948  0.32146228  0.82491325  1
  Ca2+  Ca15  1  0.07638886  0.82829551  0.16463778  1
  Ca2+  Ca16  1  0.08158987  0.83006449  0.49079804  1
  Ca2+  Ca17  1  0.08041124  0.83110916  0.83207271  1
  Ca2+  Ca18  1  0.58186154  0.32642845  0.16279249  1
  Ca2+  Ca19  1  0.58337295  0.32575805  0.49602927  1
  Ca2+  Ca20  1  0.59434466  0.32679635  0.82836574  1
  Ca2+  Ca21  1  0.58052523  0.83055823  0.16509995  1
  Ca2+  Ca22  1  0.57056646  0.83801955  0.49237892  1
  Ca2+  Ca23  1  0.57589717  0.82228468  0.82816505  1
  Ca2+  Ca24  1  0.33571156  0.42127242  0.16926573  1
  Ca2+  Ca25  1  0.33658408  0.42203838  0.50351375  1
  Ca2+  Ca26  1  0.33743375  0.42942499  0.83818802  1
  Ca2+  Ca27  1  0.32857240  0.92296178  0.18007082  1
  Ca2+  Ca28  1  0.32573306  0.91321391  0.50333392  1
  Ca2+  Ca29  1  0.32822726  0.91312736  0.83187442  1
  Ca2+  Ca30  1  0.82653248  0.42254368  0.17228442  1
  Ca2+  Ca31  1  0.83330945  0.42649505  0.51007569  1
  Ca2+  Ca32  1  0.82739410  0.41465827  0.83245750  1
  Ca2+  Ca33  1  0.83012986  0.91075705  0.17399909  1
  Ca2+  Ca34  1  0.82654163  0.91274911  0.49903510  1
  Ca2+  Ca35  1  0.83479115  0.91785075  0.83842350  1
  Ca2+  Ca36  1  0.42375530  0.16657465  0.16788798  1
  Ca2+  Ca37  1  0.42512789  0.16907563  0.48912915  1
  Ca2+  Ca38  1  0.42929131  0.16893049  0.82740148  1
  Ca2+  Ca39  1  0.41762845  0.67405815  0.16048312  1
  Ca2+  Ca40  1  0.41093347  0.67681365  0.49752276  1
  Ca2+  Ca41  1  0.41735274  0.66363172  0.82904083  1
  Ca2+  Ca42  1  0.92363154  0.16504814  0.15998369  1
  Ca2+  Ca43  1  0.91977320  0.17203123  0.50339686  1
  Ca2+  Ca44  1  0.92565214  0.17245138  0.82593567  1
  Ca2+  Ca45  1  0.92223075  0.67421321  0.16471438  1
  Ca2+  Ca46  1  0.91962246  0.66637272  0.48793703  1
  Ca2+  Ca47  1  0.91837509  0.66723471  0.83202686  1
  Al0+  Al48  1  -0.00124826  0.00028872  -0.00520213  1
  Al0+  Al49  1  -0.00150674  -0.00013075  0.33519493  1
  Al0+  Al50  1  -0.00020760  -0.00169718  0.66662502  1
  Al0+  Al51  1  0.00003341  0.50100701  -0.00327508  1
  Al0+  Al52  1  0.00098432  0.49957626  0.33168475  1
  Al0+  Al53  1  0.00106402  0.49992170  0.66951881  1
  Al0+  Al54  1  0.49900467  0.00135816  -0.00401811  1
  Al0+  Al55  1  0.50052447  0.00075588  0.33224065  1
  Al0+  Al56  1  0.49772179  -0.00135582  0.66137487  1
  Al0+  Al57  1  0.49949486  0.50083569  0.00766543  1
  Al0+  Al58  1  0.49958127  0.49802175  0.33235541  1
  Al0+  Al59  1  0.50270470  0.49943812  0.67328932  1
  Al0+  Al60  1  0.25141078  0.25051779  -0.00489501  1
  Al0+  Al61  1  0.25143276  0.25185810  0.33413606  1
  Al0+  Al62  1  0.25264380  0.24766847  0.66285734  1
  Al0+  Al63  1  0.24767600  0.75223919  0.00274646  1
  Al0+  Al64  1  0.25033474  0.75005570  0.32852387  1
  Al0+  Al65  1  0.24875643  0.75161898  0.67206380  1
  Al0+  Al66  1  0.75002613  0.24928332  0.00354468  1
  Al0+  Al67  1  0.75091446  0.24943445  0.32987983  1
  Al0+  Al68  1  0.75208540  0.24870862  0.66025213  1
  Al0+  Al69  1  0.74753141  0.75011642  -0.00855402  1
  Al0+  Al70  1  0.75010140  0.75059953  0.34006019  1
  Al0+  Al71  1  0.75004123  0.75022390  0.67193119  1
  Al0+  Al72  1  0.93123106  0.32162720  0.65123119  1
  Al0+  Al73  1  0.92779078  0.82053738  0.98334834  1
  Al0+  Al74  1  0.31938546  0.57023633  0.67893186  1
  Al0+  Al75  1  0.17833904  0.92794341  0.34784454  1
  Al0+  Al76  1  0.57176604  0.17939680  0.31623010  1
  Al0+  Al77  1  0.82046823  0.56939814  0.34514538  1
  Al0+  Al78  1  0.07362922  0.17592031  0.64893264  1
  Al0+  Al79  1  0.42863969  0.81710466  0.65308255  1
  Al0+  Al80  1  0.82435097  0.57342300  0.68498526  1
  Al0+  Al81  1  0.57059031  0.17975630  0.98574946  1
  Al0+  Al82  1  0.56904316  0.67787465  0.98714389  1
  Al0+  Al83  1  0.42730574  0.32341136  0.31695734  1
  Al0+  Al84  1  0.07168327  0.67730011  0.31898960  1
  Al0+  Al85  1  0.92697830  0.82193824  0.32073478  1
  Al0+  Al86  1  0.32133350  0.07264233  0.34888550  1
  Al0+  Al87  1  0.17841669  0.93091052  0.68289803  1
  Al0+  Al88  1  0.68059743  0.42776636  0.01739193  1
  Al0+  Al89  1  0.68164910  0.42764273  0.68110084  1
  Al0+  Al90  1  0.07229360  0.18011174  0.98772176  1
  Al0+  Al91  1  0.42900691  0.82055874  0.31925900  1
  Al0+  Al92  1  0.07206733  0.67886685  0.98238094  1
  Al0+  Al93  1  0.31920971  0.57218949  0.01672872  1
  Al0+  Al94  1  0.57106331  0.17914154  0.65179599  1
  Al0+  Al95  1  0.67976938  0.93011790  0.34599725  1
  Si0+  Si96  1  0.07046684  0.68095222  0.65344133  1
  Si0+  Si97  1  0.32154526  0.57124924  0.34716063  1
  Si0+  Si98  1  0.17741581  0.93196462  0.01638194  1
  Si0+  Si99  1  0.81975836  0.06852646  0.68121008  1
  Si0+  Si100  1  0.67770174  0.42635905  0.35023906  1
  Si0+  Si101  1  0.67526306  0.92955153  0.68311256  1
  Si0+  Si102  1  0.42888281  0.32477979  0.65151924  1
  Si0+  Si103  1  0.32344316  0.07212209  0.68465518  1
  Si0+  Si104  1  0.57239290  0.67785445  0.32038096  1
  Si0+  Si105  1  0.82371882  0.07503583  0.35106078  1
  Si0+  Si106  1  0.17850789  0.42470882  0.68295091  1
  Si0+  Si107  1  0.82211711  0.57424905  0.01747287  1
  Si0+  Si108  1  0.92980250  0.32193378  0.31721012  1
  Si0+  Si109  1  0.42890473  0.32287770  0.98223448  1
  Si0+  Si110  1  0.42724067  0.82308014  0.98358839  1
  Si0+  Si111  1  0.17783760  0.42636358  0.01520625  1
  Si0+  Si112  1  0.92682818  0.82095129  0.65076877  1
  Si0+  Si113  1  0.67733166  0.92882070  0.01228062  1
  Si0+  Si114  1  0.07042672  0.17957345  0.32018882  1
  Si0+  Si115  1  0.57316540  0.67612146  0.65021714  1
  Si0+  Si116  1  0.32216401  0.07206676  0.01367198  1
  Si0+  Si117  1  0.17847441  0.42872700  0.34762890  1
  Si0+  Si118  1  0.82071982  0.06918461  0.01409075  1
  Si0+  Si119  1  0.92718773  0.32206551  0.98517502  1
  O2-  O120  1  0.24933117  0.00307800  0.05645584  1
  O2-  O121  1  0.25047025  -0.00061562  0.39883357  1
  O2-  O122  1  0.25010933  0.00897962  0.73046570  1
  O2-  O123  1  0.24215530  0.49809095  0.06171536  1
  O2-  O124  1  0.24965614  0.50048949  0.38868210  1
  O2-  O125  1  0.24861891  0.49198237  0.72689757  1
  O2-  O126  1  0.74955039  -0.00177337  0.05541588  1
  O2-  O127  1  0.75346789  0.00653048  0.39308191  1
  O2-  O128  1  0.74719008  -0.00029197  0.72539650  1
  O2-  O129  1  0.75490729  0.50420222  0.06244131  1
  O2-  O130  1  0.74602571  0.49545699  0.39352975  1
  O2-  O131  1  0.75090647  0.50168876  0.73290386  1
  O2-  O132  1  -0.00188232  0.24808305  0.27534610  1
  O2-  O133  1  0.00624794  0.25285447  0.60001741  1
  O2-  O134  1  0.00068842  0.25792538  0.94199259  1
  O2-  O135  1  0.00031909  0.75136854  0.27138362  1
  O2-  O136  1  -0.00640163  0.74513677  0.61084495  1
  O2-  O137  1  -0.00181786  0.74818324  0.93148059  1
  O2-  O138  1  0.50012867  0.25221570  0.26708429  1
  O2-  O139  1  0.49592324  0.25442471  0.60782607  1
  O2-  O140  1  0.49930047  0.25634197  0.93734688  1
  O2-  O141  1  0.50307651  0.74474043  0.27385206  1
  O2-  O142  1  0.50405021  0.74363998  0.60506836  1
  O2-  O143  1  0.49250878  0.75084173  0.93999027  1
  O2-  O144  1  0.07023041  0.17968146  0.10143160  1
  O2-  O145  1  0.06920546  0.18187890  0.42477825  1
  O2-  O146  1  0.06881675  0.17643855  0.76290613  1
  O2-  O147  1  0.07154774  0.68190969  0.09553257  1
  O2-  O148  1  0.07110756  0.67505691  0.43317738  1
  O2-  O149  1  0.07220999  0.68448699  0.75831594  1
  O2-  O150  1  0.56879281  0.17668720  0.09797829  1
  O2-  O151  1  0.57154263  0.18195417  0.42985106  1
  O2-  O152  1  0.57098972  0.17900724  0.76542049  1
  O2-  O153  1  0.57035240  0.68232109  0.10052877  1
  O2-  O154  1  0.57025095  0.67843746  0.42601792  1
  O2-  O155  1  0.57109026  0.67786116  0.75606038  1
  O2-  O156  1  0.17653523  0.42640323  0.24259548  1
  O2-  O157  1  0.17784200  0.42735556  0.57697592  1
  O2-  O158  1  0.18187242  0.42352637  0.90991963  1
  O2-  O159  1  0.17818934  0.93191246  0.23367071  1
  O2-  O160  1  0.17920349  0.92801862  0.57033780  1
  O2-  O161  1  0.17769192  0.93231164  0.91106279  1
  O2-  O162  1  0.67960793  0.42692536  0.24438569  1
  O2-  O163  1  0.68233791  0.42951255  0.56740990  1
  O2-  O164  1  0.68372377  0.42508165  0.90456126  1
  O2-  O165  1  0.68114487  0.92947666  0.23227545  1
  O2-  O166  1  0.67583721  0.92948735  0.57811683  1
  O2-  O167  1  0.67675574  0.93206809  0.90694787  1
  O2-  O168  1  0.42671009  0.31953101  0.08756186  1
  O2-  O169  1  0.42888778  0.32643820  0.43059491  1
  O2-  O170  1  0.42826513  0.32416369  0.75722509  1
  O2-  O171  1  0.43013314  0.82510988  0.08914778  1
  O2-  O172  1  0.42751832  0.81760815  0.43245296  1
  O2-  O173  1  0.43042888  0.81638212  0.76654060  1
  O2-  O174  1  0.92770185  0.31892240  0.09134589  1
  O2-  O175  1  0.93173389  0.32343503  0.42186427  1
  O2-  O176  1  0.93101089  0.31718829  0.76514356  1
  O2-  O177  1  0.92793136  0.82239535  0.09658181  1
  O2-  O178  1  0.92677025  0.81907923  0.43466424  1
  O2-  O179  1  0.92844551  0.82373841  0.75581504  1
  O2-  O180  1  0.31755047  0.07215977  0.23423333  1
  O2-  O181  1  0.32477604  0.06920179  0.57966219  1
  O2-  O182  1  0.32385552  0.07016261  0.90864987  1
  O2-  O183  1  0.32136159  0.57066697  0.24224829  1
  O2-  O184  1  0.31641623  0.57099397  0.56546146  1
  O2-  O185  1  0.31952393  0.57049315  0.90337141  1
  O2-  O186  1  0.82598883  0.07652800  0.24513395  1
  O2-  O187  1  0.82075654  0.06613881  0.57627628  1
  O2-  O188  1  0.82044771  0.06998118  0.90879016  1
  O2-  O189  1  0.81941816  0.56753148  0.23187151  1
  O2-  O190  1  0.82388477  0.57388572  0.57092832  1
  O2-  O191  1  0.82054292  0.57278682  0.91216612  1
  O2-  O192  1  0.04353265  0.08763429  0.27279873  1
  O2-  O193  1  0.03768749  0.07942955  0.59712272  1
  O2-  O194  1  0.03701904  0.08641202  0.93198547  1
  O2-  O195  1  0.04309226  0.57937614  0.26420877  1
  O2-  O196  1  0.05130737  0.58580614  0.60942589  1
  O2-  O197  1  0.04994842  0.57800898  0.93099658  1
  O2-  O198  1  0.54275955  0.08140856  0.26333305  1
  O2-  O199  1  0.53884555  0.08298160  0.59833654  1
  O2-  O200  1  0.53826167  0.08422823  0.92960791  1
  O2-  O201  1  0.54947220  0.58357508  0.27481849  1
  O2-  O202  1  0.55017262  0.58135834  0.60650756  1
  O2-  O203  1  0.53838153  0.58040795  0.93523152  1
  O2-  O204  1  0.16137449  0.20968913  0.27287977  1
  O2-  O205  1  0.17435413  0.19833555  0.59853022  1
  O2-  O206  1  0.16877279  0.20702709  0.93135370  1
  O2-  O207  1  0.16917634  0.70467296  0.26473724  1
  O2-  O208  1  0.16005047  0.71442377  0.60561078  1
  O2-  O209  1  0.16996999  0.71222457  0.93066396  1
  O2-  O210  1  0.67169501  0.20511466  0.26359171  1
  O2-  O211  1  0.66751984  0.20626899  0.59689247  1
  O2-  O212  1  0.66955543  0.20768009  0.93473302  1
  O2-  O213  1  0.66516620  0.70589804  0.27481368  1
  O2-  O214  1  0.66745371  0.70393905  0.60680470  1
  O2-  O215  1  0.66264819  0.70901873  0.92838393  1
  O2-  O216  1  0.08148139  0.44635917  0.05890408  1
  O2-  O217  1  0.08747129  0.45669024  0.39677508  1
  O2-  O218  1  0.08583377  0.45003200  0.73020735  1
  O2-  O219  1  0.08519326  0.96169331  0.06173251  1
  O2-  O220  1  0.07945026  0.95588653  0.40040383  1
  O2-  O221  1  0.08094577  0.96019546  0.73720579  1
  O2-  O222  1  0.58387703  0.45751206  0.07112811  1
  O2-  O223  1  0.58322664  0.44999406  0.39496466  1
  O2-  O224  1  0.58329006  0.45241537  0.73696391  1
  O2-  O225  1  0.58560728  0.95829531  0.05937480  1
  O2-  O226  1  0.58394042  0.96133255  0.40109716  1
  O2-  O227  1  0.58362553  0.95813172  0.73019256  1
  O2-  O228  1  0.20701076  0.33341816  0.06275989  1
  O2-  O229  1  0.20629938  0.33844381  0.39777438  1
  O2-  O230  1  0.20215102  0.32938204  0.72684600  1
  O2-  O231  1  0.20412957  0.84043888  0.06392181  1
  O2-  O232  1  0.20768804  0.82858104  0.39868800  1
  O2-  O233  1  0.21353660  0.83703858  0.73974072  1
  O2-  O234  1  0.71337133  0.33172051  0.07273062  1
  O2-  O235  1  0.70499364  0.33244174  0.39408406  1
  O2-  O236  1  0.71410871  0.32862065  0.73203359  1
  O2-  O237  1  0.70345307  0.83589137  0.05781723  1
  O2-  O238  1  0.70945892  0.83559869  0.40521670  1
  O2-  O239  1  0.70242493  0.83773773  0.73114187  1
  O2-  O240  1  0.45526323  0.42172825  0.26237457  1
  O2-  O241  1  0.45598037  0.41823241  0.60564561  1
  O2-  O242  1  0.45313861  0.41803981  0.94056087  1
  O2-  O243  1  0.46033351  0.91640542  0.26535151  1
  O2-  O244  1  0.45879705  0.91308080  0.59851817  1
  O2-  O245  1  0.45589364  0.91451190  0.93475715  1
  O2-  O246  1  0.96124926  0.41093989  0.26701526  1
  O2-  O247  1  0.95836078  0.42140267  0.59938282  1
  O2-  O248  1  0.94556846  0.41711558  0.94047981  1
  O2-  O249  1  0.95123885  0.92206387  0.26823828  1
  O2-  O250  1  0.95751909  0.91114887  0.60311993  1
  O2-  O251  1  0.95804864  0.91833242  0.92907547  1
  O2-  O252  1  0.32822918  0.29625071  0.26360956  1
  O2-  O253  1  0.33462780  0.30290861  0.60503575  1
  O2-  O254  1  0.33668194  0.29647219  0.93352986  1
  O2-  O255  1  0.33420532  0.79014448  0.26236003  1
  O2-  O256  1  0.33170241  0.78466360  0.60080180  1
  O2-  O257  1  0.33199203  0.80061742  0.94073179  1
  O2-  O258  1  0.83774598  0.29643466  0.26941136  1
  O2-  O259  1  0.83630559  0.28822375  0.59466171  1
  O2-  O260  1  0.83649560  0.28891859  0.93870454  1
  O2-  O261  1  0.82862717  0.79145028  0.26851319  1
  O2-  O262  1  0.83199931  0.79860167  0.60661745  1
  O2-  O263  1  0.82915653  0.79643345  0.92852118  1
  O2-  O264  1  0.41319996  0.04164968  0.06184988  1
  O2-  O265  1  0.42055909  0.04612121  0.39902428  1
  O2-  O266  1  0.41513949  0.03956326  0.73199281  1
  O2-  O267  1  0.41443026  0.54133674  0.07280832  1
  O2-  O268  1  0.41302307  0.54330881  0.39554494  1
  O2-  O269  1  0.41685869  0.54323469  0.73379627  1
  O2-  O270  1  0.91260106  0.04104176  0.06192114  1
  O2-  O271  1  0.91591581  0.04912311  0.39946622  1
  O2-  O272  1  0.91023706  0.03826914  0.73036114  1
  O2-  O273  1  0.91754182  0.55054151  0.06117214  1
  O2-  O274  1  0.91727260  0.53676183  0.39830866  1
  O2-  O275  1  0.92281767  0.54449988  0.73781461  1
  O2-  O276  1  0.29652842  0.16537126  0.05894948  1
  O2-  O277  1  0.29347945  0.17157081  0.40120417  1
  O2-  O278  1  0.30530000  0.16857443  0.72849656  1
  O2-  O279  1  0.28928853  0.67005736  0.06966136  1
  O2-  O280  1  0.29340891  0.66295177  0.39408821  1
  O2-  O281  1  0.28477044  0.66400256  0.73571441  1
  O2-  O282  1  0.79466381  0.16018742  0.06388464  1
  O2-  O283  1  0.79900049  0.16923833  0.39677909  1
  O2-  O284  1  0.79389885  0.16113807  0.72738005  1
  O2-  O285  1  0.79268208  0.66837240  0.06044788  1
  O2-  O286  1  0.79120287  0.66456203  0.40228503  1
  O2-  O287  1  0.79736170  0.67273948  0.73757611  1
