# generated using pymatgen
data_Ca2Al2SiO7
_symmetry_space_group_name_H-M   'P 1'
_cell_length_a   15.46124705
_cell_length_b   15.46063479
_cell_length_c   15.28543341
_cell_angle_alpha   90.00632474
_cell_angle_beta   89.98424782
_cell_angle_gamma   90.00185008
_symmetry_Int_Tables_number   1
_chemical_formula_structural   Ca2Al2SiO7
_chemical_formula_sum   'Ca48 Al48 Si24 O168'
_cell_volume   3653.84044966
_cell_formula_units_Z   24
loop_
 _symmetry_equiv_pos_site_id
 _symmetry_equiv_pos_as_xyz
  1  'x, y, z'
loop_
 _atom_type_symbol
 _atom_type_oxidation_number
  Ca2+  2.0
  Al0+  0.0
  Si0+  0.0
  O2-  -2.0
loop_
 _atom_site_type_symbol
 _atom_site_label
 _atom_site_symmetry_multiplicity
 _atom_site_fract_x
 _atom_site_fract_y
 _atom_site_fract_z
 _atom_site_occupancy
  Ca2+  Ca0  1  0.16654035  0.07665279  0.17437554  1
  Ca2+  Ca1  1  0.15840347  0.07846349  0.49841361  1
  Ca2+  Ca2  1  0.17678392  0.07504703  0.84545762  1
  Ca2+  Ca3  1  0.17020008  0.57448985  0.17362011  1
  Ca2+  Ca4  1  0.16127937  0.57654235  0.50134327  1
  Ca2+  Ca5  1  0.16425966  0.58365506  0.83502875  1
  Ca2+  Ca6  1  0.67292233  0.09147416  0.16950794  1
  Ca2+  Ca7  1  0.67698654  0.08634308  0.50191473  1
  Ca2+  Ca8  1  0.67234925  0.08509907  0.83456242  1
  Ca2+  Ca9  1  0.67646246  0.57446849  0.17584899  1
  Ca2+  Ca10  1  0.67841095  0.57792805  0.50131245  1
  Ca2+  Ca11  1  0.67955338  0.58036194  0.83773823  1
  Ca2+  Ca12  1  0.07567684  0.33040751  0.16934996  1
  Ca2+  Ca13  1  0.07275089  0.32674737  0.49071542  1
  Ca2+  Ca14  1  0.07125521  0.33078995  0.82815501  1
  Ca2+  Ca15  1  0.08115628  0.83935943  0.16811190  1
  Ca2+  Ca16  1  0.07807195  0.82681249  0.49173630  1
  Ca2+  Ca17  1  0.08480318  0.82743715  0.82923196  1
  Ca2+  Ca18  1  0.59245915  0.32249478  0.16823763  1
  Ca2+  Ca19  1  0.57648951  0.33401420  0.48887504  1
  Ca2+  Ca20  1  0.57810126  0.32588443  0.82989242  1
  Ca2+  Ca21  1  0.57730215  0.83251207  0.15904641  1
  Ca2+  Ca22  1  0.58266161  0.84005609  0.49919990  1
  Ca2+  Ca23  1  0.57364214  0.84203789  0.82744270  1
  Ca2+  Ca24  1  0.32826867  0.41261155  0.17794161  1
  Ca2+  Ca25  1  0.32816522  0.40420764  0.50093093  1
  Ca2+  Ca26  1  0.33306861  0.41465921  0.83440006  1
  Ca2+  Ca27  1  0.32503522  0.91903251  0.16634900  1
  Ca2+  Ca28  1  0.32839601  0.91601116  0.50308512  1
  Ca2+  Ca29  1  0.33172095  0.91699243  0.84399900  1
  Ca2+  Ca30  1  0.83685660  0.42369603  0.17574486  1
  Ca2+  Ca31  1  0.83543345  0.41773496  0.50255403  1
  Ca2+  Ca32  1  0.84496140  0.42405774  0.83711146  1
  Ca2+  Ca33  1  0.83902182  0.93021656  0.17515702  1
  Ca2+  Ca34  1  0.83407250  0.92950352  0.50437578  1
  Ca2+  Ca35  1  0.82850832  0.92976579  0.83715366  1
  Ca2+  Ca36  1  0.42761463  0.16612595  0.16321898  1
  Ca2+  Ca37  1  0.42619078  0.17525300  0.49129543  1
  Ca2+  Ca38  1  0.42257064  0.16221329  0.83027324  1
  Ca2+  Ca39  1  0.41876015  0.67136046  0.16102576  1
  Ca2+  Ca40  1  0.41836878  0.67393963  0.49798675  1
  Ca2+  Ca41  1  0.41701076  0.68087854  0.82689649  1
  Ca2+  Ca42  1  0.91063922  0.17619065  0.16375391  1
  Ca2+  Ca43  1  0.91401243  0.17235304  0.48995336  1
  Ca2+  Ca44  1  0.90660278  0.17532838  0.83161102  1
  Ca2+  Ca45  1  0.90851067  0.67156435  0.16559630  1
  Ca2+  Ca46  1  0.91296871  0.66958627  0.49608965  1
  Ca2+  Ca47  1  0.92031842  0.66299369  0.82571392  1
  Al0+  Al48  1  -0.00053177  -0.00039589  0.00485938  1
  Al0+  Al49  1  0.00069328  -0.00265769  0.33623696  1
  Al0+  Al50  1  0.00085002  -0.00088017  0.67486469  1
  Al0+  Al51  1  0.00055542  0.50094754  0.00141618  1
  Al0+  Al52  1  0.00456750  0.50130087  0.33791287  1
  Al0+  Al53  1  0.00145011  0.49803271  0.66270073  1
  Al0+  Al54  1  0.49936496  0.00055976  -0.00464415  1
  Al0+  Al55  1  0.49837204  0.00053517  0.32859484  1
  Al0+  Al56  1  0.49874954  0.00042996  0.66264366  1
  Al0+  Al57  1  0.50138661  0.49978155  -0.00105798  1
  Al0+  Al58  1  0.50015603  0.50349714  0.33311410  1
  Al0+  Al59  1  0.49869155  0.50200895  0.66467232  1
  Al0+  Al60  1  0.24970305  0.24947728  0.00382517  1
  Al0+  Al61  1  0.25045488  0.24911608  0.33144959  1
  Al0+  Al62  1  0.24888853  0.24858348  0.66620186  1
  Al0+  Al63  1  0.24973231  0.74824361  0.00073941  1
  Al0+  Al64  1  0.24899776  0.75068754  0.33652681  1
  Al0+  Al65  1  0.25051933  0.74766655  0.65782633  1
  Al0+  Al66  1  0.74821677  0.25115560  -0.00801622  1
  Al0+  Al67  1  0.74889470  0.25189638  0.33453757  1
  Al0+  Al68  1  0.74830221  0.25162129  0.66679178  1
  Al0+  Al69  1  0.75071549  0.74963879  0.00108770  1
  Al0+  Al70  1  0.74922501  0.75059772  0.33168425  1
  Al0+  Al71  1  0.74901575  0.74945754  0.67602653  1
  Al0+  Al72  1  0.43021027  0.82205734  0.65050644  1
  Al0+  Al73  1  0.67738253  0.92981596  0.68130953  1
  Al0+  Al74  1  0.18171040  0.42714235  0.34840975  1
  Al0+  Al75  1  0.42817865  0.32169815  0.65377549  1
  Al0+  Al76  1  0.82259908  0.07398031  0.68298311  1
  Al0+  Al77  1  0.17968287  0.92931908  0.35014827  1
  Al0+  Al78  1  0.32353793  0.07214552  0.01616178  1
  Al0+  Al79  1  0.93154491  0.32106134  0.98621675  1
  Al0+  Al80  1  0.57172219  0.17872359  0.31798977  1
  Al0+  Al81  1  0.81853100  0.07246105  0.01494527  1
  Al0+  Al82  1  0.92877503  0.31865942  0.65250772  1
  Al0+  Al83  1  0.82291235  0.57287919  0.34921652  1
  Al0+  Al84  1  0.92820233  0.81914792  0.32106126  1
  Al0+  Al85  1  0.92902553  0.32230436  0.31887720  1
  Al0+  Al86  1  0.67930242  0.42932656  0.34835981  1
  Al0+  Al87  1  0.07036893  0.17603391  0.31871231  1
  Al0+  Al88  1  0.43010994  0.81768240  0.98719443  1
  Al0+  Al89  1  0.56974533  0.18014637  0.98312298  1
  Al0+  Al90  1  0.07009843  0.67923719  0.65237114  1
  Al0+  Al91  1  0.82244644  0.57066392  0.01474387  1
  Al0+  Al92  1  0.81994779  0.07095971  0.34504061  1
  Al0+  Al93  1  0.82208307  0.56787911  0.68131146  1
  Al0+  Al94  1  0.17926012  0.92661476  0.01559054  1
  Al0+  Al95  1  0.42899645  0.32323419  0.31774531  1
  Si0+  Si96  1  0.42699460  0.82057756  0.31681262  1
  Si0+  Si97  1  0.67784339  0.92822376  0.01623915  1
  Si0+  Si98  1  0.32115298  0.57243177  0.68205947  1
  Si0+  Si99  1  0.18051209  0.92523880  0.68157613  1
  Si0+  Si100  1  0.57360382  0.67848886  0.64976752  1
  Si0+  Si101  1  0.18067485  0.42854838  0.68278993  1
  Si0+  Si102  1  0.57407566  0.67631909  0.98182340  1
  Si0+  Si103  1  0.07310329  0.17586253  0.98378163  1
  Si0+  Si104  1  0.06927718  0.67982303  0.98656226  1
  Si0+  Si105  1  0.67503875  0.92747819  0.34646300  1
  Si0+  Si106  1  0.42466869  0.32387462  0.98348143  1
  Si0+  Si107  1  0.32246180  0.57361122  0.35129534  1
  Si0+  Si108  1  0.32331972  0.07086769  0.35162789  1
  Si0+  Si109  1  0.07260139  0.17598351  0.65312231  1
  Si0+  Si110  1  0.92696319  0.82274390  0.65352523  1
  Si0+  Si111  1  0.32170577  0.56988122  0.01237657  1
  Si0+  Si112  1  0.57073575  0.17878357  0.64834019  1
  Si0+  Si113  1  0.67664425  0.42889764  0.01546878  1
  Si0+  Si114  1  0.67410002  0.42906771  0.68467620  1
  Si0+  Si115  1  0.31885142  0.07023809  0.67980644  1
  Si0+  Si116  1  0.07353158  0.67881118  0.31501359  1
  Si0+  Si117  1  0.17906344  0.42945700  0.01352651  1
  Si0+  Si118  1  0.57125558  0.68050392  0.31761358  1
  Si0+  Si119  1  0.92746085  0.82330502  0.98427239  1
  O2-  O120  1  0.24768546  0.00289912  0.06436209  1
  O2-  O121  1  0.25292950  0.00480218  0.39792714  1
  O2-  O122  1  0.24999708  -0.00244914  0.72328891  1
  O2-  O123  1  0.25735306  0.49352078  0.05455064  1
  O2-  O124  1  0.25919807  0.50002981  0.39524375  1
  O2-  O125  1  0.25244027  0.49938600  0.72544716  1
  O2-  O126  1  0.74665131  -0.00505332  0.06200005  1
  O2-  O127  1  0.74288028  -0.00305790  0.38959096  1
  O2-  O128  1  0.74995537  0.00102681  0.73145649  1
  O2-  O129  1  0.74603614  0.49725541  0.05869439  1
  O2-  O130  1  0.75555549  0.49657801  0.39916636  1
  O2-  O131  1  0.74775532  0.49268016  0.72914505  1
  O2-  O132  1  -0.00255488  0.24687212  0.26815312  1
  O2-  O133  1  -0.00254418  0.23710457  0.60948863  1
  O2-  O134  1  0.00387568  0.24348827  0.93869797  1
  O2-  O135  1  0.00096156  0.74315485  0.27127807  1
  O2-  O136  1  -0.00543065  0.75368348  0.60803738  1
  O2-  O137  1  -0.00112243  0.75124271  0.94372882  1
  O2-  O138  1  0.50166506  0.25295440  0.26732741  1
  O2-  O139  1  0.50580361  0.25189358  0.60613522  1
  O2-  O140  1  0.49078703  0.25308136  0.93922151  1
  O2-  O141  1  0.50010241  0.75174588  0.27527149  1
  O2-  O142  1  0.50840642  0.75055015  0.60443769  1
  O2-  O143  1  0.50637995  0.74586960  0.93761700  1
  O2-  O144  1  0.07409975  0.17769119  0.08874466  1
  O2-  O145  1  0.06813978  0.17723903  0.43305052  1
  O2-  O146  1  0.07930135  0.18033814  0.75856747  1
  O2-  O147  1  0.07076392  0.67782784  0.09113738  1
  O2-  O148  1  0.07657383  0.68213604  0.42051762  1
  O2-  O149  1  0.07205798  0.68075406  0.76637737  1
  O2-  O150  1  0.57159687  0.18193241  0.09558537  1
  O2-  O151  1  0.56872351  0.17590459  0.43154276  1
  O2-  O152  1  0.56757386  0.17761000  0.75419533  1
  O2-  O153  1  0.57132430  0.67609899  0.08755671  1
  O2-  O154  1  0.57070281  0.68183155  0.42268142  1
  O2-  O155  1  0.56880941  0.67630728  0.75531609  1
  O2-  O156  1  0.18208906  0.43162364  0.23456348  1
  O2-  O157  1  0.18242614  0.42837652  0.57824200  1
  O2-  O158  1  0.17826705  0.43229604  0.90797986  1
  O2-  O159  1  0.18393217  0.92604986  0.23753620  1
  O2-  O160  1  0.18020236  0.92582710  0.57675960  1
  O2-  O161  1  0.18235449  0.92382877  0.90109460  1
  O2-  O162  1  0.67828648  0.43296110  0.23452520  1
  O2-  O163  1  0.67101274  0.43221845  0.57964503  1
  O2-  O164  1  0.67256856  0.43219198  0.90974555  1
  O2-  O165  1  0.67415861  0.92541781  0.24089502  1
  O2-  O166  1  0.67789501  0.93146831  0.56749614  1
  O2-  O167  1  0.67920492  0.92822100  0.91071832  1
  O2-  O168  1  0.42502077  0.32805547  0.08816042  1
  O2-  O169  1  0.43044726  0.32026133  0.43170793  1
  O2-  O170  1  0.42746061  0.31898150  0.76723971  1
  O2-  O171  1  0.43019883  0.81316789  0.10042976  1
  O2-  O172  1  0.42705504  0.81965326  0.42202769  1
  O2-  O173  1  0.42712612  0.81954423  0.76359943  1
  O2-  O174  1  0.93371258  0.32430754  0.09857134  1
  O2-  O175  1  0.93107565  0.32108258  0.43254694  1
  O2-  O176  1  0.93405687  0.32162152  0.76606665  1
  O2-  O177  1  0.92643197  0.82251375  0.08919139  1
  O2-  O178  1  0.92936559  0.81902200  0.43443696  1
  O2-  O179  1  0.93114228  0.82243711  0.75950142  1
  O2-  O180  1  0.32506686  0.06641855  0.24634931  1
  O2-  O181  1  0.31704590  0.07036629  0.57505722  1
  O2-  O182  1  0.32173532  0.06972793  0.90133207  1
  O2-  O183  1  0.31942833  0.57710971  0.24508651  1
  O2-  O184  1  0.32066683  0.57487075  0.57747193  1
  O2-  O185  1  0.31889022  0.57210818  0.90714799  1
  O2-  O186  1  0.81933394  0.07006413  0.23186896  1
  O2-  O187  1  0.82382615  0.07216444  0.56947502  1
  O2-  O188  1  0.81690630  0.07121134  0.90192821  1
  O2-  O189  1  0.81818051  0.57395810  0.23539850  1
  O2-  O190  1  0.82094554  0.56867923  0.56896657  1
  O2-  O191  1  0.82455058  0.56859196  0.90134261  1
  O2-  O192  1  0.04686375  0.07591307  0.26840754  1
  O2-  O193  1  0.05427509  0.07851299  0.61205240  1
  O2-  O194  1  0.04966778  0.08087096  0.93903261  1
  O2-  O195  1  0.05430336  0.58336484  0.27129232  1
  O2-  O196  1  0.04203745  0.58255479  0.59855207  1
  O2-  O197  1  0.04104155  0.58913502  0.93665853  1
  O2-  O198  1  0.54167230  0.08082628  0.26306533  1
  O2-  O199  1  0.54049851  0.08767575  0.60090470  1
  O2-  O200  1  0.53978982  0.08366590  0.92787672  1
  O2-  O201  1  0.54197823  0.59055797  0.26757380  1
  O2-  O202  1  0.54269469  0.58747371  0.60154470  1
  O2-  O203  1  0.54756205  0.58311694  0.93506384  1
  O2-  O204  1  0.16885041  0.20476727  0.26677971  1
  O2-  O205  1  0.16282240  0.20723068  0.60342392  1
  O2-  O206  1  0.16735598  0.20257478  0.93775511  1
  O2-  O207  1  0.16615071  0.70892510  0.26821970  1
  O2-  O208  1  0.16521258  0.70854221  0.59533393  1
  O2-  O209  1  0.16132138  0.70641206  0.93780187  1
  O2-  O210  1  0.66939892  0.20809206  0.26467672  1
  O2-  O211  1  0.66568187  0.20084109  0.60505039  1
  O2-  O212  1  0.66286395  0.21461037  0.92442147  1
  O2-  O213  1  0.66150659  0.70816691  0.26756520  1
  O2-  O214  1  0.66893039  0.70119853  0.60677644  1
  O2-  O215  1  0.66842321  0.70092166  0.93670966  1
  O2-  O216  1  0.09211900  0.46646401  0.06299954  1
  O2-  O217  1  0.08806564  0.46151736  0.40557565  1
  O2-  O218  1  0.09031972  0.45966956  0.73069888  1
  O2-  O219  1  0.07975106  0.95073847  0.06716653  1
  O2-  O220  1  0.08359598  0.95720080  0.40624099  1
  O2-  O221  1  0.08877706  0.94875677  0.73134025  1
  O2-  O222  1  0.58341032  0.45450517  0.06338789  1
  O2-  O223  1  0.58150764  0.46380970  0.40073292  1
  O2-  O224  1  0.58199558  0.45970606  0.73260215  1
  O2-  O225  1  0.58341505  0.95300831  0.05990108  1
  O2-  O226  1  0.58033396  0.95118069  0.39189979  1
  O2-  O227  1  0.57770795  0.95988681  0.73263361  1
  O2-  O228  1  0.19885034  0.33610496  0.06041629  1
  O2-  O229  1  0.21076396  0.33022683  0.40303041  1
  O2-  O230  1  0.20882018  0.33703903  0.73149134  1
  O2-  O231  1  0.21142320  0.82912142  0.06893965  1
  O2-  O232  1  0.21307501  0.83330368  0.40476863  1
  O2-  O233  1  0.21142127  0.83307592  0.72649679  1
  O2-  O234  1  0.70301141  0.33493132  0.05761359  1
  O2-  O235  1  0.70085892  0.33039108  0.40213355  1
  O2-  O236  1  0.69421468  0.33339434  0.72799466  1
  O2-  O237  1  0.70019380  0.83300559  0.06092812  1
  O2-  O238  1  0.70020807  0.83446221  0.39337731  1
  O2-  O239  1  0.69984353  0.83100352  0.73694706  1
  O2-  O240  1  0.45011013  0.42548650  0.26881032  1
  O2-  O241  1  0.45152314  0.42108153  0.60208172  1
  O2-  O242  1  0.45253169  0.41739800  0.93582736  1
  O2-  O243  1  0.45194899  0.91236629  0.26911239  1
  O2-  O244  1  0.45680700  0.91877071  0.59484892  1
  O2-  O245  1  0.45761067  0.91437303  0.93234778  1
  O2-  O246  1  0.96306800  0.42103662  0.26892289  1
  O2-  O247  1  0.96644033  0.41206248  0.59814225  1
  O2-  O248  1  0.96862365  0.41668478  0.93202901  1
  O2-  O249  1  0.96333619  0.91359237  0.26635757  1
  O2-  O250  1  0.95434747  0.91682571  0.60913646  1
  O2-  O251  1  0.95621735  0.91461996  0.93639995  1
  O2-  O252  1  0.33113645  0.29405731  0.26546981  1
  O2-  O253  1  0.33202330  0.28761611  0.60088236  1
  O2-  O254  1  0.32922660  0.30216973  0.93841806  1
  O2-  O255  1  0.33642206  0.78802960  0.27034616  1
  O2-  O256  1  0.33658438  0.78576036  0.59440448  1
  O2-  O257  1  0.33434189  0.78252278  0.93277716  1
  O2-  O258  1  0.82924900  0.29870956  0.26783666  1
  O2-  O259  1  0.82870014  0.29725088  0.60188185  1
  O2-  O260  1  0.83457691  0.29449566  0.93079994  1
  O2-  O261  1  0.83153157  0.79160784  0.26459690  1
  O2-  O262  1  0.83212317  0.79768013  0.61114778  1
  O2-  O263  1  0.83554294  0.79535387  0.93687286  1
  O2-  O264  1  0.42089186  0.03968451  0.06767007  1
  O2-  O265  1  0.41578876  0.04090975  0.39850784  1
  O2-  O266  1  0.41136232  0.04362292  0.72580957  1
  O2-  O267  1  0.41597907  0.54941815  0.05854373  1
  O2-  O268  1  0.41816169  0.55662715  0.39541106  1
  O2-  O269  1  0.41338422  0.54765443  0.73046190  1
  O2-  O270  1  0.91605735  0.04363272  0.06716427  1
  O2-  O271  1  0.91440372  0.03653936  0.40034333  1
  O2-  O272  1  0.92098772  0.04645125  0.73858881  1
  O2-  O273  1  0.91884908  0.54044288  0.06880984  1
  O2-  O274  1  0.92438170  0.55364076  0.39819145  1
  O2-  O275  1  0.92001790  0.53591202  0.73380916  1
  O2-  O276  1  0.30081970  0.17252754  0.06732098  1
  O2-  O277  1  0.30075628  0.16563685  0.39527888  1
  O2-  O278  1  0.28974183  0.16080666  0.72963821  1
  O2-  O279  1  0.28850600  0.65797216  0.06335067  1
  O2-  O280  1  0.29116630  0.66453139  0.39969410  1
  O2-  O281  1  0.28879293  0.66325018  0.72977565  1
  O2-  O282  1  0.78520489  0.17034742  0.06397057  1
  O2-  O283  1  0.79025055  0.16700112  0.39964395  1
  O2-  O284  1  0.79122581  0.17233104  0.73536433  1
  O2-  O285  1  0.79286689  0.66851782  0.06692036  1
  O2-  O286  1  0.78742083  0.67001278  0.40150705  1
  O2-  O287  1  0.79328745  0.66434458  0.73761985  1
