# generated using pymatgen
data_Ca2Al2SiO7
_symmetry_space_group_name_H-M   'P 1'
_cell_length_a   15.46306555
_cell_length_b   15.46479257
_cell_length_c   15.28827542
_cell_angle_alpha   90.00044409
_cell_angle_beta   90.00600948
_cell_angle_gamma   90.00155525
_symmetry_Int_Tables_number   1
_chemical_formula_structural   Ca2Al2SiO7
_chemical_formula_sum   'Ca48 Al48 Si24 O168'
_cell_volume   3655.93269255
_cell_formula_units_Z   24
loop_
 _symmetry_equiv_pos_site_id
 _symmetry_equiv_pos_as_xyz
  1  'x, y, z'
loop_
 _atom_type_symbol
 _atom_type_oxidation_number
  Ca2+  2.0
  Al0+  0.0
  Si0+  0.0
  O2-  -2.0
loop_
 _atom_site_type_symbol
 _atom_site_label
 _atom_site_symmetry_multiplicity
 _atom_site_fract_x
 _atom_site_fract_y
 _atom_site_fract_z
 _atom_site_occupancy
  Ca2+  Ca0  1  0.16574798  0.07254976  0.17700440  1
  Ca2+  Ca1  1  0.16261194  0.07666089  0.50591303  1
  Ca2+  Ca2  1  0.16617419  0.08552758  0.83462816  1
  Ca2+  Ca3  1  0.16485427  0.57718581  0.16801327  1
  Ca2+  Ca4  1  0.17006782  0.57706158  0.49912724  1
  Ca2+  Ca5  1  0.17650753  0.57927953  0.84130562  1
  Ca2+  Ca6  1  0.66744007  0.08955637  0.17279952  1
  Ca2+  Ca7  1  0.67251352  0.09047722  0.50608220  1
  Ca2+  Ca8  1  0.66144787  0.08497035  0.83262566  1
  Ca2+  Ca9  1  0.67916918  0.57727472  0.16992582  1
  Ca2+  Ca10  1  0.67186930  0.57804564  0.50577562  1
  Ca2+  Ca11  1  0.66817762  0.56614593  0.84079200  1
  Ca2+  Ca12  1  0.07290798  0.34877193  0.16380068  1
  Ca2+  Ca13  1  0.07974932  0.32765514  0.49200685  1
  Ca2+  Ca14  1  0.07722715  0.33697726  0.83214470  1
  Ca2+  Ca15  1  0.08717166  0.82023482  0.16466914  1
  Ca2+  Ca16  1  0.08419546  0.82556731  0.49063434  1
  Ca2+  Ca17  1  0.08169007  0.82491604  0.83122921  1
  Ca2+  Ca18  1  0.58877965  0.32348297  0.16288299  1
  Ca2+  Ca19  1  0.57798485  0.33111708  0.49716372  1
  Ca2+  Ca20  1  0.58654172  0.32936461  0.82507160  1
  Ca2+  Ca21  1  0.57789011  0.83205827  0.16562236  1
  Ca2+  Ca22  1  0.57413072  0.84067874  0.49795970  1
  Ca2+  Ca23  1  0.57893507  0.82932533  0.82369476  1
  Ca2+  Ca24  1  0.32122390  0.41498730  0.17333930  1
  Ca2+  Ca25  1  0.33338193  0.41407876  0.50603847  1
  Ca2+  Ca26  1  0.33330777  0.42552126  0.84024720  1
  Ca2+  Ca27  1  0.32926833  0.91681784  0.17550207  1
  Ca2+  Ca28  1  0.33226454  0.91089321  0.50096527  1
  Ca2+  Ca29  1  0.33768249  0.91877212  0.83433934  1
  Ca2+  Ca30  1  0.83562878  0.41846595  0.16888943  1
  Ca2+  Ca31  1  0.83049578  0.41716655  0.49934158  1
  Ca2+  Ca32  1  0.82301621  0.41303550  0.84038816  1
  Ca2+  Ca33  1  0.83198010  0.92709837  0.17587810  1
  Ca2+  Ca34  1  0.82601722  0.93092101  0.50881574  1
  Ca2+  Ca35  1  0.82914022  0.92489760  0.83107386  1
  Ca2+  Ca36  1  0.42646742  0.17314248  0.16616926  1
  Ca2+  Ca37  1  0.42867106  0.17753414  0.49443555  1
  Ca2+  Ca38  1  0.42752071  0.17828597  0.82430858  1
  Ca2+  Ca39  1  0.40707340  0.67302337  0.16516524  1
  Ca2+  Ca40  1  0.41310674  0.67393191  0.49907418  1
  Ca2+  Ca41  1  0.40956184  0.66859891  0.82497743  1
  Ca2+  Ca42  1  0.91139639  0.17984927  0.16510100  1
  Ca2+  Ca43  1  0.91441214  0.16798456  0.49578734  1
  Ca2+  Ca44  1  0.92134322  0.17147407  0.82778349  1
  Ca2+  Ca45  1  0.92681862  0.65233889  0.16222824  1
  Ca2+  Ca46  1  0.92232220  0.66482514  0.48771488  1
  Ca2+  Ca47  1  0.92204469  0.65604830  0.83539404  1
  Al0+  Al48  1  -0.00115465  -0.00147119  0.00050492  1
  Al0+  Al49  1  -0.00107302  -0.00176617  0.34247814  1
  Al0+  Al50  1  -0.00078520  -0.00205461  0.66887651  1
  Al0+  Al51  1  0.00164805  0.50014392  -0.00794342  1
  Al0+  Al52  1  0.00205834  0.49919468  0.33618736  1
  Al0+  Al53  1  0.00243928  0.49964562  0.66452793  1
  Al0+  Al54  1  0.49985616  0.00003416  -0.00298107  1
  Al0+  Al55  1  0.49872831  -0.00048831  0.32430414  1
  Al0+  Al56  1  0.49835836  0.00009645  0.66290857  1
  Al0+  Al57  1  0.50079809  0.50192767  0.01148435  1
  Al0+  Al58  1  0.49929748  0.50166870  0.32880153  1
  Al0+  Al59  1  0.50031062  0.50284090  0.67062636  1
  Al0+  Al60  1  0.25176787  0.24841203  0.00530191  1
  Al0+  Al61  1  0.25093772  0.24755379  0.33449406  1
  Al0+  Al62  1  0.24691722  0.24792551  0.66068115  1
  Al0+  Al63  1  0.24749776  0.75132962  -0.00288866  1
  Al0+  Al64  1  0.24921508  0.74970153  0.32954836  1
  Al0+  Al65  1  0.24883100  0.74861922  0.66648767  1
  Al0+  Al66  1  0.75135445  0.24791041  -0.00632886  1
  Al0+  Al67  1  0.75128483  0.25067692  0.33102758  1
  Al0+  Al68  1  0.75314223  0.25182780  0.67116072  1
  Al0+  Al69  1  0.74864218  0.75279578  0.00280393  1
  Al0+  Al70  1  0.74971553  0.75091419  0.33760902  1
  Al0+  Al71  1  0.75160675  0.75217310  0.67077307  1
  Al0+  Al72  1  0.06961626  0.17696529  0.65318765  1
  Al0+  Al73  1  0.56959972  0.18025352  0.98363712  1
  Al0+  Al74  1  0.06897710  0.68032716  0.98369651  1
  Al0+  Al75  1  0.43051954  0.81820571  0.31854232  1
  Al0+  Al76  1  0.18053287  0.42785310  0.34878369  1
  Al0+  Al77  1  0.68063866  0.43165303  0.67823299  1
  Al0+  Al78  1  0.93221817  0.31929917  0.32047498  1
  Al0+  Al79  1  0.06880220  0.67955986  0.31926365  1
  Al0+  Al80  1  0.42861791  0.82018668  0.65336477  1
  Al0+  Al81  1  0.42857710  0.32519075  0.65432146  1
  Al0+  Al82  1  0.18060002  0.42776819  0.01390262  1
  Al0+  Al83  1  0.81875738  0.07233107  0.34655123  1
  Al0+  Al84  1  0.31857646  0.57005801  0.67825083  1
  Al0+  Al85  1  0.67553771  0.92994905  0.68228079  1
  Al0+  Al86  1  0.42562375  0.32444929  0.31660230  1
  Al0+  Al87  1  0.82151902  0.07222067  0.68470265  1
  Al0+  Al88  1  0.67951989  0.42440107  0.01716161  1
  Al0+  Al89  1  0.93193167  0.32014843  0.98489433  1
  Al0+  Al90  1  0.57293934  0.18048779  0.65149462  1
  Al0+  Al91  1  0.82065093  0.57126606  0.01308952  1
  Al0+  Al92  1  0.57113595  0.18187709  0.31821367  1
  Al0+  Al93  1  0.18045613  0.92784197  0.34781382  1
  Al0+  Al94  1  0.32151700  0.57465716  0.01668122  1
  Al0+  Al95  1  0.82170433  0.57025227  0.34697256  1
  Si0+  Si96  1  0.57447822  0.67868726  0.65184192  1
  Si0+  Si97  1  0.57341286  0.67926244  0.98625007  1
  Si0+  Si98  1  0.82139345  0.06888003  0.01517879  1
  Si0+  Si99  1  0.92830183  0.82092987  0.65103126  1
  Si0+  Si100  1  0.07190038  0.17390416  0.31808716  1
  Si0+  Si101  1  0.67722962  0.42849471  0.34951457  1
  Si0+  Si102  1  0.07380365  0.17325570  0.98657846  1
  Si0+  Si103  1  0.17829971  0.93077605  0.01378086  1
  Si0+  Si104  1  0.17737001  0.42504330  0.68276542  1
  Si0+  Si105  1  0.82576790  0.57392104  0.68224349  1
  Si0+  Si106  1  0.06954620  0.67980440  0.65010444  1
  Si0+  Si107  1  0.67629944  0.93007115  0.01649104  1
  Si0+  Si108  1  0.32329412  0.07010493  0.35126512  1
  Si0+  Si109  1  0.92547882  0.82572549  0.98223800  1
  Si0+  Si110  1  0.17931720  0.92751830  0.68327622  1
  Si0+  Si111  1  0.32249507  0.57282815  0.35007938  1
  Si0+  Si112  1  0.31936211  0.07158784  0.68070034  1
  Si0+  Si113  1  0.32323221  0.06914306  0.01453544  1
  Si0+  Si114  1  0.57623536  0.67693151  0.31563937  1
  Si0+  Si115  1  0.92974679  0.32310640  0.64858998  1
  Si0+  Si116  1  0.42645758  0.32389073  0.98556377  1
  Si0+  Si117  1  0.92650385  0.82284305  0.31834318  1
  Si0+  Si118  1  0.67539296  0.92824568  0.34877492  1
  Si0+  Si119  1  0.42940680  0.81877750  0.98407031  1
  O2-  O120  1  0.24643503  0.00385315  0.05620629  1
  O2-  O121  1  0.25216841  0.00405861  0.39646015  1
  O2-  O122  1  0.24898535  -0.00009203  0.72525801  1
  O2-  O123  1  0.25414620  0.49782841  0.06506580  1
  O2-  O124  1  0.26107073  0.49755449  0.39426663  1
  O2-  O125  1  0.24974030  0.49029697  0.72528175  1
  O2-  O126  1  0.74841195  0.00003903  0.05772193  1
  O2-  O127  1  0.74327380  -0.00240245  0.39193412  1
  O2-  O128  1  0.74459854  0.00424089  0.73404053  1
  O2-  O129  1  0.75144790  0.49794704  0.06505249  1
  O2-  O130  1  0.74330908  0.50002807  0.39380918  1
  O2-  O131  1  0.75564834  0.50678265  0.72476125  1
  O2-  O132  1  0.00760054  0.24505146  0.27225933  1
  O2-  O133  1  -0.00320297  0.25236026  0.60579517  1
  O2-  O134  1  0.01007749  0.24604245  0.94233736  1
  O2-  O135  1  -0.00855210  0.75222598  0.27210791  1
  O2-  O136  1  -0.00635653  0.74522565  0.60823420  1
  O2-  O137  1  -0.00995808  0.75248556  0.93846281  1
  O2-  O138  1  0.50115757  0.25558237  0.26740496  1
  O2-  O139  1  0.50181512  0.25451033  0.60402920  1
  O2-  O140  1  0.49891192  0.26005442  0.93983276  1
  O2-  O141  1  0.50511374  0.74386229  0.27139086  1
  O2-  O142  1  0.50789171  0.74979842  0.60770457  1
  O2-  O143  1  0.49662655  0.74425390  0.94292563  1
  O2-  O144  1  0.06961328  0.16396023  0.09134501  1
  O2-  O145  1  0.06883266  0.17352935  0.42370077  1
  O2-  O146  1  0.07008231  0.17748445  0.76670941  1
  O2-  O147  1  0.07067815  0.68328590  0.09653052  1
  O2-  O148  1  0.06889097  0.68159511  0.43296212  1
  O2-  O149  1  0.07000388  0.68148937  0.75518138  1
  O2-  O150  1  0.56749179  0.17608687  0.09642785  1
  O2-  O151  1  0.57132375  0.18192791  0.43144388  1
  O2-  O152  1  0.56831601  0.18106618  0.76533089  1
  O2-  O153  1  0.57734256  0.68615419  0.09092291  1
  O2-  O154  1  0.57778821  0.67746133  0.42124184  1
  O2-  O155  1  0.57293890  0.67892752  0.75765807  1
  O2-  O156  1  0.17736792  0.43252019  0.23609872  1
  O2-  O157  1  0.17368351  0.42790286  0.57734221  1
  O2-  O158  1  0.18233477  0.42803570  0.89981885  1
  O2-  O159  1  0.18192816  0.92843460  0.23406130  1
  O2-  O160  1  0.17971257  0.92577667  0.57844500  1
  O2-  O161  1  0.17869123  0.93075702  0.90839677  1
  O2-  O162  1  0.68012995  0.42770258  0.24418147  1
  O2-  O163  1  0.68158707  0.43394878  0.56495033  1
  O2-  O164  1  0.67973882  0.42564335  0.90323386  1
  O2-  O165  1  0.67737681  0.92711498  0.24265772  1
  O2-  O166  1  0.67894061  0.92783310  0.56890223  1
  O2-  O167  1  0.67367380  0.92984772  0.91185182  1
  O2-  O168  1  0.42342484  0.31729259  0.09055177  1
  O2-  O169  1  0.42762173  0.32280151  0.43031044  1
  O2-  O170  1  0.42803248  0.32371926  0.76827242  1
  O2-  O171  1  0.42974276  0.82082115  0.08909072  1
  O2-  O172  1  0.43033557  0.81711550  0.43155918  1
  O2-  O173  1  0.42617671  0.81751669  0.76693087  1
  O2-  O174  1  0.93154557  0.31904506  0.09804830  1
  O2-  O175  1  0.93184815  0.31794834  0.43352465  1
  O2-  O176  1  0.93250780  0.32542270  0.75418101  1
  O2-  O177  1  0.92899459  0.83352033  0.08725942  1
  O2-  O178  1  0.92899522  0.82127037  0.42409701  1
  O2-  O179  1  0.93161928  0.82258778  0.75623261  1
  O2-  O180  1  0.32161228  0.06662001  0.24500628  1
  O2-  O181  1  0.31729707  0.06974388  0.57611605  1
  O2-  O182  1  0.32392652  0.06637940  0.90920137  1
  O2-  O183  1  0.31771174  0.57628114  0.24485281  1
  O2-  O184  1  0.31396027  0.57506415  0.56560703  1
  O2-  O185  1  0.31819777  0.57689387  0.90275100  1
  O2-  O186  1  0.81903625  0.07044757  0.23279374  1
  O2-  O187  1  0.82320017  0.06905953  0.57126033  1
  O2-  O188  1  0.82460802  0.06548382  0.91062067  1
  O2-  O189  1  0.82221458  0.56843048  0.23431566  1
  O2-  O190  1  0.82693216  0.57383019  0.57654739  1
  O2-  O191  1  0.81644336  0.57064434  0.89923070  1
  O2-  O192  1  0.04371551  0.07982898  0.27362851  1
  O2-  O193  1  0.04015515  0.07879018  0.60111731  1
  O2-  O194  1  0.04412286  0.08188000  0.93627968  1
  O2-  O195  1  0.03796111  0.58322316  0.26654042  1
  O2-  O196  1  0.04732473  0.58620153  0.60345855  1
  O2-  O197  1  0.04185949  0.58531406  0.92521453  1
  O2-  O198  1  0.54182692  0.08393485  0.26336819  1
  O2-  O199  1  0.54343764  0.08224833  0.59974744  1
  O2-  O200  1  0.53372143  0.08413152  0.93025922  1
  O2-  O201  1  0.55432055  0.58326107  0.26897927  1
  O2-  O202  1  0.54589663  0.58735582  0.60396605  1
  O2-  O203  1  0.55156244  0.58384813  0.94377584  1
  O2-  O204  1  0.16825604  0.19184082  0.27564212  1
  O2-  O205  1  0.16553353  0.20280825  0.59572821  1
  O2-  O206  1  0.17046932  0.19348112  0.94404409  1
  O2-  O207  1  0.16310449  0.71421800  0.26420231  1
  O2-  O208  1  0.15849844  0.71443779  0.60246718  1
  O2-  O209  1  0.16312198  0.71854608  0.92787071  1
  O2-  O210  1  0.66919766  0.20966755  0.26393791  1
  O2-  O211  1  0.67360513  0.20746110  0.60358857  1
  O2-  O212  1  0.66779039  0.20400779  0.93031980  1
  O2-  O213  1  0.66854934  0.70694841  0.26843328  1
  O2-  O214  1  0.66995573  0.70130200  0.60769370  1
  O2-  O215  1  0.66207670  0.71315806  0.93607633  1
  O2-  O216  1  0.08236349  0.46167328  0.06278281  1
  O2-  O217  1  0.08698827  0.46392251  0.40529010  1
  O2-  O218  1  0.08551856  0.45691270  0.72990766  1
  O2-  O219  1  0.08602928  0.95516542  0.06193334  1
  O2-  O220  1  0.08397261  0.95472520  0.40420696  1
  O2-  O221  1  0.08770527  0.95380159  0.73155917  1
  O2-  O222  1  0.58165253  0.45074661  0.07132479  1
  O2-  O223  1  0.58199943  0.45256511  0.39304932  1
  O2-  O224  1  0.58550928  0.46292448  0.73514356  1
  O2-  O225  1  0.58474934  0.95923555  0.06424985  1
  O2-  O226  1  0.58036734  0.95328534  0.39116156  1
  O2-  O227  1  0.57492787  0.95367949  0.73399071  1
  O2-  O228  1  0.20198755  0.32751144  0.06788952  1
  O2-  O229  1  0.20473355  0.32804420  0.40032431  1
  O2-  O230  1  0.19630169  0.32909417  0.72604606  1
  O2-  O231  1  0.20941786  0.84044205  0.06092082  1
  O2-  O232  1  0.21411038  0.83197780  0.40153279  1
  O2-  O233  1  0.20974628  0.83713297  0.73194685  1
  O2-  O234  1  0.71158299  0.32550298  0.06663458  1
  O2-  O235  1  0.70770204  0.33680048  0.39560099  1
  O2-  O236  1  0.71229914  0.33689391  0.73470604  1
  O2-  O237  1  0.70297452  0.83908655  0.06580128  1
  O2-  O238  1  0.69859584  0.83501241  0.39643143  1
  O2-  O239  1  0.70720899  0.83207461  0.73717312  1
  O2-  O240  1  0.44595046  0.42549670  0.26598618  1
  O2-  O241  1  0.45509498  0.42445777  0.60213354  1
  O2-  O242  1  0.44675512  0.42180368  0.94684532  1
  O2-  O243  1  0.45891295  0.91363391  0.26035886  1
  O2-  O244  1  0.45344404  0.91725963  0.59821722  1
  O2-  O245  1  0.46106692  0.90927750  0.93621594  1
  O2-  O246  1  0.96442941  0.41556023  0.26749472  1
  O2-  O247  1  0.95714064  0.41622993  0.60147914  1
  O2-  O248  1  0.96135095  0.41478830  0.92680465  1
  O2-  O249  1  0.95538803  0.91614794  0.27321507  1
  O2-  O250  1  0.96141179  0.91027076  0.60287925  1
  O2-  O251  1  0.95819120  0.91585674  0.93190658  1
  O2-  O252  1  0.32837365  0.28992269  0.26382980  1
  O2-  O253  1  0.33035042  0.29493502  0.60209500  1
  O2-  O254  1  0.33407002  0.29372777  0.93818291  1
  O2-  O255  1  0.33446409  0.78756181  0.26298862  1
  O2-  O256  1  0.33265555  0.78556637  0.59961137  1
  O2-  O257  1  0.33621522  0.79632586  0.93674109  1
  O2-  O258  1  0.83656299  0.28862702  0.26515271  1
  O2-  O259  1  0.83572508  0.29904711  0.60424888  1
  O2-  O260  1  0.83778321  0.28517754  0.92894803  1
  O2-  O261  1  0.83057353  0.80360838  0.27463889  1
  O2-  O262  1  0.83438268  0.79959961  0.60509945  1
  O2-  O263  1  0.82962064  0.80500520  0.93882588  1
  O2-  O264  1  0.41128395  0.03270570  0.06351432  1
  O2-  O265  1  0.41611089  0.03903831  0.39484561  1
  O2-  O266  1  0.41044960  0.04284611  0.72877442  1
  O2-  O267  1  0.42218039  0.55875925  0.06903335  1
  O2-  O268  1  0.42010520  0.55760768  0.39220044  1
  O2-  O269  1  0.41678449  0.54863207  0.73330283  1
  O2-  O270  1  0.91212600  0.03896290  0.06413294  1
  O2-  O271  1  0.91369766  0.04056537  0.40320696  1
  O2-  O272  1  0.91777196  0.03487315  0.73845785  1
  O2-  O273  1  0.92127771  0.54373786  0.05999750  1
  O2-  O274  1  0.91618539  0.53688006  0.40292426  1
  O2-  O275  1  0.91953368  0.54591863  0.72742353  1
  O2-  O276  1  0.30273414  0.16166127  0.06279375  1
  O2-  O277  1  0.30210009  0.16434572  0.39655590  1
  O2-  O278  1  0.28930538  0.16247868  0.72929108  1
  O2-  O279  1  0.28653406  0.67270631  0.06757167  1
  O2-  O280  1  0.28879288  0.66382532  0.39667521  1
  O2-  O281  1  0.28141781  0.66443749  0.73449532  1
  O2-  O282  1  0.79424810  0.16127793  0.05982735  1
  O2-  O283  1  0.78904078  0.16867381  0.40109598  1
  O2-  O284  1  0.80132619  0.17217702  0.73660052  1
  O2-  O285  1  0.79422824  0.67123150  0.06532753  1
  O2-  O286  1  0.79499306  0.66877416  0.40091040  1
  O2-  O287  1  0.80591773  0.66875294  0.72776002  1
