# generated using pymatgen
data_Ca2Al2SiO7
_symmetry_space_group_name_H-M   'P 1'
_cell_length_a   15.45671121
_cell_length_b   15.45679627
_cell_length_c   15.28283494
_cell_angle_alpha   90.00370285
_cell_angle_beta   89.99501814
_cell_angle_gamma   90.01102499
_symmetry_Int_Tables_number   1
_chemical_formula_structural   Ca2Al2SiO7
_chemical_formula_sum   'Ca48 Al48 Si24 O168'
_cell_volume   3651.24089779
_cell_formula_units_Z   24
loop_
 _symmetry_equiv_pos_site_id
 _symmetry_equiv_pos_as_xyz
  1  'x, y, z'
loop_
 _atom_type_symbol
 _atom_type_oxidation_number
  Ca2+  2.0
  Al0+  0.0
  Si0+  0.0
  O2-  -2.0
loop_
 _atom_site_type_symbol
 _atom_site_label
 _atom_site_symmetry_multiplicity
 _atom_site_fract_x
 _atom_site_fract_y
 _atom_site_fract_z
 _atom_site_occupancy
  Ca2+  Ca0  1  0.17530318  0.07640431  0.17773116  1
  Ca2+  Ca1  1  0.17771551  0.07293476  0.50345732  1
  Ca2+  Ca2  1  0.17149779  0.07935997  0.82959454  1
  Ca2+  Ca3  1  0.16702105  0.58158011  0.16942556  1
  Ca2+  Ca4  1  0.18069874  0.58227941  0.50625058  1
  Ca2+  Ca5  1  0.16822494  0.57660385  0.83556035  1
  Ca2+  Ca6  1  0.66529018  0.07723228  0.16968711  1
  Ca2+  Ca7  1  0.66706569  0.07881388  0.50045112  1
  Ca2+  Ca8  1  0.67619732  0.08052790  0.84160982  1
  Ca2+  Ca9  1  0.66878400  0.57864700  0.18260104  1
  Ca2+  Ca10  1  0.66648716  0.58561486  0.49585469  1
  Ca2+  Ca11  1  0.66862040  0.58093296  0.83551496  1
  Ca2+  Ca12  1  0.08379902  0.33401948  0.16057084  1
  Ca2+  Ca13  1  0.08129555  0.33726604  0.50151926  1
  Ca2+  Ca14  1  0.08234964  0.33529448  0.82418720  1
  Ca2+  Ca15  1  0.07962313  0.83031393  0.16539209  1
  Ca2+  Ca16  1  0.07426493  0.84781344  0.49568607  1
  Ca2+  Ca17  1  0.08236230  0.82947141  0.82453596  1
  Ca2+  Ca18  1  0.58792511  0.32158528  0.16582191  1
  Ca2+  Ca19  1  0.57926749  0.32678312  0.49294617  1
  Ca2+  Ca20  1  0.57748446  0.32462553  0.82612588  1
  Ca2+  Ca21  1  0.58182400  0.83746489  0.16930551  1
  Ca2+  Ca22  1  0.57152473  0.83146110  0.48898737  1
  Ca2+  Ca23  1  0.58036949  0.83462817  0.82924880  1
  Ca2+  Ca24  1  0.32811473  0.42302903  0.17315021  1
  Ca2+  Ca25  1  0.33590046  0.42747043  0.50958210  1
  Ca2+  Ca26  1  0.32571375  0.41479621  0.83165224  1
  Ca2+  Ca27  1  0.32745140  0.91854543  0.18063004  1
  Ca2+  Ca28  1  0.33168802  0.91905924  0.50699623  1
  Ca2+  Ca29  1  0.33389942  0.91576427  0.82863482  1
  Ca2+  Ca30  1  0.82620694  0.42607151  0.17697022  1
  Ca2+  Ca31  1  0.82847342  0.41894254  0.50016569  1
  Ca2+  Ca32  1  0.83628797  0.41520382  0.83494801  1
  Ca2+  Ca33  1  0.82244793  0.91643334  0.17350943  1
  Ca2+  Ca34  1  0.82881881  0.91407799  0.50559132  1
  Ca2+  Ca35  1  0.83326270  0.92688155  0.83778617  1
  Ca2+  Ca36  1  0.43021402  0.15546290  0.16725071  1
  Ca2+  Ca37  1  0.41228588  0.16923168  0.49390462  1
  Ca2+  Ca38  1  0.42202825  0.16715577  0.82512132  1
  Ca2+  Ca39  1  0.41582518  0.66921696  0.17183644  1
  Ca2+  Ca40  1  0.41395644  0.67309813  0.49232479  1
  Ca2+  Ca41  1  0.41825526  0.67091330  0.82385596  1
  Ca2+  Ca42  1  0.91521509  0.16746826  0.16265135  1
  Ca2+  Ca43  1  0.91377166  0.16862128  0.50017681  1
  Ca2+  Ca44  1  0.91314980  0.16896269  0.82331632  1
  Ca2+  Ca45  1  0.91618619  0.67205320  0.16624767  1
  Ca2+  Ca46  1  0.91857120  0.67777645  0.49192895  1
  Ca2+  Ca47  1  0.92521807  0.67328270  0.82671347  1
  Al0+  Al48  1  0.00106317  0.00233152  0.00303290  1
  Al0+  Al49  1  -0.00023570  0.00236764  0.32877215  1
  Al0+  Al50  1  0.00001771  0.00074646  0.67065460  1
  Al0+  Al51  1  0.00128845  0.50084080  0.00000650  1
  Al0+  Al52  1  -0.00217165  0.50077586  0.33600490  1
  Al0+  Al53  1  -0.00091428  0.50017098  0.66358050  1
  Al0+  Al54  1  0.50119651  0.00051479  -0.00363773  1
  Al0+  Al55  1  0.50115700  0.00173237  0.33315284  1
  Al0+  Al56  1  0.50166284  -0.00258074  0.66679723  1
  Al0+  Al57  1  0.49849407  0.50148277  -0.00100518  1
  Al0+  Al58  1  0.49833690  0.49867556  0.33640723  1
  Al0+  Al59  1  0.50212313  0.49719847  0.66855060  1
  Al0+  Al60  1  0.24895476  0.25145084  0.00451759  1
  Al0+  Al61  1  0.24786638  0.24947140  0.33443339  1
  Al0+  Al62  1  0.25099144  0.24931222  0.66846723  1
  Al0+  Al63  1  0.24981688  0.74931263  -0.00484430  1
  Al0+  Al64  1  0.24594248  0.74824762  0.33615276  1
  Al0+  Al65  1  0.25193746  0.74859848  0.67118461  1
  Al0+  Al66  1  0.74980887  0.25028382  -0.00116058  1
  Al0+  Al67  1  0.74935243  0.25139036  0.33180528  1
  Al0+  Al68  1  0.75105861  0.24979472  0.66543375  1
  Al0+  Al69  1  0.74873259  0.75140193  0.00057748  1
  Al0+  Al70  1  0.75034915  0.75077662  0.33343341  1
  Al0+  Al71  1  0.75182478  0.74787912  0.66541394  1
  Al0+  Al72  1  0.07029711  0.67971067  0.98526020  1
  Al0+  Al73  1  0.93093944  0.82216302  0.65425013  1
  Al0+  Al74  1  0.17858174  0.92864825  0.68295296  1
  Al0+  Al75  1  0.57102821  0.17981244  0.31982051  1
  Al0+  Al76  1  0.17916324  0.43009852  0.01476461  1
  Al0+  Al77  1  0.42843314  0.31910576  0.65332825  1
  Al0+  Al78  1  0.42628318  0.82125920  0.31872545  1
  Al0+  Al79  1  0.82259570  0.07334735  0.01669330  1
  Al0+  Al80  1  0.32268630  0.07048797  0.34716447  1
  Al0+  Al81  1  0.67828635  0.92921242  0.01593172  1
  Al0+  Al82  1  0.82123726  0.57274669  0.34946263  1
  Al0+  Al83  1  0.92870562  0.82329898  0.31839444  1
  Al0+  Al84  1  0.81915344  0.07052069  0.67837794  1
  Al0+  Al85  1  0.57051763  0.17961233  0.98401632  1
  Al0+  Al86  1  0.67969204  0.92950382  0.34817906  1
  Al0+  Al87  1  0.92855235  0.32179748  0.65152408  1
  Al0+  Al88  1  0.17804859  0.43009638  0.68065967  1
  Al0+  Al89  1  0.17706999  0.92795963  0.34651264  1
  Al0+  Al90  1  0.32451670  0.57092499  0.68402384  1
  Al0+  Al91  1  0.31937177  0.56973312  0.34620501  1
  Al0+  Al92  1  0.67818203  0.42725555  0.34884973  1
  Al0+  Al93  1  0.43036854  0.81942273  0.65312269  1
  Al0+  Al94  1  0.56955635  0.67847946  0.31876589  1
  Al0+  Al95  1  0.32407914  0.07089625  0.68258053  1
  Si0+  Si96  1  0.67751915  0.43032347  0.01304528  1
  Si0+  Si97  1  0.92728487  0.82310269  0.98328045  1
  Si0+  Si98  1  0.17603014  0.42650570  0.35023770  1
  Si0+  Si99  1  0.68093873  0.42779324  0.68336567  1
  Si0+  Si100  1  0.57212798  0.67708888  0.98508238  1
  Si0+  Si101  1  0.67917379  0.92489708  0.68282201  1
  Si0+  Si102  1  0.32037976  0.07089925  0.01412425  1
  Si0+  Si103  1  0.17994593  0.92728283  0.01458081  1
  Si0+  Si104  1  0.42513986  0.32192504  0.31616819  1
  Si0+  Si105  1  0.07079027  0.18078517  0.31683417  1
  Si0+  Si106  1  0.57399103  0.67552671  0.65058315  1
  Si0+  Si107  1  0.07215768  0.67804537  0.64915915  1
  Si0+  Si108  1  0.82086312  0.57153065  0.68303482  1
  Si0+  Si109  1  0.42697586  0.32371438  0.98385254  1
  Si0+  Si110  1  0.92926917  0.32201416  0.31690489  1
  Si0+  Si111  1  0.07022432  0.67584208  0.31689608  1
  Si0+  Si112  1  0.32255446  0.57392787  0.01770237  1
  Si0+  Si113  1  0.93069340  0.32022021  0.98617377  1
  Si0+  Si114  1  0.07338437  0.17893317  0.98490766  1
  Si0+  Si115  1  0.82073558  0.57049485  0.01282975  1
  Si0+  Si116  1  0.82240197  0.07303929  0.34945452  1
  Si0+  Si117  1  0.07243584  0.17793908  0.64947912  1
  Si0+  Si118  1  0.42914695  0.82066225  0.98475518  1
  Si0+  Si119  1  0.57252696  0.17778465  0.64979615  1
  O2-  O120  1  0.25027037  -0.00101125  0.05630816  1
  O2-  O121  1  0.25568821  -0.00688198  0.39542847  1
  O2-  O122  1  0.25283526  -0.00157614  0.73396550  1
  O2-  O123  1  0.25447680  0.50397740  0.06087207  1
  O2-  O124  1  0.24641888  0.49321192  0.39255007  1
  O2-  O125  1  0.25066681  0.50000057  0.73322065  1
  O2-  O126  1  0.75238212  -0.00043880  0.06565030  1
  O2-  O127  1  0.75625047  0.00287172  0.39413161  1
  O2-  O128  1  0.74708253  -0.00552781  0.72662378  1
  O2-  O129  1  0.74617214  0.50343201  0.05523497  1
  O2-  O130  1  0.74728695  0.50214660  0.39883915  1
  O2-  O131  1  0.75101241  0.49973165  0.72653731  1
  O2-  O132  1  0.00120743  0.25306461  0.27329059  1
  O2-  O133  1  0.00471853  0.24842045  0.60534336  1
  O2-  O134  1  -0.00115769  0.24680763  0.94333286  1
  O2-  O135  1  0.00305246  0.74681507  0.27320195  1
  O2-  O136  1  0.00858258  0.75159383  0.60561283  1
  O2-  O137  1  -0.00276116  0.75611478  0.93845057  1
  O2-  O138  1  0.49358595  0.25266998  0.27213023  1
  O2-  O139  1  0.49893316  0.24102481  0.60595081  1
  O2-  O140  1  0.49548517  0.25498369  0.93923489  1
  O2-  O141  1  0.49886886  0.75057556  0.26609414  1
  O2-  O142  1  0.50378393  0.74282898  0.60837994  1
  O2-  O143  1  0.50141854  0.74896165  0.94441211  1
  O2-  O144  1  0.07491669  0.18122924  0.09004806  1
  O2-  O145  1  0.07018617  0.18128536  0.42147462  1
  O2-  O146  1  0.07055164  0.17839712  0.75577936  1
  O2-  O147  1  0.06907016  0.68058921  0.09826260  1
  O2-  O148  1  0.06844519  0.67132930  0.42192418  1
  O2-  O149  1  0.06698974  0.67630851  0.75535590  1
  O2-  O150  1  0.56986597  0.18047986  0.09698869  1
  O2-  O151  1  0.57388829  0.18277064  0.43256023  1
  O2-  O152  1  0.57403846  0.18187751  0.75584620  1
  O2-  O153  1  0.57306227  0.67185580  0.08912732  1
  O2-  O154  1  0.56769744  0.67970862  0.43225603  1
  O2-  O155  1  0.57624988  0.67671615  0.75721738  1
  O2-  O156  1  0.17539275  0.42692930  0.24402791  1
  O2-  O157  1  0.17747783  0.43370798  0.56724637  1
  O2-  O158  1  0.17770808  0.42948157  0.90239770  1
  O2-  O159  1  0.17668034  0.93158144  0.23176526  1
  O2-  O160  1  0.17663069  0.93250715  0.57006715  1
  O2-  O161  1  0.18003054  0.92750214  0.90982459  1
  O2-  O162  1  0.68297989  0.42613440  0.23421801  1
  O2-  O163  1  0.68157721  0.42689498  0.57895452  1
  O2-  O164  1  0.67910494  0.43121737  0.90762324  1
  O2-  O165  1  0.68017807  0.93148211  0.23506202  1
  O2-  O166  1  0.67997284  0.92442219  0.57753888  1
  O2-  O167  1  0.67928988  0.92899069  0.90198109  1
  O2-  O168  1  0.42832197  0.32603574  0.08926437  1
  O2-  O169  1  0.42483285  0.32065597  0.42165311  1
  O2-  O170  1  0.43269347  0.31910569  0.76707302  1
  O2-  O171  1  0.42625700  0.82061262  0.08936019  1
  O2-  O172  1  0.42704191  0.81971258  0.43191255  1
  O2-  O173  1  0.43484297  0.81896880  0.76728558  1
  O2-  O174  1  0.93200575  0.32152716  0.09139961  1
  O2-  O175  1  0.92945497  0.32107271  0.42176489  1
  O2-  O176  1  0.92771230  0.32037310  0.76535192  1
  O2-  O177  1  0.92715028  0.82068521  0.08871596  1
  O2-  O178  1  0.93080295  0.82422509  0.43153473  1
  O2-  O179  1  0.92968923  0.81835275  0.76783987  1
  O2-  O180  1  0.31872185  0.07115705  0.23244586  1
  O2-  O181  1  0.32265844  0.07083164  0.56965687  1
  O2-  O182  1  0.31907507  0.07153443  0.90929432  1
  O2-  O183  1  0.31682196  0.56806511  0.23236787  1
  O2-  O184  1  0.32428210  0.56981897  0.57060445  1
  O2-  O185  1  0.32428313  0.57387509  0.91265646  1
  O2-  O186  1  0.82177984  0.07381989  0.24378856  1
  O2-  O187  1  0.81675954  0.07182992  0.56551896  1
  O2-  O188  1  0.82210105  0.07392979  0.90295360  1
  O2-  O189  1  0.82312324  0.56822125  0.23475614  1
  O2-  O190  1  0.81938829  0.57288999  0.57874308  1
  O2-  O191  1  0.82021560  0.56821791  0.90733222  1
  O2-  O192  1  0.04183584  0.09119176  0.26542968  1
  O2-  O193  1  0.04310708  0.08578277  0.60383812  1
  O2-  O194  1  0.04997992  0.08541475  0.93845642  1
  O2-  O195  1  0.04163065  0.58296747  0.26852086  1
  O2-  O196  1  0.04095156  0.58725650  0.60159831  1
  O2-  O197  1  0.03636399  0.58383192  0.93087768  1
  O2-  O198  1  0.54159537  0.08420580  0.26303664  1
  O2-  O199  1  0.55411522  0.08138928  0.60803823  1
  O2-  O200  1  0.53986220  0.08364554  0.92863814  1
  O2-  O201  1  0.54127981  0.57847935  0.26674307  1
  O2-  O202  1  0.55220060  0.58040242  0.60735483  1
  O2-  O203  1  0.54401268  0.58604078  0.93433660  1
  O2-  O204  1  0.16227299  0.20824675  0.26716146  1
  O2-  O205  1  0.16597377  0.20259995  0.60394465  1
  O2-  O206  1  0.16402769  0.21018123  0.93704028  1
  O2-  O207  1  0.16342540  0.69946812  0.26934591  1
  O2-  O208  1  0.16876822  0.69732234  0.60889753  1
  O2-  O209  1  0.16716967  0.70798327  0.93003148  1
  O2-  O210  1  0.66654870  0.21393050  0.26359335  1
  O2-  O211  1  0.66326918  0.21036505  0.60298862  1
  O2-  O212  1  0.66724287  0.21248220  0.93030215  1
  O2-  O213  1  0.66929985  0.70425090  0.26712212  1
  O2-  O214  1  0.66748666  0.70086365  0.60475628  1
  O2-  O215  1  0.66406261  0.70411489  0.93586663  1
  O2-  O216  1  0.08275951  0.46216348  0.06946187  1
  O2-  O217  1  0.08247647  0.45227899  0.39511387  1
  O2-  O218  1  0.07844488  0.45881156  0.73295851  1
  O2-  O219  1  0.08773129  0.95404203  0.06160198  1
  O2-  O220  1  0.08129017  0.96662136  0.39793216  1
  O2-  O221  1  0.08186847  0.95995442  0.73880508  1
  O2-  O222  1  0.58473373  0.45557457  0.05920645  1
  O2-  O223  1  0.57881193  0.45029516  0.40038520  1
  O2-  O224  1  0.59029879  0.45491140  0.73348687  1
  O2-  O225  1  0.57942958  0.95968878  0.06681861  1
  O2-  O226  1  0.58413071  0.96206389  0.40184865  1
  O2-  O227  1  0.58610853  0.94987437  0.72955423  1
  O2-  O228  1  0.20805359  0.33356972  0.07119893  1
  O2-  O229  1  0.19774531  0.33217692  0.39526219  1
  O2-  O230  1  0.20396512  0.33072583  0.73294319  1
  O2-  O231  1  0.20868330  0.83524674  0.06081713  1
  O2-  O232  1  0.19233664  0.82698647  0.39685376  1
  O2-  O233  1  0.20516358  0.82977266  0.73595901  1
  O2-  O234  1  0.70785867  0.33946486  0.05988793  1
  O2-  O235  1  0.71317130  0.33156414  0.40297688  1
  O2-  O236  1  0.71158962  0.33741875  0.73217429  1
  O2-  O237  1  0.70350927  0.82892563  0.06771767  1
  O2-  O238  1  0.70893398  0.83311027  0.40150647  1
  O2-  O239  1  0.70529427  0.83113222  0.72937770  1
  O2-  O240  1  0.45081686  0.41510672  0.26981626  1
  O2-  O241  1  0.46403818  0.41477209  0.60042991  1
  O2-  O242  1  0.45225886  0.41745579  0.93683557  1
  O2-  O243  1  0.45475001  0.92022721  0.26678550  1
  O2-  O244  1  0.46133694  0.91597104  0.59925005  1
  O2-  O245  1  0.45752913  0.91158328  0.93589932  1
  O2-  O246  1  0.95593344  0.41447206  0.26937882  1
  O2-  O247  1  0.95668421  0.41854010  0.59647645  1
  O2-  O248  1  0.96003336  0.41140059  0.93826250  1
  O2-  O249  1  0.95951166  0.91926503  0.26201413  1
  O2-  O250  1  0.95741473  0.92030301  0.60168771  1
  O2-  O251  1  0.95261290  0.91857097  0.94073086  1
  O2-  O252  1  0.33037917  0.29784480  0.27039431  1
  O2-  O253  1  0.33058941  0.29401257  0.59971050  1
  O2-  O254  1  0.33259497  0.29655204  0.94016910  1
  O2-  O255  1  0.32686572  0.79090892  0.26678876  1
  O2-  O256  1  0.33178066  0.79151155  0.60246626  1
  O2-  O257  1  0.33850829  0.79212541  0.93518944  1
  O2-  O258  1  0.83859973  0.29306862  0.26791231  1
  O2-  O259  1  0.83308967  0.28860942  0.59682372  1
  O2-  O260  1  0.83788461  0.29627718  0.93848942  1
  O2-  O261  1  0.83340297  0.79042211  0.26345538  1
  O2-  O262  1  0.83509869  0.78761933  0.60086132  1
  O2-  O263  1  0.83387462  0.79616358  0.93701445  1
  O2-  O264  1  0.41296919  0.04274202  0.05875240  1
  O2-  O265  1  0.42271959  0.05184884  0.39807968  1
  O2-  O266  1  0.42298491  0.04178136  0.73576931  1
  O2-  O267  1  0.41665926  0.54850017  0.06361476  1
  O2-  O268  1  0.41515807  0.54085591  0.40114754  1
  O2-  O269  1  0.42328366  0.54123444  0.73706299  1
  O2-  O270  1  0.92333573  0.05036244  0.06836542  1
  O2-  O271  1  0.91743454  0.05112795  0.39291287  1
  O2-  O272  1  0.91567291  0.04371203  0.73444608  1
  O2-  O273  1  0.91045705  0.53894433  0.06113834  1
  O2-  O274  1  0.91779281  0.54067384  0.40377977  1
  O2-  O275  1  0.91239071  0.54276014  0.73019066  1
  O2-  O276  1  0.29235896  0.16204330  0.06244755  1
  O2-  O277  1  0.28789047  0.16757500  0.39927114  1
  O2-  O278  1  0.29473572  0.16866303  0.73661523  1
  O2-  O279  1  0.29431762  0.66726562  0.06273950  1
  O2-  O280  1  0.28670564  0.66448234  0.40163733  1
  O2-  O281  1  0.29694264  0.66847601  0.73843333  1
  O2-  O282  1  0.79341589  0.17262496  0.06824419  1
  O2-  O283  1  0.79541456  0.16654028  0.39430510  1
  O2-  O284  1  0.78782244  0.16704010  0.73373801  1
  O2-  O285  1  0.79692879  0.66389154  0.05798124  1
  O2-  O286  1  0.79547143  0.67095569  0.40192433  1
  O2-  O287  1  0.79178668  0.66188497  0.73379838  1
