# generated using pymatgen
data_Ca2Al2SiO7
_symmetry_space_group_name_H-M   'P 1'
_cell_length_a   15.45792604
_cell_length_b   15.45847023
_cell_length_c   15.28269971
_cell_angle_alpha   90.01720394
_cell_angle_beta   89.98635686
_cell_angle_gamma   89.99368148
_symmetry_Int_Tables_number   1
_chemical_formula_structural   Ca2Al2SiO7
_chemical_formula_sum   'Ca48 Al48 Si24 O168'
_cell_volume   3651.89081423
_cell_formula_units_Z   24
loop_
 _symmetry_equiv_pos_site_id
 _symmetry_equiv_pos_as_xyz
  1  'x, y, z'
loop_
 _atom_type_symbol
 _atom_type_oxidation_number
  Ca2+  2.0
  Al0+  0.0
  Si0+  0.0
  O2-  -2.0
loop_
 _atom_site_type_symbol
 _atom_site_label
 _atom_site_symmetry_multiplicity
 _atom_site_fract_x
 _atom_site_fract_y
 _atom_site_fract_z
 _atom_site_occupancy
  Ca2+  Ca0  1  0.17555547  0.07489435  0.17803058  1
  Ca2+  Ca1  1  0.17070152  0.07194587  0.50289479  1
  Ca2+  Ca2  1  0.16409597  0.07637394  0.83287341  1
  Ca2+  Ca3  1  0.17120788  0.57235195  0.17200849  1
  Ca2+  Ca4  1  0.16767649  0.57656639  0.50270823  1
  Ca2+  Ca5  1  0.16148115  0.57513072  0.83232132  1
  Ca2+  Ca6  1  0.67191693  0.08602624  0.17515911  1
  Ca2+  Ca7  1  0.66629928  0.08496063  0.50420724  1
  Ca2+  Ca8  1  0.66204082  0.08123029  0.82857432  1
  Ca2+  Ca9  1  0.67367519  0.58236715  0.16663831  1
  Ca2+  Ca10  1  0.67484485  0.58200072  0.50796618  1
  Ca2+  Ca11  1  0.68106994  0.58751417  0.83632454  1
  Ca2+  Ca12  1  0.07902703  0.34037955  0.16359332  1
  Ca2+  Ca13  1  0.07492235  0.34451411  0.49828392  1
  Ca2+  Ca14  1  0.07825953  0.34222799  0.82837229  1
  Ca2+  Ca15  1  0.08060752  0.83384298  0.16158351  1
  Ca2+  Ca16  1  0.08990115  0.83018857  0.49891395  1
  Ca2+  Ca17  1  0.07178547  0.82648818  0.82021378  1
  Ca2+  Ca18  1  0.57585667  0.32618821  0.16264268  1
  Ca2+  Ca19  1  0.58119408  0.32195587  0.49606659  1
  Ca2+  Ca20  1  0.57059872  0.33086247  0.82427967  1
  Ca2+  Ca21  1  0.57014987  0.83335804  0.16398757  1
  Ca2+  Ca22  1  0.57301444  0.84018945  0.49922729  1
  Ca2+  Ca23  1  0.57449571  0.83666757  0.82565489  1
  Ca2+  Ca24  1  0.32389076  0.41679171  0.17547200  1
  Ca2+  Ca25  1  0.32405419  0.41669669  0.50826173  1
  Ca2+  Ca26  1  0.32448659  0.40828659  0.83950186  1
  Ca2+  Ca27  1  0.33203430  0.91796979  0.17869802  1
  Ca2+  Ca28  1  0.32981897  0.91585685  0.50344209  1
  Ca2+  Ca29  1  0.33082047  0.91087908  0.83332723  1
  Ca2+  Ca30  1  0.84097139  0.41915033  0.16947792  1
  Ca2+  Ca31  1  0.83707468  0.41790194  0.50819304  1
  Ca2+  Ca32  1  0.84414769  0.42740960  0.83630673  1
  Ca2+  Ca33  1  0.83423305  0.92453182  0.17374626  1
  Ca2+  Ca34  1  0.82847734  0.92420211  0.51106352  1
  Ca2+  Ca35  1  0.82770631  0.90729149  0.83604503  1
  Ca2+  Ca36  1  0.41992427  0.16438341  0.16450010  1
  Ca2+  Ca37  1  0.42609612  0.16255049  0.49752487  1
  Ca2+  Ca38  1  0.41947278  0.17746729  0.82580106  1
  Ca2+  Ca39  1  0.40748839  0.67509511  0.16673568  1
  Ca2+  Ca40  1  0.40531819  0.67693548  0.49612017  1
  Ca2+  Ca41  1  0.41487766  0.67718170  0.82769212  1
  Ca2+  Ca42  1  0.91670936  0.17638761  0.16549974  1
  Ca2+  Ca43  1  0.91384834  0.17703547  0.49246338  1
  Ca2+  Ca44  1  0.91881216  0.18047890  0.82815192  1
  Ca2+  Ca45  1  0.91905065  0.67253213  0.15790264  1
  Ca2+  Ca46  1  0.92162835  0.66808045  0.50446976  1
  Ca2+  Ca47  1  0.91838722  0.66909625  0.82475911  1
  Al0+  Al48  1  -0.00151735  0.00011387  -0.00297672  1
  Al0+  Al49  1  -0.00143960  0.00258576  0.34113966  1
  Al0+  Al50  1  -0.00080205  0.00206405  0.66979834  1
  Al0+  Al51  1  0.00094186  0.50089212  0.00659353  1
  Al0+  Al52  1  -0.00007105  0.50309995  0.33121983  1
  Al0+  Al53  1  0.00125575  0.50188810  0.66607614  1
  Al0+  Al54  1  0.50041491  -0.00161341  -0.00345727  1
  Al0+  Al55  1  0.50083484  -0.00060586  0.32643822  1
  Al0+  Al56  1  0.50117100  0.00083674  0.66525956  1
  Al0+  Al57  1  0.50158331  0.50047249  -0.00297855  1
  Al0+  Al58  1  0.50237733  0.50128078  0.33608206  1
  Al0+  Al59  1  0.49939000  0.50138493  0.66397037  1
  Al0+  Al60  1  0.25000404  0.24616741  0.00250233  1
  Al0+  Al61  1  0.24806003  0.24792082  0.34343154  1
  Al0+  Al62  1  0.24871051  0.24936196  0.66802983  1
  Al0+  Al63  1  0.24906296  0.74795929  -0.00448965  1
  Al0+  Al64  1  0.24814605  0.74718630  0.33270822  1
  Al0+  Al65  1  0.24859170  0.74900640  0.66480818  1
  Al0+  Al66  1  0.75096452  0.24956634  -0.00494267  1
  Al0+  Al67  1  0.74986164  0.25129567  0.32710374  1
  Al0+  Al68  1  0.74916048  0.25066901  0.66253628  1
  Al0+  Al69  1  0.74891213  0.75027843  0.00533150  1
  Al0+  Al70  1  0.74906474  0.74977511  0.33231744  1
  Al0+  Al71  1  0.74987361  0.75161210  0.67092644  1
  Al0+  Al72  1  0.42949453  0.81746065  0.31981828  1
  Al0+  Al73  1  0.56953190  0.18048009  0.65107518  1
  Al0+  Al74  1  0.92610807  0.82282720  0.65105330  1
  Al0+  Al75  1  0.42780591  0.32042535  0.98945409  1
  Al0+  Al76  1  0.93214382  0.32063067  0.65383457  1
  Al0+  Al77  1  0.93170869  0.32171483  0.31825457  1
  Al0+  Al78  1  0.17771466  0.42859378  0.34976466  1
  Al0+  Al79  1  0.81989931  0.56907500  0.67942908  1
  Al0+  Al80  1  0.17851943  0.92744635  0.68257328  1
  Al0+  Al81  1  0.67980516  0.93150561  0.68070867  1
  Al0+  Al82  1  0.81901189  0.07307394  0.34644503  1
  Al0+  Al83  1  0.18091140  0.42932202  0.68175115  1
  Al0+  Al84  1  0.82038255  0.57021257  0.01597694  1
  Al0+  Al85  1  0.42529252  0.32369417  0.65042440  1
  Al0+  Al86  1  0.32488865  0.07041366  0.34903378  1
  Al0+  Al87  1  0.17803047  0.92756801  0.34736264  1
  Al0+  Al88  1  0.06990864  0.67969287  0.65005641  1
  Al0+  Al89  1  0.42961615  0.81944029  0.65230687  1
  Al0+  Al90  1  0.93160488  0.32174019  0.98604287  1
  Al0+  Al91  1  0.18139234  0.42791868  0.01461688  1
  Al0+  Al92  1  0.32312981  0.57008789  0.34787022  1
  Al0+  Al93  1  0.56941605  0.17997799  0.31720924  1
  Al0+  Al94  1  0.42865155  0.81978907  0.98510038  1
  Al0+  Al95  1  0.92844134  0.82225004  0.98807305  1
  Si0+  Si96  1  0.32183774  0.06785379  0.01422769  1
  Si0+  Si97  1  0.07278736  0.17627552  0.98385189  1
  Si0+  Si98  1  0.68030972  0.42908376  0.34705148  1
  Si0+  Si99  1  0.57369546  0.67830476  0.65072407  1
  Si0+  Si100  1  0.67682425  0.42597838  0.01615363  1
  Si0+  Si101  1  0.57288758  0.17754771  0.98203777  1
  Si0+  Si102  1  0.17831960  0.92767162  0.01253218  1
  Si0+  Si103  1  0.67640356  0.42651760  0.68291380  1
  Si0+  Si104  1  0.32368386  0.57239462  0.68485746  1
  Si0+  Si105  1  0.57627320  0.67544051  0.31499542  1
  Si0+  Si106  1  0.57359237  0.67824799  0.98308665  1
  Si0+  Si107  1  0.42601545  0.32324349  0.31915680  1
  Si0+  Si108  1  0.07245966  0.17548115  0.31776269  1
  Si0+  Si109  1  0.67900590  0.92760857  0.34834975  1
  Si0+  Si110  1  0.92735709  0.82323673  0.31996467  1
  Si0+  Si111  1  0.07060797  0.67843983  0.98366638  1
  Si0+  Si112  1  0.82071830  0.57274187  0.34856086  1
  Si0+  Si113  1  0.32455560  0.57304416  0.01507385  1
  Si0+  Si114  1  0.07283398  0.17585816  0.64909961  1
  Si0+  Si115  1  0.82104860  0.07227523  0.01455138  1
  Si0+  Si116  1  0.67786196  0.93000990  0.01720600  1
  Si0+  Si117  1  0.32225461  0.06990048  0.68537204  1
  Si0+  Si118  1  0.82240650  0.07577007  0.68571130  1
  Si0+  Si119  1  0.06902315  0.68052495  0.31535170  1
  O2-  O120  1  0.25190384  -0.00485453  0.05600464  1
  O2-  O121  1  0.25241044  -0.00238644  0.39659729  1
  O2-  O122  1  0.25324505  0.00171012  0.73099174  1
  O2-  O123  1  0.26087422  0.49936123  0.05868234  1
  O2-  O124  1  0.25657707  0.49369249  0.39832020  1
  O2-  O125  1  0.26051575  0.49885396  0.72943792  1
  O2-  O126  1  0.74966949  0.00130737  0.05761088  1
  O2-  O127  1  0.74746092  -0.00422975  0.39276616  1
  O2-  O128  1  0.75727949  0.00301418  0.72969795  1
  O2-  O129  1  0.74730722  0.49271335  0.06185293  1
  O2-  O130  1  0.74978743  0.50159228  0.38934189  1
  O2-  O131  1  0.74476435  0.49509195  0.72774409  1
  O2-  O132  1  0.00882277  0.24862043  0.27213352  1
  O2-  O133  1  0.00416222  0.24471105  0.60532968  1
  O2-  O134  1  0.00796113  0.24875476  0.93986671  1
  O2-  O135  1  -0.00050671  0.75459072  0.27513517  1
  O2-  O136  1  0.00180806  0.75598510  0.59953758  1
  O2-  O137  1  0.00273521  0.74838790  0.94094310  1
  O2-  O138  1  0.49087421  0.25188249  0.27207338  1
  O2-  O139  1  0.49864428  0.25321741  0.60083091  1
  O2-  O140  1  0.50534687  0.24888178  0.94158098  1
  O2-  O141  1  0.50329327  0.74106189  0.27284720  1
  O2-  O142  1  0.50250819  0.74321718  0.60532649  1
  O2-  O143  1  0.50206371  0.74373284  0.93900213  1
  O2-  O144  1  0.07114152  0.17185434  0.08927284  1
  O2-  O145  1  0.06766745  0.17165917  0.42268954  1
  O2-  O146  1  0.07139361  0.17572257  0.75535179  1
  O2-  O147  1  0.07118928  0.68100016  0.08975664  1
  O2-  O148  1  0.06715738  0.67785805  0.41981676  1
  O2-  O149  1  0.06716586  0.67853594  0.76412857  1
  O2-  O150  1  0.57311514  0.17605629  0.08779983  1
  O2-  O151  1  0.57184425  0.18164917  0.42945160  1
  O2-  O152  1  0.56754002  0.18132970  0.76525904  1
  O2-  O153  1  0.57544918  0.68038836  0.08879827  1
  O2-  O154  1  0.58485354  0.67705700  0.41965788  1
  O2-  O155  1  0.57355880  0.68014950  0.75664317  1
  O2-  O156  1  0.17718892  0.43181069  0.23557970  1
  O2-  O157  1  0.17874993  0.43306147  0.56920350  1
  O2-  O158  1  0.18010401  0.43063084  0.90177969  1
  O2-  O159  1  0.17787777  0.92882293  0.23241312  1
  O2-  O160  1  0.18142796  0.92869522  0.56994140  1
  O2-  O161  1  0.17842897  0.92991939  0.90781026  1
  O2-  O162  1  0.68039078  0.43004637  0.24164054  1
  O2-  O163  1  0.67836482  0.42751263  0.57694382  1
  O2-  O164  1  0.67532481  0.42753231  0.91100507  1
  O2-  O165  1  0.68142861  0.92716969  0.24208968  1
  O2-  O166  1  0.67928613  0.93333977  0.56763760  1
  O2-  O167  1  0.67645261  0.92994045  0.91234951  1
  O2-  O168  1  0.42852257  0.31692965  0.10274011  1
  O2-  O169  1  0.43172351  0.32447077  0.42403649  1
  O2-  O170  1  0.42644105  0.32065280  0.76487625  1
  O2-  O171  1  0.42881139  0.82063752  0.09820441  1
  O2-  O172  1  0.43160980  0.81798008  0.43244337  1
  O2-  O173  1  0.43131003  0.81871257  0.76586998  1
  O2-  O174  1  0.93162017  0.31927414  0.09917145  1
  O2-  O175  1  0.93000127  0.32221916  0.43109238  1
  O2-  O176  1  0.93396517  0.32119301  0.76724295  1
  O2-  O177  1  0.93168076  0.82381084  0.10197444  1
  O2-  O178  1  0.92427442  0.82022963  0.42417311  1
  O2-  O179  1  0.92576937  0.81770461  0.76508911  1
  O2-  O180  1  0.32367317  0.06795854  0.23413052  1
  O2-  O181  1  0.32274164  0.06782756  0.58008694  1
  O2-  O182  1  0.32181802  0.06844774  0.90945257  1
  O2-  O183  1  0.31948442  0.57050151  0.23349988  1
  O2-  O184  1  0.32206347  0.57333146  0.57950284  1
  O2-  O185  1  0.32305863  0.57636501  0.90985931  1
  O2-  O186  1  0.81842015  0.07095268  0.23236413  1
  O2-  O187  1  0.82008560  0.07734818  0.58011082  1
  O2-  O188  1  0.82076111  0.07310991  0.90997291  1
  O2-  O189  1  0.81991813  0.57390926  0.24318515  1
  O2-  O190  1  0.81833175  0.56732639  0.56583892  1
  O2-  O191  1  0.82000304  0.57071479  0.90325067  1
  O2-  O192  1  0.04170946  0.08363423  0.26911057  1
  O2-  O193  1  0.04782540  0.08237442  0.60336922  1
  O2-  O194  1  0.04221462  0.08539203  0.93432174  1
  O2-  O195  1  0.03646893  0.59150590  0.26480188  1
  O2-  O196  1  0.03553685  0.58450788  0.59507712  1
  O2-  O197  1  0.04189360  0.58549357  0.93963017  1
  O2-  O198  1  0.54327087  0.08310172  0.26047288  1
  O2-  O199  1  0.54055500  0.08287032  0.59768631  1
  O2-  O200  1  0.54431405  0.08490348  0.93599084  1
  O2-  O201  1  0.55479652  0.58050943  0.26910981  1
  O2-  O202  1  0.55401299  0.58330054  0.60513916  1
  O2-  O203  1  0.55468088  0.58332581  0.93730771  1
  O2-  O204  1  0.16913130  0.19551250  0.27488417  1
  O2-  O205  1  0.16697416  0.19912342  0.60487539  1
  O2-  O206  1  0.16772025  0.19642954  0.93881978  1
  O2-  O207  1  0.16052153  0.70586589  0.26615198  1
  O2-  O208  1  0.16877616  0.70476125  0.59737461  1
  O2-  O209  1  0.16399565  0.70068567  0.93621414  1
  O2-  O210  1  0.66349853  0.21579461  0.26030857  1
  O2-  O211  1  0.66799298  0.20720433  0.59750283  1
  O2-  O212  1  0.66668159  0.19976605  0.93546657  1
  O2-  O213  1  0.66739739  0.70619279  0.26419369  1
  O2-  O214  1  0.66595896  0.70677351  0.60450769  1
  O2-  O215  1  0.66567667  0.70898450  0.93721797  1
  O2-  O216  1  0.08731461  0.46351504  0.07073006  1
  O2-  O217  1  0.08123129  0.46750348  0.40039081  1
  O2-  O218  1  0.08598203  0.46650450  0.73546646  1
  O2-  O219  1  0.08670149  0.95772676  0.05977356  1
  O2-  O220  1  0.08100184  0.95644005  0.40203270  1
  O2-  O221  1  0.08147861  0.95933155  0.73691786  1
  O2-  O222  1  0.58406614  0.45367202  0.06443384  1
  O2-  O223  1  0.58894361  0.45402985  0.39641955  1
  O2-  O224  1  0.58190688  0.45194991  0.72799547  1
  O2-  O225  1  0.58611498  0.95963250  0.06468553  1
  O2-  O226  1  0.58538079  0.95448785  0.39153650  1
  O2-  O227  1  0.58435706  0.96552265  0.73679568  1
  O2-  O228  1  0.20702884  0.32890708  0.06747538  1
  O2-  O229  1  0.19350894  0.32771686  0.40128281  1
  O2-  O230  1  0.20457521  0.33017570  0.73552700  1
  O2-  O231  1  0.20240484  0.83376963  0.05777969  1
  O2-  O232  1  0.20402441  0.82832682  0.39734496  1
  O2-  O233  1  0.20905909  0.83033850  0.73586515  1
  O2-  O234  1  0.70122284  0.33079883  0.06025153  1
  O2-  O235  1  0.71123270  0.33859554  0.39390312  1
  O2-  O236  1  0.70101971  0.33274931  0.72847174  1
  O2-  O237  1  0.70409335  0.83881633  0.06640340  1
  O2-  O238  1  0.70292833  0.83349899  0.39393311  1
  O2-  O239  1  0.70728487  0.83495064  0.73725635  1
  O2-  O240  1  0.45548637  0.41633242  0.27271021  1
  O2-  O241  1  0.45032312  0.42367303  0.59967142  1
  O2-  O242  1  0.45431271  0.41830979  0.93550169  1
  O2-  O243  1  0.46226303  0.91226516  0.26266813  1
  O2-  O244  1  0.46283976  0.91536336  0.60026252  1
  O2-  O245  1  0.46157723  0.91548529  0.93068619  1
  O2-  O246  1  0.96075683  0.41962097  0.26463175  1
  O2-  O247  1  0.96373852  0.41622190  0.59956690  1
  O2-  O248  1  0.96245534  0.41988799  0.93600941  1
  O2-  O249  1  0.95354877  0.91670944  0.27456121  1
  O2-  O250  1  0.94761852  0.92538113  0.60506022  1
  O2-  O251  1  0.95584543  0.91853838  0.93243664  1
  O2-  O252  1  0.32933786  0.30071984  0.27822073  1
  O2-  O253  1  0.32661767  0.29445330  0.60014786  1
  O2-  O254  1  0.33275056  0.28510267  0.93511706  1
  O2-  O255  1  0.33236337  0.78665802  0.26521012  1
  O2-  O256  1  0.33313447  0.78932004  0.59953516  1
  O2-  O257  1  0.33167771  0.79032118  0.93111507  1
  O2-  O258  1  0.83620031  0.28950056  0.26250098  1
  O2-  O259  1  0.83412164  0.29359578  0.60105340  1
  O2-  O260  1  0.83481759  0.29138624  0.93204753  1
  O2-  O261  1  0.83613739  0.79378509  0.27061098  1
  O2-  O262  1  0.82833110  0.79175176  0.59891791  1
  O2-  O263  1  0.83000556  0.79197312  0.93883196  1
  O2-  O264  1  0.41459920  0.04057823  0.06089141  1
  O2-  O265  1  0.42388320  0.04033763  0.39873803  1
  O2-  O266  1  0.41537461  0.04376418  0.73186099  1
  O2-  O267  1  0.42091118  0.55517252  0.05885095  1
  O2-  O268  1  0.42541108  0.55424945  0.39827699  1
  O2-  O269  1  0.42031976  0.55466961  0.72888419  1
  O2-  O270  1  0.91279472  0.04351228  0.06242614  1
  O2-  O271  1  0.91446657  0.04629385  0.40287362  1
  O2-  O272  1  0.91740289  0.05672623  0.73127272  1
  O2-  O273  1  0.91637106  0.54158003  0.07230967  1
  O2-  O274  1  0.91239891  0.54512391  0.39431674  1
  O2-  O275  1  0.91545423  0.53719424  0.73411876  1
  O2-  O276  1  0.29357302  0.15794221  0.06460343  1
  O2-  O277  1  0.29958038  0.16789254  0.40390147  1
  O2-  O278  1  0.29514642  0.16345283  0.73146238  1
  O2-  O279  1  0.29180127  0.66485147  0.06274095  1
  O2-  O280  1  0.28722566  0.66563710  0.40068420  1
  O2-  O281  1  0.29243099  0.66404141  0.73189180  1
  O2-  O282  1  0.79295144  0.16432830  0.06223278  1
  O2-  O283  1  0.78562028  0.16956675  0.39813137  1
  O2-  O284  1  0.79082188  0.16779908  0.73285244  1
  O2-  O285  1  0.78665529  0.66585835  0.07234134  1
  O2-  O286  1  0.79217696  0.66439080  0.39577172  1
  O2-  O287  1  0.78877107  0.66503931  0.73483559  1
