# generated using pymatgen
data_Ca2Al2SiO7
_symmetry_space_group_name_H-M   'P 1'
_cell_length_a   15.45910823
_cell_length_b   15.46004320
_cell_length_c   15.28541984
_cell_angle_alpha   90.00500300
_cell_angle_beta   89.99211155
_cell_angle_gamma   90.00469476
_symmetry_Int_Tables_number   1
_chemical_formula_structural   Ca2Al2SiO7
_chemical_formula_sum   'Ca48 Al48 Si24 O168'
_cell_volume   3653.19206200
_cell_formula_units_Z   24
loop_
 _symmetry_equiv_pos_site_id
 _symmetry_equiv_pos_as_xyz
  1  'x, y, z'
loop_
 _atom_type_symbol
 _atom_type_oxidation_number
  Ca2+  2.0
  Al0+  0.0
  Si0+  0.0
  O2-  -2.0
loop_
 _atom_site_type_symbol
 _atom_site_label
 _atom_site_symmetry_multiplicity
 _atom_site_fract_x
 _atom_site_fract_y
 _atom_site_fract_z
 _atom_site_occupancy
  Ca2+  Ca0  1  0.17683989  0.08765856  0.16514682  1
  Ca2+  Ca1  1  0.17294884  0.08210278  0.50171917  1
  Ca2+  Ca2  1  0.17003671  0.07745008  0.84554107  1
  Ca2+  Ca3  1  0.17345225  0.57137772  0.16677643  1
  Ca2+  Ca4  1  0.16247228  0.57399582  0.50536699  1
  Ca2+  Ca5  1  0.16709332  0.57331658  0.83825413  1
  Ca2+  Ca6  1  0.66208316  0.08467760  0.16907048  1
  Ca2+  Ca7  1  0.67344825  0.08126400  0.50798353  1
  Ca2+  Ca8  1  0.67061140  0.08685015  0.83348398  1
  Ca2+  Ca9  1  0.67433778  0.57849758  0.17630357  1
  Ca2+  Ca10  1  0.67238205  0.57737120  0.50370344  1
  Ca2+  Ca11  1  0.67654471  0.58009023  0.83525814  1
  Ca2+  Ca12  1  0.08306519  0.33597751  0.16301781  1
  Ca2+  Ca13  1  0.07076413  0.34645886  0.49789432  1
  Ca2+  Ca14  1  0.08556931  0.33214456  0.82801061  1
  Ca2+  Ca15  1  0.08410978  0.83355131  0.16088610  1
  Ca2+  Ca16  1  0.07714638  0.82473532  0.50223951  1
  Ca2+  Ca17  1  0.08320879  0.82460917  0.82355515  1
  Ca2+  Ca18  1  0.57977960  0.32832179  0.15726580  1
  Ca2+  Ca19  1  0.58145879  0.34202380  0.49773458  1
  Ca2+  Ca20  1  0.57162582  0.33630018  0.82877992  1
  Ca2+  Ca21  1  0.57870883  0.82664269  0.16793338  1
  Ca2+  Ca22  1  0.57681662  0.82650668  0.49317043  1
  Ca2+  Ca23  1  0.57371617  0.83000525  0.82634599  1
  Ca2+  Ca24  1  0.32406894  0.40820677  0.16704594  1
  Ca2+  Ca25  1  0.32104191  0.41251760  0.50766086  1
  Ca2+  Ca26  1  0.32614637  0.41459259  0.84035346  1
  Ca2+  Ca27  1  0.33348442  0.92725873  0.17080348  1
  Ca2+  Ca28  1  0.34416619  0.92030111  0.50171486  1
  Ca2+  Ca29  1  0.32775340  0.91989681  0.84271179  1
  Ca2+  Ca30  1  0.83079983  0.42549994  0.17702927  1
  Ca2+  Ca31  1  0.82564086  0.42031458  0.50748640  1
  Ca2+  Ca32  1  0.83554010  0.42478404  0.83239883  1
  Ca2+  Ca33  1  0.83092720  0.92115113  0.16981087  1
  Ca2+  Ca34  1  0.83662461  0.92319814  0.50965005  1
  Ca2+  Ca35  1  0.84138629  0.92229829  0.83314850  1
  Ca2+  Ca36  1  0.41749428  0.16876755  0.15626660  1
  Ca2+  Ca37  1  0.41508247  0.17193282  0.49788208  1
  Ca2+  Ca38  1  0.41375900  0.17711836  0.83391140  1
  Ca2+  Ca39  1  0.41972030  0.66287703  0.16325520  1
  Ca2+  Ca40  1  0.42193742  0.67762462  0.49129039  1
  Ca2+  Ca41  1  0.40966701  0.67093759  0.82575145  1
  Ca2+  Ca42  1  0.92378916  0.17795398  0.16020813  1
  Ca2+  Ca43  1  0.91163661  0.18065481  0.49843857  1
  Ca2+  Ca44  1  0.92458555  0.17135285  0.82517223  1
  Ca2+  Ca45  1  0.91312159  0.66245384  0.16354074  1
  Ca2+  Ca46  1  0.91855213  0.65511347  0.50081330  1
  Ca2+  Ca47  1  0.91997923  0.66694236  0.82380884  1
  Al0+  Al48  1  -0.00187326  0.00132786  0.00192632  1
  Al0+  Al49  1  0.00278937  -0.00023351  0.33260481  1
  Al0+  Al50  1  0.00236746  -0.00132643  0.66628807  1
  Al0+  Al51  1  -0.00024682  0.50248249  0.00745163  1
  Al0+  Al52  1  0.00034346  0.50070909  0.33295810  1
  Al0+  Al53  1  0.00047848  0.49795612  0.66821414  1
  Al0+  Al54  1  0.50205077  -0.00179543  -0.00144432  1
  Al0+  Al55  1  0.49967572  0.00059386  0.33449237  1
  Al0+  Al56  1  0.50127661  0.00171424  0.66487761  1
  Al0+  Al57  1  0.50243217  0.50080609  -0.00280435  1
  Al0+  Al58  1  0.49893550  0.50081797  0.33090895  1
  Al0+  Al59  1  0.49883580  0.49996135  0.66483882  1
  Al0+  Al60  1  0.24874351  0.24802132  -0.00061260  1
  Al0+  Al61  1  0.24943312  0.24717033  0.34313805  1
  Al0+  Al62  1  0.25182486  0.24844125  0.66619195  1
  Al0+  Al63  1  0.24842786  0.74823521  0.00734059  1
  Al0+  Al64  1  0.24718745  0.75243669  0.32861492  1
  Al0+  Al65  1  0.24920143  0.75096282  0.65454092  1
  Al0+  Al66  1  0.75067972  0.24997556  -0.00455578  1
  Al0+  Al67  1  0.75057692  0.25148975  0.33034668  1
  Al0+  Al68  1  0.75033632  0.24812121  0.67334937  1
  Al0+  Al69  1  0.74951070  0.75151282  0.00257649  1
  Al0+  Al70  1  0.75022529  0.75093847  0.33323667  1
  Al0+  Al71  1  0.74852616  0.75205578  0.66724207  1
  Al0+  Al72  1  0.92765500  0.82208302  0.65280631  1
  Al0+  Al73  1  0.82292234  0.06968592  0.68055148  1
  Al0+  Al74  1  0.42892855  0.82205194  0.65365420  1
  Al0+  Al75  1  0.67572174  0.42753960  0.68427028  1
  Al0+  Al76  1  0.42909380  0.32157519  0.98588222  1
  Al0+  Al77  1  0.57105387  0.67843386  0.31687407  1
  Al0+  Al78  1  0.81932637  0.57168515  0.01456220  1
  Al0+  Al79  1  0.57331004  0.17580152  0.98311352  1
  Al0+  Al80  1  0.06938292  0.67695134  0.65140182  1
  Al0+  Al81  1  0.92941567  0.31892234  0.65476861  1
  Al0+  Al82  1  0.06958503  0.17947520  0.98698374  1
  Al0+  Al83  1  0.42815372  0.82309054  0.31473268  1
  Al0+  Al84  1  0.32203815  0.06923783  0.01325885  1
  Al0+  Al85  1  0.32422314  0.57156963  0.01341101  1
  Al0+  Al86  1  0.42864890  0.32141033  0.65103554  1
  Al0+  Al87  1  0.82052382  0.57157546  0.68236544  1
  Al0+  Al88  1  0.92949716  0.32151352  0.31900674  1
  Al0+  Al89  1  0.17622910  0.92763464  0.01444289  1
  Al0+  Al90  1  0.82059930  0.57210765  0.35001213  1
  Al0+  Al91  1  0.17982911  0.42731407  0.01480911  1
  Al0+  Al92  1  0.18157769  0.42955036  0.34886835  1
  Al0+  Al93  1  0.32123603  0.06834945  0.34951968  1
  Al0+  Al94  1  0.67679747  0.42695382  0.34687825  1
  Al0+  Al95  1  0.17959560  0.42860665  0.68096878  1
  Si0+  Si96  1  0.67639274  0.92923050  0.68377598  1
  Si0+  Si97  1  0.92723129  0.82123827  0.98647743  1
  Si0+  Si98  1  0.67970946  0.92912451  0.01573896  1
  Si0+  Si99  1  0.67878664  0.42706989  0.01577321  1
  Si0+  Si100  1  0.32042382  0.57402845  0.67833065  1
  Si0+  Si101  1  0.92934774  0.32501788  0.98289614  1
  Si0+  Si102  1  0.82096175  0.07257537  0.01616813  1
  Si0+  Si103  1  0.57239603  0.67752446  0.65050127  1
  Si0+  Si104  1  0.07381532  0.17619625  0.64905047  1
  Si0+  Si105  1  0.18103537  0.92842273  0.67963360  1
  Si0+  Si106  1  0.06953818  0.67858446  0.31484132  1
  Si0+  Si107  1  0.07258719  0.17691195  0.31699038  1
  Si0+  Si108  1  0.68029230  0.93086859  0.34802273  1
  Si0+  Si109  1  0.57171937  0.17927473  0.64906343  1
  Si0+  Si110  1  0.07030954  0.67983006  0.98696701  1
  Si0+  Si111  1  0.82289222  0.07121246  0.34597138  1
  Si0+  Si112  1  0.42617116  0.31950700  0.32072331  1
  Si0+  Si113  1  0.17602664  0.92606396  0.35345673  1
  Si0+  Si114  1  0.57356576  0.68004393  0.98402780  1
  Si0+  Si115  1  0.32199968  0.57465321  0.34981753  1
  Si0+  Si116  1  0.57133704  0.17998023  0.32062650  1
  Si0+  Si117  1  0.92950399  0.82389607  0.31678663  1
  Si0+  Si118  1  0.42852632  0.81834947  0.98616224  1
  Si0+  Si119  1  0.32287292  0.06999596  0.68319256  1
  O2-  O120  1  0.24927343  -0.00157285  0.06444789  1
  O2-  O121  1  0.24886320  -0.00899156  0.39671035  1
  O2-  O122  1  0.25208005  -0.00179184  0.72327130  1
  O2-  O123  1  0.25708899  0.49499170  0.06365629  1
  O2-  O124  1  0.25648567  0.50419765  0.39576818  1
  O2-  O125  1  0.25491067  0.50388439  0.72481044  1
  O2-  O126  1  0.74668321  0.00452311  0.05829463  1
  O2-  O127  1  0.75265050  0.00045209  0.38980638  1
  O2-  O128  1  0.75022763  -0.00743719  0.72789121  1
  O2-  O129  1  0.74771730  0.49454296  0.06100025  1
  O2-  O130  1  0.74775649  0.49975449  0.39701730  1
  O2-  O131  1  0.74846153  0.49985289  0.73301223  1
  O2-  O132  1  0.00491036  0.24679744  0.27331272  1
  O2-  O133  1  0.00498981  0.24518130  0.60586700  1
  O2-  O134  1  -0.00168824  0.25644426  0.93896821  1
  O2-  O135  1  -0.00189635  0.75101012  0.27419365  1
  O2-  O136  1  -0.00762699  0.74474346  0.60096967  1
  O2-  O137  1  0.00048793  0.75258504  0.94539711  1
  O2-  O138  1  0.50242616  0.25338230  0.27956533  1
  O2-  O139  1  0.50682062  0.25043438  0.60331158  1
  O2-  O140  1  0.50161247  0.24917954  0.93545451  1
  O2-  O141  1  0.49548145  0.74654628  0.26484429  1
  O2-  O142  1  0.50301672  0.74674650  0.60784361  1
  O2-  O143  1  0.49565750  0.74425782  0.94221849  1
  O2-  O144  1  0.06582954  0.17813824  0.10021106  1
  O2-  O145  1  0.07001236  0.17293481  0.42241260  1
  O2-  O146  1  0.07305961  0.17461441  0.75479831  1
  O2-  O147  1  0.06823993  0.68038088  0.09227183  1
  O2-  O148  1  0.06933338  0.67877694  0.41968998  1
  O2-  O149  1  0.07314532  0.68061205  0.76538258  1
  O2-  O150  1  0.57341654  0.17680970  0.09760708  1
  O2-  O151  1  0.57236133  0.17686844  0.42545591  1
  O2-  O152  1  0.56738956  0.17534825  0.75416039  1
  O2-  O153  1  0.57662356  0.68441405  0.08866029  1
  O2-  O154  1  0.57166581  0.68293620  0.43046858  1
  O2-  O155  1  0.57168967  0.67992765  0.75664695  1
  O2-  O156  1  0.18287239  0.42812819  0.23594068  1
  O2-  O157  1  0.17998771  0.42955390  0.56772752  1
  O2-  O158  1  0.17746752  0.43048595  0.90135854  1
  O2-  O159  1  0.17176207  0.92870207  0.24820896  1
  O2-  O160  1  0.18047543  0.93058238  0.57463300  1
  O2-  O161  1  0.17827478  0.92616820  0.90027475  1
  O2-  O162  1  0.67943283  0.42420688  0.23305049  1
  O2-  O163  1  0.67622410  0.42896778  0.57066361  1
  O2-  O164  1  0.67880354  0.42950386  0.91050336  1
  O2-  O165  1  0.68096782  0.93283354  0.24242740  1
  O2-  O166  1  0.67350632  0.93349574  0.57807566  1
  O2-  O167  1  0.68165885  0.92535755  0.91105268  1
  O2-  O168  1  0.43083529  0.31913876  0.10027462  1
  O2-  O169  1  0.42552825  0.31623830  0.42579211  1
  O2-  O170  1  0.42558654  0.31835876  0.76364255  1
  O2-  O171  1  0.43237739  0.82022996  0.09070763  1
  O2-  O172  1  0.43414717  0.82361655  0.42845818  1
  O2-  O173  1  0.42827279  0.82132868  0.76751258  1
  O2-  O174  1  0.92853929  0.32228597  0.08882681  1
  O2-  O175  1  0.92771261  0.31886578  0.43205130  1
  O2-  O176  1  0.93217357  0.31730606  0.76791452  1
  O2-  O177  1  0.92506362  0.82084824  0.09202760  1
  O2-  O178  1  0.93097634  0.82982449  0.42104911  1
  O2-  O179  1  0.93429213  0.82470580  0.76664483  1
  O2-  O180  1  0.32127934  0.07009592  0.23683854  1
  O2-  O181  1  0.32309988  0.06922232  0.57787264  1
  O2-  O182  1  0.32114571  0.06565065  0.89940146  1
  O2-  O183  1  0.31981530  0.57272826  0.24425950  1
  O2-  O184  1  0.31848917  0.57382352  0.57272441  1
  O2-  O185  1  0.31826121  0.57756749  0.89983074  1
  O2-  O186  1  0.82135440  0.06885487  0.24054296  1
  O2-  O187  1  0.81980631  0.06923309  0.56672227  1
  O2-  O188  1  0.82393697  0.06891673  0.91152377  1
  O2-  O189  1  0.81920848  0.57145929  0.23596953  1
  O2-  O190  1  0.81867040  0.56964667  0.56923800  1
  O2-  O191  1  0.81899778  0.57483229  0.90197889  1
  O2-  O192  1  0.04650174  0.08396121  0.26916923  1
  O2-  O193  1  0.04867692  0.08283445  0.60268385  1
  O2-  O194  1  0.03516461  0.08324203  0.93265993  1
  O2-  O195  1  0.04076777  0.58803826  0.26589303  1
  O2-  O196  1  0.04323252  0.57832227  0.59861000  1
  O2-  O197  1  0.04034914  0.58849389  0.94023306  1
  O2-  O198  1  0.54178709  0.08894178  0.27241706  1
  O2-  O199  1  0.54315585  0.08709554  0.60044719  1
  O2-  O200  1  0.54837869  0.07580777  0.93095434  1
  O2-  O201  1  0.54592106  0.57910498  0.26286557  1
  O2-  O202  1  0.54720949  0.58489093  0.60368055  1
  O2-  O203  1  0.55492629  0.58633172  0.93760410  1
  O2-  O204  1  0.16725007  0.20391294  0.27427277  1
  O2-  O205  1  0.16774917  0.20040621  0.60373454  1
  O2-  O206  1  0.16696987  0.20342383  0.93226063  1
  O2-  O207  1  0.16073684  0.70680858  0.26656294  1
  O2-  O208  1  0.16358526  0.71096617  0.59256508  1
  O2-  O209  1  0.16267349  0.70633521  0.94016880  1
  O2-  O210  1  0.66317415  0.20366584  0.27055460  1
  O2-  O211  1  0.66777009  0.19914165  0.60655804  1
  O2-  O212  1  0.67311320  0.20095588  0.93088292  1
  O2-  O213  1  0.66845900  0.71347946  0.26377367  1
  O2-  O214  1  0.66486607  0.70501636  0.60381722  1
  O2-  O215  1  0.66167441  0.71768328  0.93516490  1
  O2-  O216  1  0.08428650  0.46191433  0.07033474  1
  O2-  O217  1  0.08509053  0.46401156  0.39983211  1
  O2-  O218  1  0.08385702  0.45779108  0.73590586  1
  O2-  O219  1  0.07758342  0.95602972  0.06785509  1
  O2-  O220  1  0.08407869  0.95703810  0.40108628  1
  O2-  O221  1  0.08995270  0.95518652  0.72846953  1
  O2-  O222  1  0.58528067  0.45261209  0.06135549  1
  O2-  O223  1  0.57666981  0.45349813  0.39767279  1
  O2-  O224  1  0.57650271  0.45767020  0.73567481  1
  O2-  O225  1  0.58767048  0.95337059  0.06421952  1
  O2-  O226  1  0.58991650  0.96067511  0.39624424  1
  O2-  O227  1  0.58546862  0.96153482  0.73271532  1
  O2-  O228  1  0.20341174  0.32787895  0.06743223  1
  O2-  O229  1  0.20964157  0.33340274  0.40452573  1
  O2-  O230  1  0.21117151  0.33078925  0.73235779  1
  O2-  O231  1  0.20256860  0.83032946  0.06958196  1
  O2-  O232  1  0.19649195  0.83052614  0.39709418  1
  O2-  O233  1  0.20925363  0.83552327  0.72443919  1
  O2-  O234  1  0.70262241  0.33175031  0.05960265  1
  O2-  O235  1  0.70555824  0.32796914  0.39961885  1
  O2-  O236  1  0.70194211  0.32869146  0.73632669  1
  O2-  O237  1  0.71303351  0.84091831  0.06702466  1
  O2-  O238  1  0.70745310  0.83962180  0.39542844  1
  O2-  O239  1  0.69408434  0.83404067  0.72897814  1
  O2-  O240  1  0.44523811  0.41373642  0.27520400  1
  O2-  O241  1  0.45362457  0.41964536  0.59736215  1
  O2-  O242  1  0.45651034  0.42048874  0.93192167  1
  O2-  O243  1  0.46419715  0.92012078  0.26294793  1
  O2-  O244  1  0.46298689  0.91796079  0.59985823  1
  O2-  O245  1  0.46046604  0.90819489  0.93723324  1
  O2-  O246  1  0.96136713  0.41755953  0.26485644  1
  O2-  O247  1  0.95974785  0.41479138  0.60037396  1
  O2-  O248  1  0.95525718  0.41980464  0.94026662  1
  O2-  O249  1  0.95953554  0.91472109  0.26663892  1
  O2-  O250  1  0.96293072  0.91788937  0.59718460  1
  O2-  O251  1  0.95163216  0.91453384  0.94109860  1
  O2-  O252  1  0.33610282  0.28422399  0.27463731  1
  O2-  O253  1  0.33427787  0.28387448  0.59594415  1
  O2-  O254  1  0.33079713  0.29198128  0.93351671  1
  O2-  O255  1  0.32590694  0.80383174  0.26651590  1
  O2-  O256  1  0.33453941  0.79500435  0.59432898  1
  O2-  O257  1  0.33446964  0.79341628  0.94165768  1
  O2-  O258  1  0.83430750  0.28828159  0.26254428  1
  O2-  O259  1  0.83255710  0.28496135  0.60259178  1
  O2-  O260  1  0.83608245  0.29892672  0.93738974  1
  O2-  O261  1  0.83644705  0.79941261  0.26995721  1
  O2-  O262  1  0.82483240  0.80676638  0.60419562  1
  O2-  O263  1  0.83618579  0.79255660  0.93832468  1
  O2-  O264  1  0.42100657  0.03979446  0.06533939  1
  O2-  O265  1  0.41836860  0.03877850  0.40443592  1
  O2-  O266  1  0.41500100  0.04265626  0.72923817  1
  O2-  O267  1  0.42597142  0.55118974  0.06298320  1
  O2-  O268  1  0.41739017  0.55410682  0.39329051  1
  O2-  O269  1  0.41515360  0.55355409  0.72339880  1
  O2-  O270  1  0.90962231  0.04077996  0.06733295  1
  O2-  O271  1  0.91472801  0.04319587  0.39241460  1
  O2-  O272  1  0.91999782  0.03838811  0.73445241  1
  O2-  O273  1  0.91556395  0.54435961  0.07044535  1
  O2-  O274  1  0.91951096  0.54295557  0.39952179  1
  O2-  O275  1  0.91886218  0.54212621  0.73479788  1
  O2-  O276  1  0.29327203  0.16685707  0.06665704  1
  O2-  O277  1  0.28768603  0.16172420  0.40814968  1
  O2-  O278  1  0.29353775  0.16102912  0.72997120  1
  O2-  O279  1  0.29187280  0.66645783  0.07142237  1
  O2-  O280  1  0.29414400  0.66926758  0.39272046  1
  O2-  O281  1  0.29301606  0.66853453  0.72228274  1
  O2-  O282  1  0.79594196  0.16572295  0.06246414  1
  O2-  O283  1  0.79368375  0.16256323  0.39236847  1
  O2-  O284  1  0.79122727  0.16307691  0.73880114  1
  O2-  O285  1  0.78672131  0.66822834  0.06858021  1
  O2-  O286  1  0.79584733  0.67287970  0.40019737  1
  O2-  O287  1  0.79437955  0.67244203  0.73326482  1
