# generated using pymatgen
data_Ca2Al2SiO7
_symmetry_space_group_name_H-M   'P 1'
_cell_length_a   15.46478364
_cell_length_b   15.46433260
_cell_length_c   15.28777066
_cell_angle_alpha   90.00771773
_cell_angle_beta   90.00313694
_cell_angle_gamma   89.98588198
_symmetry_Int_Tables_number   1
_chemical_formula_structural   Ca2Al2SiO7
_chemical_formula_sum   'Ca48 Al48 Si24 O168'
_cell_volume   3656.10930565
_cell_formula_units_Z   24
loop_
 _symmetry_equiv_pos_site_id
 _symmetry_equiv_pos_as_xyz
  1  'x, y, z'
loop_
 _atom_type_symbol
 _atom_type_oxidation_number
  Ca2+  2.0
  Al0+  0.0
  Si0+  0.0
  O2-  -2.0
loop_
 _atom_site_type_symbol
 _atom_site_label
 _atom_site_symmetry_multiplicity
 _atom_site_fract_x
 _atom_site_fract_y
 _atom_site_fract_z
 _atom_site_occupancy
  Ca2+  Ca0  1  0.17246613  0.08378957  0.17667439  1
  Ca2+  Ca1  1  0.17024204  0.09481587  0.50133485  1
  Ca2+  Ca2  1  0.16653048  0.08384111  0.83495489  1
  Ca2+  Ca3  1  0.17002712  0.58721193  0.16579134  1
  Ca2+  Ca4  1  0.17071509  0.57378522  0.50748423  1
  Ca2+  Ca5  1  0.16989740  0.57362545  0.84608025  1
  Ca2+  Ca6  1  0.66179012  0.07007541  0.17500373  1
  Ca2+  Ca7  1  0.65758539  0.07980121  0.50061826  1
  Ca2+  Ca8  1  0.66684508  0.07918882  0.84010351  1
  Ca2+  Ca9  1  0.67596956  0.57971192  0.17581067  1
  Ca2+  Ca10  1  0.66696418  0.58396364  0.49661836  1
  Ca2+  Ca11  1  0.66894730  0.57984370  0.84059193  1
  Ca2+  Ca12  1  0.08215357  0.33279436  0.16755639  1
  Ca2+  Ca13  1  0.08314245  0.32670560  0.49296199  1
  Ca2+  Ca14  1  0.08874434  0.33348475  0.82851761  1
  Ca2+  Ca15  1  0.06911017  0.82675061  0.15784954  1
  Ca2+  Ca16  1  0.06936720  0.83392424  0.49354601  1
  Ca2+  Ca17  1  0.07339690  0.82316959  0.83159968  1
  Ca2+  Ca18  1  0.58651663  0.33619100  0.16659989  1
  Ca2+  Ca19  1  0.57472295  0.32760093  0.48734046  1
  Ca2+  Ca20  1  0.57821613  0.33324802  0.82389633  1
  Ca2+  Ca21  1  0.58596600  0.83031458  0.16298895  1
  Ca2+  Ca22  1  0.58990288  0.82219259  0.49313291  1
  Ca2+  Ca23  1  0.58157675  0.82847827  0.83312282  1
  Ca2+  Ca24  1  0.32992749  0.41726978  0.16736362  1
  Ca2+  Ca25  1  0.33133962  0.40661710  0.50505342  1
  Ca2+  Ca26  1  0.32599339  0.41903868  0.83753812  1
  Ca2+  Ca27  1  0.33600303  0.92221974  0.17475272  1
  Ca2+  Ca28  1  0.33317392  0.92637293  0.50059667  1
  Ca2+  Ca29  1  0.33619130  0.91875107  0.84274138  1
  Ca2+  Ca30  1  0.82673330  0.42614500  0.17473349  1
  Ca2+  Ca31  1  0.83204844  0.41660797  0.49751618  1
  Ca2+  Ca32  1  0.82420462  0.42422102  0.84713673  1
  Ca2+  Ca33  1  0.82540079  0.90811108  0.17245481  1
  Ca2+  Ca34  1  0.83147712  0.91194468  0.49951201  1
  Ca2+  Ca35  1  0.83103099  0.91392792  0.83871751  1
  Ca2+  Ca36  1  0.41890513  0.17022556  0.17210952  1
  Ca2+  Ca37  1  0.42260232  0.17572060  0.49349167  1
  Ca2+  Ca38  1  0.42567415  0.17558294  0.82418365  1
  Ca2+  Ca39  1  0.42267231  0.66848292  0.15966590  1
  Ca2+  Ca40  1  0.43157644  0.66300089  0.49490695  1
  Ca2+  Ca41  1  0.41843822  0.66747887  0.83258440  1
  Ca2+  Ca42  1  0.91577777  0.17305969  0.16942619  1
  Ca2+  Ca43  1  0.92929196  0.17244635  0.49072620  1
  Ca2+  Ca44  1  0.92344221  0.17086339  0.82638630  1
  Ca2+  Ca45  1  0.91210317  0.67005250  0.16091200  1
  Ca2+  Ca46  1  0.91000431  0.67555130  0.49315901  1
  Ca2+  Ca47  1  0.90899508  0.67454038  0.83522234  1
  Al0+  Al48  1  0.00063166  0.00104286  -0.00379748  1
  Al0+  Al49  1  -0.00087416  -0.00204030  0.32493517  1
  Al0+  Al50  1  -0.00068050  0.00094302  0.66038465  1
  Al0+  Al51  1  -0.00010725  0.49751685  0.00391822  1
  Al0+  Al52  1  0.00150878  0.50102395  0.33595750  1
  Al0+  Al53  1  -0.00036087  0.50186813  0.67316358  1
  Al0+  Al54  1  0.50065309  0.00038389  -0.00076246  1
  Al0+  Al55  1  0.49799530  0.00117321  0.34216602  1
  Al0+  Al56  1  0.49902511  -0.00104348  0.66704392  1
  Al0+  Al57  1  0.49712442  0.49819936  0.00404958  1
  Al0+  Al58  1  0.50042713  0.50056139  0.32739675  1
  Al0+  Al59  1  0.49983036  0.50190284  0.66020283  1
  Al0+  Al60  1  0.25217029  0.24991017  0.00226520  1
  Al0+  Al61  1  0.25217110  0.24934615  0.32987101  1
  Al0+  Al62  1  0.25106439  0.24949473  0.66723270  1
  Al0+  Al63  1  0.24886260  0.75086122  -0.00449386  1
  Al0+  Al64  1  0.24956650  0.75066015  0.33903854  1
  Al0+  Al65  1  0.24854238  0.75103969  0.66683808  1
  Al0+  Al66  1  0.75179972  0.24744911  0.00156394  1
  Al0+  Al67  1  0.75074333  0.24816165  0.32990727  1
  Al0+  Al68  1  0.75127555  0.24805742  0.66551121  1
  Al0+  Al69  1  0.74812306  0.75077335  0.00125320  1
  Al0+  Al70  1  0.74928906  0.74970606  0.33361681  1
  Al0+  Al71  1  0.74906046  0.75108698  0.66157664  1
  Al0+  Al72  1  0.92915397  0.81849647  0.31826950  1
  Al0+  Al73  1  0.92866784  0.32376343  0.31798205  1
  Al0+  Al74  1  0.07085035  0.67598172  0.98498517  1
  Al0+  Al75  1  0.81912576  0.57126484  0.01424708  1
  Al0+  Al76  1  0.43104583  0.32082781  0.65292699  1
  Al0+  Al77  1  0.67969816  0.93028225  0.34899226  1
  Al0+  Al78  1  0.67957246  0.93160676  0.01196362  1
  Al0+  Al79  1  0.57407252  0.17687476  0.65253308  1
  Al0+  Al80  1  0.67814771  0.42729903  0.34984910  1
  Al0+  Al81  1  0.31990812  0.57392164  0.01531482  1
  Al0+  Al82  1  0.93051260  0.81930542  0.65158501  1
  Al0+  Al83  1  0.67673521  0.42533462  0.01337323  1
  Al0+  Al84  1  0.42922614  0.82237920  0.98863700  1
  Al0+  Al85  1  0.56949758  0.68129930  0.65363749  1
  Al0+  Al86  1  0.31884763  0.07149649  0.34910612  1
  Al0+  Al87  1  0.07157816  0.17949357  0.31645508  1
  Al0+  Al88  1  0.82212446  0.57070230  0.35072443  1
  Al0+  Al89  1  0.17902829  0.42682401  0.01757934  1
  Al0+  Al90  1  0.57017579  0.68042684  0.31741099  1
  Al0+  Al91  1  0.18010825  0.42893274  0.67982713  1
  Al0+  Al92  1  0.57167467  0.17641037  0.31710106  1
  Al0+  Al93  1  0.07009943  0.18140408  0.65448759  1
  Al0+  Al94  1  0.42980490  0.32185786  0.31473068  1
  Al0+  Al95  1  0.92623974  0.82087224  0.98351263  1
  Si0+  Si96  1  0.42661161  0.82172785  0.32032164  1
  Si0+  Si97  1  0.07302560  0.67626586  0.64988004  1
  Si0+  Si98  1  0.42857216  0.32041901  0.98353771  1
  Si0+  Si99  1  0.07531552  0.67771725  0.31894589  1
  Si0+  Si100  1  0.92874546  0.31927066  0.98469427  1
  Si0+  Si101  1  0.81925311  0.57305322  0.68222578  1
  Si0+  Si102  1  0.82465132  0.07144464  0.35021972  1
  Si0+  Si103  1  0.18173341  0.42984065  0.34875232  1
  Si0+  Si104  1  0.57117202  0.17874546  0.98588679  1
  Si0+  Si105  1  0.32206144  0.57386334  0.34923650  1
  Si0+  Si106  1  0.17739632  0.92962030  0.01329674  1
  Si0+  Si107  1  0.82291827  0.07088370  0.68079725  1
  Si0+  Si108  1  0.32084042  0.06952855  0.01441077  1
  Si0+  Si109  1  0.67915006  0.42822557  0.67885736  1
  Si0+  Si110  1  0.32011638  0.06891525  0.68445576  1
  Si0+  Si111  1  0.82555567  0.07176550  0.01683175  1
  Si0+  Si112  1  0.57009854  0.67678438  0.98440368  1
  Si0+  Si113  1  0.07372171  0.18023683  0.98424679  1
  Si0+  Si114  1  0.92706619  0.32534491  0.65285839  1
  Si0+  Si115  1  0.67969119  0.92888254  0.68236229  1
  Si0+  Si116  1  0.17617200  0.92773968  0.35038530  1
  Si0+  Si117  1  0.17613881  0.92926219  0.68229191  1
  Si0+  Si118  1  0.32364361  0.57385599  0.68242693  1
  Si0+  Si119  1  0.42425814  0.82343452  0.64935494  1
  O2-  O120  1  0.25028174  -0.00188344  0.05627477  1
  O2-  O121  1  0.24175589  -0.00133093  0.39610444  1
  O2-  O122  1  0.25087795  -0.00411912  0.72698683  1
  O2-  O123  1  0.24718622  0.50306454  0.06646594  1
  O2-  O124  1  0.25277154  0.50089662  0.39118888  1
  O2-  O125  1  0.25288288  0.50659299  0.72523331  1
  O2-  O126  1  0.75845110  0.00121937  0.05918565  1
  O2-  O127  1  0.75273095  0.00691443  0.39626777  1
  O2-  O128  1  0.74777051  0.00364322  0.72336785  1
  O2-  O129  1  0.74566532  0.50010589  0.06246759  1
  O2-  O130  1  0.75194776  0.49688931  0.40157812  1
  O2-  O131  1  0.75172861  0.49738930  0.72247472  1
  O2-  O132  1  -0.00064451  0.25062090  0.26639388  1
  O2-  O133  1  -0.00150677  0.25925450  0.60952929  1
  O2-  O134  1  0.00258444  0.25087553  0.94170156  1
  O2-  O135  1  0.00462043  0.74367763  0.27477046  1
  O2-  O136  1  0.00485876  0.74433027  0.60467215  1
  O2-  O137  1  -0.00377452  0.74593754  0.93449585  1
  O2-  O138  1  0.50597558  0.25329873  0.26529439  1
  O2-  O139  1  0.50640739  0.25258051  0.60349811  1
  O2-  O140  1  0.50597027  0.25500431  0.94302937  1
  O2-  O141  1  0.49391038  0.75454645  0.27320763  1
  O2-  O142  1  0.49196978  0.75376401  0.60686915  1
  O2-  O143  1  0.50003067  0.74475297  0.94035037  1
  O2-  O144  1  0.07492627  0.17881295  0.08849739  1
  O2-  O145  1  0.07190531  0.18258258  0.43039263  1
  O2-  O146  1  0.06866627  0.17986017  0.76813886  1
  O2-  O147  1  0.07279756  0.68218020  0.09846528  1
  O2-  O148  1  0.07805905  0.68036883  0.42488162  1
  O2-  O149  1  0.07346715  0.67758826  0.75502082  1
  O2-  O150  1  0.56780882  0.17518024  0.08998353  1
  O2-  O151  1  0.56622936  0.17580869  0.43062149  1
  O2-  O152  1  0.57192571  0.17721977  0.76710455  1
  O2-  O153  1  0.57014192  0.67927543  0.08943510  1
  O2-  O154  1  0.56885275  0.68216872  0.43099759  1
  O2-  O155  1  0.57017152  0.68243583  0.76705530  1
  O2-  O156  1  0.18197122  0.43041272  0.24404311  1
  O2-  O157  1  0.18077591  0.42942009  0.56652132  1
  O2-  O158  1  0.18433983  0.42288934  0.90355677  1
  O2-  O159  1  0.18013561  0.92554121  0.24481371  1
  O2-  O160  1  0.17710920  0.93030604  0.57752280  1
  O2-  O161  1  0.17718756  0.93381300  0.90770247  1
  O2-  O162  1  0.67909248  0.43167623  0.23652158  1
  O2-  O163  1  0.68019038  0.42774515  0.57465315  1
  O2-  O164  1  0.67864005  0.42493189  0.89830181  1
  O2-  O165  1  0.67963567  0.92996506  0.23584280  1
  O2-  O166  1  0.68087362  0.92765914  0.57766992  1
  O2-  O167  1  0.67803397  0.93483556  0.89806411  1
  O2-  O168  1  0.42374729  0.31685524  0.08766009  1
  O2-  O169  1  0.42685593  0.31892513  0.42841551  1
  O2-  O170  1  0.43168482  0.31928140  0.76729489  1
  O2-  O171  1  0.43196312  0.82661354  0.10121671  1
  O2-  O172  1  0.42536590  0.81810606  0.42616538  1
  O2-  O173  1  0.42505249  0.82557230  0.75514581  1
  O2-  O174  1  0.92693489  0.31570848  0.08881571  1
  O2-  O175  1  0.93381220  0.32295408  0.43237435  1
  O2-  O176  1  0.92506301  0.32205088  0.75881316  1
  O2-  O177  1  0.92857255  0.82282400  0.09636029  1
  O2-  O178  1  0.93120525  0.81881831  0.43190728  1
  O2-  O179  1  0.92938479  0.81875594  0.76441679  1
  O2-  O180  1  0.31847688  0.06778842  0.23538563  1
  O2-  O181  1  0.31899852  0.06864450  0.57991499  1
  O2-  O182  1  0.31999001  0.06982460  0.90875078  1
  O2-  O183  1  0.31822254  0.57908763  0.24476417  1
  O2-  O184  1  0.32252760  0.57509203  0.57677901  1
  O2-  O185  1  0.32183202  0.57038474  0.90110581  1
  O2-  O186  1  0.82607803  0.06751999  0.24459150  1
  O2-  O187  1  0.82689201  0.06967450  0.57658036  1
  O2-  O188  1  0.82459415  0.07459517  0.91050485  1
  O2-  O189  1  0.82070744  0.57186075  0.23755880  1
  O2-  O190  1  0.81967774  0.57449577  0.57776188  1
  O2-  O191  1  0.81562860  0.56973680  0.89928260  1
  O2-  O192  1  0.04614566  0.08049661  0.26386121  1
  O2-  O193  1  0.03857199  0.08684105  0.59825657  1
  O2-  O194  1  0.04620735  0.08873546  0.93520224  1
  O2-  O195  1  0.05428884  0.58312493  0.27495237  1
  O2-  O196  1  0.04759565  0.58188528  0.60557652  1
  O2-  O197  1  0.04762378  0.57471255  0.93511975  1
  O2-  O198  1  0.53428758  0.07883605  0.26675368  1
  O2-  O199  1  0.54145070  0.07892491  0.60204471  1
  O2-  O200  1  0.53708738  0.09035734  0.93499393  1
  O2-  O201  1  0.54032096  0.58524926  0.26251620  1
  O2-  O202  1  0.54134334  0.58581791  0.59660365  1
  O2-  O203  1  0.54496668  0.58232432  0.93897633  1
  O2-  O204  1  0.16916302  0.20864500  0.26382196  1
  O2-  O205  1  0.16730677  0.20944273  0.60194982  1
  O2-  O206  1  0.16588255  0.20802301  0.93640233  1
  O2-  O207  1  0.16816990  0.70658647  0.27274085  1
  O2-  O208  1  0.16732466  0.70084969  0.60402167  1
  O2-  O209  1  0.16724539  0.70791976  0.92884623  1
  O2-  O210  1  0.67326982  0.19289074  0.26726507  1
  O2-  O211  1  0.67504240  0.19629782  0.60230006  1
  O2-  O212  1  0.66595342  0.19918370  0.94007044  1
  O2-  O213  1  0.66525906  0.71412451  0.26459675  1
  O2-  O214  1  0.66329406  0.71562980  0.59738279  1
  O2-  O215  1  0.66216115  0.70527479  0.93690119  1
  O2-  O216  1  0.07867294  0.44706517  0.06808544  1
  O2-  O217  1  0.09059659  0.45661819  0.39789871  1
  O2-  O218  1  0.08250262  0.45611896  0.73532908  1
  O2-  O219  1  0.08675308  0.96036350  0.06116962  1
  O2-  O220  1  0.08099599  0.95163543  0.39334523  1
  O2-  O221  1  0.08601138  0.96272530  0.72952129  1
  O2-  O222  1  0.57632978  0.44584255  0.06315624  1
  O2-  O223  1  0.57859468  0.45912848  0.39970950  1
  O2-  O224  1  0.58705982  0.45879973  0.72508371  1
  O2-  O225  1  0.58459275  0.96628893  0.06664935  1
  O2-  O226  1  0.58301346  0.95765987  0.40513788  1
  O2-  O227  1  0.58575398  0.95253642  0.72868730  1
  O2-  O228  1  0.21360527  0.32998920  0.07066216  1
  O2-  O229  1  0.21125373  0.33787737  0.39459696  1
  O2-  O230  1  0.21294612  0.33297539  0.73508038  1
  O2-  O231  1  0.20169454  0.83716886  0.05871229  1
  O2-  O232  1  0.20362111  0.83606590  0.40084689  1
  O2-  O233  1  0.19920863  0.83534912  0.72877951  1
  O2-  O234  1  0.70749635  0.32739186  0.06524854  1
  O2-  O235  1  0.70347687  0.32596870  0.39919004  1
  O2-  O236  1  0.70421077  0.33509744  0.72666798  1
  O2-  O237  1  0.70433825  0.83390733  0.06492118  1
  O2-  O238  1  0.71405945  0.83504577  0.40315656  1
  O2-  O239  1  0.71194285  0.83843923  0.72999810  1
  O2-  O240  1  0.45139138  0.42144235  0.26249125  1
  O2-  O241  1  0.45184655  0.42017442  0.60012005  1
  O2-  O242  1  0.45025566  0.41406101  0.93684789  1
  O2-  O243  1  0.45084095  0.91658253  0.27829615  1
  O2-  O244  1  0.45099070  0.91662432  0.60387092  1
  O2-  O245  1  0.46325031  0.91736241  0.93069134  1
  O2-  O246  1  0.96015275  0.42184858  0.26657336  1
  O2-  O247  1  0.94935632  0.42064022  0.60983317  1
  O2-  O248  1  0.95301399  0.41176266  0.93752847  1
  O2-  O249  1  0.95796215  0.91381586  0.26185339  1
  O2-  O250  1  0.96204659  0.91494387  0.59699478  1
  O2-  O251  1  0.95744603  0.91979715  0.93086786  1
  O2-  O252  1  0.33415549  0.28663195  0.26093049  1
  O2-  O253  1  0.33433508  0.28683582  0.60102927  1
  O2-  O254  1  0.33959344  0.28480273  0.93431044  1
  O2-  O255  1  0.33182244  0.79782805  0.27549394  1
  O2-  O256  1  0.32933458  0.80207226  0.60405119  1
  O2-  O257  1  0.33216002  0.79769999  0.93224730  1
  O2-  O258  1  0.83093765  0.29582672  0.26436973  1
  O2-  O259  1  0.83531106  0.29697337  0.60555667  1
  O2-  O260  1  0.83836003  0.28791287  0.93441872  1
  O2-  O261  1  0.83318085  0.78713069  0.26592576  1
  O2-  O262  1  0.83443230  0.78862261  0.59763648  1
  O2-  O263  1  0.82696385  0.79361434  0.93020388  1
  O2-  O264  1  0.41198411  0.04108008  0.06136075  1
  O2-  O265  1  0.41195142  0.03865329  0.40808503  1
  O2-  O266  1  0.41239417  0.04146384  0.73269392  1
  O2-  O267  1  0.41739895  0.54480773  0.06863334  1
  O2-  O268  1  0.41479091  0.54693941  0.39380495  1
  O2-  O269  1  0.41724558  0.54721422  0.72825915  1
  O2-  O270  1  0.92041876  0.04988684  0.06128847  1
  O2-  O271  1  0.91771891  0.04071217  0.39578590  1
  O2-  O272  1  0.91329401  0.03919669  0.73018063  1
  O2-  O273  1  0.91746913  0.54366482  0.06563439  1
  O2-  O274  1  0.92251150  0.54677911  0.40388820  1
  O2-  O275  1  0.91222441  0.55118407  0.73046309  1
  O2-  O276  1  0.29202613  0.16011546  0.06210319  1
  O2-  O277  1  0.28723779  0.16806054  0.40296621  1
  O2-  O278  1  0.29046294  0.15968093  0.73297173  1
  O2-  O279  1  0.29353292  0.67390602  0.06647138  1
  O2-  O280  1  0.29345309  0.66381569  0.40130248  1
  O2-  O281  1  0.30063530  0.66919076  0.72749961  1
  O2-  O282  1  0.79849756  0.16392803  0.06391073  1
  O2-  O283  1  0.80600510  0.16714305  0.39407409  1
  O2-  O284  1  0.79936650  0.16368607  0.73052915  1
  O2-  O285  1  0.79258820  0.67004442  0.06574584  1
  O2-  O286  1  0.78767479  0.66756373  0.40367335  1
  O2-  O287  1  0.78517818  0.66346627  0.72913878  1
