# generated using pymatgen
data_Ca2Al2SiO7
_symmetry_space_group_name_H-M   'P 1'
_cell_length_a   15.46880798
_cell_length_b   15.46623712
_cell_length_c   15.28922459
_cell_angle_alpha   90.00595018
_cell_angle_beta   90.01982812
_cell_angle_gamma   89.97009130
_symmetry_Int_Tables_number   1
_chemical_formula_structural   Ca2Al2SiO7
_chemical_formula_sum   'Ca48 Al48 Si24 O168'
_cell_volume   3657.85836847
_cell_formula_units_Z   24
loop_
 _symmetry_equiv_pos_site_id
 _symmetry_equiv_pos_as_xyz
  1  'x, y, z'
loop_
 _atom_type_symbol
 _atom_type_oxidation_number
  Ca2+  2.0
  Al0+  0.0
  Si0+  0.0
  O2-  -2.0
loop_
 _atom_site_type_symbol
 _atom_site_label
 _atom_site_symmetry_multiplicity
 _atom_site_fract_x
 _atom_site_fract_y
 _atom_site_fract_z
 _atom_site_occupancy
  Ca2+  Ca0  1  0.16323969  0.08476584  0.17257108  1
  Ca2+  Ca1  1  0.17106818  0.09431330  0.50269658  1
  Ca2+  Ca2  1  0.16217600  0.08241862  0.84156364  1
  Ca2+  Ca3  1  0.16975826  0.58135076  0.17138937  1
  Ca2+  Ca4  1  0.17280170  0.58529155  0.50965398  1
  Ca2+  Ca5  1  0.17363682  0.59597105  0.83290673  1
  Ca2+  Ca6  1  0.65982623  0.07915045  0.16966289  1
  Ca2+  Ca7  1  0.66332830  0.07969189  0.50902008  1
  Ca2+  Ca8  1  0.66221325  0.07328785  0.83951777  1
  Ca2+  Ca9  1  0.67017675  0.57079092  0.17119380  1
  Ca2+  Ca10  1  0.66913227  0.57063853  0.50362530  1
  Ca2+  Ca11  1  0.65947030  0.57316033  0.83808941  1
  Ca2+  Ca12  1  0.07299320  0.32550244  0.16169372  1
  Ca2+  Ca13  1  0.07984003  0.32465233  0.49118180  1
  Ca2+  Ca14  1  0.07838725  0.32427690  0.83063706  1
  Ca2+  Ca15  1  0.07090230  0.83755291  0.16051760  1
  Ca2+  Ca16  1  0.07162451  0.82681531  0.49801227  1
  Ca2+  Ca17  1  0.07204945  0.83655404  0.82745828  1
  Ca2+  Ca18  1  0.58830465  0.32559332  0.16323219  1
  Ca2+  Ca19  1  0.58488699  0.32682419  0.49280646  1
  Ca2+  Ca20  1  0.59325507  0.32361200  0.82982957  1
  Ca2+  Ca21  1  0.58696423  0.82491138  0.15639615  1
  Ca2+  Ca22  1  0.59326002  0.82532498  0.50097866  1
  Ca2+  Ca23  1  0.59406524  0.82238978  0.82831204  1
  Ca2+  Ca24  1  0.33414087  0.41171264  0.17288242  1
  Ca2+  Ca25  1  0.33488809  0.41769663  0.50545535  1
  Ca2+  Ca26  1  0.33363973  0.42321886  0.83335536  1
  Ca2+  Ca27  1  0.32397120  0.92557206  0.17209353  1
  Ca2+  Ca28  1  0.33220697  0.92543360  0.50284124  1
  Ca2+  Ca29  1  0.32284485  0.91830436  0.84164606  1
  Ca2+  Ca30  1  0.82789505  0.41480194  0.17530717  1
  Ca2+  Ca31  1  0.82444505  0.41140405  0.50204005  1
  Ca2+  Ca32  1  0.82402421  0.41436351  0.84020110  1
  Ca2+  Ca33  1  0.83257373  0.91420438  0.16747778  1
  Ca2+  Ca34  1  0.83362476  0.91705467  0.50510909  1
  Ca2+  Ca35  1  0.82817075  0.91225428  0.83734884  1
  Ca2+  Ca36  1  0.42433707  0.16724297  0.16981159  1
  Ca2+  Ca37  1  0.42726550  0.17019445  0.49078162  1
  Ca2+  Ca38  1  0.43010016  0.16492047  0.83062123  1
  Ca2+  Ca39  1  0.42579990  0.66779160  0.15978634  1
  Ca2+  Ca40  1  0.42111379  0.66290933  0.50266321  1
  Ca2+  Ca41  1  0.42705788  0.66566708  0.82696305  1
  Ca2+  Ca42  1  0.92044657  0.17802995  0.16190145  1
  Ca2+  Ca43  1  0.92693749  0.17148952  0.49341781  1
  Ca2+  Ca44  1  0.92406679  0.16820000  0.83339999  1
  Ca2+  Ca45  1  0.90543546  0.67538588  0.16466715  1
  Ca2+  Ca46  1  0.90480367  0.67728305  0.49681037  1
  Ca2+  Ca47  1  0.91723180  0.68062621  0.82615732  1
  Al0+  Al48  1  -0.00123164  -0.00046458  -0.00218117  1
  Al0+  Al49  1  -0.00160184  -0.00464776  0.32840981  1
  Al0+  Al50  1  0.00069056  0.00170179  0.65810615  1
  Al0+  Al51  1  0.00186587  0.50199208  -0.00361554  1
  Al0+  Al52  1  0.00127641  0.50307508  0.33604193  1
  Al0+  Al53  1  0.00039651  0.49979750  0.66566676  1
  Al0+  Al54  1  0.49765714  -0.00026057  0.00172708  1
  Al0+  Al55  1  0.49604746  -0.00181703  0.33536975  1
  Al0+  Al56  1  0.49916049  -0.00012797  0.66866153  1
  Al0+  Al57  1  0.50065777  0.50046025  0.00166166  1
  Al0+  Al58  1  0.50021290  0.50000236  0.33397210  1
  Al0+  Al59  1  0.49891103  0.50143814  0.67181128  1
  Al0+  Al60  1  0.25171963  0.25240947  -0.00274028  1
  Al0+  Al61  1  0.25307324  0.24918681  0.33164060  1
  Al0+  Al62  1  0.25156175  0.25163677  0.66745778  1
  Al0+  Al63  1  0.25075675  0.75266202  0.00872221  1
  Al0+  Al64  1  0.24902053  0.75078944  0.33425712  1
  Al0+  Al65  1  0.24974391  0.75204649  0.66783051  1
  Al0+  Al66  1  0.74944351  0.24880773  -0.00397673  1
  Al0+  Al67  1  0.75110933  0.24582271  0.33122375  1
  Al0+  Al68  1  0.75138692  0.24757265  0.66789200  1
  Al0+  Al69  1  0.74949938  0.74888479  -0.00506373  1
  Al0+  Al70  1  0.74893625  0.74858959  0.33159378  1
  Al0+  Al71  1  0.74849454  0.74944376  0.66092410  1
  Al0+  Al72  1  0.92811122  0.82013826  0.64937955  1
  Al0+  Al73  1  0.07292096  0.67861024  0.65257239  1
  Al0+  Al74  1  0.92914972  0.81947413  0.98561174  1
  Al0+  Al75  1  0.67898871  0.92777524  0.01343780  1
  Al0+  Al76  1  0.07230201  0.18124896  0.65245595  1
  Al0+  Al77  1  0.68033505  0.42832695  0.68150439  1
  Al0+  Al78  1  0.67974901  0.42581049  0.34839342  1
  Al0+  Al79  1  0.82144596  0.57232451  0.34844835  1
  Al0+  Al80  1  0.17711317  0.93126149  0.01429672  1
  Al0+  Al81  1  0.43127242  0.32270793  0.31976277  1
  Al0+  Al82  1  0.31869596  0.57211677  0.68138518  1
  Al0+  Al83  1  0.56956500  0.67804951  0.65113092  1
  Al0+  Al84  1  0.92778537  0.81743740  0.31689117  1
  Al0+  Al85  1  0.56937770  0.67942355  0.98627147  1
  Al0+  Al86  1  0.92858560  0.32348537  0.32019512  1
  Al0+  Al87  1  0.56957743  0.17777432  0.98576662  1
  Al0+  Al88  1  0.67935885  0.92914836  0.67968190  1
  Al0+  Al89  1  0.31882732  0.07073313  0.34885568  1
  Al0+  Al90  1  0.92761962  0.32436769  0.98389623  1
  Al0+  Al91  1  0.07146981  0.17985192  0.98564701  1
  Al0+  Al92  1  0.57231323  0.17564438  0.31905728  1
  Al0+  Al93  1  0.57142128  0.17772973  0.65398144  1
  Al0+  Al94  1  0.07196566  0.17878764  0.31864056  1
  Al0+  Al95  1  0.68011566  0.42743209  0.01430864  1
  Si0+  Si96  1  0.43009366  0.32194519  0.65251714  1
  Si0+  Si97  1  0.07562535  0.67856161  0.31555723  1
  Si0+  Si98  1  0.32114466  0.07334489  0.68360308  1
  Si0+  Si99  1  0.17938849  0.93204274  0.68029779  1
  Si0+  Si100  1  0.17729388  0.42633630  0.68450820  1
  Si0+  Si101  1  0.42583151  0.82062871  0.31832159  1
  Si0+  Si102  1  0.82253823  0.57258302  0.68369320  1
  Si0+  Si103  1  0.32102808  0.57086977  0.01695963  1
  Si0+  Si104  1  0.56887484  0.68038120  0.31810413  1
  Si0+  Si105  1  0.92708188  0.32246501  0.65043547  1
  Si0+  Si106  1  0.32158017  0.57327237  0.34857467  1
  Si0+  Si107  1  0.42640059  0.82159507  0.98472056  1
  Si0+  Si108  1  0.82113651  0.07091324  0.01700610  1
  Si0+  Si109  1  0.42666240  0.82263663  0.65041214  1
  Si0+  Si110  1  0.82339962  0.57158405  0.01356103  1
  Si0+  Si111  1  0.82454355  0.07076308  0.68320648  1
  Si0+  Si112  1  0.42832077  0.32401233  0.98164735  1
  Si0+  Si113  1  0.17936311  0.42880480  0.01540286  1
  Si0+  Si114  1  0.07619346  0.67892239  0.98484753  1
  Si0+  Si115  1  0.17588290  0.92752467  0.35292585  1
  Si0+  Si116  1  0.18073117  0.42967220  0.34756189  1
  Si0+  Si117  1  0.32179538  0.07463785  0.01763965  1
  Si0+  Si118  1  0.67741743  0.92886695  0.34700045  1
  Si0+  Si119  1  0.82234479  0.06841925  0.34710336  1
  O2-  O120  1  0.24841403  0.00977724  0.06030927  1
  O2-  O121  1  0.24084074  -0.00028649  0.39737532  1
  O2-  O122  1  0.24811341  0.00426803  0.72494280  1
  O2-  O123  1  0.24988396  0.50025786  0.05904798  1
  O2-  O124  1  0.25140145  0.50144229  0.39009431  1
  O2-  O125  1  0.24079063  0.50056304  0.72873213  1
  O2-  O126  1  0.75064988  0.00382193  0.06226422  1
  O2-  O127  1  0.74595813  0.00217563  0.38872845  1
  O2-  O128  1  0.75445008  0.00299928  0.72685995  1
  O2-  O129  1  0.75988644  0.49827819  0.05815405  1
  O2-  O130  1  0.75515011  0.49483914  0.39825362  1
  O2-  O131  1  0.75622587  0.50227611  0.72873939  1
  O2-  O132  1  0.00033778  0.25126361  0.26992550  1
  O2-  O133  1  0.00014583  0.25817974  0.60686661  1
  O2-  O134  1  0.00023534  0.25199231  0.93511118  1
  O2-  O135  1  0.00301750  0.74252922  0.27137319  1
  O2-  O136  1  -0.00377118  0.74342673  0.60028484  1
  O2-  O137  1  0.00618572  0.74598660  0.94141300  1
  O2-  O138  1  0.50565109  0.25332900  0.26989915  1
  O2-  O139  1  0.49968873  0.25505661  0.60812739  1
  O2-  O140  1  0.49699139  0.25499215  0.93874945  1
  O2-  O141  1  0.49732376  0.75082922  0.27579001  1
  O2-  O142  1  0.49715550  0.75609031  0.60514313  1
  O2-  O143  1  0.49710331  0.75662875  0.93920554  1
  O2-  O144  1  0.07104914  0.18197788  0.09880999  1
  O2-  O145  1  0.07141968  0.18214407  0.43248721  1
  O2-  O146  1  0.07193191  0.18046981  0.76532832  1
  O2-  O147  1  0.07865542  0.67840260  0.09040843  1
  O2-  O148  1  0.08355621  0.68260712  0.42037743  1
  O2-  O149  1  0.07477010  0.68609516  0.76619602  1
  O2-  O150  1  0.56685123  0.17599845  0.09847038  1
  O2-  O151  1  0.56891773  0.17317137  0.43276776  1
  O2-  O152  1  0.56846458  0.17613739  0.76709997  1
  O2-  O153  1  0.56639891  0.67981549  0.09984903  1
  O2-  O154  1  0.56770860  0.68115771  0.42317300  1
  O2-  O155  1  0.56727156  0.67823047  0.76412942  1
  O2-  O156  1  0.18214014  0.43217916  0.24217975  1
  O2-  O157  1  0.18228366  0.42289242  0.57897164  1
  O2-  O158  1  0.18166467  0.42847898  0.91054779  1
  O2-  O159  1  0.17906645  0.92555494  0.24733955  1
  O2-  O160  1  0.18231657  0.93164025  0.57539854  1
  O2-  O161  1  0.18013430  0.92971887  0.90068333  1
  O2-  O162  1  0.67765919  0.42952121  0.23476850  1
  O2-  O163  1  0.68007079  0.42739165  0.56858850  1
  O2-  O164  1  0.67823520  0.43020881  0.90101185  1
  O2-  O165  1  0.67758172  0.92702192  0.24178502  1
  O2-  O166  1  0.67903699  0.93094210  0.56598751  1
  O2-  O167  1  0.68082620  0.92730765  0.90057335  1
  O2-  O168  1  0.42697157  0.32473350  0.08696313  1
  O2-  O169  1  0.43033503  0.32273483  0.43353558  1
  O2-  O170  1  0.42790489  0.31969526  0.75819206  1
  O2-  O171  1  0.42551711  0.81781056  0.09062426  1
  O2-  O172  1  0.42412263  0.81950379  0.42331416  1
  O2-  O173  1  0.42396637  0.82137633  0.75588437  1
  O2-  O174  1  0.93017281  0.32472186  0.09737849  1
  O2-  O175  1  0.93138148  0.32050714  0.43405976  1
  O2-  O176  1  0.92720631  0.32049125  0.75590943  1
  O2-  O177  1  0.92845023  0.81698758  0.09872530  1
  O2-  O178  1  0.92739065  0.81799976  0.42952537  1
  O2-  O179  1  0.92986491  0.82186699  0.76293821  1
  O2-  O180  1  0.32050396  0.06628657  0.23597110  1
  O2-  O181  1  0.32124354  0.07277875  0.57863151  1
  O2-  O182  1  0.32324098  0.07163809  0.91162401  1
  O2-  O183  1  0.32022863  0.57560320  0.24326259  1
  O2-  O184  1  0.31903126  0.56989215  0.56797934  1
  O2-  O185  1  0.32023226  0.57218089  0.91207889  1
  O2-  O186  1  0.82422360  0.06579373  0.24223219  1
  O2-  O187  1  0.82461877  0.07037396  0.57726796  1
  O2-  O188  1  0.82166809  0.06894833  0.91125337  1
  O2-  O189  1  0.81499803  0.57604757  0.23478498  1
  O2-  O190  1  0.81960795  0.57189791  0.57823903  1
  O2-  O191  1  0.82173981  0.57267493  0.90803229  1
  O2-  O192  1  0.04491481  0.07896361  0.26950768  1
  O2-  O193  1  0.04279497  0.08626087  0.59559792  1
  O2-  O194  1  0.04210007  0.08190351  0.93275397  1
  O2-  O195  1  0.05616262  0.58285088  0.27222161  1
  O2-  O196  1  0.05650736  0.57570065  0.60434347  1
  O2-  O197  1  0.05602685  0.58490924  0.93793814  1
  O2-  O198  1  0.53615952  0.07844922  0.26692002  1
  O2-  O199  1  0.53709618  0.08203432  0.60037006  1
  O2-  O200  1  0.53532891  0.08131534  0.93211158  1
  O2-  O201  1  0.54012866  0.58912999  0.27088894  1
  O2-  O202  1  0.53316682  0.58286991  0.59821380  1
  O2-  O203  1  0.53406201  0.58426532  0.93272647  1
  O2-  O204  1  0.17060629  0.20603209  0.26735398  1
  O2-  O205  1  0.17017518  0.21184648  0.60049439  1
  O2-  O206  1  0.17083991  0.20758831  0.93331513  1
  O2-  O207  1  0.16777092  0.70745128  0.26647936  1
  O2-  O208  1  0.16976087  0.71203239  0.59869258  1
  O2-  O209  1  0.17009359  0.70772938  0.94099174  1
  O2-  O210  1  0.67240960  0.19494512  0.26724565  1
  O2-  O211  1  0.66999454  0.20339411  0.60234789  1
  O2-  O212  1  0.66640352  0.20451602  0.93132980  1
  O2-  O213  1  0.65864560  0.71079235  0.26963547  1
  O2-  O214  1  0.66467183  0.70789792  0.59493307  1
  O2-  O215  1  0.66484767  0.70820549  0.93075602  1
  O2-  O216  1  0.08763245  0.45730156  0.06262360  1
  O2-  O217  1  0.08969232  0.45578841  0.39683887  1
  O2-  O218  1  0.08114250  0.44446138  0.72791189  1
  O2-  O219  1  0.07970305  0.95860795  0.06791938  1
  O2-  O220  1  0.08015721  0.94762790  0.39588329  1
  O2-  O221  1  0.08650132  0.95976088  0.72518674  1
  O2-  O222  1  0.58426041  0.46258697  0.06781204  1
  O2-  O223  1  0.58187513  0.45978831  0.40076245  1
  O2-  O224  1  0.58407739  0.46039175  0.73517629  1
  O2-  O225  1  0.58000546  0.95423346  0.06611960  1
  O2-  O226  1  0.58448342  0.95161323  0.39445434  1
  O2-  O227  1  0.58174349  0.95759936  0.73369107  1
  O2-  O228  1  0.20904638  0.33785099  0.06379493  1
  O2-  O229  1  0.21039389  0.33853685  0.39475579  1
  O2-  O230  1  0.21070089  0.33624571  0.73440029  1
  O2-  O231  1  0.21125062  0.83714660  0.07257667  1
  O2-  O232  1  0.20790266  0.83549436  0.39923129  1
  O2-  O233  1  0.20906823  0.84176532  0.72940608  1
  O2-  O234  1  0.70632008  0.32861226  0.06540720  1
  O2-  O235  1  0.70474061  0.32498113  0.39895769  1
  O2-  O236  1  0.71143910  0.33074805  0.73440441  1
  O2-  O237  1  0.71134358  0.83060714  0.06628822  1
  O2-  O238  1  0.70841040  0.83780093  0.39381490  1
  O2-  O239  1  0.70934568  0.83078184  0.73073355  1
  O2-  O240  1  0.45209233  0.42330917  0.26676839  1
  O2-  O241  1  0.45230593  0.41673649  0.60869970  1
  O2-  O242  1  0.45327575  0.41801331  0.93666777  1
  O2-  O243  1  0.45236760  0.91201273  0.27082135  1
  O2-  O244  1  0.45038314  0.91688554  0.60512640  1
  O2-  O245  1  0.44558204  0.91676271  0.94068149  1
  O2-  O246  1  0.95587202  0.42343587  0.27000988  1
  O2-  O247  1  0.94618010  0.41806228  0.60642216  1
  O2-  O248  1  0.95675662  0.42266917  0.93041023  1
  O2-  O249  1  0.95852903  0.91279898  0.26130131  1
  O2-  O250  1  0.96039132  0.91678348  0.59536540  1
  O2-  O251  1  0.95845414  0.91583316  0.93171775  1
  O2-  O252  1  0.33464629  0.29138185  0.26486910  1
  O2-  O253  1  0.33692602  0.29592578  0.60584534  1
  O2-  O254  1  0.33482613  0.30042923  0.93411840  1
  O2-  O255  1  0.33487197  0.79163461  0.26950056  1
  O2-  O256  1  0.33480708  0.79498724  0.60222337  1
  O2-  O257  1  0.33341784  0.79231129  0.93920762  1
  O2-  O258  1  0.83156020  0.29281249  0.26676352  1
  O2-  O259  1  0.83612784  0.29088138  0.60314557  1
  O2-  O260  1  0.83062366  0.29363078  0.93047870  1
  O2-  O261  1  0.83089923  0.78654438  0.26274635  1
  O2-  O262  1  0.82975783  0.79380656  0.59540271  1
  O2-  O263  1  0.83463802  0.78673583  0.92954668  1
  O2-  O264  1  0.41234764  0.04329114  0.06630025  1
  O2-  O265  1  0.41330666  0.03409756  0.40521817  1
  O2-  O266  1  0.41117130  0.04219147  0.73248776  1
  O2-  O267  1  0.41188947  0.54217688  0.06546270  1
  O2-  O268  1  0.41344506  0.54712070  0.39608750  1
  O2-  O269  1  0.41294743  0.53894131  0.73848237  1
  O2-  O270  1  0.91359676  0.04287753  0.06351440  1
  O2-  O271  1  0.91193510  0.03443397  0.39611954  1
  O2-  O272  1  0.91844368  0.04336948  0.72806893  1
  O2-  O273  1  0.92000714  0.55469396  0.05797897  1
  O2-  O274  1  0.92409524  0.55730262  0.39841565  1
  O2-  O275  1  0.91862095  0.55239385  0.72791117  1
  O2-  O276  1  0.30139244  0.17060883  0.06066727  1
  O2-  O277  1  0.29253825  0.16852935  0.40325114  1
  O2-  O278  1  0.29581541  0.16563921  0.73114285  1
  O2-  O279  1  0.29452892  0.66210230  0.06699929  1
  O2-  O280  1  0.29307195  0.66473313  0.39673147  1
  O2-  O281  1  0.28984301  0.66956838  0.73628625  1
  O2-  O282  1  0.79677652  0.16523209  0.06125294  1
  O2-  O283  1  0.80121511  0.16124655  0.39513167  1
  O2-  O284  1  0.80089006  0.16403659  0.73016018  1
  O2-  O285  1  0.79068717  0.66282328  0.06026351  1
  O2-  O286  1  0.78331552  0.66798880  0.40246093  1
  O2-  O287  1  0.79455152  0.66642669  0.72745833  1
