# generated using pymatgen
data_Ca2Al2SiO7
_symmetry_space_group_name_H-M   'P 1'
_cell_length_a   15.46443295
_cell_length_b   15.46288947
_cell_length_c   15.28719060
_cell_angle_alpha   90.01020402
_cell_angle_beta   89.98102471
_cell_angle_gamma   90.00964522
_symmetry_Int_Tables_number   1
_chemical_formula_structural   Ca2Al2SiO7
_chemical_formula_sum   'Ca48 Al48 Si24 O168'
_cell_volume   3655.54635099
_cell_formula_units_Z   24
loop_
 _symmetry_equiv_pos_site_id
 _symmetry_equiv_pos_as_xyz
  1  'x, y, z'
loop_
 _atom_type_symbol
 _atom_type_oxidation_number
  Ca2+  2.0
  Al0+  0.0
  Si0+  0.0
  O2-  -2.0
loop_
 _atom_site_type_symbol
 _atom_site_label
 _atom_site_symmetry_multiplicity
 _atom_site_fract_x
 _atom_site_fract_y
 _atom_site_fract_z
 _atom_site_occupancy
  Ca2+  Ca0  1  0.15658857  0.08405543  0.16478069  1
  Ca2+  Ca1  1  0.16395183  0.08096077  0.50279216  1
  Ca2+  Ca2  1  0.16679048  0.07328427  0.84307891  1
  Ca2+  Ca3  1  0.17467183  0.58681055  0.16689327  1
  Ca2+  Ca4  1  0.17072799  0.57507594  0.50540120  1
  Ca2+  Ca5  1  0.16749832  0.57886463  0.84157986  1
  Ca2+  Ca6  1  0.67967054  0.07931117  0.16595120  1
  Ca2+  Ca7  1  0.68117923  0.08284427  0.50794894  1
  Ca2+  Ca8  1  0.67732858  0.07537296  0.83733937  1
  Ca2+  Ca9  1  0.67599351  0.58352360  0.16431696  1
  Ca2+  Ca10  1  0.67123491  0.57430732  0.50520282  1
  Ca2+  Ca11  1  0.67323047  0.57681824  0.83770415  1
  Ca2+  Ca12  1  0.07590010  0.32030580  0.15867195  1
  Ca2+  Ca13  1  0.07446270  0.32775704  0.49457227  1
  Ca2+  Ca14  1  0.07351380  0.32912010  0.82964073  1
  Ca2+  Ca15  1  0.07407543  0.83045976  0.15724771  1
  Ca2+  Ca16  1  0.07931012  0.83611656  0.49579905  1
  Ca2+  Ca17  1  0.08693289  0.83290197  0.83544283  1
  Ca2+  Ca18  1  0.57187958  0.33381367  0.16223648  1
  Ca2+  Ca19  1  0.58126456  0.33459430  0.49527172  1
  Ca2+  Ca20  1  0.57864312  0.33606229  0.83100596  1
  Ca2+  Ca21  1  0.58367681  0.83435119  0.15852381  1
  Ca2+  Ca22  1  0.57982227  0.83875462  0.50202487  1
  Ca2+  Ca23  1  0.57951618  0.84211880  0.82617051  1
  Ca2+  Ca24  1  0.33839715  0.42315582  0.17172293  1
  Ca2+  Ca25  1  0.32858035  0.41864476  0.50323030  1
  Ca2+  Ca26  1  0.32563142  0.41894080  0.84255080  1
  Ca2+  Ca27  1  0.32462921  0.92371047  0.16341494  1
  Ca2+  Ca28  1  0.32649048  0.91760316  0.51093888  1
  Ca2+  Ca29  1  0.32488794  0.91838167  0.84128214  1
  Ca2+  Ca30  1  0.84537302  0.41851821  0.16649763  1
  Ca2+  Ca31  1  0.83209802  0.41050474  0.50888033  1
  Ca2+  Ca32  1  0.83253330  0.41412364  0.83943642  1
  Ca2+  Ca33  1  0.84520358  0.92544262  0.16769918  1
  Ca2+  Ca34  1  0.83600821  0.92946500  0.50580929  1
  Ca2+  Ca35  1  0.82837302  0.92469860  0.84441338  1
  Ca2+  Ca36  1  0.41274412  0.17685774  0.15665009  1
  Ca2+  Ca37  1  0.42138588  0.17413245  0.49234473  1
  Ca2+  Ca38  1  0.41324186  0.16661283  0.83475928  1
  Ca2+  Ca39  1  0.41569290  0.66182870  0.16023690  1
  Ca2+  Ca40  1  0.41506641  0.67106627  0.49770987  1
  Ca2+  Ca41  1  0.41482388  0.67217036  0.83047077  1
  Ca2+  Ca42  1  0.92130623  0.16861080  0.16044594  1
  Ca2+  Ca43  1  0.91648788  0.17202173  0.49231934  1
  Ca2+  Ca44  1  0.91270122  0.16845429  0.83290089  1
  Ca2+  Ca45  1  0.91993755  0.67586615  0.15313329  1
  Ca2+  Ca46  1  0.91928253  0.67618301  0.49301514  1
  Ca2+  Ca47  1  0.91678562  0.67003606  0.83740080  1
  Al0+  Al48  1  -0.00133865  -0.00125780  -0.00097832  1
  Al0+  Al49  1  -0.00052512  -0.00088173  0.33293855  1
  Al0+  Al50  1  0.00297457  0.00043521  0.67450676  1
  Al0+  Al51  1  0.00010572  0.50012681  -0.00187835  1
  Al0+  Al52  1  0.00256378  0.50121804  0.33323313  1
  Al0+  Al53  1  0.00176273  0.50035300  0.66479746  1
  Al0+  Al54  1  0.49880113  0.00085577  0.00779044  1
  Al0+  Al55  1  0.49922073  -0.00061705  0.33259743  1
  Al0+  Al56  1  0.50087609  0.00221775  0.66135683  1
  Al0+  Al57  1  0.49921517  0.49988115  -0.00224343  1
  Al0+  Al58  1  0.50068096  0.50250720  0.33568152  1
  Al0+  Al59  1  0.50201700  0.50217898  0.66858728  1
  Al0+  Al60  1  0.24855247  0.25054185  -0.00639181  1
  Al0+  Al61  1  0.24990656  0.25020619  0.32782665  1
  Al0+  Al62  1  0.24890395  0.25178970  0.66878950  1
  Al0+  Al63  1  0.25081910  0.74938969  0.00508236  1
  Al0+  Al64  1  0.25208249  0.75029976  0.33832866  1
  Al0+  Al65  1  0.25120386  0.75061223  0.66366108  1
  Al0+  Al66  1  0.74540868  0.24735519  0.00140327  1
  Al0+  Al67  1  0.74870167  0.24991607  0.33284550  1
  Al0+  Al68  1  0.74838509  0.25164172  0.67160371  1
  Al0+  Al69  1  0.74857517  0.74563434  0.00153056  1
  Al0+  Al70  1  0.74760623  0.74946269  0.33164863  1
  Al0+  Al71  1  0.74937423  0.74944123  0.66508767  1
  Al0+  Al72  1  0.42999967  0.82111360  0.65359925  1
  Al0+  Al73  1  0.82173214  0.56738276  0.01291188  1
  Al0+  Al74  1  0.92713307  0.82007047  0.98327150  1
  Al0+  Al75  1  0.82094455  0.07080681  0.01722142  1
  Al0+  Al76  1  0.42909624  0.32209914  0.98444680  1
  Al0+  Al77  1  0.67820490  0.92635785  0.01506975  1
  Al0+  Al78  1  0.82048549  0.06961713  0.34807589  1
  Al0+  Al79  1  0.32207208  0.57087881  0.34985329  1
  Al0+  Al80  1  0.67835867  0.92868101  0.67911418  1
  Al0+  Al81  1  0.92631670  0.32019187  0.98420647  1
  Al0+  Al82  1  0.31951704  0.07325333  0.01511278  1
  Al0+  Al83  1  0.43088595  0.32147680  0.32137883  1
  Al0+  Al84  1  0.92612939  0.32322851  0.31915191  1
  Al0+  Al85  1  0.82244837  0.07159180  0.68225591  1
  Al0+  Al86  1  0.32077178  0.56895927  0.01264290  1
  Al0+  Al87  1  0.17858930  0.42898682  0.68079774  1
  Al0+  Al88  1  0.92878040  0.31994659  0.65321311  1
  Al0+  Al89  1  0.17826131  0.92834994  0.01704931  1
  Al0+  Al90  1  0.67897560  0.42973714  0.68030680  1
  Al0+  Al91  1  0.07018248  0.17835468  0.31930373  1
  Al0+  Al92  1  0.07034197  0.17730998  0.98145899  1
  Al0+  Al93  1  0.18094580  0.92824597  0.68003332  1
  Al0+  Al94  1  0.07365805  0.67972010  0.98512782  1
  Al0+  Al95  1  0.92889142  0.81878324  0.32159661  1
  Si0+  Si96  1  0.32327938  0.07364127  0.68005642  1
  Si0+  Si97  1  0.57086028  0.67745150  0.98401937  1
  Si0+  Si98  1  0.57342999  0.67678192  0.64772903  1
  Si0+  Si99  1  0.18103668  0.93041500  0.34898893  1
  Si0+  Si100  1  0.32148799  0.57156386  0.68313399  1
  Si0+  Si101  1  0.17853488  0.42646457  0.35005256  1
  Si0+  Si102  1  0.07457646  0.67854269  0.31857503  1
  Si0+  Si103  1  0.68007779  0.43126137  0.34666341  1
  Si0+  Si104  1  0.82380205  0.57316084  0.68122835  1
  Si0+  Si105  1  0.82271737  0.57260965  0.34771918  1
  Si0+  Si106  1  0.07224271  0.67933309  0.65009392  1
  Si0+  Si107  1  0.42769117  0.82191788  0.31679490  1
  Si0+  Si108  1  0.32278926  0.07294410  0.34879605  1
  Si0+  Si109  1  0.42794428  0.32348669  0.65170437  1
  Si0+  Si110  1  0.57192783  0.17654088  0.31578470  1
  Si0+  Si111  1  0.56917925  0.67982758  0.31738805  1
  Si0+  Si112  1  0.67537823  0.92594317  0.35157903  1
  Si0+  Si113  1  0.17703424  0.42769538  0.01752448  1
  Si0+  Si114  1  0.43103304  0.82112069  0.98743194  1
  Si0+  Si115  1  0.57000518  0.18116891  0.65115820  1
  Si0+  Si116  1  0.92894936  0.82172084  0.65280473  1
  Si0+  Si117  1  0.07312219  0.17700784  0.65008324  1
  Si0+  Si118  1  0.67636910  0.42753443  0.01754251  1
  Si0+  Si119  1  0.56889860  0.17616038  0.98202705  1
  O2-  O120  1  0.24433953  0.00602273  0.06744669  1
  O2-  O121  1  0.25213061  0.00182597  0.39158582  1
  O2-  O122  1  0.25571923  0.00398256  0.72321761  1
  O2-  O123  1  0.24765989  0.49463915  0.06209910  1
  O2-  O124  1  0.24708929  0.49606062  0.39489499  1
  O2-  O125  1  0.25528520  0.50171142  0.72742236  1
  O2-  O126  1  0.75380827  -0.00697954  0.06654028  1
  O2-  O127  1  0.74464401  -0.00537881  0.39408541  1
  O2-  O128  1  0.75462644  -0.00588129  0.72965648  1
  O2-  O129  1  0.75133080  0.48903125  0.06188605  1
  O2-  O130  1  0.75783259  0.49546874  0.38956513  1
  O2-  O131  1  0.75648811  0.50243086  0.72398460  1
  O2-  O132  1  -0.00243682  0.25045638  0.27095152  1
  O2-  O133  1  0.00189709  0.24355833  0.60638632  1
  O2-  O134  1  -0.00390975  0.24749108  0.93216142  1
  O2-  O135  1  0.00088209  0.74140495  0.27543854  1
  O2-  O136  1  0.00032052  0.75071072  0.60926849  1
  O2-  O137  1  0.00230249  0.75112661  0.93292224  1
  O2-  O138  1  0.50106288  0.24369934  0.27293833  1
  O2-  O139  1  0.49849775  0.25255164  0.60866118  1
  O2-  O140  1  0.50111862  0.24560862  0.93660774  1
  O2-  O141  1  0.50058747  0.75297893  0.27496106  1
  O2-  O142  1  0.50591593  0.74774702  0.60479127  1
  O2-  O143  1  0.50429776  0.75328322  0.94374493  1
  O2-  O144  1  0.07019095  0.18086209  0.09518970  1
  O2-  O145  1  0.07093717  0.17848837  0.43353631  1
  O2-  O146  1  0.07646928  0.17850407  0.75466926  1
  O2-  O147  1  0.07331528  0.68092129  0.09923346  1
  O2-  O148  1  0.07402778  0.68007331  0.42488130  1
  O2-  O149  1  0.07453786  0.67837890  0.75432276  1
  O2-  O150  1  0.56750846  0.17812649  0.08785220  1
  O2-  O151  1  0.57121195  0.17810114  0.42201278  1
  O2-  O152  1  0.56749099  0.18020435  0.75566923  1
  O2-  O153  1  0.56840357  0.67435017  0.08951907  1
  O2-  O154  1  0.56933803  0.67886415  0.42248867  1
  O2-  O155  1  0.57265535  0.67268328  0.75273842  1
  O2-  O156  1  0.17889033  0.42729199  0.24508351  1
  O2-  O157  1  0.18128359  0.43036850  0.56718243  1
  O2-  O158  1  0.17903149  0.43067341  0.91159063  1
  O2-  O159  1  0.18309403  0.92781421  0.24481028  1
  O2-  O160  1  0.18112831  0.92892266  0.56596574  1
  O2-  O161  1  0.18546152  0.92538836  0.90355199  1
  O2-  O162  1  0.67477287  0.43581738  0.24228139  1
  O2-  O163  1  0.67723702  0.43149643  0.56646457  1
  O2-  O164  1  0.67336389  0.43235958  0.91188677  1
  O2-  O165  1  0.67235357  0.92499571  0.24669742  1
  O2-  O166  1  0.67888020  0.93221861  0.56520261  1
  O2-  O167  1  0.67551019  0.92988802  0.90154374  1
  O2-  O168  1  0.43370189  0.32492366  0.09782567  1
  O2-  O169  1  0.43353896  0.32036264  0.43523354  1
  O2-  O170  1  0.42872771  0.32360602  0.75625874  1
  O2-  O171  1  0.43181144  0.81847553  0.09297304  1
  O2-  O172  1  0.42765126  0.82177251  0.42202547  1
  O2-  O173  1  0.42946483  0.81887130  0.76655482  1
  O2-  O174  1  0.93021054  0.32051889  0.09779910  1
  O2-  O175  1  0.92678732  0.32203054  0.43330687  1
  O2-  O176  1  0.92937186  0.32130056  0.76538177  1
  O2-  O177  1  0.92774088  0.81634949  0.09728014  1
  O2-  O178  1  0.93184188  0.81855301  0.43574925  1
  O2-  O179  1  0.92690281  0.81856907  0.75680428  1
  O2-  O180  1  0.32600816  0.07145906  0.24478502  1
  O2-  O181  1  0.32279540  0.07403953  0.57369124  1
  O2-  O182  1  0.32348982  0.06694147  0.90123151  1
  O2-  O183  1  0.32280741  0.57071981  0.23714120  1
  O2-  O184  1  0.32073647  0.57062267  0.57701683  1
  O2-  O185  1  0.32174302  0.56875782  0.89951276  1
  O2-  O186  1  0.81982545  0.06870428  0.23593971  1
  O2-  O187  1  0.82153221  0.07154459  0.56784656  1
  O2-  O188  1  0.81618861  0.07221770  0.90389668  1
  O2-  O189  1  0.81952302  0.57506165  0.24328506  1
  O2-  O190  1  0.82180492  0.57442954  0.57479209  1
  O2-  O191  1  0.81690616  0.56886901  0.89979450  1
  O2-  O192  1  0.04266057  0.07994130  0.26749929  1
  O2-  O193  1  0.05066473  0.08131629  0.60593442  1
  O2-  O194  1  0.04589441  0.07724878  0.93145234  1
  O2-  O195  1  0.05662208  0.58300062  0.27472570  1
  O2-  O196  1  0.04404183  0.58859414  0.59988614  1
  O2-  O197  1  0.04493755  0.58162338  0.93234866  1
  O2-  O198  1  0.54802935  0.08206102  0.27148437  1
  O2-  O199  1  0.54308996  0.09125807  0.59873854  1
  O2-  O200  1  0.54014837  0.08294488  0.93702598  1
  O2-  O201  1  0.53839134  0.58974688  0.26910558  1
  O2-  O202  1  0.54411521  0.58446942  0.59891184  1
  O2-  O203  1  0.53748835  0.58886338  0.93384667  1
  O2-  O204  1  0.16879230  0.20425188  0.26561993  1
  O2-  O205  1  0.16649335  0.20548096  0.60269027  1
  O2-  O206  1  0.16861688  0.20508015  0.92785375  1
  O2-  O207  1  0.16735401  0.70901569  0.27399869  1
  O2-  O208  1  0.16323625  0.70773252  0.60054824  1
  O2-  O209  1  0.17299714  0.70809344  0.93288507  1
  O2-  O210  1  0.66344891  0.20553287  0.26892774  1
  O2-  O211  1  0.66066915  0.21216865  0.60332835  1
  O2-  O212  1  0.66168545  0.20178533  0.93530850  1
  O2-  O213  1  0.66132456  0.70453997  0.26891378  1
  O2-  O214  1  0.66718999  0.69967353  0.59931170  1
  O2-  O215  1  0.66338370  0.69843011  0.93630708  1
  O2-  O216  1  0.08480846  0.45519671  0.06391496  1
  O2-  O217  1  0.08535391  0.45367178  0.39813328  1
  O2-  O218  1  0.08313131  0.46254054  0.73388356  1
  O2-  O219  1  0.07775955  0.95045292  0.06676603  1
  O2-  O220  1  0.08952660  0.95796803  0.39720390  1
  O2-  O221  1  0.08569360  0.95502006  0.73644039  1
  O2-  O222  1  0.58632256  0.46309111  0.06480327  1
  O2-  O223  1  0.59216457  0.46675721  0.39795887  1
  O2-  O224  1  0.58354300  0.46299016  0.73580248  1
  O2-  O225  1  0.58193103  0.95811955  0.07124499  1
  O2-  O226  1  0.58072276  0.95186964  0.39708635  1
  O2-  O227  1  0.58024101  0.96128949  0.72988880  1
  O2-  O228  1  0.20218672  0.33342392  0.06032981  1
  O2-  O229  1  0.20619031  0.33327475  0.39646445  1
  O2-  O230  1  0.20846599  0.33299017  0.73544013  1
  O2-  O231  1  0.21408004  0.83331595  0.07253334  1
  O2-  O232  1  0.21038553  0.83949525  0.39843810  1
  O2-  O233  1  0.21365612  0.83181898  0.73218383  1
  O2-  O234  1  0.69091763  0.33130141  0.06083114  1
  O2-  O235  1  0.69938116  0.33715476  0.39358611  1
  O2-  O236  1  0.70425612  0.33411175  0.73676182  1
  O2-  O237  1  0.69739063  0.82449780  0.06441047  1
  O2-  O238  1  0.69886694  0.83089772  0.39661289  1
  O2-  O239  1  0.69645776  0.82614334  0.72688988  1
  O2-  O240  1  0.46601244  0.41761585  0.26927461  1
  O2-  O241  1  0.45692824  0.41587993  0.60541556  1
  O2-  O242  1  0.46364093  0.41705268  0.92874770  1
  O2-  O243  1  0.45262820  0.91467966  0.27000937  1
  O2-  O244  1  0.45842448  0.91785797  0.59640400  1
  O2-  O245  1  0.45627731  0.91405293  0.94175600  1
  O2-  O246  1  0.95406015  0.42348364  0.26953070  1
  O2-  O247  1  0.95952006  0.41762817  0.59903396  1
  O2-  O248  1  0.95457363  0.41925469  0.93273050  1
  O2-  O249  1  0.96339900  0.91312857  0.26809979  1
  O2-  O250  1  0.95974840  0.91399316  0.60727267  1
  O2-  O251  1  0.95105256  0.91921636  0.93225355  1
  O2-  O252  1  0.33409854  0.29562072  0.26724373  1
  O2-  O253  1  0.33598601  0.29571735  0.60397852  1
  O2-  O254  1  0.33252774  0.29531330  0.92969448  1
  O2-  O255  1  0.33648411  0.79108576  0.27074489  1
  O2-  O256  1  0.33519958  0.78776031  0.59554486  1
  O2-  O257  1  0.34057779  0.78939978  0.94077248  1
  O2-  O258  1  0.82582247  0.30023328  0.26847312  1
  O2-  O259  1  0.82938438  0.29233836  0.60187576  1
  O2-  O260  1  0.82420086  0.29577911  0.93641312  1
  O2-  O261  1  0.83094019  0.79114017  0.26948633  1
  O2-  O262  1  0.83742958  0.79407994  0.60315077  1
  O2-  O263  1  0.82921150  0.78552655  0.93202167  1
  O2-  O264  1  0.41511910  0.04159376  0.07209697  1
  O2-  O265  1  0.41478819  0.04471346  0.39739182  1
  O2-  O266  1  0.41736818  0.04955461  0.72402503  1
  O2-  O267  1  0.41761276  0.53782253  0.06692687  1
  O2-  O268  1  0.41854837  0.54040263  0.40495280  1
  O2-  O269  1  0.41669404  0.55046744  0.72687290  1
  O2-  O270  1  0.92030400  0.04519008  0.06814932  1
  O2-  O271  1  0.91654716  0.03645970  0.40281475  1
  O2-  O272  1  0.92151519  0.04859091  0.73401741  1
  O2-  O273  1  0.91922504  0.54249438  0.06795241  1
  O2-  O274  1  0.91751659  0.55364801  0.39385496  1
  O2-  O275  1  0.91811844  0.55089260  0.72508803  1
  O2-  O276  1  0.29683300  0.17483718  0.06350925  1
  O2-  O277  1  0.29555375  0.16536313  0.39588918  1
  O2-  O278  1  0.29916522  0.16706104  0.72630620  1
  O2-  O279  1  0.29238313  0.66460171  0.06950503  1
  O2-  O280  1  0.29189084  0.66773255  0.40506973  1
  O2-  O281  1  0.29411900  0.66492393  0.72705588  1
  O2-  O282  1  0.78557676  0.16740640  0.07087750  1
  O2-  O283  1  0.78774663  0.16719023  0.40097398  1
  O2-  O284  1  0.78684645  0.16693013  0.73491915  1
  O2-  O285  1  0.78495862  0.66076489  0.06981063  1
  O2-  O286  1  0.78725970  0.66145983  0.39763477  1
  O2-  O287  1  0.79528835  0.66540984  0.72765272  1
