# generated using pymatgen
data_Ca2Al2SiO7
_symmetry_space_group_name_H-M   'P 1'
_cell_length_a   15.46235117
_cell_length_b   15.45997912
_cell_length_c   15.28597391
_cell_angle_alpha   90.00029768
_cell_angle_beta   90.00391525
_cell_angle_gamma   90.00992585
_symmetry_Int_Tables_number   1
_chemical_formula_structural   Ca2Al2SiO7
_chemical_formula_sum   'Ca48 Al48 Si24 O168'
_cell_volume   3654.07571448
_cell_formula_units_Z   24
loop_
 _symmetry_equiv_pos_site_id
 _symmetry_equiv_pos_as_xyz
  1  'x, y, z'
loop_
 _atom_type_symbol
 _atom_type_oxidation_number
  Ca2+  2.0
  Al0+  0.0
  Si0+  0.0
  O2-  -2.0
loop_
 _atom_site_type_symbol
 _atom_site_label
 _atom_site_symmetry_multiplicity
 _atom_site_fract_x
 _atom_site_fract_y
 _atom_site_fract_z
 _atom_site_occupancy
  Ca2+  Ca0  1  0.17212452  0.08424771  0.17559578  1
  Ca2+  Ca1  1  0.16852724  0.08475037  0.50655773  1
  Ca2+  Ca2  1  0.15377351  0.07567216  0.83033576  1
  Ca2+  Ca3  1  0.15083949  0.57174511  0.16820280  1
  Ca2+  Ca4  1  0.15744266  0.57616789  0.50486744  1
  Ca2+  Ca5  1  0.15532596  0.57574367  0.83710315  1
  Ca2+  Ca6  1  0.68339414  0.08212066  0.17342334  1
  Ca2+  Ca7  1  0.67332288  0.07146352  0.50121822  1
  Ca2+  Ca8  1  0.67408947  0.07461661  0.83846942  1
  Ca2+  Ca9  1  0.67289027  0.57901797  0.16441725  1
  Ca2+  Ca10  1  0.67247656  0.58275672  0.51319642  1
  Ca2+  Ca11  1  0.67829596  0.58219852  0.83458373  1
  Ca2+  Ca12  1  0.08300522  0.32898349  0.16185661  1
  Ca2+  Ca13  1  0.08968687  0.32703432  0.49550392  1
  Ca2+  Ca14  1  0.07953607  0.33351044  0.82914465  1
  Ca2+  Ca15  1  0.07962933  0.82027747  0.15764118  1
  Ca2+  Ca16  1  0.08376394  0.82452377  0.49843521  1
  Ca2+  Ca17  1  0.07204265  0.82300638  0.82445308  1
  Ca2+  Ca18  1  0.57674060  0.33486289  0.15390715  1
  Ca2+  Ca19  1  0.58292847  0.33470493  0.49701416  1
  Ca2+  Ca20  1  0.57979469  0.34705559  0.83061649  1
  Ca2+  Ca21  1  0.57846901  0.84395959  0.16910593  1
  Ca2+  Ca22  1  0.58686423  0.83307032  0.49567314  1
  Ca2+  Ca23  1  0.58604914  0.82743112  0.82279469  1
  Ca2+  Ca24  1  0.32280187  0.41480512  0.16814181  1
  Ca2+  Ca25  1  0.32048148  0.41852465  0.50394586  1
  Ca2+  Ca26  1  0.32210996  0.41591203  0.83817380  1
  Ca2+  Ca27  1  0.33386804  0.92249029  0.17700762  1
  Ca2+  Ca28  1  0.32965756  0.91892761  0.50219394  1
  Ca2+  Ca29  1  0.32309529  0.91472696  0.83317928  1
  Ca2+  Ca30  1  0.84129378  0.42145964  0.16375646  1
  Ca2+  Ca31  1  0.82769968  0.42615578  0.50995173  1
  Ca2+  Ca32  1  0.83152459  0.42859422  0.84229327  1
  Ca2+  Ca33  1  0.83598943  0.92535874  0.17037920  1
  Ca2+  Ca34  1  0.82947716  0.91454952  0.50585603  1
  Ca2+  Ca35  1  0.83828650  0.91575680  0.83660929  1
  Ca2+  Ca36  1  0.41779981  0.17055236  0.16207062  1
  Ca2+  Ca37  1  0.41670402  0.16449884  0.49447602  1
  Ca2+  Ca38  1  0.41873634  0.17462221  0.83197872  1
  Ca2+  Ca39  1  0.41749213  0.67343080  0.16491654  1
  Ca2+  Ca40  1  0.42423285  0.67339721  0.49656577  1
  Ca2+  Ca41  1  0.42604338  0.66363187  0.82739147  1
  Ca2+  Ca42  1  0.91768847  0.16746373  0.16116278  1
  Ca2+  Ca43  1  0.92847140  0.16469361  0.49565411  1
  Ca2+  Ca44  1  0.91417438  0.17415576  0.83071888  1
  Ca2+  Ca45  1  0.92349757  0.67025604  0.15806548  1
  Ca2+  Ca46  1  0.92155473  0.66874187  0.50162573  1
  Ca2+  Ca47  1  0.91785884  0.66883691  0.82734158  1
  Al0+  Al48  1  0.00088040  -0.00300413  0.00321043  1
  Al0+  Al49  1  0.00225387  0.00005294  0.33199002  1
  Al0+  Al50  1  0.00102046  0.00170955  0.66220580  1
  Al0+  Al51  1  -0.00045000  0.49640996  0.00214664  1
  Al0+  Al52  1  -0.00172627  0.49852712  0.33576511  1
  Al0+  Al53  1  -0.00162306  0.49987988  0.67060555  1
  Al0+  Al54  1  0.49855288  0.00110615  -0.00254488  1
  Al0+  Al55  1  0.50067831  0.00103062  0.33640034  1
  Al0+  Al56  1  0.50046697  0.00329838  0.67199297  1
  Al0+  Al57  1  0.49732081  0.50087788  -0.00012654  1
  Al0+  Al58  1  0.49818154  0.50114096  0.33154621  1
  Al0+  Al59  1  0.49724296  0.50144325  0.66168570  1
  Al0+  Al60  1  0.25270786  0.24941019  -0.00211785  1
  Al0+  Al61  1  0.24996409  0.25005720  0.33701847  1
  Al0+  Al62  1  0.25186488  0.25216816  0.66790984  1
  Al0+  Al63  1  0.25080840  0.74881129  -0.00401929  1
  Al0+  Al64  1  0.25299035  0.74784820  0.32366137  1
  Al0+  Al65  1  0.25048388  0.75145689  0.66745468  1
  Al0+  Al66  1  0.74983754  0.24629819  0.00227936  1
  Al0+  Al67  1  0.75076808  0.24989593  0.33812666  1
  Al0+  Al68  1  0.74651470  0.24917185  0.66711365  1
  Al0+  Al69  1  0.74771495  0.75014056  0.00386365  1
  Al0+  Al70  1  0.75059542  0.74804826  0.33376405  1
  Al0+  Al71  1  0.74919760  0.75035780  0.66569964  1
  Al0+  Al72  1  0.67570103  0.42745546  0.68001693  1
  Al0+  Al73  1  0.31985034  0.07068367  0.34669998  1
  Al0+  Al74  1  0.43191090  0.82148718  0.32043852  1
  Al0+  Al75  1  0.67731698  0.42889905  0.01462467  1
  Al0+  Al76  1  0.17944528  0.42961179  0.68122457  1
  Al0+  Al77  1  0.68153356  0.92959465  0.34791334  1
  Al0+  Al78  1  0.42964815  0.32125526  0.98545546  1
  Al0+  Al79  1  0.92857579  0.82173566  0.65010457  1
  Al0+  Al80  1  0.82235333  0.06892598  0.01291124  1
  Al0+  Al81  1  0.17859166  0.92907546  0.67918073  1
  Al0+  Al82  1  0.17952707  0.43138217  0.34717899  1
  Al0+  Al83  1  0.92760518  0.82164773  0.98631093  1
  Al0+  Al84  1  0.07239083  0.17876565  0.31962220  1
  Al0+  Al85  1  0.92826058  0.31787703  0.98737945  1
  Al0+  Al86  1  0.07031279  0.67691822  0.98376305  1
  Al0+  Al87  1  0.07061136  0.18234800  0.65374574  1
  Al0+  Al88  1  0.82149273  0.57176236  0.01756687  1
  Al0+  Al89  1  0.82582184  0.07307782  0.35118439  1
  Al0+  Al90  1  0.82049515  0.57083939  0.68176633  1
  Al0+  Al91  1  0.56966113  0.68052902  0.65338057  1
  Al0+  Al92  1  0.67960660  0.92985430  0.68086310  1
  Al0+  Al93  1  0.17961515  0.42831342  0.01400926  1
  Al0+  Al94  1  0.07036371  0.67748494  0.31892225  1
  Al0+  Al95  1  0.07219773  0.67691037  0.65106849  1
  Si0+  Si96  1  0.57156617  0.18038318  0.31910288  1
  Si0+  Si97  1  0.81999901  0.56923939  0.34908666  1
  Si0+  Si98  1  0.17960860  0.92429581  0.34717260  1
  Si0+  Si99  1  0.32144054  0.57322587  0.68190195  1
  Si0+  Si100  1  0.82323877  0.07197568  0.68320836  1
  Si0+  Si101  1  0.42802041  0.82572569  0.65116679  1
  Si0+  Si102  1  0.57190560  0.17742884  0.98257149  1
  Si0+  Si103  1  0.56900404  0.67990000  0.98586922  1
  Si0+  Si104  1  0.32466705  0.57336307  0.35029167  1
  Si0+  Si105  1  0.07441638  0.17698396  0.98449708  1
  Si0+  Si106  1  0.42952241  0.32134132  0.31856808  1
  Si0+  Si107  1  0.92689347  0.32041513  0.31781437  1
  Si0+  Si108  1  0.32152127  0.06932780  0.01470847  1
  Si0+  Si109  1  0.42875060  0.82402454  0.98305747  1
  Si0+  Si110  1  0.32214378  0.07353068  0.68621567  1
  Si0+  Si111  1  0.67521091  0.42939850  0.34710050  1
  Si0+  Si112  1  0.57081899  0.17715583  0.64987201  1
  Si0+  Si113  1  0.42981197  0.32085084  0.64889534  1
  Si0+  Si114  1  0.92497931  0.32244235  0.65087063  1
  Si0+  Si115  1  0.32237683  0.57341209  0.01768054  1
  Si0+  Si116  1  0.67462264  0.92768391  0.01693130  1
  Si0+  Si117  1  0.18053050  0.92751079  0.01561922  1
  Si0+  Si118  1  0.57411149  0.67641560  0.31429520  1
  Si0+  Si119  1  0.92692127  0.82124026  0.31624201  1
  O2-  O120  1  0.25097605  -0.00091134  0.05826559  1
  O2-  O121  1  0.24437931  -0.00336738  0.39217620  1
  O2-  O122  1  0.25257873  0.00479711  0.72853555  1
  O2-  O123  1  0.25027184  0.50769345  0.06069885  1
  O2-  O124  1  0.25203575  0.50877553  0.39361578  1
  O2-  O125  1  0.24844900  0.51011976  0.72699450  1
  O2-  O126  1  0.74732113  -0.00679920  0.05845841  1
  O2-  O127  1  0.75758332  -0.00359173  0.39917590  1
  O2-  O128  1  0.75639852  0.00161684  0.72784557  1
  O2-  O129  1  0.75136389  0.49666212  0.06783012  1
  O2-  O130  1  0.74452404  0.50142028  0.38915631  1
  O2-  O131  1  0.75043263  0.49542336  0.72990265  1
  O2-  O132  1  -0.00629334  0.24935051  0.27406225  1
  O2-  O133  1  -0.00433387  0.25622439  0.60579263  1
  O2-  O134  1  0.00420412  0.24401717  0.94097494  1
  O2-  O135  1  -0.00124448  0.75540183  0.27281723  1
  O2-  O136  1  0.00184900  0.75035638  0.60074155  1
  O2-  O137  1  -0.00406064  0.74696339  0.93541990  1
  O2-  O138  1  0.50366941  0.25398617  0.27572915  1
  O2-  O139  1  0.50297436  0.25159240  0.60726644  1
  O2-  O140  1  0.50869198  0.25124817  0.93786969  1
  O2-  O141  1  0.50761558  0.74826247  0.27139198  1
  O2-  O142  1  0.49759741  0.75825329  0.60709162  1
  O2-  O143  1  0.50083775  0.75394071  0.94285907  1
  O2-  O144  1  0.07714211  0.17845579  0.09028319  1
  O2-  O145  1  0.07546438  0.18310948  0.43258112  1
  O2-  O146  1  0.06896823  0.18249778  0.76700842  1
  O2-  O147  1  0.07076887  0.68018508  0.09788669  1
  O2-  O148  1  0.06862351  0.67720340  0.43164107  1
  O2-  O149  1  0.07165108  0.67790827  0.76411966  1
  O2-  O150  1  0.56693827  0.17411034  0.08834848  1
  O2-  O151  1  0.56941060  0.18224150  0.42439901  1
  O2-  O152  1  0.56819307  0.17345816  0.75462091  1
  O2-  O153  1  0.56600897  0.67963268  0.09115969  1
  O2-  O154  1  0.57237957  0.67333459  0.41964168  1
  O2-  O155  1  0.56680093  0.68051573  0.76681559  1
  O2-  O156  1  0.18139907  0.42997720  0.23413057  1
  O2-  O157  1  0.18365754  0.42702140  0.56798929  1
  O2-  O158  1  0.18289676  0.42627137  0.90114561  1
  O2-  O159  1  0.18358698  0.92517445  0.24110254  1
  O2-  O160  1  0.18294105  0.92941244  0.56608604  1
  O2-  O161  1  0.18168202  0.92914162  0.91057756  1
  O2-  O162  1  0.67248726  0.42940805  0.24242023  1
  O2-  O163  1  0.67669138  0.42930304  0.56546262  1
  O2-  O164  1  0.67594815  0.43522845  0.90177328  1
  O2-  O165  1  0.68001492  0.93434886  0.23407232  1
  O2-  O166  1  0.67651943  0.93306237  0.56818689  1
  O2-  O167  1  0.66935072  0.92967753  0.91154284  1
  O2-  O168  1  0.42855673  0.31670702  0.09904685  1
  O2-  O169  1  0.43141111  0.32124337  0.42381338  1
  O2-  O170  1  0.42911447  0.31978443  0.75392718  1
  O2-  O171  1  0.42924838  0.82680780  0.08819671  1
  O2-  O172  1  0.43195995  0.81998898  0.43323635  1
  O2-  O173  1  0.42897697  0.82481840  0.75720138  1
  O2-  O174  1  0.93050246  0.31626722  0.10079473  1
  O2-  O175  1  0.92670756  0.32214191  0.42337093  1
  O2-  O176  1  0.92434985  0.31965682  0.75642744  1
  O2-  O177  1  0.93274332  0.82360721  0.10019985  1
  O2-  O178  1  0.92459492  0.81845973  0.42150277  1
  O2-  O179  1  0.92940429  0.82182191  0.76348875  1
  O2-  O180  1  0.32018570  0.07079434  0.23306364  1
  O2-  O181  1  0.32378145  0.07385813  0.58055837  1
  O2-  O182  1  0.32416467  0.06738479  0.90993134  1
  O2-  O183  1  0.33157144  0.56981035  0.24514693  1
  O2-  O184  1  0.32475986  0.56983557  0.57627623  1
  O2-  O185  1  0.32678608  0.57278977  0.91225019  1
  O2-  O186  1  0.82211591  0.07496602  0.23742416  1
  O2-  O187  1  0.82098421  0.07297110  0.57780920  1
  O2-  O188  1  0.82023585  0.06915412  0.89985000  1
  O2-  O189  1  0.82080589  0.56831473  0.24417519  1
  O2-  O190  1  0.81860396  0.56930566  0.56721481  1
  O2-  O191  1  0.81910796  0.57376475  0.90474219  1
  O2-  O192  1  0.04960823  0.07977123  0.26553687  1
  O2-  O193  1  0.04308060  0.08620377  0.59768498  1
  O2-  O194  1  0.04910294  0.08199304  0.94202469  1
  O2-  O195  1  0.03368557  0.58154027  0.26674323  1
  O2-  O196  1  0.04184759  0.57779212  0.59982071  1
  O2-  O197  1  0.04512083  0.57644977  0.93600092  1
  O2-  O198  1  0.54006358  0.09044022  0.27137852  1
  O2-  O199  1  0.53748827  0.08754852  0.60095069  1
  O2-  O200  1  0.53825411  0.08685448  0.93350736  1
  O2-  O201  1  0.54359120  0.58430879  0.26686666  1
  O2-  O202  1  0.53537272  0.58605924  0.59584554  1
  O2-  O203  1  0.53668332  0.59035655  0.93766440  1
  O2-  O204  1  0.16863934  0.21321020  0.26566787  1
  O2-  O205  1  0.16893942  0.21267726  0.60186040  1
  O2-  O206  1  0.16741799  0.20181784  0.93730865  1
  O2-  O207  1  0.16857312  0.70131979  0.26428508  1
  O2-  O208  1  0.17263786  0.70426433  0.60022436  1
  O2-  O209  1  0.16987913  0.70530312  0.93241167  1
  O2-  O210  1  0.66473369  0.20607119  0.27319704  1
  O2-  O211  1  0.66306544  0.20119075  0.60123437  1
  O2-  O212  1  0.66715462  0.19449226  0.93846592  1
  O2-  O213  1  0.66850293  0.69874076  0.26872768  1
  O2-  O214  1  0.66509981  0.70967381  0.59774218  1
  O2-  O215  1  0.66146029  0.70524779  0.93978165  1
  O2-  O216  1  0.08285122  0.45372709  0.06964227  1
  O2-  O217  1  0.08209908  0.45869825  0.40123803  1
  O2-  O218  1  0.08105028  0.45309206  0.73358634  1
  O2-  O219  1  0.08974752  0.95357372  0.06491569  1
  O2-  O220  1  0.08443388  0.94447087  0.39048109  1
  O2-  O221  1  0.08298510  0.96305720  0.73336726  1
  O2-  O222  1  0.57885395  0.46070656  0.06777346  1
  O2-  O223  1  0.58245083  0.45520447  0.39435437  1
  O2-  O224  1  0.57652455  0.45862356  0.72898592  1
  O2-  O225  1  0.58175722  0.95903619  0.06304249  1
  O2-  O226  1  0.58485276  0.96257247  0.40150140  1
  O2-  O227  1  0.58392635  0.96318394  0.73665073  1
  O2-  O228  1  0.21665395  0.33228976  0.06683986  1
  O2-  O229  1  0.21574022  0.33703975  0.40188810  1
  O2-  O230  1  0.21775900  0.33586867  0.73600693  1
  O2-  O231  1  0.21111948  0.83576319  0.06158819  1
  O2-  O232  1  0.21085617  0.83162522  0.39155743  1
  O2-  O233  1  0.21129400  0.83410486  0.73610008  1
  O2-  O234  1  0.69758682  0.32691223  0.06325874  1
  O2-  O235  1  0.70239866  0.33789285  0.39521323  1
  O2-  O236  1  0.69425277  0.32576728  0.73020890  1
  O2-  O237  1  0.69274782  0.83320300  0.06327634  1
  O2-  O238  1  0.70310850  0.82768757  0.39722220  1
  O2-  O239  1  0.70607109  0.83253076  0.73369754  1
  O2-  O240  1  0.45357992  0.41415484  0.27088970  1
  O2-  O241  1  0.45438912  0.41236020  0.59928457  1
  O2-  O242  1  0.45551848  0.41932445  0.93194860  1
  O2-  O243  1  0.46295115  0.91872279  0.26547644  1
  O2-  O244  1  0.45214893  0.92095714  0.60810288  1
  O2-  O245  1  0.45411736  0.91592251  0.93451820  1
  O2-  O246  1  0.95571654  0.41288051  0.27131999  1
  O2-  O247  1  0.94857505  0.41669260  0.60628719  1
  O2-  O248  1  0.95813276  0.41420503  0.93385508  1
  O2-  O249  1  0.94943871  0.91665328  0.27277785  1
  O2-  O250  1  0.95614608  0.92039732  0.59727720  1
  O2-  O251  1  0.96009451  0.91896502  0.93297503  1
  O2-  O252  1  0.33924795  0.28907587  0.27184890  1
  O2-  O253  1  0.33980995  0.28900189  0.60044469  1
  O2-  O254  1  0.33639512  0.28421958  0.92852869  1
  O2-  O255  1  0.33797009  0.79090871  0.26027491  1
  O2-  O256  1  0.33532395  0.79960134  0.60441158  1
  O2-  O257  1  0.33794754  0.79486386  0.93481287  1
  O2-  O258  1  0.83190981  0.29768407  0.27246384  1
  O2-  O259  1  0.83098560  0.29638182  0.60464639  1
  O2-  O260  1  0.83166534  0.28643507  0.93343628  1
  O2-  O261  1  0.83428880  0.79265515  0.26904828  1
  O2-  O262  1  0.83048803  0.79220478  0.59742113  1
  O2-  O263  1  0.82485212  0.80095079  0.93931635  1
  O2-  O264  1  0.41322696  0.04137756  0.06328065  1
  O2-  O265  1  0.41566908  0.04019083  0.40196700  1
  O2-  O266  1  0.41462843  0.04789415  0.73459529  1
  O2-  O267  1  0.41351091  0.54454535  0.06692859  1
  O2-  O268  1  0.41646332  0.54373310  0.39944702  1
  O2-  O269  1  0.41242684  0.54054599  0.72951416  1
  O2-  O270  1  0.91875469  0.03939795  0.06918535  1
  O2-  O271  1  0.92689556  0.04957822  0.40020843  1
  O2-  O272  1  0.91761851  0.04982150  0.72781501  1
  O2-  O273  1  0.91900711  0.54072613  0.07099582  1
  O2-  O274  1  0.90879213  0.53673821  0.39871818  1
  O2-  O275  1  0.91794690  0.54429290  0.73619469  1
  O2-  O276  1  0.29503108  0.16146509  0.06159674  1
  O2-  O277  1  0.29131067  0.16652689  0.40295902  1
  O2-  O278  1  0.29715086  0.16720532  0.73173071  1
  O2-  O279  1  0.30112641  0.66925882  0.06199851  1
  O2-  O280  1  0.30361620  0.66927932  0.39242224  1
  O2-  O281  1  0.30569402  0.66909346  0.72681201  1
  O2-  O282  1  0.78997071  0.16344776  0.07021917  1
  O2-  O283  1  0.79239414  0.16984408  0.40535860  1
  O2-  O284  1  0.79319494  0.16469247  0.72904341  1
  O2-  O285  1  0.78900045  0.66904172  0.07229513  1
  O2-  O286  1  0.79500861  0.66172966  0.39574281  1
  O2-  O287  1  0.78795585  0.66772040  0.73368509  1
