# generated using pymatgen
data_Ca2Al2SiO7
_symmetry_space_group_name_H-M   'P 1'
_cell_length_a   15.45969338
_cell_length_b   15.45786421
_cell_length_c   15.28332596
_cell_angle_alpha   89.99936966
_cell_angle_beta   89.97381139
_cell_angle_gamma   89.99093790
_symmetry_Int_Tables_number   1
_chemical_formula_structural   Ca2Al2SiO7
_chemical_formula_sum   'Ca48 Al48 Si24 O168'
_cell_volume   3652.31468076
_cell_formula_units_Z   24
loop_
 _symmetry_equiv_pos_site_id
 _symmetry_equiv_pos_as_xyz
  1  'x, y, z'
loop_
 _atom_type_symbol
 _atom_type_oxidation_number
  Ca2+  2.0
  Al0+  0.0
  Si0+  0.0
  O2-  -2.0
loop_
 _atom_site_type_symbol
 _atom_site_label
 _atom_site_symmetry_multiplicity
 _atom_site_fract_x
 _atom_site_fract_y
 _atom_site_fract_z
 _atom_site_occupancy
  Ca2+  Ca0  1  0.17589102  0.08115399  0.17059545  1
  Ca2+  Ca1  1  0.17884414  0.07870184  0.50005842  1
  Ca2+  Ca2  1  0.17589443  0.08707897  0.83883686  1
  Ca2+  Ca3  1  0.16656880  0.57384374  0.16914705  1
  Ca2+  Ca4  1  0.17634272  0.58024373  0.50709323  1
  Ca2+  Ca5  1  0.17499672  0.57580757  0.83528779  1
  Ca2+  Ca6  1  0.67496561  0.09137746  0.17318512  1
  Ca2+  Ca7  1  0.66496399  0.08176319  0.50195011  1
  Ca2+  Ca8  1  0.67209810  0.07613299  0.83580269  1
  Ca2+  Ca9  1  0.66767603  0.58374921  0.17020179  1
  Ca2+  Ca10  1  0.67432580  0.58669068  0.50819824  1
  Ca2+  Ca11  1  0.66610823  0.59074718  0.83300856  1
  Ca2+  Ca12  1  0.07949943  0.32695370  0.15956459  1
  Ca2+  Ca13  1  0.07266789  0.33363648  0.49797009  1
  Ca2+  Ca14  1  0.08362768  0.32867444  0.83188939  1
  Ca2+  Ca15  1  0.08509227  0.83731887  0.16622319  1
  Ca2+  Ca16  1  0.08158473  0.83521185  0.49695108  1
  Ca2+  Ca17  1  0.07392996  0.83518747  0.82674260  1
  Ca2+  Ca18  1  0.57264572  0.32614696  0.16711476  1
  Ca2+  Ca19  1  0.57226019  0.32718074  0.49371139  1
  Ca2+  Ca20  1  0.57259450  0.33022151  0.82894974  1
  Ca2+  Ca21  1  0.57224787  0.83061590  0.16184136  1
  Ca2+  Ca22  1  0.57682181  0.83502873  0.50225897  1
  Ca2+  Ca23  1  0.57780648  0.82769699  0.82685888  1
  Ca2+  Ca24  1  0.33030389  0.40711725  0.16736357  1
  Ca2+  Ca25  1  0.33974193  0.41905017  0.50903971  1
  Ca2+  Ca26  1  0.33772174  0.41913405  0.83935008  1
  Ca2+  Ca27  1  0.33474672  0.92314308  0.17535942  1
  Ca2+  Ca28  1  0.34181188  0.92439103  0.50452263  1
  Ca2+  Ca29  1  0.34399447  0.92656094  0.83606173  1
  Ca2+  Ca30  1  0.83101006  0.42122219  0.17797105  1
  Ca2+  Ca31  1  0.83755028  0.42385439  0.50596554  1
  Ca2+  Ca32  1  0.83566637  0.42006651  0.83297837  1
  Ca2+  Ca33  1  0.83194518  0.93138162  0.17214411  1
  Ca2+  Ca34  1  0.82621617  0.92182759  0.50827641  1
  Ca2+  Ca35  1  0.82550894  0.91292173  0.83563402  1
  Ca2+  Ca36  1  0.41102693  0.16948061  0.16402814  1
  Ca2+  Ca37  1  0.41669527  0.17068689  0.49237284  1
  Ca2+  Ca38  1  0.40390005  0.17523639  0.82959133  1
  Ca2+  Ca39  1  0.41884913  0.68083392  0.15761503  1
  Ca2+  Ca40  1  0.41809129  0.67464130  0.49758362  1
  Ca2+  Ca41  1  0.42524692  0.67526545  0.82337719  1
  Ca2+  Ca42  1  0.91936799  0.16536560  0.16077616  1
  Ca2+  Ca43  1  0.91064024  0.17839989  0.49182382  1
  Ca2+  Ca44  1  0.92411781  0.16562590  0.82898928  1
  Ca2+  Ca45  1  0.91604579  0.66608963  0.16605036  1
  Ca2+  Ca46  1  0.90868300  0.67097330  0.49930833  1
  Ca2+  Ca47  1  0.91785823  0.67028949  0.82238673  1
  Al0+  Al48  1  0.00030395  0.00093956  -0.00135105  1
  Al0+  Al49  1  -0.00090549  0.00028783  0.34201149  1
  Al0+  Al50  1  0.00239686  -0.00006453  0.66056021  1
  Al0+  Al51  1  0.00077788  0.50047094  0.00369585  1
  Al0+  Al52  1  -0.00037296  0.50098317  0.33398683  1
  Al0+  Al53  1  0.00101220  0.49910295  0.66807925  1
  Al0+  Al54  1  0.50224318  0.00081627  0.00199378  1
  Al0+  Al55  1  0.50193793  -0.00044235  0.32842646  1
  Al0+  Al56  1  0.50236683  0.00008261  0.67461611  1
  Al0+  Al57  1  0.50207442  0.50074752  -0.00426209  1
  Al0+  Al58  1  0.49968820  0.49902900  0.32866043  1
  Al0+  Al59  1  0.50208948  0.49982936  0.66407092  1
  Al0+  Al60  1  0.24693472  0.24936914  0.00060554  1
  Al0+  Al61  1  0.24598803  0.24876732  0.33591408  1
  Al0+  Al62  1  0.24813250  0.24881633  0.66403368  1
  Al0+  Al63  1  0.24862288  0.74979848  -0.00546763  1
  Al0+  Al64  1  0.24754939  0.74738937  0.33117517  1
  Al0+  Al65  1  0.24971428  0.74976294  0.66902902  1
  Al0+  Al66  1  0.74901746  0.25348288  0.00305654  1
  Al0+  Al67  1  0.74772948  0.25329493  0.33035600  1
  Al0+  Al68  1  0.75082672  0.25135751  0.66491034  1
  Al0+  Al69  1  0.74998734  0.75039663  0.00060590  1
  Al0+  Al70  1  0.75118950  0.75054365  0.33465651  1
  Al0+  Al71  1  0.75115181  0.75051197  0.66763011  1
  Al0+  Al72  1  0.18003922  0.42993355  0.01410516  1
  Al0+  Al73  1  0.92966148  0.32268308  0.31886859  1
  Al0+  Al74  1  0.92930706  0.82089008  0.65230377  1
  Al0+  Al75  1  0.82072531  0.56963870  0.68152928  1
  Al0+  Al76  1  0.32377749  0.57102949  0.67996619  1
  Al0+  Al77  1  0.42854325  0.82299097  0.65135456  1
  Al0+  Al78  1  0.57203124  0.67977159  0.98455374  1
  Al0+  Al79  1  0.42883690  0.31696659  0.98628917  1
  Al0+  Al80  1  0.32263041  0.06999041  0.34862208  1
  Al0+  Al81  1  0.42479518  0.32134642  0.31771189  1
  Al0+  Al82  1  0.17917729  0.92556962  0.34898368  1
  Al0+  Al83  1  0.06850463  0.17915976  0.98676685  1
  Al0+  Al84  1  0.81965676  0.07389347  0.34797664  1
  Al0+  Al85  1  0.32025528  0.07020461  0.68102676  1
  Al0+  Al86  1  0.57189147  0.67919108  0.64968435  1
  Al0+  Al87  1  0.92979066  0.32012655  0.65405807  1
  Al0+  Al88  1  0.32090202  0.06975799  0.01387364  1
  Al0+  Al89  1  0.57010531  0.17802774  0.31851495  1
  Al0+  Al90  1  0.68105921  0.92998064  0.68117422  1
  Al0+  Al91  1  0.42716817  0.82406045  0.98337252  1
  Al0+  Al92  1  0.42768955  0.81948136  0.32004407  1
  Al0+  Al93  1  0.82112679  0.07143265  0.01166786  1
  Al0+  Al94  1  0.82044402  0.57050528  0.34790489  1
  Al0+  Al95  1  0.42846309  0.31962543  0.65425560  1
  Si0+  Si96  1  0.17887076  0.42812287  0.68314815  1
  Si0+  Si97  1  0.92836087  0.82200776  0.31808415  1
  Si0+  Si98  1  0.82104150  0.57134268  0.01532637  1
  Si0+  Si99  1  0.93127815  0.82006869  0.98734018  1
  Si0+  Si100  1  0.32320005  0.57237975  0.01626130  1
  Si0+  Si101  1  0.67839532  0.42645379  0.68465355  1
  Si0+  Si102  1  0.07204375  0.67745213  0.64992455  1
  Si0+  Si103  1  0.07027792  0.67516267  0.98432613  1
  Si0+  Si104  1  0.57611569  0.17847041  0.98204877  1
  Si0+  Si105  1  0.06859721  0.17665182  0.31662912  1
  Si0+  Si106  1  0.82422174  0.07443585  0.68187640  1
  Si0+  Si107  1  0.32086254  0.56939924  0.34555609  1
  Si0+  Si108  1  0.67903890  0.92759665  0.34950518  1
  Si0+  Si109  1  0.57346910  0.17772628  0.65265998  1
  Si0+  Si110  1  0.92653558  0.32451036  0.98413249  1
  Si0+  Si111  1  0.17642634  0.92717246  0.68462602  1
  Si0+  Si112  1  0.68007841  0.92702505  0.01922520  1
  Si0+  Si113  1  0.67577008  0.42976222  0.35105468  1
  Si0+  Si114  1  0.57368553  0.67832706  0.31696746  1
  Si0+  Si115  1  0.67718782  0.42945400  0.01663367  1
  Si0+  Si116  1  0.17786232  0.42870839  0.34898817  1
  Si0+  Si117  1  0.07292421  0.17702655  0.64620918  1
  Si0+  Si118  1  0.17645194  0.92623645  0.01436038  1
  Si0+  Si119  1  0.07017617  0.67875965  0.31749131  1
  O2-  O120  1  0.25127362  -0.01161817  0.05762634  1
  O2-  O121  1  0.25500764  -0.00667218  0.39868910  1
  O2-  O122  1  0.24710617  -0.00645727  0.72846793  1
  O2-  O123  1  0.25610058  0.50287494  0.06257108  1
  O2-  O124  1  0.25560221  0.49318908  0.38910644  1
  O2-  O125  1  0.25189626  0.49274187  0.72639491  1
  O2-  O126  1  0.74477947  0.00036721  0.06200746  1
  O2-  O127  1  0.74485767  -0.00067133  0.39361760  1
  O2-  O128  1  0.75849665  0.00365140  0.72675555  1
  O2-  O129  1  0.75015643  0.50043628  0.05711313  1
  O2-  O130  1  0.74449643  0.49836069  0.39540859  1
  O2-  O131  1  0.74659084  0.49567432  0.73001350  1
  O2-  O132  1  -0.00045183  0.24457727  0.27106730  1
  O2-  O133  1  -0.00050752  0.24236668  0.60474467  1
  O2-  O134  1  -0.00838458  0.25245813  0.94053556  1
  O2-  O135  1  0.00080724  0.75221182  0.27542119  1
  O2-  O136  1  0.00436247  0.74661142  0.60490116  1
  O2-  O137  1  0.00142986  0.74879698  0.94389737  1
  O2-  O138  1  0.49301771  0.24526394  0.26863041  1
  O2-  O139  1  0.50214421  0.24385746  0.60904082  1
  O2-  O140  1  0.50157205  0.24080333  0.93790322  1
  O2-  O141  1  0.50273928  0.74460121  0.27335669  1
  O2-  O142  1  0.49713610  0.74832412  0.60009303  1
  O2-  O143  1  0.49820021  0.74993768  0.93562839  1
  O2-  O144  1  0.06663626  0.17947070  0.09979576  1
  O2-  O145  1  0.06841751  0.17973273  0.42212930  1
  O2-  O146  1  0.07349137  0.17767787  0.75216881  1
  O2-  O147  1  0.06813207  0.67276943  0.08965556  1
  O2-  O148  1  0.07051872  0.67631183  0.42214791  1
  O2-  O149  1  0.06939060  0.67720995  0.75596746  1
  O2-  O150  1  0.58013205  0.18310900  0.08721805  1
  O2-  O151  1  0.57067868  0.18070146  0.43244596  1
  O2-  O152  1  0.57744107  0.18075594  0.75830371  1
  O2-  O153  1  0.57336158  0.68177855  0.09878499  1
  O2-  O154  1  0.57484612  0.67824053  0.42201655  1
  O2-  O155  1  0.57162624  0.68173637  0.76311305  1
  O2-  O156  1  0.17484868  0.43168159  0.24375273  1
  O2-  O157  1  0.17672856  0.43096886  0.57717436  1
  O2-  O158  1  0.17751471  0.43335084  0.90129950  1
  O2-  O159  1  0.17829900  0.92681365  0.23491644  1
  O2-  O160  1  0.17407224  0.92856944  0.57935441  1
  O2-  O161  1  0.16991724  0.92843072  0.90924612  1
  O2-  O162  1  0.67671778  0.43260025  0.24494318  1
  O2-  O163  1  0.68022359  0.42513242  0.57930410  1
  O2-  O164  1  0.67835709  0.42667072  0.91183326  1
  O2-  O165  1  0.68382784  0.92399298  0.24385596  1
  O2-  O166  1  0.68140167  0.93246298  0.56792146  1
  O2-  O167  1  0.68464178  0.92406893  0.91377114  1
  O2-  O168  1  0.42980396  0.31613790  0.09908203  1
  O2-  O169  1  0.42801270  0.32412419  0.43123796  1
  O2-  O170  1  0.42850389  0.31868803  0.76763606  1
  O2-  O171  1  0.42710518  0.82127770  0.09757906  1
  O2-  O172  1  0.42830367  0.81772533  0.43273983  1
  O2-  O173  1  0.43116899  0.82283654  0.76458703  1
  O2-  O174  1  0.92845152  0.32692315  0.08971296  1
  O2-  O175  1  0.93346241  0.32448280  0.43198759  1
  O2-  O176  1  0.93199258  0.31983557  0.76743423  1
  O2-  O177  1  0.93207408  0.81919381  0.09276416  1
  O2-  O178  1  0.92724156  0.81963430  0.42278667  1
  O2-  O179  1  0.93107472  0.81932770  0.76632041  1
  O2-  O180  1  0.31822159  0.07074965  0.23489105  1
  O2-  O181  1  0.31989298  0.07143713  0.56828226  1
  O2-  O182  1  0.31618319  0.07207493  0.90076547  1
  O2-  O183  1  0.31700513  0.57154831  0.24042388  1
  O2-  O184  1  0.32002530  0.57013617  0.56610709  1
  O2-  O185  1  0.32050141  0.57075371  0.91082513  1
  O2-  O186  1  0.82145423  0.07052402  0.23441944  1
  O2-  O187  1  0.82081613  0.07558595  0.57641342  1
  O2-  O188  1  0.82155950  0.06772811  0.89854665  1
  O2-  O189  1  0.82014026  0.57044475  0.23399389  1
  O2-  O190  1  0.82117366  0.56784356  0.56861777  1
  O2-  O191  1  0.82384548  0.57131026  0.91057807  1
  O2-  O192  1  0.04298536  0.08206514  0.27279333  1
  O2-  O193  1  0.05305139  0.08265282  0.60035046  1
  O2-  O194  1  0.03827116  0.08333537  0.93006309  1
  O2-  O195  1  0.03789820  0.58912575  0.26775840  1
  O2-  O196  1  0.04670235  0.58387559  0.60415224  1
  O2-  O197  1  0.03841696  0.58559319  0.93511065  1
  O2-  O198  1  0.55279427  0.07813145  0.26427528  1
  O2-  O199  1  0.54990717  0.08326102  0.60934194  1
  O2-  O200  1  0.55881753  0.08140891  0.94140725  1
  O2-  O201  1  0.55064127  0.58414088  0.27087162  1
  O2-  O202  1  0.54853928  0.57934219  0.59783720  1
  O2-  O203  1  0.54919599  0.58041598  0.93173897  1
  O2-  O204  1  0.16168073  0.20405071  0.27080156  1
  O2-  O205  1  0.16305435  0.20876788  0.59729019  1
  O2-  O206  1  0.16231163  0.21415149  0.93074669  1
  O2-  O207  1  0.16087563  0.70296964  0.26585785  1
  O2-  O208  1  0.16554439  0.70242623  0.60385908  1
  O2-  O209  1  0.16254274  0.69834075  0.93628201  1
  O2-  O210  1  0.66561070  0.21374664  0.26280120  1
  O2-  O211  1  0.66572379  0.20483432  0.60431170  1
  O2-  O212  1  0.66717811  0.21095103  0.93387708  1
  O2-  O213  1  0.66689559  0.70656872  0.27007930  1
  O2-  O214  1  0.67000645  0.71028256  0.59852688  1
  O2-  O215  1  0.67139988  0.70909108  0.93273935  1
  O2-  O216  1  0.08440267  0.46381993  0.07049014  1
  O2-  O217  1  0.08979941  0.46542565  0.39802540  1
  O2-  O218  1  0.08799088  0.45848264  0.73213784  1
  O2-  O219  1  0.08540888  0.95728955  0.06348268  1
  O2-  O220  1  0.08207518  0.95585340  0.40396555  1
  O2-  O221  1  0.08259914  0.95573974  0.73068544  1
  O2-  O222  1  0.58666118  0.45970417  0.06554952  1
  O2-  O223  1  0.58143367  0.45456785  0.39625978  1
  O2-  O224  1  0.58509799  0.45214692  0.73087280  1
  O2-  O225  1  0.58531206  0.94864856  0.06354408  1
  O2-  O226  1  0.58470025  0.95060862  0.39390238  1
  O2-  O227  1  0.58788260  0.96173280  0.74075252  1
  O2-  O228  1  0.20815255  0.33364774  0.06916858  1
  O2-  O229  1  0.19608427  0.33517800  0.39617591  1
  O2-  O230  1  0.19935656  0.33268861  0.72658185  1
  O2-  O231  1  0.19370799  0.82901645  0.05759954  1
  O2-  O232  1  0.19927580  0.82362925  0.39867510  1
  O2-  O233  1  0.19533147  0.83189120  0.72989324  1
  O2-  O234  1  0.70479199  0.33907240  0.06720117  1
  O2-  O235  1  0.70121944  0.33651398  0.39634316  1
  O2-  O236  1  0.70610266  0.33362154  0.73243974  1
  O2-  O237  1  0.71124363  0.83556529  0.06738666  1
  O2-  O238  1  0.70889373  0.83604752  0.39727879  1
  O2-  O239  1  0.71516423  0.83512181  0.73642553  1
  O2-  O240  1  0.45546286  0.41896335  0.26262207  1
  O2-  O241  1  0.46037805  0.41525068  0.59998910  1
  O2-  O242  1  0.46073126  0.41446901  0.93469206  1
  O2-  O243  1  0.45871176  0.91499451  0.26501442  1
  O2-  O244  1  0.46341964  0.92127504  0.60173464  1
  O2-  O245  1  0.45858540  0.92275041  0.93318499  1
  O2-  O246  1  0.96385128  0.41845291  0.26457502  1
  O2-  O247  1  0.96457863  0.41579455  0.60003769  1
  O2-  O248  1  0.95694510  0.41716236  0.93823167  1
  O2-  O249  1  0.95647692  0.91471508  0.27258275  1
  O2-  O250  1  0.95784418  0.91760483  0.59723421  1
  O2-  O251  1  0.95933247  0.91039620  0.93805007  1
  O2-  O252  1  0.32347947  0.29662221  0.26881107  1
  O2-  O253  1  0.33082904  0.29273740  0.60072468  1
  O2-  O254  1  0.33115298  0.28920997  0.93347215  1
  O2-  O255  1  0.33145803  0.78647633  0.26577730  1
  O2-  O256  1  0.32741512  0.79780683  0.60251199  1
  O2-  O257  1  0.32697641  0.79941636  0.93185637  1
  O2-  O258  1  0.83108335  0.29876358  0.26676525  1
  O2-  O259  1  0.83227720  0.29431301  0.59919687  1
  O2-  O260  1  0.83121450  0.30410436  0.94019981  1
  O2-  O261  1  0.83811719  0.79183595  0.26844474  1
  O2-  O262  1  0.83457902  0.78846027  0.59766543  1
  O2-  O263  1  0.83964090  0.79157031  0.94076845  1
  O2-  O264  1  0.42078842  0.04764375  0.06565462  1
  O2-  O265  1  0.42369100  0.04547159  0.39750919  1
  O2-  O266  1  0.41718789  0.04445728  0.73664687  1
  O2-  O267  1  0.41825963  0.54955494  0.06001821  1
  O2-  O268  1  0.41495206  0.54731126  0.39069599  1
  O2-  O269  1  0.42081950  0.54174258  0.73313503  1
  O2-  O270  1  0.91636884  0.03666038  0.06670717  1
  O2-  O271  1  0.91453892  0.04304439  0.40411444  1
  O2-  O272  1  0.92027839  0.05054230  0.72336632  1
  O2-  O273  1  0.91256985  0.54430327  0.06423819  1
  O2-  O274  1  0.91725834  0.53988688  0.40125012  1
  O2-  O275  1  0.91794493  0.53849999  0.73558858  1
  O2-  O276  1  0.28260681  0.16373045  0.06780757  1
  O2-  O277  1  0.28880478  0.16752765  0.40186694  1
  O2-  O278  1  0.28363791  0.16636545  0.73376114  1
  O2-  O279  1  0.29334393  0.66602968  0.06091476  1
  O2-  O280  1  0.28640613  0.65805062  0.39458157  1
  O2-  O281  1  0.28901228  0.66581000  0.73566027  1
  O2-  O282  1  0.79489777  0.17030689  0.06434894  1
  O2-  O283  1  0.78914075  0.17177473  0.39907207  1
  O2-  O284  1  0.79757237  0.16731002  0.72920543  1
  O2-  O285  1  0.79399120  0.66339743  0.06367617  1
  O2-  O286  1  0.79251372  0.66857755  0.40034387  1
  O2-  O287  1  0.79237038  0.66655733  0.73549842  1
