# generated using pymatgen
data_Ca2Al2SiO7
_symmetry_space_group_name_H-M   'P 1'
_cell_length_a   15.46707567
_cell_length_b   15.46571190
_cell_length_c   15.28916384
_cell_angle_alpha   89.98765701
_cell_angle_beta   90.00060816
_cell_angle_gamma   89.97595921
_symmetry_Int_Tables_number   1
_chemical_formula_structural   Ca2Al2SiO7
_chemical_formula_sum   'Ca48 Al48 Si24 O168'
_cell_volume   3657.31032778
_cell_formula_units_Z   24
loop_
 _symmetry_equiv_pos_site_id
 _symmetry_equiv_pos_as_xyz
  1  'x, y, z'
loop_
 _atom_type_symbol
 _atom_type_oxidation_number
  Ca2+  2.0
  Al0+  0.0
  Si0+  0.0
  O2-  -2.0
loop_
 _atom_site_type_symbol
 _atom_site_label
 _atom_site_symmetry_multiplicity
 _atom_site_fract_x
 _atom_site_fract_y
 _atom_site_fract_z
 _atom_site_occupancy
  Ca2+  Ca0  1  0.17681301  0.08164905  0.17651041  1
  Ca2+  Ca1  1  0.17320617  0.08658875  0.50100121  1
  Ca2+  Ca2  1  0.16753729  0.07873777  0.83708360  1
  Ca2+  Ca3  1  0.16802146  0.58577172  0.17100452  1
  Ca2+  Ca4  1  0.15659341  0.58174204  0.49826599  1
  Ca2+  Ca5  1  0.16854073  0.58817310  0.84142204  1
  Ca2+  Ca6  1  0.66426841  0.07692430  0.17794855  1
  Ca2+  Ca7  1  0.67326290  0.08449567  0.49868392  1
  Ca2+  Ca8  1  0.66688230  0.08904306  0.83302025  1
  Ca2+  Ca9  1  0.67499447  0.58333042  0.17748366  1
  Ca2+  Ca10  1  0.67162351  0.58232359  0.49777695  1
  Ca2+  Ca11  1  0.67494859  0.58030887  0.84521817  1
  Ca2+  Ca12  1  0.07178902  0.34234393  0.16843915  1
  Ca2+  Ca13  1  0.07142622  0.33663313  0.49209936  1
  Ca2+  Ca14  1  0.07048863  0.33662992  0.83063338  1
  Ca2+  Ca15  1  0.07593226  0.82440560  0.16563618  1
  Ca2+  Ca16  1  0.07191576  0.82462973  0.49469548  1
  Ca2+  Ca17  1  0.07800037  0.82129745  0.82663404  1
  Ca2+  Ca18  1  0.59782773  0.32093671  0.16674648  1
  Ca2+  Ca19  1  0.58497283  0.32384563  0.49376718  1
  Ca2+  Ca20  1  0.58120483  0.32316983  0.82580139  1
  Ca2+  Ca21  1  0.58673965  0.82195373  0.16611316  1
  Ca2+  Ca22  1  0.58710234  0.83004897  0.49110062  1
  Ca2+  Ca23  1  0.58104949  0.82679759  0.83837587  1
  Ca2+  Ca24  1  0.32502115  0.42247708  0.17430323  1
  Ca2+  Ca25  1  0.32606539  0.41235700  0.50363742  1
  Ca2+  Ca26  1  0.33190178  0.42135835  0.83881723  1
  Ca2+  Ca27  1  0.33743226  0.91880295  0.17201378  1
  Ca2+  Ca28  1  0.33568807  0.92413892  0.50001611  1
  Ca2+  Ca29  1  0.33378368  0.91334847  0.84128238  1
  Ca2+  Ca30  1  0.83310111  0.42457673  0.17431091  1
  Ca2+  Ca31  1  0.83334410  0.41593048  0.49725627  1
  Ca2+  Ca32  1  0.83708684  0.41884389  0.83951036  1
  Ca2+  Ca33  1  0.82777111  0.92423006  0.18172129  1
  Ca2+  Ca34  1  0.83527978  0.92138814  0.50292283  1
  Ca2+  Ca35  1  0.83791802  0.92207021  0.83252823  1
  Ca2+  Ca36  1  0.42722507  0.16382065  0.16466912  1
  Ca2+  Ca37  1  0.42649578  0.16758626  0.49303271  1
  Ca2+  Ca38  1  0.42905015  0.17301753  0.82640658  1
  Ca2+  Ca39  1  0.42906176  0.66676484  0.15882761  1
  Ca2+  Ca40  1  0.42577101  0.66846721  0.49282263  1
  Ca2+  Ca41  1  0.41713941  0.66610045  0.83654029  1
  Ca2+  Ca42  1  0.90300385  0.18099939  0.16725882  1
  Ca2+  Ca43  1  0.90436767  0.17430223  0.49503600  1
  Ca2+  Ca44  1  0.91132711  0.17822906  0.82598627  1
  Ca2+  Ca45  1  0.92286016  0.65819145  0.16540031  1
  Ca2+  Ca46  1  0.91967423  0.67516794  0.48842864  1
  Ca2+  Ca47  1  0.92673511  0.66532089  0.82731874  1
  Al0+  Al48  1  0.00134801  0.00110161  0.00260529  1
  Al0+  Al49  1  0.00243141  0.00114922  0.33364034  1
  Al0+  Al50  1  0.00093325  -0.00048070  0.67055206  1
  Al0+  Al51  1  -0.00093168  0.49967084  -0.00497674  1
  Al0+  Al52  1  0.00089183  0.50011545  0.33378665  1
  Al0+  Al53  1  0.00117688  0.49777864  0.66133331  1
  Al0+  Al54  1  0.50101150  0.00051521  -0.00875135  1
  Al0+  Al55  1  0.50002680  0.00127144  0.33909426  1
  Al0+  Al56  1  0.50146268  -0.00107251  0.66649623  1
  Al0+  Al57  1  0.49975694  0.49734644  0.00244115  1
  Al0+  Al58  1  0.49878266  0.49955819  0.33340041  1
  Al0+  Al59  1  0.49860430  0.49978700  0.66587278  1
  Al0+  Al60  1  0.24891174  0.24816957  0.00078740  1
  Al0+  Al61  1  0.25006918  0.25150964  0.34173765  1
  Al0+  Al62  1  0.24971102  0.25145533  0.66955140  1
  Al0+  Al63  1  0.24885993  0.74974237  -0.00058846  1
  Al0+  Al64  1  0.24902776  0.75123373  0.33218908  1
  Al0+  Al65  1  0.25112701  0.74945941  0.66259646  1
  Al0+  Al66  1  0.75083492  0.25012011  -0.00987972  1
  Al0+  Al67  1  0.74822772  0.25024273  0.33110532  1
  Al0+  Al68  1  0.74898967  0.24923166  0.66421541  1
  Al0+  Al69  1  0.75035448  0.75201241  -0.00033972  1
  Al0+  Al70  1  0.74932503  0.75121511  0.33358445  1
  Al0+  Al71  1  0.74984276  0.75088579  0.66815082  1
  Al0+  Al72  1  0.92915496  0.31863599  0.31917880  1
  Al0+  Al73  1  0.57066685  0.67736794  0.32138938  1
  Al0+  Al74  1  0.82269813  0.07203701  0.34644734  1
  Al0+  Al75  1  0.06985257  0.67891065  0.31572569  1
  Al0+  Al76  1  0.32128991  0.07045237  0.34739943  1
  Al0+  Al77  1  0.07231144  0.67860870  0.65031762  1
  Al0+  Al78  1  0.57382988  0.67516035  0.98557296  1
  Al0+  Al79  1  0.67919979  0.92827714  0.34782939  1
  Al0+  Al80  1  0.67717921  0.42823248  0.34810195  1
  Al0+  Al81  1  0.06823064  0.68068072  0.98623026  1
  Al0+  Al82  1  0.92975283  0.31902904  0.65075830  1
  Al0+  Al83  1  0.32131259  0.57127138  0.01426567  1
  Al0+  Al84  1  0.56985087  0.18028697  0.98531380  1
  Al0+  Al85  1  0.56867984  0.18042119  0.31862913  1
  Al0+  Al86  1  0.82140392  0.57073805  0.34882366  1
  Al0+  Al87  1  0.57020645  0.17841034  0.64779435  1
  Al0+  Al88  1  0.17974972  0.43135946  0.34772173  1
  Al0+  Al89  1  0.81970475  0.07066750  0.68198650  1
  Al0+  Al90  1  0.82095874  0.57138656  0.01175965  1
  Al0+  Al91  1  0.93169574  0.31883208  0.98586255  1
  Al0+  Al92  1  0.42985545  0.81916926  0.98697681  1
  Al0+  Al93  1  0.92743188  0.82401722  0.31710349  1
  Al0+  Al94  1  0.42769793  0.32296693  0.65142798  1
  Al0+  Al95  1  0.92792429  0.82184834  0.65230436  1
  Si0+  Si96  1  0.32242115  0.07123932  0.68457574  1
  Si0+  Si97  1  0.32130037  0.57173208  0.68195975  1
  Si0+  Si98  1  0.67607664  0.92532987  0.68815326  1
  Si0+  Si99  1  0.82122267  0.07215704  0.01357723  1
  Si0+  Si100  1  0.67885284  0.42575557  0.01375748  1
  Si0+  Si101  1  0.17877857  0.92857751  0.01589378  1
  Si0+  Si102  1  0.67815767  0.93144706  0.01373867  1
  Si0+  Si103  1  0.42487563  0.32202579  0.31590608  1
  Si0+  Si104  1  0.42270274  0.32126641  0.98520343  1
  Si0+  Si105  1  0.07303707  0.17645689  0.65168788  1
  Si0+  Si106  1  0.32210623  0.57420987  0.35080507  1
  Si0+  Si107  1  0.32204162  0.06957807  0.01315390  1
  Si0+  Si108  1  0.17769666  0.42738579  0.01569606  1
  Si0+  Si109  1  0.17807337  0.92685131  0.35195169  1
  Si0+  Si110  1  0.42832717  0.82259304  0.31946821  1
  Si0+  Si111  1  0.18207340  0.92838495  0.68262711  1
  Si0+  Si112  1  0.07608236  0.17886294  0.31775699  1
  Si0+  Si113  1  0.67842508  0.43022407  0.68180364  1
  Si0+  Si114  1  0.42878932  0.82036528  0.65158391  1
  Si0+  Si115  1  0.82138863  0.57071082  0.68118790  1
  Si0+  Si116  1  0.92731222  0.82690213  0.98351156  1
  Si0+  Si117  1  0.17766413  0.42932057  0.68413563  1
  Si0+  Si118  1  0.07511568  0.17528356  0.98354363  1
  Si0+  Si119  1  0.57117284  0.67869138  0.65358825  1
  O2-  O120  1  0.25082653  -0.00037805  0.05672606  1
  O2-  O121  1  0.24613755  -0.00324829  0.39575783  1
  O2-  O122  1  0.25193673  -0.00005056  0.72759028  1
  O2-  O123  1  0.24826519  0.49422472  0.05945785  1
  O2-  O124  1  0.25314137  0.50683103  0.39625614  1
  O2-  O125  1  0.24904785  0.50137346  0.72426019  1
  O2-  O126  1  0.75319469  -0.00134679  0.05511585  1
  O2-  O127  1  0.75512875  -0.00363703  0.39706068  1
  O2-  O128  1  0.74545165  -0.00494558  0.73016074  1
  O2-  O129  1  0.74034916  0.50142814  0.05617764  1
  O2-  O130  1  0.74828160  0.50013239  0.39994065  1
  O2-  O131  1  0.75020533  0.50020197  0.72484641  1
  O2-  O132  1  0.00294981  0.24199311  0.27257510  1
  O2-  O133  1  0.00273943  0.24171074  0.60626367  1
  O2-  O134  1  0.00622352  0.24337553  0.93972989  1
  O2-  O135  1  -0.00430855  0.74887861  0.26596622  1
  O2-  O136  1  -0.00405366  0.74651729  0.60263275  1
  O2-  O137  1  -0.00814339  0.75391221  0.93999013  1
  O2-  O138  1  0.49620344  0.25697982  0.27034464  1
  O2-  O139  1  0.49677329  0.24998425  0.59982699  1
  O2-  O140  1  0.49532439  0.25665905  0.94155729  1
  O2-  O141  1  0.49463909  0.75190773  0.27630440  1
  O2-  O142  1  0.50265549  0.75223308  0.61107609  1
  O2-  O143  1  0.49838118  0.74426235  0.93538908  1
  O2-  O144  1  0.07994342  0.17299421  0.08836533  1
  O2-  O145  1  0.07964717  0.18238950  0.42325890  1
  O2-  O146  1  0.07418159  0.17841798  0.75773981  1
  O2-  O147  1  0.06908880  0.68133477  0.09847901  1
  O2-  O148  1  0.07037553  0.68174997  0.42907931  1
  O2-  O149  1  0.07378030  0.68063008  0.76449170  1
  O2-  O150  1  0.56957559  0.17833914  0.09814944  1
  O2-  O151  1  0.56719013  0.17977947  0.43103218  1
  O2-  O152  1  0.56830487  0.18077680  0.76211110  1
  O2-  O153  1  0.57435210  0.67842896  0.09856889  1
  O2-  O154  1  0.56747432  0.67844678  0.43529989  1
  O2-  O155  1  0.56942783  0.67776667  0.75850315  1
  O2-  O156  1  0.18163894  0.43020420  0.23433595  1
  O2-  O157  1  0.17778718  0.42760546  0.57955692  1
  O2-  O158  1  0.17885904  0.42686696  0.90974471  1
  O2-  O159  1  0.18040665  0.92723342  0.24600818  1
  O2-  O160  1  0.18547110  0.92975134  0.57806088  1
  O2-  O161  1  0.17829325  0.93067161  0.91041479  1
  O2-  O162  1  0.68034834  0.42776853  0.23407637  1
  O2-  O163  1  0.67690868  0.43260453  0.57732489  1
  O2-  O164  1  0.68173041  0.42412201  0.90753276  1
  O2-  O165  1  0.67530078  0.93168070  0.23360563  1
  O2-  O166  1  0.67304012  0.92229344  0.58339920  1
  O2-  O167  1  0.67735874  0.93219659  0.90852095  1
  O2-  O168  1  0.41506892  0.31698500  0.08997685  1
  O2-  O169  1  0.42366915  0.31880309  0.42134728  1
  O2-  O170  1  0.42974939  0.32288379  0.76571011  1
  O2-  O171  1  0.43246603  0.82275775  0.10002575  1
  O2-  O172  1  0.42816750  0.82138710  0.42573338  1
  O2-  O173  1  0.42564822  0.81896370  0.75637813  1
  O2-  O174  1  0.93090191  0.31827081  0.09850010  1
  O2-  O175  1  0.93064451  0.31754480  0.43209379  1
  O2-  O176  1  0.93221293  0.32079431  0.76427268  1
  O2-  O177  1  0.93073002  0.83308021  0.08818250  1
  O2-  O178  1  0.93125210  0.82422130  0.43065347  1
  O2-  O179  1  0.93097485  0.82060973  0.76660642  1
  O2-  O180  1  0.32120240  0.06819546  0.23354728  1
  O2-  O181  1  0.32113596  0.07010106  0.57973771  1
  O2-  O182  1  0.31960234  0.06868383  0.90788847  1
  O2-  O183  1  0.32162698  0.57296324  0.24519427  1
  O2-  O184  1  0.32348625  0.57263976  0.57734672  1
  O2-  O185  1  0.31843076  0.57025619  0.90038716  1
  O2-  O186  1  0.81763103  0.07289482  0.23204425  1
  O2-  O187  1  0.81892775  0.07032669  0.56983474  1
  O2-  O188  1  0.82112135  0.07165922  0.90830958  1
  O2-  O189  1  0.82138190  0.56803216  0.23491729  1
  O2-  O190  1  0.81908005  0.57174827  0.57678074  1
  O2-  O191  1  0.82229787  0.56764742  0.89772896  1
  O2-  O192  1  0.05928251  0.08268427  0.27422083  1
  O2-  O193  1  0.05357827  0.08104591  0.60841375  1
  O2-  O194  1  0.04930254  0.08178510  0.93662908  1
  O2-  O195  1  0.04432033  0.57965477  0.26405130  1
  O2-  O196  1  0.04878446  0.57870628  0.60079881  1
  O2-  O197  1  0.03991987  0.58426874  0.93044711  1
  O2-  O198  1  0.53364206  0.08371007  0.26680982  1
  O2-  O199  1  0.54269416  0.07820526  0.59933185  1
  O2-  O200  1  0.53702193  0.08675941  0.92706355  1
  O2-  O201  1  0.54017386  0.58127645  0.26634502  1
  O2-  O202  1  0.54022673  0.58865291  0.60566385  1
  O2-  O203  1  0.54838982  0.57473764  0.93448517  1
  O2-  O204  1  0.16831301  0.20930518  0.27079236  1
  O2-  O205  1  0.16663895  0.20378557  0.60708812  1
  O2-  O206  1  0.16827981  0.20003464  0.93482118  1
  O2-  O207  1  0.16938343  0.70918044  0.26488135  1
  O2-  O208  1  0.16963755  0.70999361  0.59723368  1
  O2-  O209  1  0.16409655  0.71353961  0.93197845  1
  O2-  O210  1  0.66464644  0.20979399  0.26301457  1
  O2-  O211  1  0.66767984  0.20872352  0.59712035  1
  O2-  O212  1  0.66452349  0.21149240  0.92798105  1
  O2-  O213  1  0.66579684  0.70914955  0.26664399  1
  O2-  O214  1  0.66354932  0.70437117  0.60747531  1
  O2-  O215  1  0.67032799  0.70901233  0.93037443  1
  O2-  O216  1  0.08488649  0.45629819  0.06006709  1
  O2-  O217  1  0.08421742  0.46147957  0.40317570  1
  O2-  O218  1  0.08584906  0.45751505  0.73211555  1
  O2-  O219  1  0.08810209  0.95786289  0.06491178  1
  O2-  O220  1  0.08559884  0.95296564  0.39881298  1
  O2-  O221  1  0.09100172  0.95492724  0.73256618  1
  O2-  O222  1  0.58214546  0.43856271  0.05732921  1
  O2-  O223  1  0.57733402  0.45359407  0.40025503  1
  O2-  O224  1  0.58658443  0.45877244  0.73006937  1
  O2-  O225  1  0.58733426  0.96450923  0.05931630  1
  O2-  O226  1  0.58264607  0.95895878  0.40356731  1
  O2-  O227  1  0.58207593  0.95207656  0.73450832  1
  O2-  O228  1  0.20027392  0.33233512  0.06089439  1
  O2-  O229  1  0.21070399  0.33659773  0.40561241  1
  O2-  O230  1  0.20483907  0.33764812  0.73380139  1
  O2-  O231  1  0.20688642  0.83795385  0.06385531  1
  O2-  O232  1  0.20604858  0.83451704  0.39942872  1
  O2-  O233  1  0.21327386  0.83682426  0.72970352  1
  O2-  O234  1  0.71346785  0.33423151  0.05911572  1
  O2-  O235  1  0.70749266  0.33072549  0.40074346  1
  O2-  O236  1  0.70596916  0.33788866  0.72823052  1
  O2-  O237  1  0.70074398  0.83803718  0.05995042  1
  O2-  O238  1  0.70230219  0.82956078  0.40168095  1
  O2-  O239  1  0.70237479  0.83205123  0.73629750  1
  O2-  O240  1  0.44499031  0.41754136  0.27241234  1
  O2-  O241  1  0.45351948  0.42189304  0.59902654  1
  O2-  O242  1  0.44478896  0.41629916  0.94125092  1
  O2-  O243  1  0.45464092  0.91603608  0.27480005  1
  O2-  O244  1  0.45355638  0.91337260  0.60576029  1
  O2-  O245  1  0.46039516  0.91515539  0.92888052  1
  O2-  O246  1  0.96358468  0.41433252  0.26646763  1
  O2-  O247  1  0.96262616  0.41386368  0.59641233  1
  O2-  O248  1  0.96397009  0.41342235  0.92879120  1
  O2-  O249  1  0.95969730  0.92229840  0.26435384  1
  O2-  O250  1  0.96069611  0.91981324  0.60222703  1
  O2-  O251  1  0.95887020  0.91876858  0.93545823  1
  O2-  O252  1  0.33209543  0.29237744  0.27057431  1
  O2-  O253  1  0.32721553  0.29626792  0.60248379  1
  O2-  O254  1  0.33137375  0.29225406  0.93482878  1
  O2-  O255  1  0.33390389  0.80132197  0.27372897  1
  O2-  O256  1  0.33941002  0.79102765  0.60104381  1
  O2-  O257  1  0.33062658  0.79393393  0.93337445  1
  O2-  O258  1  0.83317539  0.28904439  0.26366128  1
  O2-  O259  1  0.83238949  0.29083098  0.59941169  1
  O2-  O260  1  0.83734387  0.28765715  0.92752338  1
  O2-  O261  1  0.82699956  0.80161765  0.26730853  1
  O2-  O262  1  0.82703648  0.79871088  0.60305859  1
  O2-  O263  1  0.83204647  0.80712720  0.93940539  1
  O2-  O264  1  0.41423447  0.04040918  0.05849486  1
  O2-  O265  1  0.41422434  0.03718552  0.40602224  1
  O2-  O266  1  0.41426896  0.04188822  0.73114007  1
  O2-  O267  1  0.41892669  0.54313506  0.06834419  1
  O2-  O268  1  0.41504481  0.54805602  0.39753862  1
  O2-  O269  1  0.41250679  0.54322454  0.73139011  1
  O2-  O270  1  0.91492042  0.04989171  0.05991672  1
  O2-  O271  1  0.92431627  0.05253745  0.39679753  1
  O2-  O272  1  0.91805713  0.04266602  0.73696717  1
  O2-  O273  1  0.91623991  0.53493864  0.06443654  1
  O2-  O274  1  0.91910552  0.54146686  0.40148061  1
  O2-  O275  1  0.91412479  0.54030741  0.72602433  1
  O2-  O276  1  0.29487077  0.16123628  0.06113939  1
  O2-  O277  1  0.29026871  0.16525408  0.40422518  1
  O2-  O278  1  0.29400839  0.16312623  0.73226274  1
  O2-  O279  1  0.28929387  0.66764544  0.06742342  1
  O2-  O280  1  0.29871823  0.66905452  0.39586260  1
  O2-  O281  1  0.29367208  0.66435480  0.72879052  1
  O2-  O282  1  0.79006826  0.16430396  0.05752722  1
  O2-  O283  1  0.78782287  0.16802515  0.39897473  1
  O2-  O284  1  0.78661848  0.16765232  0.73624033  1
  O2-  O285  1  0.79750605  0.67095648  0.06309761  1
  O2-  O286  1  0.79256634  0.66926914  0.40039928  1
  O2-  O287  1  0.79470185  0.66277472  0.72942038  1
