# generated using pymatgen
data_Ca2Al2SiO7
_symmetry_space_group_name_H-M   'P 1'
_cell_length_a   15.46615397
_cell_length_b   15.46351230
_cell_length_c   15.28869912
_cell_angle_alpha   90.01721940
_cell_angle_beta   89.99542541
_cell_angle_gamma   89.99152714
_symmetry_Int_Tables_number   1
_chemical_formula_structural   Ca2Al2SiO7
_chemical_formula_sum   'Ca48 Al48 Si24 O168'
_cell_volume   3656.46130563
_cell_formula_units_Z   24
loop_
 _symmetry_equiv_pos_site_id
 _symmetry_equiv_pos_as_xyz
  1  'x, y, z'
loop_
 _atom_type_symbol
 _atom_type_oxidation_number
  Ca2+  2.0
  Al0+  0.0
  Si0+  0.0
  O2-  -2.0
loop_
 _atom_site_type_symbol
 _atom_site_label
 _atom_site_symmetry_multiplicity
 _atom_site_fract_x
 _atom_site_fract_y
 _atom_site_fract_z
 _atom_site_occupancy
  Ca2+  Ca0  1  0.17798439  0.08041197  0.17056699  1
  Ca2+  Ca1  1  0.17735907  0.08244197  0.50887561  1
  Ca2+  Ca2  1  0.17416878  0.08065302  0.83021141  1
  Ca2+  Ca3  1  0.17530575  0.58332374  0.17874174  1
  Ca2+  Ca4  1  0.17017955  0.58161888  0.50168437  1
  Ca2+  Ca5  1  0.16492950  0.57521341  0.83368624  1
  Ca2+  Ca6  1  0.66578670  0.06949699  0.17528093  1
  Ca2+  Ca7  1  0.67005239  0.07763691  0.49747848  1
  Ca2+  Ca8  1  0.66872962  0.07391086  0.83901503  1
  Ca2+  Ca9  1  0.65621088  0.58010709  0.17427457  1
  Ca2+  Ca10  1  0.65418224  0.57406773  0.50330948  1
  Ca2+  Ca11  1  0.65929275  0.58452458  0.83252406  1
  Ca2+  Ca12  1  0.07525333  0.33322794  0.16616696  1
  Ca2+  Ca13  1  0.07609087  0.33458995  0.49860755  1
  Ca2+  Ca14  1  0.07980344  0.32680008  0.81888158  1
  Ca2+  Ca15  1  0.08701280  0.82648681  0.16902010  1
  Ca2+  Ca16  1  0.08073839  0.83677763  0.49668743  1
  Ca2+  Ca17  1  0.07670535  0.83892017  0.82215704  1
  Ca2+  Ca18  1  0.57234096  0.33506802  0.16795443  1
  Ca2+  Ca19  1  0.58274905  0.33453461  0.49179101  1
  Ca2+  Ca20  1  0.57756349  0.33311912  0.82917867  1
  Ca2+  Ca21  1  0.57839055  0.83266764  0.16160573  1
  Ca2+  Ca22  1  0.57471723  0.82448239  0.49266496  1
  Ca2+  Ca23  1  0.57813570  0.82941826  0.82750749  1
  Ca2+  Ca24  1  0.34043701  0.42279797  0.17603388  1
  Ca2+  Ca25  1  0.33591220  0.42610823  0.50383473  1
  Ca2+  Ca26  1  0.32863460  0.41425806  0.83604675  1
  Ca2+  Ca27  1  0.34416714  0.92417156  0.17338961  1
  Ca2+  Ca28  1  0.33509493  0.92328251  0.50784914  1
  Ca2+  Ca29  1  0.34348714  0.92547894  0.83451779  1
  Ca2+  Ca30  1  0.82403616  0.41770705  0.17885263  1
  Ca2+  Ca31  1  0.82545125  0.41194767  0.50454118  1
  Ca2+  Ca32  1  0.82765229  0.41359351  0.83072609  1
  Ca2+  Ca33  1  0.81814709  0.91949640  0.17596011  1
  Ca2+  Ca34  1  0.83088279  0.91501454  0.50153857  1
  Ca2+  Ca35  1  0.82818956  0.91204918  0.83942387  1
  Ca2+  Ca36  1  0.40555406  0.17556447  0.16397556  1
  Ca2+  Ca37  1  0.40973498  0.17158914  0.49372918  1
  Ca2+  Ca38  1  0.40893627  0.16779226  0.83203582  1
  Ca2+  Ca39  1  0.42556525  0.67653562  0.16531384  1
  Ca2+  Ca40  1  0.41948115  0.67567047  0.49150089  1
  Ca2+  Ca41  1  0.42759413  0.67956544  0.82726634  1
  Ca2+  Ca42  1  0.90910418  0.16834396  0.16983148  1
  Ca2+  Ca43  1  0.92060113  0.17308165  0.49374457  1
  Ca2+  Ca44  1  0.92709757  0.17040244  0.81816300  1
  Ca2+  Ca45  1  0.92462599  0.66222568  0.16861351  1
  Ca2+  Ca46  1  0.92507637  0.66947074  0.49903376  1
  Ca2+  Ca47  1  0.91810064  0.67458655  0.82584837  1
  Al0+  Al48  1  0.00259520  0.00039242  0.00204914  1
  Al0+  Al49  1  -0.00014590  0.00109814  0.33244670  1
  Al0+  Al50  1  0.00238297  0.00172009  0.66002871  1
  Al0+  Al51  1  -0.00155621  0.49859287  -0.00040404  1
  Al0+  Al52  1  -0.00153962  0.49898192  0.32477022  1
  Al0+  Al53  1  -0.00204765  0.50094492  0.66870142  1
  Al0+  Al54  1  0.50137647  0.00281083  0.00596560  1
  Al0+  Al55  1  0.50118202  0.00110653  0.34103352  1
  Al0+  Al56  1  0.50252947  0.00117513  0.66804803  1
  Al0+  Al57  1  0.49834321  0.49905574  -0.00829425  1
  Al0+  Al58  1  0.49784242  0.50019624  0.33563252  1
  Al0+  Al59  1  0.50062659  0.49864286  0.67191417  1
  Al0+  Al60  1  0.24618507  0.24962400  0.00003832  1
  Al0+  Al61  1  0.24618424  0.24937336  0.33173937  1
  Al0+  Al62  1  0.25000173  0.25082191  0.66995880  1
  Al0+  Al63  1  0.25042127  0.74836718  -0.00547337  1
  Al0+  Al64  1  0.25026630  0.74974835  0.32920897  1
  Al0+  Al65  1  0.25026046  0.75043023  0.66953084  1
  Al0+  Al66  1  0.74896928  0.25236427  0.00014474  1
  Al0+  Al67  1  0.74954581  0.25010546  0.33470157  1
  Al0+  Al68  1  0.74867716  0.25093428  0.66997463  1
  Al0+  Al69  1  0.75280238  0.74751993  0.00317500  1
  Al0+  Al70  1  0.75172932  0.74719136  0.33499947  1
  Al0+  Al71  1  0.75147163  0.74763436  0.65849665  1
  Al0+  Al72  1  0.57138688  0.67783913  0.31929558  1
  Al0+  Al73  1  0.57022065  0.67775783  0.64965572  1
  Al0+  Al74  1  0.93009719  0.82226423  0.65314494  1
  Al0+  Al75  1  0.07065670  0.67980946  0.32081575  1
  Al0+  Al76  1  0.42755715  0.31932766  0.98544427  1
  Al0+  Al77  1  0.57339642  0.67913775  0.98426401  1
  Al0+  Al78  1  0.32004778  0.07231500  0.34711745  1
  Al0+  Al79  1  0.92722646  0.32178099  0.65132945  1
  Al0+  Al80  1  0.32003482  0.57083076  0.34587857  1
  Al0+  Al81  1  0.42969312  0.82512455  0.98430953  1
  Al0+  Al82  1  0.31898588  0.07037424  0.01516373  1
  Al0+  Al83  1  0.67889084  0.43224998  0.34561763  1
  Al0+  Al84  1  0.92774937  0.31913206  0.31799888  1
  Al0+  Al85  1  0.67838470  0.42816228  0.68294571  1
  Al0+  Al86  1  0.42860924  0.82354049  0.65088724  1
  Al0+  Al87  1  0.68100385  0.92831379  0.01257557  1
  Al0+  Al88  1  0.42705394  0.31951513  0.32293399  1
  Al0+  Al89  1  0.17823464  0.92771674  0.68036653  1
  Al0+  Al90  1  0.82121205  0.07085631  0.34904955  1
  Al0+  Al91  1  0.42984578  0.82393448  0.31883369  1
  Al0+  Al92  1  0.32359245  0.07069891  0.68311374  1
  Al0+  Al93  1  0.17878112  0.43157450  0.67870422  1
  Al0+  Al94  1  0.07338944  0.18018964  0.64916260  1
  Al0+  Al95  1  0.67828777  0.92502508  0.35179503  1
  Si0+  Si96  1  0.92731864  0.32136194  0.98354487  1
  Si0+  Si97  1  0.82138561  0.57247363  0.68424867  1
  Si0+  Si98  1  0.82274949  0.56932172  0.01648063  1
  Si0+  Si99  1  0.17701772  0.42964214  0.01648051  1
  Si0+  Si100  1  0.06886572  0.17941216  0.98424556  1
  Si0+  Si101  1  0.92806838  0.82379285  0.31467826  1
  Si0+  Si102  1  0.93231348  0.81960706  0.98828883  1
  Si0+  Si103  1  0.82115040  0.07120986  0.68042562  1
  Si0+  Si104  1  0.57202867  0.17881449  0.31786748  1
  Si0+  Si105  1  0.17867523  0.92721995  0.34789675  1
  Si0+  Si106  1  0.07285146  0.67678858  0.65245466  1
  Si0+  Si107  1  0.07130653  0.17650557  0.31272116  1
  Si0+  Si108  1  0.42921307  0.31943496  0.65288298  1
  Si0+  Si109  1  0.67744515  0.42986486  0.01587856  1
  Si0+  Si110  1  0.82633852  0.57084201  0.35098031  1
  Si0+  Si111  1  0.32342860  0.57264773  0.68646831  1
  Si0+  Si112  1  0.82453331  0.07306621  0.01421743  1
  Si0+  Si113  1  0.68264744  0.92739406  0.68115632  1
  Si0+  Si114  1  0.57397206  0.17958184  0.98391746  1
  Si0+  Si115  1  0.07160605  0.67628039  0.98389254  1
  Si0+  Si116  1  0.17496316  0.42845151  0.34783682  1
  Si0+  Si117  1  0.57265331  0.17897379  0.65265480  1
  Si0+  Si118  1  0.17587796  0.92547871  0.01750293  1
  Si0+  Si119  1  0.32016263  0.56940692  0.01408729  1
  O2-  O120  1  0.25013760  -0.01122903  0.06036678  1
  O2-  O121  1  0.24813129  -0.00547097  0.39179960  1
  O2-  O122  1  0.25400622  -0.00497386  0.73193772  1
  O2-  O123  1  0.24841601  0.49953086  0.05859737  1
  O2-  O124  1  0.24585141  0.49452189  0.39152083  1
  O2-  O125  1  0.25193616  0.50558331  0.72984662  1
  O2-  O126  1  0.75522362  0.00522826  0.05737423  1
  O2-  O127  1  0.75339323  -0.00421332  0.40002978  1
  O2-  O128  1  0.75495437  -0.00308753  0.72509491  1
  O2-  O129  1  0.74783100  0.50184558  0.05743501  1
  O2-  O130  1  0.75222370  0.50776576  0.39355569  1
  O2-  O131  1  0.75220587  0.50438285  0.72920089  1
  O2-  O132  1  0.00062300  0.24378270  0.26856041  1
  O2-  O133  1  0.00024260  0.25184027  0.60090143  1
  O2-  O134  1  -0.00612893  0.24654608  0.94238607  1
  O2-  O135  1  -0.00335516  0.75429104  0.27113096  1
  O2-  O136  1  0.01024045  0.75153661  0.60954701  1
  O2-  O137  1  0.00503108  0.75181376  0.94304073  1
  O2-  O138  1  0.49843895  0.24264993  0.27380476  1
  O2-  O139  1  0.49938630  0.24794445  0.61120455  1
  O2-  O140  1  0.50228856  0.24463385  0.93862370  1
  O2-  O141  1  0.50579129  0.75540680  0.26901707  1
  O2-  O142  1  0.49697604  0.74844207  0.60117610  1
  O2-  O143  1  0.50434679  0.75465521  0.93574517  1
  O2-  O144  1  0.06904927  0.18092982  0.08918370  1
  O2-  O145  1  0.07279376  0.17782861  0.41753433  1
  O2-  O146  1  0.07045109  0.18107491  0.76389047  1
  O2-  O147  1  0.07009611  0.67360168  0.08874066  1
  O2-  O148  1  0.06871003  0.67936821  0.43357562  1
  O2-  O149  1  0.06740816  0.67384916  0.75858681  1
  O2-  O150  1  0.57882667  0.18349541  0.08894841  1
  O2-  O151  1  0.57394843  0.18228100  0.42369218  1
  O2-  O152  1  0.57478090  0.17974005  0.75810498  1
  O2-  O153  1  0.57096216  0.67684499  0.09727958  1
  O2-  O154  1  0.56557460  0.67563210  0.43215609  1
  O2-  O155  1  0.57119587  0.68146148  0.76360920  1
  O2-  O156  1  0.17449249  0.43072037  0.24150735  1
  O2-  O157  1  0.17955779  0.43424572  0.56588921  1
  O2-  O158  1  0.17465263  0.43125790  0.91135991  1
  O2-  O159  1  0.17767958  0.92862338  0.24174749  1
  O2-  O160  1  0.17708809  0.93031435  0.56698611  1
  O2-  O161  1  0.16608375  0.92978805  0.91305176  1
  O2-  O162  1  0.67941285  0.43220193  0.23171675  1
  O2-  O163  1  0.67794849  0.42674931  0.57032286  1
  O2-  O164  1  0.68048032  0.42718376  0.91098120  1
  O2-  O165  1  0.67966059  0.92743040  0.23757865  1
  O2-  O166  1  0.68350321  0.92951276  0.57678197  1
  O2-  O167  1  0.68531950  0.92891831  0.89885167  1
  O2-  O168  1  0.42877979  0.32109318  0.09847192  1
  O2-  O169  1  0.42829884  0.32014442  0.43602409  1
  O2-  O170  1  0.42975069  0.31852257  0.75843029  1
  O2-  O171  1  0.42930543  0.82327436  0.09751657  1
  O2-  O172  1  0.42691242  0.82167850  0.43195771  1
  O2-  O173  1  0.43433912  0.82493347  0.76472368  1
  O2-  O174  1  0.92752629  0.32285664  0.08845024  1
  O2-  O175  1  0.92982551  0.32054329  0.43032190  1
  O2-  O176  1  0.92828185  0.31798594  0.76604874  1
  O2-  O177  1  0.93387227  0.81740866  0.09292153  1
  O2-  O178  1  0.93075836  0.82471622  0.42009026  1
  O2-  O179  1  0.92791153  0.81978050  0.76739045  1
  O2-  O180  1  0.31615839  0.07433469  0.23367735  1
  O2-  O181  1  0.32210486  0.07338458  0.56990039  1
  O2-  O182  1  0.31482455  0.07330543  0.90262072  1
  O2-  O183  1  0.31902060  0.56871113  0.23207741  1
  O2-  O184  1  0.32415721  0.57028767  0.58094643  1
  O2-  O185  1  0.31597714  0.56676907  0.90913205  1
  O2-  O186  1  0.81781683  0.06934144  0.23447556  1
  O2-  O187  1  0.81705268  0.07280835  0.57607794  1
  O2-  O188  1  0.82617171  0.07176211  0.90836714  1
  O2-  O189  1  0.83008246  0.56650507  0.24482108  1
  O2-  O190  1  0.82514104  0.57213359  0.57938689  1
  O2-  O191  1  0.82865870  0.56779867  0.91180214  1
  O2-  O192  1  0.04671686  0.08286431  0.26529860  1
  O2-  O193  1  0.04586882  0.08326279  0.59505992  1
  O2-  O194  1  0.04461570  0.08601641  0.93766644  1
  O2-  O195  1  0.03856926  0.58531934  0.26187382  1
  O2-  O196  1  0.03976342  0.58688199  0.60411046  1
  O2-  O197  1  0.03755779  0.58604422  0.93611759  1
  O2-  O198  1  0.55071650  0.08336829  0.27517503  1
  O2-  O199  1  0.54924220  0.08665008  0.60531911  1
  O2-  O200  1  0.55187393  0.08473235  0.93991934  1
  O2-  O201  1  0.53560829  0.58179952  0.26549367  1
  O2-  O202  1  0.54209194  0.57665648  0.60310367  1
  O2-  O203  1  0.54159631  0.58224322  0.92970101  1
  O2-  O204  1  0.16252388  0.20625819  0.26364430  1
  O2-  O205  1  0.17137360  0.21153968  0.59840858  1
  O2-  O206  1  0.15780947  0.21216133  0.93540211  1
  O2-  O207  1  0.16502001  0.71030923  0.26183234  1
  O2-  O208  1  0.16913685  0.69314724  0.61017202  1
  O2-  O209  1  0.16410773  0.69691990  0.93575812  1
  O2-  O210  1  0.66290093  0.20865213  0.26922120  1
  O2-  O211  1  0.66262975  0.21004274  0.60468681  1
  O2-  O212  1  0.66647866  0.20784983  0.93470492  1
  O2-  O213  1  0.67500324  0.69432248  0.27136802  1
  O2-  O214  1  0.66904237  0.70252036  0.59741651  1
  O2-  O215  1  0.67555048  0.70167655  0.93500606  1
  O2-  O216  1  0.08491470  0.45878058  0.06368166  1
  O2-  O217  1  0.08232184  0.45841492  0.39250223  1
  O2-  O218  1  0.08213840  0.46159237  0.73555186  1
  O2-  O219  1  0.08517151  0.95646257  0.06856899  1
  O2-  O220  1  0.08437362  0.95284814  0.39198548  1
  O2-  O221  1  0.07978444  0.96119087  0.73351998  1
  O2-  O222  1  0.58390219  0.45685399  0.05970308  1
  O2-  O223  1  0.58287789  0.46059529  0.40120883  1
  O2-  O224  1  0.58228888  0.45718079  0.73985464  1
  O2-  O225  1  0.58641251  0.96027587  0.06879003  1
  O2-  O226  1  0.58299922  0.95802072  0.40719760  1
  O2-  O227  1  0.59257924  0.95889453  0.72966773  1
  O2-  O228  1  0.20156447  0.33704978  0.06271805  1
  O2-  O229  1  0.19539186  0.33346261  0.39111146  1
  O2-  O230  1  0.21036435  0.33641601  0.73557438  1
  O2-  O231  1  0.19539064  0.82792028  0.05802412  1
  O2-  O232  1  0.19993953  0.83254730  0.39222030  1
  O2-  O233  1  0.19548719  0.82632510  0.73320257  1
  O2-  O234  1  0.70635261  0.33833455  0.06379035  1
  O2-  O235  1  0.71034080  0.33581044  0.39843853  1
  O2-  O236  1  0.71102765  0.33284473  0.74035645  1
  O2-  O237  1  0.71512988  0.83302088  0.06722794  1
  O2-  O238  1  0.70708105  0.82590809  0.40281749  1
  O2-  O239  1  0.71166052  0.83484958  0.72625946  1
  O2-  O240  1  0.46162212  0.41420502  0.26776665  1
  O2-  O241  1  0.45776523  0.41183240  0.60840157  1
  O2-  O242  1  0.45824668  0.41380681  0.92796852  1
  O2-  O243  1  0.45745069  0.92445920  0.26953691  1
  O2-  O244  1  0.45994967  0.92207606  0.60052550  1
  O2-  O245  1  0.45804269  0.92537749  0.93525365  1
  O2-  O246  1  0.95999557  0.41351283  0.25965162  1
  O2-  O247  1  0.95338387  0.42170157  0.60213161  1
  O2-  O248  1  0.95928403  0.41184780  0.93593200  1
  O2-  O249  1  0.95401284  0.91680337  0.26717127  1
  O2-  O250  1  0.95639173  0.91834583  0.59748492  1
  O2-  O251  1  0.95636514  0.91332667  0.94193666  1
  O2-  O252  1  0.32929963  0.29320383  0.26752809  1
  O2-  O253  1  0.33735745  0.29413689  0.60616993  1
  O2-  O254  1  0.32931691  0.28949259  0.93341070  1
  O2-  O255  1  0.33225625  0.79412005  0.26478388  1
  O2-  O256  1  0.32720245  0.79894242  0.60314589  1
  O2-  O257  1  0.33059644  0.79571888  0.93184320  1
  O2-  O258  1  0.83138001  0.28779981  0.26268282  1
  O2-  O259  1  0.82849125  0.29162072  0.60170445  1
  O2-  O260  1  0.83352684  0.29889198  0.93757767  1
  O2-  O261  1  0.83487711  0.79643255  0.26933273  1
  O2-  O262  1  0.83756019  0.78689612  0.59567724  1
  O2-  O263  1  0.84199752  0.78896100  0.93984035  1
  O2-  O264  1  0.41852304  0.05071017  0.06803099  1
  O2-  O265  1  0.41792859  0.04997411  0.40094308  1
  O2-  O266  1  0.42373070  0.04603545  0.73673851  1
  O2-  O267  1  0.41205173  0.53849064  0.05888503  1
  O2-  O268  1  0.41310116  0.53722996  0.40327263  1
  O2-  O269  1  0.41419362  0.54175141  0.73495176  1
  O2-  O270  1  0.91767656  0.04833583  0.06173910  1
  O2-  O271  1  0.92195904  0.04704344  0.39906628  1
  O2-  O272  1  0.91513015  0.04735747  0.72472653  1
  O2-  O273  1  0.91286003  0.53642421  0.06597120  1
  O2-  O274  1  0.91775618  0.53861704  0.39722970  1
  O2-  O275  1  0.91373859  0.54705388  0.73423819  1
  O2-  O276  1  0.28010491  0.16568455  0.06846024  1
  O2-  O277  1  0.28514671  0.16835128  0.40053100  1
  O2-  O278  1  0.29133288  0.16834009  0.73642370  1
  O2-  O279  1  0.29316145  0.66236198  0.05968814  1
  O2-  O280  1  0.28592036  0.66637031  0.39915932  1
  O2-  O281  1  0.29995492  0.66650936  0.73268357  1
  O2-  O282  1  0.79921097  0.16800079  0.05831374  1
  O2-  O283  1  0.79045963  0.16813660  0.40163357  1
  O2-  O284  1  0.78992244  0.16055824  0.73135410  1
  O2-  O285  1  0.80199683  0.66201175  0.06482292  1
  O2-  O286  1  0.81078713  0.66720332  0.39374102  1
  O2-  O287  1  0.79482991  0.66642774  0.73065669  1
