# generated using pymatgen
data_Ca2Al2SiO7
_symmetry_space_group_name_H-M   'P 1'
_cell_length_a   15.45794761
_cell_length_b   15.45703243
_cell_length_c   15.28237492
_cell_angle_alpha   89.99610307
_cell_angle_beta   90.01227958
_cell_angle_gamma   89.99983098
_symmetry_Int_Tables_number   1
_chemical_formula_structural   Ca2Al2SiO7
_chemical_formula_sum   'Ca48 Al48 Si24 O168'
_cell_volume   3651.47883855
_cell_formula_units_Z   24
loop_
 _symmetry_equiv_pos_site_id
 _symmetry_equiv_pos_as_xyz
  1  'x, y, z'
loop_
 _atom_type_symbol
 _atom_type_oxidation_number
  Ca2+  2.0
  Al0+  0.0
  Si0+  0.0
  O2-  -2.0
loop_
 _atom_site_type_symbol
 _atom_site_label
 _atom_site_symmetry_multiplicity
 _atom_site_fract_x
 _atom_site_fract_y
 _atom_site_fract_z
 _atom_site_occupancy
  Ca2+  Ca0  1  0.17442947  0.09024358  0.16631826  1
  Ca2+  Ca1  1  0.17408281  0.07405713  0.51521175  1
  Ca2+  Ca2  1  0.17439504  0.08992359  0.83776606  1
  Ca2+  Ca3  1  0.16484775  0.57344050  0.17235423  1
  Ca2+  Ca4  1  0.15699265  0.57647287  0.50503578  1
  Ca2+  Ca5  1  0.16786916  0.57393872  0.83874662  1
  Ca2+  Ca6  1  0.65737179  0.07948834  0.16752376  1
  Ca2+  Ca7  1  0.67075913  0.08755495  0.50791641  1
  Ca2+  Ca8  1  0.67048370  0.08540141  0.83893818  1
  Ca2+  Ca9  1  0.66881041  0.57902324  0.17282686  1
  Ca2+  Ca10  1  0.67178795  0.58566198  0.50267336  1
  Ca2+  Ca11  1  0.66294952  0.56761954  0.83998000  1
  Ca2+  Ca12  1  0.08694067  0.33391119  0.16043802  1
  Ca2+  Ca13  1  0.09228533  0.32962655  0.49938333  1
  Ca2+  Ca14  1  0.09267740  0.32604516  0.83034041  1
  Ca2+  Ca15  1  0.07106090  0.82869421  0.16173619  1
  Ca2+  Ca16  1  0.08377830  0.82247833  0.49339219  1
  Ca2+  Ca17  1  0.08330372  0.82956430  0.82623088  1
  Ca2+  Ca18  1  0.58048787  0.32376533  0.15466016  1
  Ca2+  Ca19  1  0.58826501  0.32403916  0.49940561  1
  Ca2+  Ca20  1  0.58002424  0.32999053  0.82840195  1
  Ca2+  Ca21  1  0.58283144  0.82820488  0.16481977  1
  Ca2+  Ca22  1  0.57521501  0.82949132  0.48943161  1
  Ca2+  Ca23  1  0.58348544  0.83649418  0.83384370  1
  Ca2+  Ca24  1  0.32592108  0.41514729  0.16433690  1
  Ca2+  Ca25  1  0.32283423  0.41902182  0.50357012  1
  Ca2+  Ca26  1  0.32575413  0.41733922  0.84381491  1
  Ca2+  Ca27  1  0.33953006  0.92387564  0.16912064  1
  Ca2+  Ca28  1  0.33134020  0.91916812  0.50811402  1
  Ca2+  Ca29  1  0.32753793  0.92903817  0.83451745  1
  Ca2+  Ca30  1  0.82748837  0.42053228  0.17192233  1
  Ca2+  Ca31  1  0.82816929  0.42413909  0.50430688  1
  Ca2+  Ca32  1  0.82076918  0.41141023  0.83561316  1
  Ca2+  Ca33  1  0.83186580  0.91032520  0.16721425  1
  Ca2+  Ca34  1  0.83459232  0.92083855  0.50314690  1
  Ca2+  Ca35  1  0.83102359  0.92171263  0.83958428  1
  Ca2+  Ca36  1  0.42340108  0.17269910  0.15642765  1
  Ca2+  Ca37  1  0.42736074  0.16178607  0.49772577  1
  Ca2+  Ca38  1  0.42236598  0.16469489  0.83247254  1
  Ca2+  Ca39  1  0.41490204  0.66920704  0.16390339  1
  Ca2+  Ca40  1  0.42247667  0.67440355  0.49067870  1
  Ca2+  Ca41  1  0.41277793  0.66424489  0.83196552  1
  Ca2+  Ca42  1  0.92725738  0.16926267  0.15900447  1
  Ca2+  Ca43  1  0.92086233  0.16514495  0.50233100  1
  Ca2+  Ca44  1  0.92827759  0.16357267  0.82751812  1
  Ca2+  Ca45  1  0.91455398  0.67140670  0.16652377  1
  Ca2+  Ca46  1  0.92495701  0.66926723  0.49056065  1
  Ca2+  Ca47  1  0.92086786  0.67406832  0.82920485  1
  Al0+  Al48  1  -0.00075478  -0.00050366  -0.00783289  1
  Al0+  Al49  1  0.00087940  0.00011158  0.33050587  1
  Al0+  Al50  1  -0.00126357  0.00005485  0.66907200  1
  Al0+  Al51  1  -0.00124544  0.50106113  0.00184100  1
  Al0+  Al52  1  -0.00224040  0.49819125  0.33878728  1
  Al0+  Al53  1  -0.00152607  0.50121770  0.66895033  1
  Al0+  Al54  1  0.50054654  -0.00144361  0.00390686  1
  Al0+  Al55  1  0.50126444  0.00063682  0.32835394  1
  Al0+  Al56  1  0.50007320  -0.00012813  0.66570342  1
  Al0+  Al57  1  0.49943249  0.49954032  0.00549751  1
  Al0+  Al58  1  0.49696171  0.49740053  0.33259382  1
  Al0+  Al59  1  0.50036703  0.49954431  0.66652831  1
  Al0+  Al60  1  0.25163663  0.25029830  0.00176389  1
  Al0+  Al61  1  0.25247105  0.24921178  0.33974672  1
  Al0+  Al62  1  0.25184055  0.25136583  0.66754195  1
  Al0+  Al63  1  0.24960407  0.75067556  0.00217929  1
  Al0+  Al64  1  0.24941643  0.74998005  0.32383069  1
  Al0+  Al65  1  0.24966454  0.75029981  0.66509158  1
  Al0+  Al66  1  0.75260435  0.24869917  0.00266145  1
  Al0+  Al67  1  0.75178008  0.24839783  0.32922742  1
  Al0+  Al68  1  0.75029731  0.24980402  0.67017576  1
  Al0+  Al69  1  0.74939730  0.75183516  -0.00284381  1
  Al0+  Al70  1  0.74879961  0.75029052  0.33323583  1
  Al0+  Al71  1  0.75025939  0.75047929  0.66648505  1
  Al0+  Al72  1  0.06995461  0.67496281  0.31653477  1
  Al0+  Al73  1  0.67961829  0.42654511  0.01506132  1
  Al0+  Al74  1  0.92943553  0.82286516  0.31860770  1
  Al0+  Al75  1  0.81764852  0.57135284  0.34752661  1
  Al0+  Al76  1  0.07127645  0.18149733  0.98719776  1
  Al0+  Al77  1  0.17813207  0.43011406  0.68087582  1
  Al0+  Al78  1  0.42835678  0.82139728  0.31669366  1
  Al0+  Al79  1  0.32145249  0.57367637  0.01637889  1
  Al0+  Al80  1  0.07274264  0.17990900  0.65226573  1
  Al0+  Al81  1  0.17845136  0.92681786  0.68041684  1
  Al0+  Al82  1  0.57089108  0.17968584  0.65351978  1
  Al0+  Al83  1  0.43051625  0.32212981  0.98437081  1
  Al0+  Al84  1  0.32282113  0.07139676  0.68140954  1
  Al0+  Al85  1  0.31984645  0.06963312  0.01502130  1
  Al0+  Al86  1  0.17941878  0.42958866  0.34957625  1
  Al0+  Al87  1  0.67938847  0.43039360  0.67888307  1
  Al0+  Al88  1  0.57202390  0.17688766  0.98336677  1
  Al0+  Al89  1  0.17822747  0.42913778  0.01557121  1
  Al0+  Al90  1  0.92801588  0.81938359  0.98318487  1
  Al0+  Al91  1  0.82048692  0.07079189  0.68017386  1
  Al0+  Al92  1  0.57268138  0.18150944  0.31880339  1
  Al0+  Al93  1  0.57110481  0.67653891  0.31857304  1
  Al0+  Al94  1  0.07013425  0.67945407  0.65375467  1
  Al0+  Al95  1  0.68024520  0.93000725  0.01479424  1
  Si0+  Si96  1  0.92720140  0.32148785  0.65000214  1
  Si0+  Si97  1  0.82465243  0.07086871  0.01842911  1
  Si0+  Si98  1  0.07269342  0.67753105  0.98256200  1
  Si0+  Si99  1  0.57026932  0.67963793  0.98447655  1
  Si0+  Si100  1  0.57173441  0.67697965  0.65332828  1
  Si0+  Si101  1  0.67904740  0.93103168  0.34865967  1
  Si0+  Si102  1  0.17559149  0.92810279  0.01745050  1
  Si0+  Si103  1  0.42755593  0.82150634  0.98316070  1
  Si0+  Si104  1  0.32166736  0.57466491  0.35086484  1
  Si0+  Si105  1  0.92767834  0.32500217  0.98367866  1
  Si0+  Si106  1  0.42523501  0.31997542  0.31722846  1
  Si0+  Si107  1  0.17766324  0.92941753  0.34572691  1
  Si0+  Si108  1  0.82359733  0.07201740  0.34762546  1
  Si0+  Si109  1  0.92597014  0.82250546  0.64898157  1
  Si0+  Si110  1  0.07272450  0.17947331  0.32102475  1
  Si0+  Si111  1  0.82148659  0.57426375  0.68489565  1
  Si0+  Si112  1  0.67770524  0.92661720  0.68160557  1
  Si0+  Si113  1  0.81959515  0.57291142  0.01547326  1
  Si0+  Si114  1  0.32269432  0.57231673  0.68040126  1
  Si0+  Si115  1  0.43050248  0.82024080  0.65354205  1
  Si0+  Si116  1  0.92938598  0.31989554  0.31980905  1
  Si0+  Si117  1  0.32195933  0.06904602  0.34949358  1
  Si0+  Si118  1  0.67647241  0.42503685  0.34919964  1
  Si0+  Si119  1  0.42837544  0.32471722  0.64784371  1
  O2-  O120  1  0.24431555  -0.00406173  0.06342218  1
  O2-  O121  1  0.25176723  -0.00347046  0.38976536  1
  O2-  O122  1  0.24475942  0.00455237  0.72995409  1
  O2-  O123  1  0.24775628  0.50329163  0.06584878  1
  O2-  O124  1  0.25069425  0.50858066  0.39577778  1
  O2-  O125  1  0.25379217  0.50473575  0.72496041  1
  O2-  O126  1  0.75276096  0.00611971  0.06355421  1
  O2-  O127  1  0.75134086  0.00154935  0.38952940  1
  O2-  O128  1  0.74623515  -0.00503808  0.72531374  1
  O2-  O129  1  0.75497623  0.50102735  0.06071436  1
  O2-  O130  1  0.73921330  0.49923926  0.39381742  1
  O2-  O131  1  0.75164658  0.50647020  0.72783923  1
  O2-  O132  1  0.00333530  0.25153659  0.27829835  1
  O2-  O133  1  -0.00035762  0.25657084  0.60448702  1
  O2-  O134  1  -0.00174731  0.25813276  0.94049561  1
  O2-  O135  1  -0.00124421  0.74864143  0.26792401  1
  O2-  O136  1  -0.00382805  0.75497758  0.60618813  1
  O2-  O137  1  0.00500020  0.74685620  0.93765385  1
  O2-  O138  1  0.50070986  0.25866766  0.27381238  1
  O2-  O139  1  0.49555192  0.25315870  0.60497859  1
  O2-  O140  1  0.50350158  0.25170363  0.93294611  1
  O2-  O141  1  0.49749844  0.74611590  0.26714988  1
  O2-  O142  1  0.50208042  0.74934452  0.61162801  1
  O2-  O143  1  0.49597892  0.74735803  0.94104809  1
  O2-  O144  1  0.06927283  0.18147213  0.10139044  1
  O2-  O145  1  0.07116727  0.17823301  0.42589675  1
  O2-  O146  1  0.07156669  0.18131112  0.76497474  1
  O2-  O147  1  0.07088701  0.67710865  0.08791947  1
  O2-  O148  1  0.06838154  0.67712756  0.43055532  1
  O2-  O149  1  0.06859506  0.68045810  0.76684541  1
  O2-  O150  1  0.56866373  0.17785114  0.09732785  1
  O2-  O151  1  0.57338606  0.18061672  0.43241146  1
  O2-  O152  1  0.57126580  0.17972373  0.76571371  1
  O2-  O153  1  0.57263648  0.68224602  0.08921522  1
  O2-  O154  1  0.57051007  0.68129294  0.43313594  1
  O2-  O155  1  0.57104276  0.67598046  0.75838726  1
  O2-  O156  1  0.18120527  0.42589808  0.23704485  1
  O2-  O157  1  0.17963627  0.43163124  0.56742387  1
  O2-  O158  1  0.17862084  0.43066189  0.90204275  1
  O2-  O159  1  0.17510152  0.93537441  0.24093554  1
  O2-  O160  1  0.18346490  0.92513734  0.56599657  1
  O2-  O161  1  0.17829788  0.92754761  0.91191728  1
  O2-  O162  1  0.68166788  0.42333442  0.24388681  1
  O2-  O163  1  0.68137720  0.43223341  0.56552458  1
  O2-  O164  1  0.68008805  0.42842930  0.90158243  1
  O2-  O165  1  0.67810401  0.93145686  0.24384145  1
  O2-  O166  1  0.67767000  0.92459108  0.57570524  1
  O2-  O167  1  0.68196011  0.92873002  0.90140860  1
  O2-  O168  1  0.43120822  0.31932595  0.09848098  1
  O2-  O169  1  0.42227923  0.31603611  0.42294972  1
  O2-  O170  1  0.43064601  0.32964654  0.75274856  1
  O2-  O171  1  0.42981890  0.82211508  0.08799352  1
  O2-  O172  1  0.43098928  0.82312501  0.43117093  1
  O2-  O173  1  0.43152590  0.81991315  0.75860873  1
  O2-  O174  1  0.92720314  0.32401451  0.08987937  1
  O2-  O175  1  0.92529296  0.31708765  0.42465506  1
  O2-  O176  1  0.92536238  0.31920379  0.75540716  1
  O2-  O177  1  0.92789043  0.81698810  0.09625478  1
  O2-  O178  1  0.93290881  0.82618322  0.43219080  1
  O2-  O179  1  0.92194406  0.81885721  0.75437236  1
  O2-  O180  1  0.32039135  0.07130537  0.24447032  1
  O2-  O181  1  0.32538079  0.06567410  0.56699484  1
  O2-  O182  1  0.32018548  0.06765408  0.90228509  1
  O2-  O183  1  0.32256661  0.57243279  0.24588411  1
  O2-  O184  1  0.32510905  0.57211994  0.57478681  1
  O2-  O185  1  0.31910111  0.57497272  0.90212710  1
  O2-  O186  1  0.82617460  0.07321551  0.24304226  1
  O2-  O187  1  0.81891493  0.07015899  0.56608818  1
  O2-  O188  1  0.82523473  0.06899442  0.91288429  1
  O2-  O189  1  0.81758577  0.56772170  0.23436912  1
  O2-  O190  1  0.81988026  0.57535627  0.57918238  1
  O2-  O191  1  0.81680037  0.57295714  0.90964764  1
  O2-  O192  1  0.04358425  0.08959233  0.27130343  1
  O2-  O193  1  0.03974275  0.08245257  0.59959941  1
  O2-  O194  1  0.03993116  0.08601030  0.93174233  1
  O2-  O195  1  0.03828411  0.57618929  0.26678785  1
  O2-  O196  1  0.03699645  0.58307184  0.59998339  1
  O2-  O197  1  0.04516740  0.58401619  0.93679625  1
  O2-  O198  1  0.53990948  0.08587361  0.26569321  1
  O2-  O199  1  0.54196230  0.08188963  0.59867722  1
  O2-  O200  1  0.54174902  0.07765572  0.93338255  1
  O2-  O201  1  0.54773864  0.57542458  0.26914967  1
  O2-  O202  1  0.54405512  0.58658349  0.60320107  1
  O2-  O203  1  0.54418338  0.58668918  0.93890856  1
  O2-  O204  1  0.16570305  0.20686748  0.27593520  1
  O2-  O205  1  0.17041260  0.20843102  0.59796983  1
  O2-  O206  1  0.16790810  0.21080992  0.93415066  1
  O2-  O207  1  0.16836108  0.70026753  0.26358582  1
  O2-  O208  1  0.16747718  0.70811310  0.59882733  1
  O2-  O209  1  0.16676741  0.70340032  0.93751650  1
  O2-  O210  1  0.67019262  0.20705034  0.26393388  1
  O2-  O211  1  0.66751336  0.21277218  0.59961092  1
  O2-  O212  1  0.67446672  0.20065246  0.93719025  1
  O2-  O213  1  0.66801452  0.70779440  0.26548031  1
  O2-  O214  1  0.66413152  0.70430118  0.60620036  1
  O2-  O215  1  0.65956859  0.71122908  0.93454911  1
  O2-  O216  1  0.07785171  0.45504852  0.06758961  1
  O2-  O217  1  0.08118906  0.45423325  0.40337311  1
  O2-  O218  1  0.08086179  0.45907953  0.73415873  1
  O2-  O219  1  0.08114563  0.95470579  0.06071436  1
  O2-  O220  1  0.08766821  0.96031683  0.39550220  1
  O2-  O221  1  0.07755479  0.94679285  0.72980940  1
  O2-  O222  1  0.58454846  0.45840316  0.06968921  1
  O2-  O223  1  0.57956473  0.44164013  0.39192531  1
  O2-  O224  1  0.58302211  0.46139921  0.73335484  1
  O2-  O225  1  0.58372825  0.95695850  0.07056147  1
  O2-  O226  1  0.58758265  0.96095728  0.39653869  1
  O2-  O227  1  0.58420913  0.95110391  0.72728075  1
  O2-  O228  1  0.20868362  0.33189256  0.06956326  1
  O2-  O229  1  0.21483903  0.33378781  0.40472976  1
  O2-  O230  1  0.20897729  0.33358442  0.73323422  1
  O2-  O231  1  0.19973950  0.83427331  0.06312317  1
  O2-  O232  1  0.20189005  0.83463696  0.38875822  1
  O2-  O233  1  0.21247422  0.83088742  0.73535977  1
  O2-  O234  1  0.71146406  0.33060635  0.07008911  1
  O2-  O235  1  0.71082360  0.33351011  0.39554035  1
  O2-  O236  1  0.71213517  0.33583422  0.73421738  1
  O2-  O237  1  0.71332044  0.83343421  0.06806764  1
  O2-  O238  1  0.70449026  0.83908733  0.39693462  1
  O2-  O239  1  0.70238860  0.83286889  0.72897787  1
  O2-  O240  1  0.44094502  0.41649699  0.27457195  1
  O2-  O241  1  0.45743982  0.41688076  0.59876373  1
  O2-  O242  1  0.45646235  0.42244740  0.93362768  1
  O2-  O243  1  0.46176810  0.91784951  0.26309701  1
  O2-  O244  1  0.45892055  0.91058506  0.60347333  1
  O2-  O245  1  0.46054637  0.91115949  0.93549767  1
  O2-  O246  1  0.95484057  0.41170806  0.27277041  1
  O2-  O247  1  0.94809097  0.41745063  0.60664449  1
  O2-  O248  1  0.94791634  0.41993908  0.93790932  1
  O2-  O249  1  0.95948598  0.92032643  0.26306754  1
  O2-  O250  1  0.94785912  0.91746260  0.60515513  1
  O2-  O251  1  0.95647388  0.91590097  0.92861281  1
  O2-  O252  1  0.33503625  0.28550922  0.26934043  1
  O2-  O253  1  0.33446034  0.30071473  0.60222726  1
  O2-  O254  1  0.33218391  0.29254276  0.93314404  1
  O2-  O255  1  0.32975043  0.79988783  0.26181428  1
  O2-  O256  1  0.33978236  0.79241812  0.60413978  1
  O2-  O257  1  0.33440125  0.79694840  0.93649965  1
  O2-  O258  1  0.84029750  0.28958194  0.26808709  1
  O2-  O259  1  0.83581521  0.29121991  0.60170612  1
  O2-  O260  1  0.83516196  0.29625104  0.93738510  1
  O2-  O261  1  0.82963333  0.79654577  0.26869350  1
  O2-  O262  1  0.83235393  0.79576137  0.60142491  1
  O2-  O263  1  0.83241954  0.78703629  0.92761652  1
  O2-  O264  1  0.41499131  0.03593603  0.07008949  1
  O2-  O265  1  0.41474195  0.04056407  0.39502326  1
  O2-  O266  1  0.41889741  0.03621786  0.73493182  1
  O2-  O267  1  0.41938372  0.54660661  0.07036153  1
  O2-  O268  1  0.41509501  0.54702811  0.39850379  1
  O2-  O269  1  0.41630253  0.54770575  0.72726616  1
  O2-  O270  1  0.91737476  0.04059220  0.06418182  1
  O2-  O271  1  0.91510998  0.04314011  0.39619446  1
  O2-  O272  1  0.91619585  0.04148955  0.73582557  1
  O2-  O273  1  0.91438611  0.55181258  0.06080786  1
  O2-  O274  1  0.91161404  0.53627420  0.40430624  1
  O2-  O275  1  0.91376923  0.54816501  0.73214000  1
  O2-  O276  1  0.28897569  0.16527011  0.07061437  1
  O2-  O277  1  0.29376160  0.15933744  0.39918449  1
  O2-  O278  1  0.30092341  0.17171926  0.73112413  1
  O2-  O279  1  0.29663777  0.67367161  0.06865524  1
  O2-  O280  1  0.30009289  0.67113001  0.39347792  1
  O2-  O281  1  0.29884011  0.66616715  0.72609641  1
  O2-  O282  1  0.80573249  0.16619201  0.06370189  1
  O2-  O283  1  0.79534408  0.16377013  0.39547625  1
  O2-  O284  1  0.79000698  0.16589278  0.73584171  1
  O2-  O285  1  0.78915311  0.66477294  0.06137062  1
  O2-  O286  1  0.78933676  0.66862546  0.40296570  1
  O2-  O287  1  0.79599728  0.66816623  0.73067495  1
