# generated using pymatgen
data_Ca2Al2SiO7
_symmetry_space_group_name_H-M   'P 1'
_cell_length_a   15.46782929
_cell_length_b   15.46873242
_cell_length_c   15.28904695
_cell_angle_alpha   90.00115736
_cell_angle_beta   90.01379518
_cell_angle_gamma   90.00755722
_symmetry_Int_Tables_number   1
_chemical_formula_structural   Ca2Al2SiO7
_chemical_formula_sum   'Ca48 Al48 Si24 O168'
_cell_volume   3658.17514770
_cell_formula_units_Z   24
loop_
 _symmetry_equiv_pos_site_id
 _symmetry_equiv_pos_as_xyz
  1  'x, y, z'
loop_
 _atom_type_symbol
 _atom_type_oxidation_number
  Ca2+  2.0
  Al0+  0.0
  Si0+  0.0
  O2-  -2.0
loop_
 _atom_site_type_symbol
 _atom_site_label
 _atom_site_symmetry_multiplicity
 _atom_site_fract_x
 _atom_site_fract_y
 _atom_site_fract_z
 _atom_site_occupancy
  Ca2+  Ca0  1  0.16784318  0.08219430  0.16734666  1
  Ca2+  Ca1  1  0.16798991  0.08103605  0.51115444  1
  Ca2+  Ca2  1  0.17714003  0.07199013  0.83970491  1
  Ca2+  Ca3  1  0.16426897  0.58731567  0.16390145  1
  Ca2+  Ca4  1  0.17003482  0.58687452  0.50321862  1
  Ca2+  Ca5  1  0.17628882  0.58624770  0.84489863  1
  Ca2+  Ca6  1  0.66086295  0.08120594  0.16600832  1
  Ca2+  Ca7  1  0.66866686  0.07735231  0.50466545  1
  Ca2+  Ca8  1  0.66318995  0.07081906  0.84197355  1
  Ca2+  Ca9  1  0.66257831  0.57767116  0.16555798  1
  Ca2+  Ca10  1  0.67481592  0.57782917  0.51631295  1
  Ca2+  Ca11  1  0.66652896  0.57968210  0.83762117  1
  Ca2+  Ca12  1  0.07414473  0.33715019  0.15874089  1
  Ca2+  Ca13  1  0.07638132  0.32658373  0.48897492  1
  Ca2+  Ca14  1  0.07950090  0.34115377  0.83524779  1
  Ca2+  Ca15  1  0.08450052  0.82533632  0.15938000  1
  Ca2+  Ca16  1  0.07295793  0.83292011  0.49416244  1
  Ca2+  Ca17  1  0.08520079  0.83354972  0.82922258  1
  Ca2+  Ca18  1  0.58680396  0.32166644  0.15713541  1
  Ca2+  Ca19  1  0.58444847  0.32802339  0.49612085  1
  Ca2+  Ca20  1  0.58939852  0.33103015  0.83233419  1
  Ca2+  Ca21  1  0.57631888  0.82871981  0.15120934  1
  Ca2+  Ca22  1  0.58786542  0.82686484  0.50276647  1
  Ca2+  Ca23  1  0.58212647  0.82712351  0.83150892  1
  Ca2+  Ca24  1  0.33075514  0.42324107  0.16292775  1
  Ca2+  Ca25  1  0.32998522  0.42288828  0.50904390  1
  Ca2+  Ca26  1  0.32844802  0.42901355  0.84077952  1
  Ca2+  Ca27  1  0.33087398  0.91555260  0.15989678  1
  Ca2+  Ca28  1  0.32187124  0.92490563  0.51087034  1
  Ca2+  Ca29  1  0.32829623  0.92017936  0.84253228  1
  Ca2+  Ca30  1  0.83328388  0.41058669  0.16609794  1
  Ca2+  Ca31  1  0.83002447  0.42153032  0.50725519  1
  Ca2+  Ca32  1  0.82526810  0.42115388  0.83951455  1
  Ca2+  Ca33  1  0.82551092  0.90937265  0.16878114  1
  Ca2+  Ca34  1  0.83178591  0.91172676  0.50907496  1
  Ca2+  Ca35  1  0.82277427  0.90759763  0.83394955  1
  Ca2+  Ca36  1  0.42575770  0.16216221  0.15760263  1
  Ca2+  Ca37  1  0.42127743  0.16364535  0.49671518  1
  Ca2+  Ca38  1  0.41741776  0.15924479  0.83304863  1
  Ca2+  Ca39  1  0.41993576  0.67336237  0.15183032  1
  Ca2+  Ca40  1  0.42178299  0.66227065  0.50310976  1
  Ca2+  Ca41  1  0.42195169  0.66377880  0.83206848  1
  Ca2+  Ca42  1  0.92114269  0.17760813  0.16321064  1
  Ca2+  Ca43  1  0.92287326  0.17320373  0.48990795  1
  Ca2+  Ca44  1  0.91432370  0.17325305  0.83418026  1
  Ca2+  Ca45  1  0.92767652  0.67027143  0.16350826  1
  Ca2+  Ca46  1  0.91535897  0.67698570  0.49754364  1
  Ca2+  Ca47  1  0.92204536  0.66922142  0.82810491  1
  Al0+  Al48  1  -0.00089459  0.00227956  0.00320839  1
  Al0+  Al49  1  -0.00320861  0.00089426  0.32616429  1
  Al0+  Al50  1  -0.00036038  0.00092070  0.66667767  1
  Al0+  Al51  1  -0.00090106  0.50188518  -0.00624330  1
  Al0+  Al52  1  -0.00058877  0.50200638  0.32992442  1
  Al0+  Al53  1  -0.00096960  0.50024202  0.66628715  1
  Al0+  Al54  1  0.50090263  -0.00097942  -0.00035713  1
  Al0+  Al55  1  0.49954900  -0.00161949  0.33329806  1
  Al0+  Al56  1  0.50097639  -0.00056113  0.66925580  1
  Al0+  Al57  1  0.50111730  0.49770406  0.00642154  1
  Al0+  Al58  1  0.49958861  0.49844529  0.33571499  1
  Al0+  Al59  1  0.49895857  0.49744554  0.66774443  1
  Al0+  Al60  1  0.24993107  0.25048085  0.00735869  1
  Al0+  Al61  1  0.25192304  0.25141824  0.33205036  1
  Al0+  Al62  1  0.25118007  0.25058550  0.66896195  1
  Al0+  Al63  1  0.25052058  0.75210959  -0.00011017  1
  Al0+  Al64  1  0.25138004  0.75140170  0.33420525  1
  Al0+  Al65  1  0.25164148  0.75019937  0.67091720  1
  Al0+  Al66  1  0.75032997  0.25052552  -0.00542744  1
  Al0+  Al67  1  0.74879589  0.24741943  0.32830934  1
  Al0+  Al68  1  0.74987266  0.24927217  0.66631884  1
  Al0+  Al69  1  0.75086312  0.74897485  0.00314697  1
  Al0+  Al70  1  0.74874433  0.74747634  0.33147834  1
  Al0+  Al71  1  0.75132594  0.74852216  0.66620625  1
  Al0+  Al72  1  0.57265550  0.67568906  0.98545056  1
  Al0+  Al73  1  0.92946172  0.32164619  0.31878003  1
  Al0+  Al74  1  0.07437744  0.17815866  0.31821480  1
  Al0+  Al75  1  0.17657232  0.92936556  0.68003779  1
  Al0+  Al76  1  0.93050282  0.32079885  0.98309524  1
  Al0+  Al77  1  0.07319210  0.68193671  0.31886907  1
  Al0+  Al78  1  0.93066347  0.82050271  0.65473486  1
  Al0+  Al79  1  0.67895050  0.42693148  0.68112560  1
  Al0+  Al80  1  0.42961592  0.82075035  0.98345007  1
  Al0+  Al81  1  0.92525983  0.82172128  0.31734345  1
  Al0+  Al82  1  0.82242924  0.57143304  0.68245894  1
  Al0+  Al83  1  0.17619727  0.43080540  0.01540445  1
  Al0+  Al84  1  0.32203270  0.07087294  0.01709604  1
  Al0+  Al85  1  0.68040084  0.42828975  0.01538293  1
  Al0+  Al86  1  0.06990168  0.68204394  0.98457479  1
  Al0+  Al87  1  0.56937549  0.67783712  0.65328882  1
  Al0+  Al88  1  0.56962271  0.17983761  0.98394409  1
  Al0+  Al89  1  0.32156952  0.07278319  0.68076609  1
  Al0+  Al90  1  0.32144157  0.57179540  0.01627392  1
  Al0+  Al91  1  0.56807247  0.17860278  0.32038567  1
  Al0+  Al92  1  0.17675263  0.92917997  0.01718423  1
  Al0+  Al93  1  0.68143416  0.92860751  0.01426218  1
  Al0+  Al94  1  0.32053722  0.57072240  0.67936689  1
  Al0+  Al95  1  0.68048279  0.92860385  0.67904235  1
  Si0+  Si96  1  0.82240692  0.57188392  0.01900707  1
  Si0+  Si97  1  0.42804376  0.32468503  0.31582610  1
  Si0+  Si98  1  0.07497031  0.67715795  0.65041527  1
  Si0+  Si99  1  0.17832968  0.42985484  0.34851581  1
  Si0+  Si100  1  0.82277722  0.07296158  0.68218513  1
  Si0+  Si101  1  0.67941417  0.42698248  0.34837900  1
  Si0+  Si102  1  0.42786751  0.82339733  0.64820553  1
  Si0+  Si103  1  0.17738311  0.42778901  0.68056058  1
  Si0+  Si104  1  0.57182642  0.17676985  0.65076147  1
  Si0+  Si105  1  0.92721075  0.82481059  0.98331527  1
  Si0+  Si106  1  0.32183444  0.07119607  0.34844686  1
  Si0+  Si107  1  0.81945714  0.07133189  0.34764447  1
  Si0+  Si108  1  0.32191950  0.57195460  0.34994112  1
  Si0+  Si109  1  0.82108894  0.07435476  0.01778506  1
  Si0+  Si110  1  0.57024059  0.67644491  0.31998777  1
  Si0+  Si111  1  0.82018538  0.57093070  0.34870605  1
  Si0+  Si112  1  0.07400818  0.17729409  0.98143256  1
  Si0+  Si113  1  0.42879370  0.31943673  0.65189559  1
  Si0+  Si114  1  0.92762991  0.32162844  0.65064433  1
  Si0+  Si115  1  0.42629094  0.32176720  0.98327461  1
  Si0+  Si116  1  0.67863586  0.92735392  0.34917846  1
  Si0+  Si117  1  0.17804136  0.93006096  0.34768901  1
  Si0+  Si118  1  0.07066157  0.18173224  0.65427647  1
  Si0+  Si119  1  0.43075999  0.81956453  0.32040922  1
  O2-  O120  1  0.24731688  0.00236994  0.06819658  1
  O2-  O121  1  0.24412515  0.00670738  0.39005001  1
  O2-  O122  1  0.25316164  -0.00293422  0.72837886  1
  O2-  O123  1  0.24762006  0.50214949  0.06764694  1
  O2-  O124  1  0.24989531  0.50074220  0.39112162  1
  O2-  O125  1  0.23965726  0.50218434  0.72335563  1
  O2-  O126  1  0.75669900  0.00183521  0.06281335  1
  O2-  O127  1  0.75277171  -0.00406649  0.39069373  1
  O2-  O128  1  0.75461022  0.00389935  0.72533336  1
  O2-  O129  1  0.75241497  0.50450678  0.06411659  1
  O2-  O130  1  0.74933775  0.49877435  0.39059437  1
  O2-  O131  1  0.74970439  0.49967852  0.73086953  1
  O2-  O132  1  0.00545650  0.25359614  0.26942258  1
  O2-  O133  1  0.00007898  0.25193911  0.60919604  1
  O2-  O134  1  0.00727832  0.24778931  0.93628798  1
  O2-  O135  1  0.00217711  0.75487137  0.26885105  1
  O2-  O136  1  0.00678702  0.74702656  0.60713434  1
  O2-  O137  1  -0.00125672  0.76012983  0.93850702  1
  O2-  O138  1  0.49431997  0.25348999  0.27320937  1
  O2-  O139  1  0.50005622  0.24792416  0.60949235  1
  O2-  O140  1  0.49315520  0.25246408  0.93690115  1
  O2-  O141  1  0.49975916  0.74696578  0.27837267  1
  O2-  O142  1  0.49575403  0.75327682  0.60366898  1
  O2-  O143  1  0.50001121  0.74639319  0.93513682  1
  O2-  O144  1  0.07099679  0.17752004  0.08700148  1
  O2-  O145  1  0.07256583  0.17979799  0.43305753  1
  O2-  O146  1  0.06982360  0.18403461  0.75870737  1
  O2-  O147  1  0.06689062  0.68180017  0.09784147  1
  O2-  O148  1  0.07484724  0.68346793  0.43281007  1
  O2-  O149  1  0.07391116  0.67570229  0.75544063  1
  O2-  O150  1  0.56948935  0.18109940  0.09754411  1
  O2-  O151  1  0.56727532  0.17878287  0.43417277  1
  O2-  O152  1  0.57390660  0.17658349  0.75510021  1
  O2-  O153  1  0.57121009  0.67885057  0.10034178  1
  O2-  O154  1  0.57036813  0.67604143  0.42527579  1
  O2-  O155  1  0.56832714  0.67744437  0.76517089  1
  O2-  O156  1  0.17860835  0.42963752  0.24436831  1
  O2-  O157  1  0.17986621  0.42447474  0.57427079  1
  O2-  O158  1  0.17805642  0.43285886  0.90132583  1
  O2-  O159  1  0.18255973  0.92744154  0.24346908  1
  O2-  O160  1  0.17542969  0.93378045  0.56517126  1
  O2-  O161  1  0.17622684  0.93149875  0.90381149  1
  O2-  O162  1  0.67812289  0.42805947  0.24377393  1
  O2-  O163  1  0.68162405  0.42532680  0.56629381  1
  O2-  O164  1  0.68297988  0.42727040  0.90276261  1
  O2-  O165  1  0.67680331  0.92758663  0.24454022  1
  O2-  O166  1  0.68113986  0.93118212  0.56485878  1
  O2-  O167  1  0.68302347  0.92861734  0.90124508  1
  O2-  O168  1  0.42946779  0.32108882  0.08929091  1
  O2-  O169  1  0.42914622  0.32705630  0.42194150  1
  O2-  O170  1  0.42643327  0.31928529  0.75612854  1
  O2-  O171  1  0.43240650  0.82014484  0.09837817  1
  O2-  O172  1  0.43119598  0.82004610  0.42565046  1
  O2-  O173  1  0.42858377  0.82517401  0.75271105  1
  O2-  O174  1  0.93025150  0.31826132  0.09619733  1
  O2-  O175  1  0.92958240  0.31938916  0.43322330  1
  O2-  O176  1  0.92683906  0.32074238  0.75518920  1
  O2-  O177  1  0.92598790  0.82137193  0.08899713  1
  O2-  O178  1  0.92428210  0.81940855  0.43129591  1
  O2-  O179  1  0.93072953  0.82009626  0.76722173  1
  O2-  O180  1  0.32631759  0.06802163  0.24445006  1
  O2-  O181  1  0.31857299  0.07370629  0.56593646  1
  O2-  O182  1  0.32063845  0.06917884  0.90362534  1
  O2-  O183  1  0.32540451  0.57182778  0.24588325  1
  O2-  O184  1  0.32023823  0.56696268  0.56504557  1
  O2-  O185  1  0.32113572  0.56853535  0.90274628  1
  O2-  O186  1  0.81573228  0.07460634  0.24331060  1
  O2-  O187  1  0.82169608  0.07500959  0.57601696  1
  O2-  O188  1  0.81916580  0.07501301  0.91190463  1
  O2-  O189  1  0.81794804  0.57260103  0.24410521  1
  O2-  O190  1  0.82207111  0.56856059  0.56771985  1
  O2-  O191  1  0.82229221  0.57112884  0.91357375  1
  O2-  O192  1  0.04383340  0.08194741  0.26405465  1
  O2-  O193  1  0.04304314  0.09046772  0.60546293  1
  O2-  O194  1  0.04454996  0.08459763  0.93534197  1
  O2-  O195  1  0.04417448  0.58376756  0.26708881  1
  O2-  O196  1  0.04910796  0.58298314  0.60364973  1
  O2-  O197  1  0.03782073  0.58721903  0.92885855  1
  O2-  O198  1  0.53736364  0.08155509  0.26752441  1
  O2-  O199  1  0.54425381  0.08539931  0.60138413  1
  O2-  O200  1  0.54040130  0.08285273  0.93142050  1
  O2-  O201  1  0.54321864  0.58377500  0.27417734  1
  O2-  O202  1  0.53704500  0.58107963  0.59780837  1
  O2-  O203  1  0.54609321  0.57535125  0.93687362  1
  O2-  O204  1  0.17485338  0.20157250  0.26846836  1
  O2-  O205  1  0.16259450  0.20967849  0.60592742  1
  O2-  O206  1  0.16926343  0.20135165  0.93910776  1
  O2-  O207  1  0.17243520  0.70908767  0.26693206  1
  O2-  O208  1  0.16964008  0.70071415  0.60497007  1
  O2-  O209  1  0.16758916  0.70991648  0.93299652  1
  O2-  O210  1  0.66367948  0.20798567  0.26540060  1
  O2-  O211  1  0.66345853  0.20547372  0.60178863  1
  O2-  O212  1  0.66517225  0.21129869  0.92947840  1
  O2-  O213  1  0.66165794  0.70235439  0.27260145  1
  O2-  O214  1  0.66589131  0.70931868  0.59805736  1
  O2-  O215  1  0.67198219  0.70472944  0.93583784  1
  O2-  O216  1  0.07735511  0.46107581  0.06605531  1
  O2-  O217  1  0.08620701  0.45748219  0.39638914  1
  O2-  O218  1  0.08145278  0.44605090  0.72321632  1
  O2-  O219  1  0.07722103  0.95566694  0.06993320  1
  O2-  O220  1  0.08245532  0.95270457  0.39024439  1
  O2-  O221  1  0.08018079  0.96093517  0.73387866  1
  O2-  O222  1  0.58420829  0.45419927  0.07259765  1
  O2-  O223  1  0.58655711  0.45313794  0.39592554  1
  O2-  O224  1  0.57971955  0.45122795  0.73132432  1
  O2-  O225  1  0.58586267  0.96118165  0.06842154  1
  O2-  O226  1  0.58796005  0.95843260  0.39753292  1
  O2-  O227  1  0.58450726  0.95829144  0.73254313  1
  O2-  O228  1  0.20209771  0.33234862  0.06926461  1
  O2-  O229  1  0.20673374  0.33771254  0.39699728  1
  O2-  O230  1  0.20840771  0.33758129  0.72900158  1
  O2-  O231  1  0.20879618  0.83235183  0.07052770  1
  O2-  O232  1  0.21165168  0.84073094  0.39748699  1
  O2-  O233  1  0.20044656  0.82985549  0.73036500  1
  O2-  O234  1  0.71521047  0.33180259  0.06783943  1
  O2-  O235  1  0.70741403  0.33446918  0.39461449  1
  O2-  O236  1  0.70802950  0.32845772  0.73277508  1
  O2-  O237  1  0.71096275  0.83222952  0.07071140  1
  O2-  O238  1  0.70430576  0.83384809  0.39531691  1
  O2-  O239  1  0.71206255  0.83306579  0.73201637  1
  O2-  O240  1  0.45593835  0.41735969  0.26927201  1
  O2-  O241  1  0.45680908  0.40960802  0.60081473  1
  O2-  O242  1  0.45442346  0.41499281  0.93909806  1
  O2-  O243  1  0.46046887  0.90995474  0.27236283  1
  O2-  O244  1  0.45573957  0.91663319  0.60072643  1
  O2-  O245  1  0.46109112  0.91759570  0.93112667  1
  O2-  O246  1  0.95318543  0.42080367  0.26690305  1
  O2-  O247  1  0.95379887  0.41376894  0.60245618  1
  O2-  O248  1  0.95946491  0.41680896  0.92773589  1
  O2-  O249  1  0.94323437  0.92227775  0.26652914  1
  O2-  O250  1  0.95761594  0.91898577  0.59947759  1
  O2-  O251  1  0.94613713  0.92124911  0.94075739  1
  O2-  O252  1  0.33358854  0.30326351  0.27132817  1
  O2-  O253  1  0.33732712  0.29150282  0.60151976  1
  O2-  O254  1  0.33096545  0.29925147  0.93965408  1
  O2-  O255  1  0.33901534  0.79333539  0.27327338  1
  O2-  O256  1  0.33368877  0.79732524  0.60193637  1
  O2-  O257  1  0.33054901  0.79627972  0.93218077  1
  O2-  O258  1  0.83263862  0.28897722  0.26595661  1
  O2-  O259  1  0.83672700  0.29160366  0.60188467  1
  O2-  O260  1  0.83611011  0.28623745  0.92766874  1
  O2-  O261  1  0.82837780  0.78782016  0.26405141  1
  O2-  O262  1  0.83531221  0.78808998  0.59792310  1
  O2-  O263  1  0.83485315  0.79408886  0.93814745  1
  O2-  O264  1  0.41954709  0.03868114  0.06970514  1
  O2-  O265  1  0.41104505  0.03644693  0.39847264  1
  O2-  O266  1  0.42160037  0.04950878  0.73001647  1
  O2-  O267  1  0.41813566  0.54058808  0.07190253  1
  O2-  O268  1  0.41325420  0.54158024  0.39894586  1
  O2-  O269  1  0.41380333  0.53353047  0.73304666  1
  O2-  O270  1  0.91617150  0.05509608  0.06288478  1
  O2-  O271  1  0.91361557  0.04934738  0.39410922  1
  O2-  O272  1  0.91607852  0.05008047  0.72853504  1
  O2-  O273  1  0.91500616  0.54245789  0.06380184  1
  O2-  O274  1  0.91276151  0.54497969  0.39573032  1
  O2-  O275  1  0.92113130  0.54322579  0.73421831  1
  O2-  O276  1  0.29859804  0.17022688  0.07069104  1
  O2-  O277  1  0.30292676  0.16676274  0.39369547  1
  O2-  O278  1  0.29167410  0.16977568  0.73460028  1
  O2-  O279  1  0.29462005  0.67071143  0.06770527  1
  O2-  O280  1  0.29484803  0.66386959  0.39826794  1
  O2-  O281  1  0.29908780  0.66879794  0.73249845  1
  O2-  O282  1  0.78986003  0.16585021  0.06382057  1
  O2-  O283  1  0.78697630  0.16122842  0.39785475  1
  O2-  O284  1  0.79646313  0.16583760  0.72850556  1
  O2-  O285  1  0.79880133  0.66514426  0.06658531  1
  O2-  O286  1  0.78944626  0.66179960  0.39760833  1
  O2-  O287  1  0.79526175  0.66914766  0.73432394  1
