# generated using pymatgen
data_Ca2Al2SiO7
_symmetry_space_group_name_H-M   'P 1'
_cell_length_a   15.46429812
_cell_length_b   15.46569476
_cell_length_c   15.28915745
_cell_angle_alpha   89.99757310
_cell_angle_beta   89.99755776
_cell_angle_gamma   90.00745971
_symmetry_Int_Tables_number   1
_chemical_formula_structural   Ca2Al2SiO7
_chemical_formula_sum   'Ca48 Al48 Si24 O168'
_cell_volume   3656.64834360
_cell_formula_units_Z   24
loop_
 _symmetry_equiv_pos_site_id
 _symmetry_equiv_pos_as_xyz
  1  'x, y, z'
loop_
 _atom_type_symbol
 _atom_type_oxidation_number
  Ca2+  2.0
  Al0+  0.0
  Si0+  0.0
  O2-  -2.0
loop_
 _atom_site_type_symbol
 _atom_site_label
 _atom_site_symmetry_multiplicity
 _atom_site_fract_x
 _atom_site_fract_y
 _atom_site_fract_z
 _atom_site_occupancy
  Ca2+  Ca0  1  0.17709905  0.09135012  0.17385913  1
  Ca2+  Ca1  1  0.17567666  0.10007195  0.50244833  1
  Ca2+  Ca2  1  0.17738432  0.09524610  0.83229178  1
  Ca2+  Ca3  1  0.17138678  0.57690918  0.18232289  1
  Ca2+  Ca4  1  0.17318794  0.57951107  0.49770978  1
  Ca2+  Ca5  1  0.17411983  0.58488346  0.83415990  1
  Ca2+  Ca6  1  0.65543988  0.07665494  0.17281953  1
  Ca2+  Ca7  1  0.66693134  0.07456609  0.50499465  1
  Ca2+  Ca8  1  0.66429865  0.07312490  0.83865124  1
  Ca2+  Ca9  1  0.67359173  0.57525778  0.18155877  1
  Ca2+  Ca10  1  0.66356780  0.57173517  0.49589490  1
  Ca2+  Ca11  1  0.66656293  0.57362155  0.83158645  1
  Ca2+  Ca12  1  0.07556503  0.33674930  0.17127060  1
  Ca2+  Ca13  1  0.07988137  0.32571688  0.48986633  1
  Ca2+  Ca14  1  0.07512383  0.32774106  0.82809890  1
  Ca2+  Ca15  1  0.08659233  0.82546039  0.16858598  1
  Ca2+  Ca16  1  0.07642573  0.82859641  0.49487261  1
  Ca2+  Ca17  1  0.07618879  0.83397057  0.82293344  1
  Ca2+  Ca18  1  0.58266133  0.32330054  0.16764988  1
  Ca2+  Ca19  1  0.57620464  0.33303374  0.49060262  1
  Ca2+  Ca20  1  0.57870108  0.32561646  0.82504479  1
  Ca2+  Ca21  1  0.58974293  0.83091295  0.16791259  1
  Ca2+  Ca22  1  0.58865511  0.82928674  0.49143555  1
  Ca2+  Ca23  1  0.58997320  0.83402829  0.83016838  1
  Ca2+  Ca24  1  0.32699576  0.41853067  0.18171121  1
  Ca2+  Ca25  1  0.33681059  0.42023239  0.50192898  1
  Ca2+  Ca26  1  0.33660241  0.41778471  0.82918706  1
  Ca2+  Ca27  1  0.33578431  0.93076287  0.17278581  1
  Ca2+  Ca28  1  0.33231019  0.93218955  0.50200717  1
  Ca2+  Ca29  1  0.33367139  0.93148033  0.83692224  1
  Ca2+  Ca30  1  0.83265594  0.41740329  0.17970382  1
  Ca2+  Ca31  1  0.82208053  0.41080466  0.49836782  1
  Ca2+  Ca32  1  0.82755188  0.40906669  0.83513871  1
  Ca2+  Ca33  1  0.82073202  0.91951827  0.17417997  1
  Ca2+  Ca34  1  0.82452820  0.91937065  0.50764142  1
  Ca2+  Ca35  1  0.82875600  0.92155176  0.83114138  1
  Ca2+  Ca36  1  0.42227363  0.16468015  0.16902112  1
  Ca2+  Ca37  1  0.41676448  0.17566421  0.49100027  1
  Ca2+  Ca38  1  0.41899111  0.16605143  0.82773503  1
  Ca2+  Ca39  1  0.42476223  0.66009796  0.16963543  1
  Ca2+  Ca40  1  0.41820894  0.66569535  0.49143538  1
  Ca2+  Ca41  1  0.41744288  0.66932794  0.82422104  1
  Ca2+  Ca42  1  0.91435710  0.18255861  0.16598064  1
  Ca2+  Ca43  1  0.92593954  0.16522443  0.49294153  1
  Ca2+  Ca44  1  0.92069036  0.16564980  0.82447187  1
  Ca2+  Ca45  1  0.92188017  0.65859655  0.17014285  1
  Ca2+  Ca46  1  0.91408765  0.67189246  0.49126542  1
  Ca2+  Ca47  1  0.91740096  0.67597481  0.82553640  1
  Al0+  Al48  1  0.00073127  -0.00075830  0.00140949  1
  Al0+  Al49  1  0.00032687  -0.00146008  0.32554759  1
  Al0+  Al50  1  -0.00037087  -0.00189667  0.66041873  1
  Al0+  Al51  1  0.00102733  0.50050726  -0.00816343  1
  Al0+  Al52  1  0.00126571  0.50261234  0.33557132  1
  Al0+  Al53  1  0.00084164  0.49977908  0.66727857  1
  Al0+  Al54  1  0.49906286  -0.00152038  0.00379564  1
  Al0+  Al55  1  0.49782610  -0.00052624  0.34004929  1
  Al0+  Al56  1  0.49841226  -0.00166298  0.67414431  1
  Al0+  Al57  1  0.50179818  0.50033744  -0.00109848  1
  Al0+  Al58  1  0.50088400  0.50175984  0.32975931  1
  Al0+  Al59  1  0.50001223  0.50055059  0.67306063  1
  Al0+  Al60  1  0.24957853  0.25331692  0.00492059  1
  Al0+  Al61  1  0.24947052  0.25168683  0.33303114  1
  Al0+  Al62  1  0.24965656  0.25339388  0.66599265  1
  Al0+  Al63  1  0.25175764  0.75042921  -0.00107386  1
  Al0+  Al64  1  0.24881690  0.75297271  0.33198673  1
  Al0+  Al65  1  0.25164487  0.74996309  0.67046647  1
  Al0+  Al66  1  0.74844548  0.24818348  -0.00910298  1
  Al0+  Al67  1  0.75001243  0.24729167  0.32995861  1
  Al0+  Al68  1  0.74961517  0.24876866  0.67437979  1
  Al0+  Al69  1  0.75104534  0.74876722  0.00211231  1
  Al0+  Al70  1  0.74833146  0.75035012  0.33457713  1
  Al0+  Al71  1  0.75055114  0.74829566  0.66616402  1
  Al0+  Al72  1  0.31888673  0.07375548  0.68038509  1
  Al0+  Al73  1  0.32017593  0.57124730  0.68111535  1
  Al0+  Al74  1  0.82203006  0.57143070  0.34758947  1
  Al0+  Al75  1  0.06944021  0.18046399  0.65380841  1
  Al0+  Al76  1  0.07251775  0.17729735  0.31642456  1
  Al0+  Al77  1  0.31907469  0.07165881  0.01515263  1
  Al0+  Al78  1  0.17855689  0.42897669  0.34957559  1
  Al0+  Al79  1  0.68129802  0.92909606  0.01603641  1
  Al0+  Al80  1  0.67905144  0.93079574  0.34738978  1
  Al0+  Al81  1  0.42945022  0.32290682  0.31864203  1
  Al0+  Al82  1  0.31822301  0.07125447  0.34803146  1
  Al0+  Al83  1  0.56741880  0.17701546  0.98464112  1
  Al0+  Al84  1  0.43149168  0.32101911  0.65362577  1
  Al0+  Al85  1  0.32252310  0.57314909  0.34665760  1
  Al0+  Al86  1  0.57056976  0.17606651  0.32160471  1
  Al0+  Al87  1  0.07114406  0.68056291  0.32098212  1
  Al0+  Al88  1  0.92870151  0.81913317  0.65191506  1
  Al0+  Al89  1  0.57067216  0.68018525  0.32018064  1
  Al0+  Al90  1  0.67894137  0.42865989  0.68107420  1
  Al0+  Al91  1  0.67911862  0.42511078  0.34537448  1
  Al0+  Al92  1  0.92835229  0.32096232  0.32163533  1
  Al0+  Al93  1  0.67874199  0.92714845  0.68273648  1
  Al0+  Al94  1  0.82317488  0.07015395  0.68033420  1
  Al0+  Al95  1  0.92937351  0.32118562  0.98421770  1
  Si0+  Si96  1  0.42704372  0.32421754  0.98270539  1
  Si0+  Si97  1  0.82348505  0.57100991  0.68376796  1
  Si0+  Si98  1  0.07251529  0.68014396  0.98327346  1
  Si0+  Si99  1  0.07324030  0.17820347  0.98371535  1
  Si0+  Si100  1  0.57253054  0.67849858  0.98304605  1
  Si0+  Si101  1  0.42958162  0.81928460  0.98417052  1
  Si0+  Si102  1  0.42814083  0.82184244  0.65247250  1
  Si0+  Si103  1  0.67958931  0.42746920  0.01452738  1
  Si0+  Si104  1  0.82383785  0.07334951  0.01744656  1
  Si0+  Si105  1  0.17840631  0.43297930  0.01439297  1
  Si0+  Si106  1  0.82463233  0.07149494  0.34733861  1
  Si0+  Si107  1  0.57012364  0.67951100  0.65264629  1
  Si0+  Si108  1  0.82128218  0.56934024  0.01285386  1
  Si0+  Si109  1  0.17663580  0.42872462  0.68605290  1
  Si0+  Si110  1  0.17547984  0.92773555  0.34983198  1
  Si0+  Si111  1  0.17924720  0.92730942  0.68196694  1
  Si0+  Si112  1  0.92482230  0.32332235  0.64968415  1
  Si0+  Si113  1  0.42737232  0.82289015  0.31705190  1
  Si0+  Si114  1  0.57209324  0.17516604  0.65164633  1
  Si0+  Si115  1  0.17686124  0.92545096  0.01677031  1
  Si0+  Si116  1  0.32228281  0.57274754  0.01510966  1
  Si0+  Si117  1  0.92851561  0.82047142  0.98529214  1
  Si0+  Si118  1  0.92612382  0.82123738  0.31371186  1
  Si0+  Si119  1  0.07468909  0.67750349  0.64997904  1
  O2-  O120  1  0.24127013  -0.00180462  0.05980580  1
  O2-  O121  1  0.23819788  0.00135795  0.39406023  1
  O2-  O122  1  0.24372423  -0.00093604  0.72755481  1
  O2-  O123  1  0.25254484  0.50111311  0.05607907  1
  O2-  O124  1  0.25440413  0.49843179  0.39748857  1
  O2-  O125  1  0.24419014  0.49908131  0.73021054  1
  O2-  O126  1  0.75428137  0.00573408  0.06198018  1
  O2-  O127  1  0.75407616  0.00518293  0.39198506  1
  O2-  O128  1  0.74773524  0.00225593  0.73250474  1
  O2-  O129  1  0.75400609  0.49538831  0.05524205  1
  O2-  O130  1  0.75277509  0.49597157  0.39542996  1
  O2-  O131  1  0.75873494  0.49891970  0.72894580  1
  O2-  O132  1  -0.00076302  0.24913593  0.26842892  1
  O2-  O133  1  -0.00792336  0.25263379  0.60786125  1
  O2-  O134  1  0.00089381  0.24242407  0.93866973  1
  O2-  O135  1  -0.00434230  0.75283328  0.27009590  1
  O2-  O136  1  0.00246084  0.74261944  0.60710925  1
  O2-  O137  1  0.00370568  0.75361927  0.94197947  1
  O2-  O138  1  0.50157381  0.25041054  0.26975439  1
  O2-  O139  1  0.50489107  0.24512026  0.60787240  1
  O2-  O140  1  0.49314628  0.25304495  0.93868171  1
  O2-  O141  1  0.49421368  0.75272474  0.27184647  1
  O2-  O142  1  0.50265876  0.75431382  0.61159203  1
  O2-  O143  1  0.50062850  0.74843615  0.94044022  1
  O2-  O144  1  0.07398325  0.18054370  0.08850621  1
  O2-  O145  1  0.06972438  0.17796588  0.43006889  1
  O2-  O146  1  0.06995535  0.18359124  0.76774640  1
  O2-  O147  1  0.07272382  0.67830075  0.08782231  1
  O2-  O148  1  0.07249077  0.68503330  0.43362519  1
  O2-  O149  1  0.07473153  0.68046604  0.75661866  1
  O2-  O150  1  0.56680204  0.17781593  0.09725706  1
  O2-  O151  1  0.56857777  0.17404347  0.43505701  1
  O2-  O152  1  0.56876357  0.17561767  0.75778204  1
  O2-  O153  1  0.57245138  0.67686144  0.08755659  1
  O2-  O154  1  0.57070449  0.68197097  0.43338860  1
  O2-  O155  1  0.56858589  0.67971369  0.75880395  1
  O2-  O156  1  0.17778405  0.43300391  0.23488163  1
  O2-  O157  1  0.17518406  0.42886402  0.58145371  1
  O2-  O158  1  0.17783817  0.43482675  0.90913636  1
  O2-  O159  1  0.17939883  0.92467486  0.24379249  1
  O2-  O160  1  0.18349709  0.92137356  0.57711975  1
  O2-  O161  1  0.17771503  0.92079047  0.91136690  1
  O2-  O162  1  0.68060965  0.42752020  0.23109337  1
  O2-  O163  1  0.67682734  0.43074966  0.56882502  1
  O2-  O164  1  0.67810214  0.43185052  0.90914349  1
  O2-  O165  1  0.68036459  0.93032270  0.23389341  1
  O2-  O166  1  0.67911181  0.92563375  0.56962445  1
  O2-  O167  1  0.68408675  0.92655274  0.90325330  1
  O2-  O168  1  0.42828332  0.32867469  0.08749130  1
  O2-  O169  1  0.43082431  0.32219939  0.43242203  1
  O2-  O170  1  0.43259520  0.31976690  0.76758647  1
  O2-  O171  1  0.42774974  0.81666160  0.08887923  1
  O2-  O172  1  0.42800470  0.82300245  0.42271727  1
  O2-  O173  1  0.42620113  0.81954823  0.75810026  1
  O2-  O174  1  0.93126723  0.32646349  0.09650311  1
  O2-  O175  1  0.92734802  0.31822579  0.43493296  1
  O2-  O176  1  0.92854685  0.32450174  0.75584332  1
  O2-  O177  1  0.92758466  0.81762087  0.08982568  1
  O2-  O178  1  0.92677066  0.82132602  0.41908095  1
  O2-  O179  1  0.93077520  0.81709522  0.76621640  1
  O2-  O180  1  0.31958933  0.06707861  0.23468365  1
  O2-  O181  1  0.31895338  0.07215389  0.56799658  1
  O2-  O182  1  0.31743356  0.07032754  0.90167334  1
  O2-  O183  1  0.31926124  0.57305910  0.23208952  1
  O2-  O184  1  0.32043456  0.57327365  0.56925226  1
  O2-  O185  1  0.32117035  0.57452779  0.90987562  1
  O2-  O186  1  0.82541729  0.06876548  0.24149945  1
  O2-  O187  1  0.82292770  0.06739703  0.56699030  1
  O2-  O188  1  0.82603208  0.06969470  0.91202498  1
  O2-  O189  1  0.82029229  0.57070996  0.23280318  1
  O2-  O190  1  0.82294971  0.57308618  0.57919538  1
  O2-  O191  1  0.81896828  0.57170682  0.90754596  1
  O2-  O192  1  0.04965582  0.07751174  0.26248502  1
  O2-  O193  1  0.04574816  0.08252306  0.60020381  1
  O2-  O194  1  0.05383899  0.08123593  0.94048098  1
  O2-  O195  1  0.04163823  0.58506843  0.26406987  1
  O2-  O196  1  0.05362138  0.58185692  0.60795060  1
  O2-  O197  1  0.04292327  0.59090428  0.93181960  1
  O2-  O198  1  0.53555885  0.07903827  0.26828180  1
  O2-  O199  1  0.54591822  0.08033460  0.60926783  1
  O2-  O200  1  0.53538502  0.07965727  0.93207779  1
  O2-  O201  1  0.54224015  0.58532824  0.26125405  1
  O2-  O202  1  0.53748824  0.58913340  0.60748230  1
  O2-  O203  1  0.54451761  0.58666309  0.93448656  1
  O2-  O204  1  0.16950066  0.20876809  0.26362735  1
  O2-  O205  1  0.16460300  0.21581192  0.60099046  1
  O2-  O206  1  0.16564057  0.21031760  0.93769393  1
  O2-  O207  1  0.16578897  0.71469456  0.26292160  1
  O2-  O208  1  0.16740904  0.70727459  0.60560241  1
  O2-  O209  1  0.16537565  0.70668439  0.93606046  1
  O2-  O210  1  0.66942392  0.19836284  0.26644029  1
  O2-  O211  1  0.66784848  0.19860261  0.61056461  1
  O2-  O212  1  0.66400599  0.20497964  0.92884655  1
  O2-  O213  1  0.66593443  0.71349821  0.26372430  1
  O2-  O214  1  0.66287618  0.70270431  0.60671409  1
  O2-  O215  1  0.66433128  0.70774642  0.93590982  1
  O2-  O216  1  0.08714952  0.46571347  0.05983008  1
  O2-  O217  1  0.08278909  0.46147701  0.40380560  1
  O2-  O218  1  0.08281747  0.45371898  0.73399176  1
  O2-  O219  1  0.08139694  0.94453510  0.06200606  1
  O2-  O220  1  0.07862408  0.94556777  0.39115211  1
  O2-  O221  1  0.08398052  0.94960138  0.72525001  1
  O2-  O222  1  0.58857763  0.45912305  0.06088449  1
  O2-  O223  1  0.58260613  0.45967426  0.39722771  1
  O2-  O224  1  0.58669665  0.46648342  0.73991130  1
  O2-  O225  1  0.58293214  0.95552832  0.06775397  1
  O2-  O226  1  0.58281361  0.95769522  0.40280429  1
  O2-  O227  1  0.57955061  0.95128078  0.73733460  1
  O2-  O228  1  0.20173188  0.34096506  0.06221881  1
  O2-  O229  1  0.20350418  0.33027012  0.40130757  1
  O2-  O230  1  0.20642794  0.33765212  0.73502098  1
  O2-  O231  1  0.20728477  0.83297073  0.06387469  1
  O2-  O232  1  0.20571217  0.83708792  0.39847969  1
  O2-  O233  1  0.20768247  0.83611594  0.73292857  1
  O2-  O234  1  0.70334806  0.33301811  0.05659133  1
  O2-  O235  1  0.70501273  0.32630828  0.39861771  1
  O2-  O236  1  0.70516607  0.33222721  0.73842812  1
  O2-  O237  1  0.71386966  0.83175514  0.06874087  1
  O2-  O238  1  0.71066782  0.83474156  0.40049139  1
  O2-  O239  1  0.71040358  0.82867491  0.73533947  1
  O2-  O240  1  0.45531992  0.42097892  0.26383974  1
  O2-  O241  1  0.46286445  0.41902690  0.60377293  1
  O2-  O242  1  0.45608679  0.41734437  0.93506121  1
  O2-  O243  1  0.45745494  0.91476082  0.27041862  1
  O2-  O244  1  0.45226782  0.91519913  0.60706363  1
  O2-  O245  1  0.45749263  0.91085313  0.93730855  1
  O2-  O246  1  0.95756509  0.41996939  0.26962432  1
  O2-  O247  1  0.95082548  0.41767702  0.60622264  1
  O2-  O248  1  0.96308888  0.41626648  0.92672425  1
  O2-  O249  1  0.95124416  0.91352205  0.26456516  1
  O2-  O250  1  0.95981441  0.91319273  0.59503137  1
  O2-  O251  1  0.95299086  0.91392455  0.93876905  1
  O2-  O252  1  0.33121467  0.29454241  0.26608152  1
  O2-  O253  1  0.33349537  0.29468522  0.60216539  1
  O2-  O254  1  0.33128859  0.30170578  0.93922120  1
  O2-  O255  1  0.33345403  0.80152489  0.26978904  1
  O2-  O256  1  0.33770448  0.79049430  0.60520749  1
  O2-  O257  1  0.33800683  0.79143227  0.93477188  1
  O2-  O258  1  0.83155442  0.29247461  0.26409268  1
  O2-  O259  1  0.82905909  0.30042381  0.60837564  1
  O2-  O260  1  0.83251078  0.29326511  0.92935604  1
  O2-  O261  1  0.83355305  0.79310825  0.26738378  1
  O2-  O262  1  0.83256490  0.78701596  0.59824804  1
  O2-  O263  1  0.83909707  0.78625760  0.93659433  1
  O2-  O264  1  0.41320629  0.03497027  0.06909062  1
  O2-  O265  1  0.41115928  0.03514032  0.40466179  1
  O2-  O266  1  0.41338109  0.03992586  0.73718137  1
  O2-  O267  1  0.41622807  0.54717345  0.05923690  1
  O2-  O268  1  0.42244259  0.54999930  0.39692549  1
  O2-  O269  1  0.41477585  0.53985317  0.73943216  1
  O2-  O270  1  0.91792963  0.04832497  0.06321546  1
  O2-  O271  1  0.91818168  0.04294829  0.39195885  1
  O2-  O272  1  0.92068759  0.03616666  0.73401440  1
  O2-  O273  1  0.91611783  0.54513107  0.05576947  1
  O2-  O274  1  0.92159246  0.55228496  0.39975363  1
  O2-  O275  1  0.91911712  0.55140693  0.73003962  1
  O2-  O276  1  0.29176743  0.16962007  0.06799969  1
  O2-  O277  1  0.29089752  0.16859842  0.40036197  1
  O2-  O278  1  0.28705871  0.16975632  0.73556212  1
  O2-  O279  1  0.29480417  0.66482000  0.06137615  1
  O2-  O280  1  0.29183759  0.67190012  0.39757836  1
  O2-  O281  1  0.28936292  0.66732184  0.73904440  1
  O2-  O282  1  0.79738986  0.16853780  0.05905493  1
  O2-  O283  1  0.80296549  0.16556295  0.39231098  1
  O2-  O284  1  0.80214661  0.16951644  0.73486621  1
  O2-  O285  1  0.79184768  0.65941826  0.06172066  1
  O2-  O286  1  0.78917978  0.66806877  0.40033243  1
  O2-  O287  1  0.79246258  0.66231926  0.73260060  1
