# generated using pymatgen
data_Ca2Al2SiO7
_symmetry_space_group_name_H-M   'P 1'
_cell_length_a   15.46447537
_cell_length_b   15.46425191
_cell_length_c   15.28870234
_cell_angle_alpha   89.98286578
_cell_angle_beta   90.00393891
_cell_angle_gamma   89.97279953
_symmetry_Int_Tables_number   1
_chemical_formula_structural   Ca2Al2SiO7
_chemical_formula_sum   'Ca48 Al48 Si24 O168'
_cell_volume   3656.23972164
_cell_formula_units_Z   24
loop_
 _symmetry_equiv_pos_site_id
 _symmetry_equiv_pos_as_xyz
  1  'x, y, z'
loop_
 _atom_type_symbol
 _atom_type_oxidation_number
  Ca2+  2.0
  Al0+  0.0
  Si0+  0.0
  O2-  -2.0
loop_
 _atom_site_type_symbol
 _atom_site_label
 _atom_site_symmetry_multiplicity
 _atom_site_fract_x
 _atom_site_fract_y
 _atom_site_fract_z
 _atom_site_occupancy
  Ca2+  Ca0  1  0.16250327  0.07911707  0.17492255  1
  Ca2+  Ca1  1  0.16706627  0.08189562  0.50531294  1
  Ca2+  Ca2  1  0.17099922  0.09035306  0.83527235  1
  Ca2+  Ca3  1  0.18194693  0.58798145  0.17226982  1
  Ca2+  Ca4  1  0.17372994  0.58853637  0.50404041  1
  Ca2+  Ca5  1  0.17014344  0.58531871  0.83857341  1
  Ca2+  Ca6  1  0.66051421  0.08483040  0.17266333  1
  Ca2+  Ca7  1  0.66032065  0.07623134  0.50689270  1
  Ca2+  Ca8  1  0.66093781  0.07552312  0.83722382  1
  Ca2+  Ca9  1  0.66684347  0.57623193  0.17525567  1
  Ca2+  Ca10  1  0.67511063  0.58929668  0.50362042  1
  Ca2+  Ca11  1  0.67279498  0.58339544  0.84221206  1
  Ca2+  Ca12  1  0.08057429  0.32625293  0.16424892  1
  Ca2+  Ca13  1  0.07219285  0.32540155  0.49479857  1
  Ca2+  Ca14  1  0.07806205  0.32757788  0.82251910  1
  Ca2+  Ca15  1  0.08277383  0.83589990  0.16650468  1
  Ca2+  Ca16  1  0.08716700  0.83001201  0.49744795  1
  Ca2+  Ca17  1  0.07842782  0.82403710  0.82843902  1
  Ca2+  Ca18  1  0.59614406  0.32748532  0.16462604  1
  Ca2+  Ca19  1  0.58911603  0.32581705  0.49130340  1
  Ca2+  Ca20  1  0.58892632  0.33182012  0.83739347  1
  Ca2+  Ca21  1  0.57174611  0.81833888  0.16164751  1
  Ca2+  Ca22  1  0.57707326  0.82686192  0.49719506  1
  Ca2+  Ca23  1  0.57682426  0.82292431  0.82644655  1
  Ca2+  Ca24  1  0.33826790  0.43036003  0.16986394  1
  Ca2+  Ca25  1  0.33653769  0.42511315  0.50027100  1
  Ca2+  Ca26  1  0.33058203  0.42519983  0.84098759  1
  Ca2+  Ca27  1  0.33104114  0.91161874  0.17372645  1
  Ca2+  Ca28  1  0.33537984  0.91860448  0.50413877  1
  Ca2+  Ca29  1  0.33905136  0.91616360  0.83345196  1
  Ca2+  Ca30  1  0.82539700  0.42469869  0.17273022  1
  Ca2+  Ca31  1  0.83368946  0.41950687  0.50064734  1
  Ca2+  Ca32  1  0.83152442  0.42448943  0.83743222  1
  Ca2+  Ca33  1  0.83048170  0.92064001  0.17240598  1
  Ca2+  Ca34  1  0.82338857  0.91902721  0.50741141  1
  Ca2+  Ca35  1  0.82265062  0.91314954  0.83360893  1
  Ca2+  Ca36  1  0.42860744  0.16897491  0.16391884  1
  Ca2+  Ca37  1  0.41855400  0.16636108  0.49661431  1
  Ca2+  Ca38  1  0.41893023  0.16536337  0.82985219  1
  Ca2+  Ca39  1  0.42004900  0.66862207  0.16062546  1
  Ca2+  Ca40  1  0.42741386  0.67410416  0.49042646  1
  Ca2+  Ca41  1  0.42523972  0.67202592  0.82851775  1
  Ca2+  Ca42  1  0.92378178  0.17493108  0.16385101  1
  Ca2+  Ca43  1  0.92033226  0.17843010  0.49092423  1
  Ca2+  Ca44  1  0.92824096  0.17511129  0.82380746  1
  Ca2+  Ca45  1  0.91199650  0.66055023  0.16650070  1
  Ca2+  Ca46  1  0.91965342  0.65783255  0.49904296  1
  Ca2+  Ca47  1  0.91879977  0.65755268  0.82520090  1
  Al0+  Al48  1  0.00026615  -0.00024010  -0.00601601  1
  Al0+  Al49  1  0.00035234  -0.00148616  0.33641005  1
  Al0+  Al50  1  0.00118055  -0.00136207  0.66634987  1
  Al0+  Al51  1  -0.00070469  0.49869575  0.00461079  1
  Al0+  Al52  1  0.00060836  0.49967398  0.33011351  1
  Al0+  Al53  1  0.00059941  0.49889305  0.66167121  1
  Al0+  Al54  1  0.49827082  0.00055254  -0.00447298  1
  Al0+  Al55  1  0.49807082  -0.00024307  0.32619201  1
  Al0+  Al56  1  0.49817115  -0.00001878  0.67336345  1
  Al0+  Al57  1  0.50040369  0.49840688  0.00387751  1
  Al0+  Al58  1  0.50096194  0.49834356  0.34074925  1
  Al0+  Al59  1  0.50150103  0.49948245  0.66486849  1
  Al0+  Al60  1  0.25131902  0.24851400  -0.00115765  1
  Al0+  Al61  1  0.25140252  0.24964101  0.32884966  1
  Al0+  Al62  1  0.25098244  0.24977556  0.66704723  1
  Al0+  Al63  1  0.24733182  0.75185902  -0.00010224  1
  Al0+  Al64  1  0.24875251  0.75184691  0.33968168  1
  Al0+  Al65  1  0.24975841  0.75253523  0.66216058  1
  Al0+  Al66  1  0.75245508  0.24933284  -0.00360276  1
  Al0+  Al67  1  0.75267233  0.25107881  0.32819837  1
  Al0+  Al68  1  0.75028693  0.25081952  0.66452634  1
  Al0+  Al69  1  0.74959965  0.75269995  0.00216023  1
  Al0+  Al70  1  0.74988521  0.75062919  0.33337916  1
  Al0+  Al71  1  0.75017153  0.75001930  0.67321262  1
  Al0+  Al72  1  0.57220831  0.17983248  0.98463313  1
  Al0+  Al73  1  0.92939427  0.32351051  0.31354158  1
  Al0+  Al74  1  0.57178109  0.67617334  0.98531385  1
  Al0+  Al75  1  0.42578868  0.81945995  0.98350632  1
  Al0+  Al76  1  0.67989799  0.42687789  0.35072708  1
  Al0+  Al77  1  0.31846719  0.07087046  0.68118245  1
  Al0+  Al78  1  0.07022071  0.67946595  0.65365204  1
  Al0+  Al79  1  0.57328120  0.67724693  0.65134360  1
  Al0+  Al80  1  0.17806285  0.93065500  0.34824119  1
  Al0+  Al81  1  0.67975321  0.42782096  0.01517870  1
  Al0+  Al82  1  0.07377438  0.17799926  0.65031417  1
  Al0+  Al83  1  0.92804947  0.32075919  0.65034845  1
  Al0+  Al84  1  0.67881710  0.93021487  0.68116384  1
  Al0+  Al85  1  0.82068495  0.56809351  0.68018527  1
  Al0+  Al86  1  0.42704772  0.81970235  0.31781880  1
  Al0+  Al87  1  0.82110044  0.57261819  0.35107493  1
  Al0+  Al88  1  0.57034452  0.17984370  0.32217850  1
  Al0+  Al89  1  0.82202336  0.57383223  0.01609465  1
  Al0+  Al90  1  0.07171993  0.17822340  0.98454027  1
  Al0+  Al91  1  0.07146330  0.17710931  0.31800985  1
  Al0+  Al92  1  0.43020364  0.82244069  0.65040423  1
  Al0+  Al93  1  0.31869449  0.57193664  0.01152582  1
  Al0+  Al94  1  0.57267405  0.67758898  0.31824033  1
  Al0+  Al95  1  0.32091874  0.57117203  0.34911696  1
  Si0+  Si96  1  0.92665446  0.82218705  0.65090162  1
  Si0+  Si97  1  0.93048540  0.32207008  0.98128269  1
  Si0+  Si98  1  0.17634604  0.92613851  0.68670419  1
  Si0+  Si99  1  0.32170726  0.07183821  0.01710887  1
  Si0+  Si100  1  0.56937666  0.17998313  0.65440595  1
  Si0+  Si101  1  0.92841839  0.82134452  0.31986179  1
  Si0+  Si102  1  0.32316804  0.07236249  0.34801286  1
  Si0+  Si103  1  0.42801317  0.32228692  0.65289479  1
  Si0+  Si104  1  0.17801809  0.42570002  0.01631065  1
  Si0+  Si105  1  0.17791042  0.93128248  0.01414298  1
  Si0+  Si106  1  0.67759469  0.93116466  0.34623542  1
  Si0+  Si107  1  0.07136019  0.67991992  0.31833259  1
  Si0+  Si108  1  0.82276620  0.07367435  0.68271671  1
  Si0+  Si109  1  0.82135383  0.07015114  0.34666040  1
  Si0+  Si110  1  0.82197335  0.06817739  0.01322719  1
  Si0+  Si111  1  0.67593078  0.42471214  0.68460175  1
  Si0+  Si112  1  0.18141564  0.43091573  0.67945318  1
  Si0+  Si113  1  0.06834940  0.67905220  0.98865760  1
  Si0+  Si114  1  0.32206712  0.57298919  0.68127314  1
  Si0+  Si115  1  0.67657945  0.93097573  0.01763357  1
  Si0+  Si116  1  0.92824545  0.82300180  0.98585858  1
  Si0+  Si117  1  0.17889993  0.42644614  0.34943152  1
  Si0+  Si118  1  0.42750935  0.32178859  0.98318698  1
  Si0+  Si119  1  0.42707145  0.32341976  0.31688610  1
  O2-  O120  1  0.24971896  0.00093953  0.05737968  1
  O2-  O121  1  0.25193495  0.00688878  0.39241353  1
  O2-  O122  1  0.24245344  -0.00225815  0.72993129  1
  O2-  O123  1  0.24520241  0.49606510  0.05969905  1
  O2-  O124  1  0.24648613  0.49534258  0.39550170  1
  O2-  O125  1  0.25060919  0.50263583  0.72414469  1
  O2-  O126  1  0.74766509  0.00258954  0.05952115  1
  O2-  O127  1  0.74617675  0.00413142  0.38972585  1
  O2-  O128  1  0.75474208  0.00485775  0.72820978  1
  O2-  O129  1  0.74639872  0.50519588  0.06451873  1
  O2-  O130  1  0.74840805  0.50173530  0.40139779  1
  O2-  O131  1  0.74319143  0.49608317  0.72628410  1
  O2-  O132  1  0.00312526  0.25113433  0.26632462  1
  O2-  O133  1  -0.00395676  0.24380231  0.60191248  1
  O2-  O134  1  0.00195524  0.25634626  0.93708511  1
  O2-  O135  1  -0.00297644  0.74809615  0.27690685  1
  O2-  O136  1  -0.00420589  0.75443411  0.60644304  1
  O2-  O137  1  -0.00846655  0.74367133  0.94633763  1
  O2-  O138  1  0.49896045  0.25698104  0.27439880  1
  O2-  O139  1  0.50242840  0.25404640  0.61192884  1
  O2-  O140  1  0.49777916  0.25478837  0.93824118  1
  O2-  O141  1  0.49555462  0.74447215  0.26872909  1
  O2-  O142  1  0.49948955  0.74772055  0.60183115  1
  O2-  O143  1  0.49862996  0.74753193  0.93553947  1
  O2-  O144  1  0.06830018  0.17598187  0.09721256  1
  O2-  O145  1  0.06850815  0.17670191  0.43116866  1
  O2-  O146  1  0.07402859  0.18333840  0.76425461  1
  O2-  O147  1  0.07164358  0.68322425  0.09355049  1
  O2-  O148  1  0.07220007  0.68127290  0.42333225  1
  O2-  O149  1  0.07014086  0.67967671  0.76763806  1
  O2-  O150  1  0.57002068  0.17846494  0.09760416  1
  O2-  O151  1  0.56722161  0.17623282  0.43570035  1
  O2-  O152  1  0.56855302  0.18065776  0.75950187  1
  O2-  O153  1  0.57040890  0.67820733  0.09864280  1
  O2-  O154  1  0.57484112  0.68373730  0.43158615  1
  O2-  O155  1  0.57152852  0.67624126  0.76504894  1
  O2-  O156  1  0.18133404  0.42797551  0.24354722  1
  O2-  O157  1  0.18480928  0.43130920  0.57468471  1
  O2-  O158  1  0.17820923  0.42690257  0.91017068  1
  O2-  O159  1  0.17595274  0.93102577  0.23443196  1
  O2-  O160  1  0.17639106  0.92513296  0.58150143  1
  O2-  O161  1  0.17583615  0.93060915  0.90941435  1
  O2-  O162  1  0.68266259  0.42522795  0.23737272  1
  O2-  O163  1  0.67519120  0.41964835  0.57985139  1
  O2-  O164  1  0.68372651  0.42578357  0.90129339  1
  O2-  O165  1  0.68061620  0.93275521  0.24100721  1
  O2-  O166  1  0.67942807  0.93373133  0.56748666  1
  O2-  O167  1  0.67869189  0.93119430  0.91252799  1
  O2-  O168  1  0.42291896  0.31870344  0.08825436  1
  O2-  O169  1  0.42344958  0.31969513  0.42278408  1
  O2-  O170  1  0.42574140  0.32251677  0.75793253  1
  O2-  O171  1  0.42443366  0.81875434  0.09686133  1
  O2-  O172  1  0.43072698  0.82293024  0.43099445  1
  O2-  O173  1  0.43099351  0.82019700  0.76402300  1
  O2-  O174  1  0.93143514  0.31994382  0.08638712  1
  O2-  O175  1  0.92989057  0.32041275  0.42703350  1
  O2-  O176  1  0.93137048  0.32120512  0.76441992  1
  O2-  O177  1  0.93223446  0.83044600  0.09072541  1
  O2-  O178  1  0.92857442  0.82430996  0.42452713  1
  O2-  O179  1  0.92819193  0.82208027  0.75702211  1
  O2-  O180  1  0.32455357  0.07109144  0.24228556  1
  O2-  O181  1  0.31992919  0.07164796  0.56819603  1
  O2-  O182  1  0.32073135  0.07337441  0.91207342  1
  O2-  O183  1  0.31795135  0.57155037  0.23562319  1
  O2-  O184  1  0.32087834  0.57063126  0.57644333  1
  O2-  O185  1  0.31447618  0.57056942  0.89798505  1
  O2-  O186  1  0.82283823  0.06554639  0.24117506  1
  O2-  O187  1  0.81980964  0.07264752  0.57695023  1
  O2-  O188  1  0.82193715  0.06345096  0.90831761  1
  O2-  O189  1  0.81965911  0.57328123  0.23771073  1
  O2-  O190  1  0.82210886  0.56745326  0.56772219  1
  O2-  O191  1  0.82641232  0.56975538  0.90250061  1
  O2-  O192  1  0.03881248  0.07874401  0.26662751  1
  O2-  O193  1  0.05331851  0.07536874  0.60414221  1
  O2-  O194  1  0.03769079  0.08347093  0.92864232  1
  O2-  O195  1  0.04922230  0.58761380  0.27002206  1
  O2-  O196  1  0.04216142  0.58392757  0.59766929  1
  O2-  O197  1  0.04763916  0.58458167  0.94285274  1
  O2-  O198  1  0.53771979  0.08589672  0.26367836  1
  O2-  O199  1  0.53757961  0.08931376  0.60837794  1
  O2-  O200  1  0.53867001  0.08446989  0.93017015  1
  O2-  O201  1  0.54745759  0.57577787  0.27262350  1
  O2-  O202  1  0.54767843  0.57765567  0.59945477  1
  O2-  O203  1  0.54569481  0.57631453  0.93473703  1
  O2-  O204  1  0.17142782  0.20176672  0.26566089  1
  O2-  O205  1  0.17052922  0.21142831  0.59803316  1
  O2-  O206  1  0.17049747  0.20540465  0.93335154  1
  O2-  O207  1  0.16105768  0.71345373  0.27073409  1
  O2-  O208  1  0.16562876  0.71089334  0.59820721  1
  O2-  O209  1  0.15652860  0.71284761  0.93787466  1
  O2-  O210  1  0.66770526  0.20510526  0.26735797  1
  O2-  O211  1  0.66240476  0.20205208  0.60704795  1
  O2-  O212  1  0.66975991  0.20653641  0.92998970  1
  O2-  O213  1  0.66926017  0.71190329  0.26479614  1
  O2-  O214  1  0.67179696  0.71004559  0.60223561  1
  O2-  O215  1  0.67088600  0.70857652  0.93489869  1
  O2-  O216  1  0.08470922  0.44926457  0.06271288  1
  O2-  O217  1  0.08496833  0.45215571  0.39345664  1
  O2-  O218  1  0.08980675  0.45851446  0.72706248  1
  O2-  O219  1  0.08597532  0.96060270  0.06145344  1
  O2-  O220  1  0.08141415  0.95835381  0.40458307  1
  O2-  O221  1  0.08065734  0.94642645  0.73213430  1
  O2-  O222  1  0.57851974  0.44566202  0.06664863  1
  O2-  O223  1  0.57894484  0.44472456  0.40267926  1
  O2-  O224  1  0.58083525  0.44734912  0.73007584  1
  O2-  O225  1  0.58467131  0.96085818  0.06307632  1
  O2-  O226  1  0.58547261  0.95978087  0.39207693  1
  O2-  O227  1  0.58515914  0.96420521  0.73823054  1
  O2-  O228  1  0.20563835  0.33252581  0.06222742  1
  O2-  O229  1  0.20535781  0.33246716  0.39455747  1
  O2-  O230  1  0.21102275  0.34039986  0.72870110  1
  O2-  O231  1  0.20311395  0.83917398  0.06266152  1
  O2-  O232  1  0.20727949  0.83533868  0.40477430  1
  O2-  O233  1  0.20488919  0.83304159  0.73357025  1
  O2-  O234  1  0.71303355  0.32879049  0.06593094  1
  O2-  O235  1  0.71207896  0.32752351  0.40181257  1
  O2-  O236  1  0.70361828  0.33144431  0.73187205  1
  O2-  O237  1  0.70602089  0.84035714  0.06585156  1
  O2-  O238  1  0.70913331  0.84145951  0.39436200  1
  O2-  O239  1  0.71163739  0.83603132  0.73892531  1
  O2-  O240  1  0.44973520  0.41821370  0.27356600  1
  O2-  O241  1  0.45190563  0.41426829  0.60443811  1
  O2-  O242  1  0.45111318  0.41553400  0.93692960  1
  O2-  O243  1  0.45665069  0.91677047  0.26276095  1
  O2-  O244  1  0.46119644  0.92159227  0.60058285  1
  O2-  O245  1  0.45429041  0.91863037  0.93284905  1
  O2-  O246  1  0.95852847  0.42143347  0.26016428  1
  O2-  O247  1  0.96315561  0.41530209  0.59560963  1
  O2-  O248  1  0.95538197  0.41694796  0.93697646  1
  O2-  O249  1  0.95938191  0.91125011  0.26997219  1
  O2-  O250  1  0.94962876  0.91648396  0.60491250  1
  O2-  O251  1  0.96388318  0.90898749  0.93241206  1
  O2-  O252  1  0.33587529  0.29655311  0.26658339  1
  O2-  O253  1  0.33894244  0.29080902  0.60322221  1
  O2-  O254  1  0.33508408  0.29418659  0.93461140  1
  O2-  O255  1  0.32619395  0.79384111  0.26872616  1
  O2-  O256  1  0.33005414  0.79951524  0.59988031  1
  O2-  O257  1  0.32626418  0.79295545  0.93099798  1
  O2-  O258  1  0.83379244  0.28995988  0.25896253  1
  O2-  O259  1  0.82865994  0.29491372  0.59774378  1
  O2-  O260  1  0.83901375  0.29269672  0.93381840  1
  O2-  O261  1  0.83687747  0.79719200  0.27000281  1
  O2-  O262  1  0.83286254  0.79787610  0.60637860  1
  O2-  O263  1  0.83398187  0.80404074  0.94038868  1
  O2-  O264  1  0.41382594  0.04352111  0.06350139  1
  O2-  O265  1  0.41578007  0.04331990  0.39499457  1
  O2-  O266  1  0.41367196  0.04044759  0.73867392  1
  O2-  O267  1  0.41418130  0.54069239  0.06637773  1
  O2-  O268  1  0.41583678  0.54017488  0.40558975  1
  O2-  O269  1  0.41357328  0.54297815  0.72797624  1
  O2-  O270  1  0.91214984  0.03451922  0.06085301  1
  O2-  O271  1  0.90956084  0.03715473  0.39710347  1
  O2-  O272  1  0.91724623  0.04858459  0.72781133  1
  O2-  O273  1  0.92028982  0.54362903  0.07010709  1
  O2-  O274  1  0.92263818  0.54483993  0.39855636  1
  O2-  O275  1  0.91866542  0.53556715  0.73252814  1
  O2-  O276  1  0.29555180  0.16405278  0.06458396  1
  O2-  O277  1  0.30206219  0.16786939  0.39240893  1
  O2-  O278  1  0.28973887  0.16826633  0.73695929  1
  O2-  O279  1  0.28260789  0.66679235  0.06636453  1
  O2-  O280  1  0.28610705  0.66560674  0.40407796  1
  O2-  O281  1  0.29266173  0.66512369  0.72648597  1
  O2-  O282  1  0.79970103  0.16211214  0.05788889  1
  O2-  O283  1  0.79790687  0.16343013  0.39110538  1
  O2-  O284  1  0.79690143  0.16708364  0.72893046  1
  O2-  O285  1  0.80293158  0.67634482  0.06519422  1
  O2-  O286  1  0.79612917  0.67351049  0.40220505  1
  O2-  O287  1  0.79653215  0.66631523  0.73475071  1
