# generated using pymatgen
data_Ca2Al2SiO7
_symmetry_space_group_name_H-M   'P 1'
_cell_length_a   15.46725771
_cell_length_b   15.47036786
_cell_length_c   15.29263451
_cell_angle_alpha   90.00906262
_cell_angle_beta   90.01827290
_cell_angle_gamma   89.98561332
_symmetry_Int_Tables_number   1
_chemical_formula_structural   Ca2Al2SiO7
_chemical_formula_sum   'Ca48 Al48 Si24 O168'
_cell_volume   3659.28495397
_cell_formula_units_Z   24
loop_
 _symmetry_equiv_pos_site_id
 _symmetry_equiv_pos_as_xyz
  1  'x, y, z'
loop_
 _atom_type_symbol
 _atom_type_oxidation_number
  Ca2+  2.0
  Al0+  0.0
  Si0+  0.0
  O2-  -2.0
loop_
 _atom_site_type_symbol
 _atom_site_label
 _atom_site_symmetry_multiplicity
 _atom_site_fract_x
 _atom_site_fract_y
 _atom_site_fract_z
 _atom_site_occupancy
  Ca2+  Ca0  1  0.17104222  0.08275484  0.17030493  1
  Ca2+  Ca1  1  0.17313027  0.08844802  0.50404282  1
  Ca2+  Ca2  1  0.16211608  0.08397176  0.84170974  1
  Ca2+  Ca3  1  0.17122412  0.57016434  0.17107082  1
  Ca2+  Ca4  1  0.17127055  0.57051850  0.50410772  1
  Ca2+  Ca5  1  0.17002814  0.56740714  0.83756335  1
  Ca2+  Ca6  1  0.65925257  0.08330110  0.16925251  1
  Ca2+  Ca7  1  0.65851488  0.07538770  0.51010390  1
  Ca2+  Ca8  1  0.65458447  0.08060417  0.83553896  1
  Ca2+  Ca9  1  0.67033321  0.58429935  0.16618698  1
  Ca2+  Ca10  1  0.67292573  0.58283906  0.50823916  1
  Ca2+  Ca11  1  0.66774185  0.57268362  0.83651311  1
  Ca2+  Ca12  1  0.08046172  0.33691234  0.16170847  1
  Ca2+  Ca13  1  0.07374023  0.34422737  0.49889550  1
  Ca2+  Ca14  1  0.08424248  0.32812591  0.82459859  1
  Ca2+  Ca15  1  0.08348251  0.83241484  0.15971176  1
  Ca2+  Ca16  1  0.07971756  0.82853977  0.49768347  1
  Ca2+  Ca17  1  0.08283334  0.83213119  0.83113024  1
  Ca2+  Ca18  1  0.57098302  0.33270433  0.15379805  1
  Ca2+  Ca19  1  0.57302695  0.33982947  0.49675558  1
  Ca2+  Ca20  1  0.57926402  0.33278449  0.82307437  1
  Ca2+  Ca21  1  0.58014996  0.82177084  0.16615659  1
  Ca2+  Ca22  1  0.58647153  0.82280737  0.49583298  1
  Ca2+  Ca23  1  0.59190356  0.82078604  0.82803186  1
  Ca2+  Ca24  1  0.32341617  0.39961251  0.16873508  1
  Ca2+  Ca25  1  0.32410856  0.40104112  0.50255232  1
  Ca2+  Ca26  1  0.32661555  0.40146326  0.83504984  1
  Ca2+  Ca27  1  0.33332214  0.92224563  0.17509718  1
  Ca2+  Ca28  1  0.34496723  0.92369543  0.50092754  1
  Ca2+  Ca29  1  0.32631408  0.92132514  0.84183711  1
  Ca2+  Ca30  1  0.82740786  0.42416355  0.17159746  1
  Ca2+  Ca31  1  0.83103374  0.42369563  0.50849084  1
  Ca2+  Ca32  1  0.82407069  0.42003359  0.83578804  1
  Ca2+  Ca33  1  0.83221916  0.92275229  0.16958055  1
  Ca2+  Ca34  1  0.82574578  0.92208647  0.50828542  1
  Ca2+  Ca35  1  0.82748501  0.92066737  0.83348320  1
  Ca2+  Ca36  1  0.41700670  0.17290167  0.16394529  1
  Ca2+  Ca37  1  0.41898133  0.17471548  0.50007049  1
  Ca2+  Ca38  1  0.42511485  0.17835985  0.83212847  1
  Ca2+  Ca39  1  0.42838205  0.66531266  0.16307001  1
  Ca2+  Ca40  1  0.43316894  0.66883153  0.49251522  1
  Ca2+  Ca41  1  0.43050474  0.66306795  0.82964211  1
  Ca2+  Ca42  1  0.92274994  0.17769940  0.16149556  1
  Ca2+  Ca43  1  0.91921043  0.18409802  0.49993758  1
  Ca2+  Ca44  1  0.92820132  0.17555201  0.82593228  1
  Ca2+  Ca45  1  0.91197801  0.66241908  0.16376945  1
  Ca2+  Ca46  1  0.91270729  0.65986543  0.49564331  1
  Ca2+  Ca47  1  0.91002690  0.66113528  0.83053419  1
  Al0+  Al48  1  -0.00125252  -0.00110416  0.00144324  1
  Al0+  Al49  1  -0.00027790  -0.00051371  0.33544409  1
  Al0+  Al50  1  0.00039100  -0.00112898  0.66203860  1
  Al0+  Al51  1  0.00071879  0.50215071  0.00605215  1
  Al0+  Al52  1  -0.00066115  0.50029120  0.33492714  1
  Al0+  Al53  1  0.00372726  0.50133709  0.67149120  1
  Al0+  Al54  1  0.49755928  0.00004085  -0.00007486  1
  Al0+  Al55  1  0.49902232  -0.00180941  0.33497730  1
  Al0+  Al56  1  0.49814517  0.00039753  0.67302679  1
  Al0+  Al57  1  0.49832842  0.50189516  -0.00594535  1
  Al0+  Al58  1  0.49881838  0.49919762  0.32192333  1
  Al0+  Al59  1  0.49967939  0.50293456  0.65846476  1
  Al0+  Al60  1  0.25008010  0.24693584  -0.00195048  1
  Al0+  Al61  1  0.25034167  0.24505926  0.33994474  1
  Al0+  Al62  1  0.25244284  0.24615777  0.66599379  1
  Al0+  Al63  1  0.24723317  0.74977670  0.00397067  1
  Al0+  Al64  1  0.24858498  0.74926208  0.33169744  1
  Al0+  Al65  1  0.24904303  0.75104789  0.66650284  1
  Al0+  Al66  1  0.75058735  0.24867748  0.00075295  1
  Al0+  Al67  1  0.75248961  0.25051344  0.32929223  1
  Al0+  Al68  1  0.75297899  0.24866760  0.66232054  1
  Al0+  Al69  1  0.74967938  0.75311192  0.00024748  1
  Al0+  Al70  1  0.75166182  0.75123224  0.33174459  1
  Al0+  Al71  1  0.75077713  0.75362820  0.66939253  1
  Al0+  Al72  1  0.42859367  0.82201740  0.31909923  1
  Al0+  Al73  1  0.07220074  0.17707115  0.65031030  1
  Al0+  Al74  1  0.57174960  0.68151191  0.98327628  1
  Al0+  Al75  1  0.42767765  0.31837622  0.31854366  1
  Al0+  Al76  1  0.67853639  0.93230643  0.68134204  1
  Al0+  Al77  1  0.42885296  0.32136692  0.98450635  1
  Al0+  Al78  1  0.81777701  0.57042917  0.34714139  1
  Al0+  Al79  1  0.18149584  0.42912166  0.34738373  1
  Al0+  Al80  1  0.18351254  0.42838221  0.68048294  1
  Al0+  Al81  1  0.57262432  0.17731357  0.65230209  1
  Al0+  Al82  1  0.32052338  0.06752457  0.34963973  1
  Al0+  Al83  1  0.81898470  0.57178238  0.01589625  1
  Al0+  Al84  1  0.57380815  0.67858832  0.31618621  1
  Al0+  Al85  1  0.57238424  0.68095922  0.65273551  1
  Al0+  Al86  1  0.43089576  0.32189058  0.64981404  1
  Al0+  Al87  1  0.67605012  0.42652595  0.01425127  1
  Al0+  Al88  1  0.06868399  0.17975502  0.98926698  1
  Al0+  Al89  1  0.92994830  0.32344713  0.31731485  1
  Al0+  Al90  1  0.82186250  0.57170144  0.68116366  1
  Al0+  Al91  1  0.93087111  0.32464495  0.65294369  1
  Al0+  Al92  1  0.57317697  0.17779733  0.98601008  1
  Al0+  Al93  1  0.18201901  0.42703875  0.01327666  1
  Al0+  Al94  1  0.67677433  0.42757076  0.67789218  1
  Al0+  Al95  1  0.17704421  0.92825454  0.01429780  1
  Si0+  Si96  1  0.82356891  0.07297210  0.34886316  1
  Si0+  Si97  1  0.32379134  0.57411452  0.34884363  1
  Si0+  Si98  1  0.67823794  0.93096381  0.01669015  1
  Si0+  Si99  1  0.42546629  0.82175062  0.65291335  1
  Si0+  Si100  1  0.32168519  0.57403186  0.01621531  1
  Si0+  Si101  1  0.42533638  0.82127166  0.98385473  1
  Si0+  Si102  1  0.17558949  0.92527453  0.35271532  1
  Si0+  Si103  1  0.67569240  0.42644631  0.34704792  1
  Si0+  Si104  1  0.93028422  0.82238719  0.31786875  1
  Si0+  Si105  1  0.07085574  0.67859391  0.98489706  1
  Si0+  Si106  1  0.32179348  0.57634588  0.68153291  1
  Si0+  Si107  1  0.07012568  0.67857223  0.31792996  1
  Si0+  Si108  1  0.07246905  0.67970298  0.65213447  1
  Si0+  Si109  1  0.92855871  0.32547450  0.98389053  1
  Si0+  Si110  1  0.57290554  0.17717664  0.31893588  1
  Si0+  Si111  1  0.17705530  0.92809667  0.68182951  1
  Si0+  Si112  1  0.07054683  0.17681218  0.31719699  1
  Si0+  Si113  1  0.92952997  0.82040157  0.65121972  1
  Si0+  Si114  1  0.68149019  0.93179852  0.34721731  1
  Si0+  Si115  1  0.32028855  0.06926702  0.68608448  1
  Si0+  Si116  1  0.82491122  0.07170445  0.68284325  1
  Si0+  Si117  1  0.82271838  0.07026378  0.01498774  1
  Si0+  Si118  1  0.92927913  0.82141713  0.98443026  1
  Si0+  Si119  1  0.32059129  0.06912989  0.01857946  1
  O2-  O120  1  0.25234301  -0.00019695  0.06273650  1
  O2-  O121  1  0.24662922  -0.00922202  0.39702565  1
  O2-  O122  1  0.24587440  -0.00038011  0.72530147  1
  O2-  O123  1  0.25921319  0.49929256  0.06018488  1
  O2-  O124  1  0.26001598  0.50099090  0.39345604  1
  O2-  O125  1  0.26061451  0.50116842  0.72640826  1
  O2-  O126  1  0.74428503  0.00705963  0.05835186  1
  O2-  O127  1  0.74788682  0.00664502  0.39023389  1
  O2-  O128  1  0.74945965  0.01093258  0.72836043  1
  O2-  O129  1  0.74822303  0.49855547  0.06534001  1
  O2-  O130  1  0.74190982  0.49714446  0.39213607  1
  O2-  O131  1  0.75010285  0.49859265  0.72855113  1
  O2-  O132  1  0.00513754  0.24785806  0.27233637  1
  O2-  O133  1  0.00421971  0.25339401  0.60191645  1
  O2-  O134  1  -0.00136719  0.25739812  0.94100326  1
  O2-  O135  1  0.00169094  0.75254049  0.27554297  1
  O2-  O136  1  -0.00294722  0.74616063  0.60950631  1
  O2-  O137  1  -0.00222821  0.74794334  0.94271953  1
  O2-  O138  1  0.50843529  0.24888483  0.27418493  1
  O2-  O139  1  0.50850012  0.25478413  0.60037838  1
  O2-  O140  1  0.50945290  0.25723944  0.93682982  1
  O2-  O141  1  0.49646926  0.74712853  0.26832022  1
  O2-  O142  1  0.49479813  0.75443084  0.60863332  1
  O2-  O143  1  0.49415470  0.75473181  0.93765427  1
  O2-  O144  1  0.06638390  0.17869968  0.10245293  1
  O2-  O145  1  0.06657141  0.17330706  0.42227653  1
  O2-  O146  1  0.06889894  0.17428815  0.76420535  1
  O2-  O147  1  0.07140366  0.68045703  0.09006701  1
  O2-  O148  1  0.06907534  0.68015638  0.42331952  1
  O2-  O149  1  0.07557330  0.68338802  0.75710048  1
  O2-  O150  1  0.56754623  0.17303639  0.09984190  1
  O2-  O151  1  0.57213568  0.17457233  0.42411659  1
  O2-  O152  1  0.56569969  0.17415011  0.76521527  1
  O2-  O153  1  0.57296129  0.68572397  0.09614439  1
  O2-  O154  1  0.57692903  0.68279417  0.42970375  1
  O2-  O155  1  0.57268146  0.68291445  0.76577467  1
  O2-  O156  1  0.18085497  0.43044930  0.23408465  1
  O2-  O157  1  0.18176713  0.43244810  0.56736126  1
  O2-  O158  1  0.18091885  0.42859933  0.90032731  1
  O2-  O159  1  0.17146535  0.92764609  0.24735076  1
  O2-  O160  1  0.17648437  0.92536256  0.57703536  1
  O2-  O161  1  0.17717432  0.92868146  0.90089300  1
  O2-  O162  1  0.67869886  0.42515689  0.24167341  1
  O2-  O163  1  0.67628731  0.43150859  0.56403624  1
  O2-  O164  1  0.67812976  0.42664744  0.90080740  1
  O2-  O165  1  0.68385423  0.93243576  0.24178460  1
  O2-  O166  1  0.68170498  0.93049861  0.56770670  1
  O2-  O167  1  0.68105705  0.92906436  0.91185103  1
  O2-  O168  1  0.42533231  0.31411228  0.09819896  1
  O2-  O169  1  0.42731185  0.31616910  0.43120370  1
  O2-  O170  1  0.42808378  0.31791854  0.76291255  1
  O2-  O171  1  0.42690576  0.82081111  0.08925903  1
  O2-  O172  1  0.43437191  0.82276759  0.43284868  1
  O2-  O173  1  0.42140934  0.81910997  0.75842108  1
  O2-  O174  1  0.93014311  0.32353720  0.08988307  1
  O2-  O175  1  0.92981079  0.32397282  0.42998785  1
  O2-  O176  1  0.93323126  0.32327123  0.76669237  1
  O2-  O177  1  0.92997574  0.82386017  0.08977028  1
  O2-  O178  1  0.93028652  0.82384943  0.42295314  1
  O2-  O179  1  0.93216414  0.82424032  0.75624316  1
  O2-  O180  1  0.31804949  0.06654008  0.23656554  1
  O2-  O181  1  0.32212286  0.06637769  0.58099800  1
  O2-  O182  1  0.31991945  0.06661132  0.91303578  1
  O2-  O183  1  0.31869118  0.57847114  0.24352606  1
  O2-  O184  1  0.31530047  0.58450281  0.57653294  1
  O2-  O185  1  0.31593208  0.58125443  0.91098469  1
  O2-  O186  1  0.82623187  0.06903434  0.24358978  1
  O2-  O187  1  0.82830365  0.06436541  0.57722964  1
  O2-  O188  1  0.82864823  0.06396552  0.91069136  1
  O2-  O189  1  0.81800528  0.57159910  0.23445190  1
  O2-  O190  1  0.82027660  0.57272186  0.56734636  1
  O2-  O191  1  0.81844604  0.57259681  0.90285442  1
  O2-  O192  1  0.04202098  0.08327494  0.27092006  1
  O2-  O193  1  0.04211472  0.07923068  0.59620599  1
  O2-  O194  1  0.03502503  0.08323074  0.93587018  1
  O2-  O195  1  0.03883544  0.58915864  0.26924317  1
  O2-  O196  1  0.04863803  0.58761203  0.60483426  1
  O2-  O197  1  0.04429069  0.58663886  0.93754638  1
  O2-  O198  1  0.54363568  0.08429170  0.27306291  1
  O2-  O199  1  0.53542965  0.07954549  0.60091305  1
  O2-  O200  1  0.53802976  0.08038649  0.93324724  1
  O2-  O201  1  0.54843960  0.58079999  0.26111626  1
  O2-  O202  1  0.54307536  0.58702747  0.59393477  1
  O2-  O203  1  0.54202546  0.58537045  0.92880374  1
  O2-  O204  1  0.16594546  0.19852973  0.27505581  1
  O2-  O205  1  0.17248566  0.19948712  0.60107863  1
  O2-  O206  1  0.16594208  0.20395392  0.93495992  1
  O2-  O207  1  0.16202928  0.70365496  0.26959947  1
  O2-  O208  1  0.16084975  0.71404200  0.60157046  1
  O2-  O209  1  0.16104620  0.71010660  0.93660687  1
  O2-  O210  1  0.66872436  0.19514494  0.27381604  1
  O2-  O211  1  0.67589912  0.18874107  0.60409398  1
  O2-  O212  1  0.67655987  0.19125060  0.93783959  1
  O2-  O213  1  0.66947446  0.71656686  0.26279588  1
  O2-  O214  1  0.66770865  0.71839498  0.60006410  1
  O2-  O215  1  0.66664315  0.71999124  0.93101317  1
  O2-  O216  1  0.08692177  0.46185099  0.06811966  1
  O2-  O217  1  0.08667558  0.46675014  0.40035197  1
  O2-  O218  1  0.08936258  0.46304182  0.73629546  1
  O2-  O219  1  0.08052753  0.95843451  0.06918345  1
  O2-  O220  1  0.08216186  0.95269774  0.39962573  1
  O2-  O221  1  0.08423332  0.95397274  0.72844290  1
  O2-  O222  1  0.57603126  0.45620166  0.06363671  1
  O2-  O223  1  0.57950776  0.44988330  0.38821736  1
  O2-  O224  1  0.57756322  0.45865075  0.72849033  1
  O2-  O225  1  0.58461594  0.95429660  0.06282441  1
  O2-  O226  1  0.58905940  0.95492570  0.39459946  1
  O2-  O227  1  0.58146119  0.95698215  0.73757338  1
  O2-  O228  1  0.21027257  0.32942676  0.06700170  1
  O2-  O229  1  0.20785452  0.33151626  0.40081940  1
  O2-  O230  1  0.21173091  0.32991863  0.73208696  1
  O2-  O231  1  0.20435106  0.83134328  0.06969492  1
  O2-  O232  1  0.19622103  0.82955469  0.39668693  1
  O2-  O233  1  0.20538081  0.83677332  0.73071961  1
  O2-  O234  1  0.70218163  0.32663360  0.06702857  1
  O2-  O235  1  0.70250733  0.33239682  0.39184396  1
  O2-  O236  1  0.70306933  0.32687006  0.72779128  1
  O2-  O237  1  0.71338668  0.84290806  0.06619758  1
  O2-  O238  1  0.71538557  0.84215537  0.39458039  1
  O2-  O239  1  0.71704655  0.83947797  0.73742013  1
  O2-  O240  1  0.44812833  0.41649800  0.26324657  1
  O2-  O241  1  0.44845921  0.42249437  0.59642694  1
  O2-  O242  1  0.44236304  0.42348009  0.93468864  1
  O2-  O243  1  0.46118482  0.91848980  0.26401777  1
  O2-  O244  1  0.45224344  0.91578466  0.60995451  1
  O2-  O245  1  0.44897415  0.91568454  0.93913376  1
  O2-  O246  1  0.96279975  0.41915654  0.26335931  1
  O2-  O247  1  0.96250255  0.42300706  0.60040589  1
  O2-  O248  1  0.95369520  0.41994745  0.94102958  1
  O2-  O249  1  0.95769117  0.91428242  0.26935237  1
  O2-  O250  1  0.96127808  0.90908582  0.59978666  1
  O2-  O251  1  0.96067088  0.91087363  0.93497969  1
  O2-  O252  1  0.33194671  0.27927319  0.26757639  1
  O2-  O253  1  0.33515103  0.28310664  0.59784255  1
  O2-  O254  1  0.33398258  0.28241905  0.93086850  1
  O2-  O255  1  0.32649855  0.80143270  0.26998217  1
  O2-  O256  1  0.33194961  0.79873042  0.60450139  1
  O2-  O257  1  0.33039782  0.79639648  0.93962732  1
  O2-  O258  1  0.83442618  0.29042908  0.26162983  1
  O2-  O259  1  0.83388831  0.29555202  0.59698419  1
  O2-  O260  1  0.83550723  0.29716616  0.93941066  1
  O2-  O261  1  0.83949331  0.79544524  0.26857811  1
  O2-  O262  1  0.83753824  0.79671190  0.60295101  1
  O2-  O263  1  0.83708997  0.79701144  0.93673391  1
  O2-  O264  1  0.41359118  0.04270330  0.06595679  1
  O2-  O265  1  0.41703227  0.03551898  0.40452882  1
  O2-  O266  1  0.40889255  0.03793005  0.73720605  1
  O2-  O267  1  0.41795100  0.55624588  0.05812071  1
  O2-  O268  1  0.42067411  0.55319997  0.38909768  1
  O2-  O269  1  0.41849796  0.55736491  0.72187625  1
  O2-  O270  1  0.90891955  0.03227016  0.06741396  1
  O2-  O271  1  0.91205268  0.03823705  0.39827675  1
  O2-  O272  1  0.91492987  0.03473434  0.73037273  1
  O2-  O273  1  0.91904217  0.54820794  0.06859502  1
  O2-  O274  1  0.91529899  0.54101409  0.39985788  1
  O2-  O275  1  0.92183760  0.54835343  0.73343067  1
  O2-  O276  1  0.29190663  0.16125549  0.06466042  1
  O2-  O277  1  0.28788806  0.16096045  0.40784185  1
  O2-  O278  1  0.29333149  0.16031631  0.73397391  1
  O2-  O279  1  0.28913251  0.66388961  0.06668211  1
  O2-  O280  1  0.29369622  0.66600067  0.39699720  1
  O2-  O281  1  0.28919766  0.66655116  0.73186544  1
  O2-  O282  1  0.80449297  0.16417015  0.06181747  1
  O2-  O283  1  0.80141551  0.16674857  0.39393302  1
  O2-  O284  1  0.81097074  0.16817405  0.72506343  1
  O2-  O285  1  0.79166829  0.67249938  0.06696505  1
  O2-  O286  1  0.79264464  0.67022489  0.39909984  1
  O2-  O287  1  0.79651631  0.67189236  0.73185595  1
