# generated using pymatgen
data_Ca2Al2SiO7
_symmetry_space_group_name_H-M   'P 1'
_cell_length_a   15.46499783
_cell_length_b   15.46752452
_cell_length_c   15.28923399
_cell_angle_alpha   90.01027015
_cell_angle_beta   90.00997064
_cell_angle_gamma   89.98919704
_symmetry_Int_Tables_number   1
_chemical_formula_structural   Ca2Al2SiO7
_chemical_formula_sum   'Ca48 Al48 Si24 O168'
_cell_volume   3657.26460186
_cell_formula_units_Z   24
loop_
 _symmetry_equiv_pos_site_id
 _symmetry_equiv_pos_as_xyz
  1  'x, y, z'
loop_
 _atom_type_symbol
 _atom_type_oxidation_number
  Ca2+  2.0
  Al0+  0.0
  Si0+  0.0
  O2-  -2.0
loop_
 _atom_site_type_symbol
 _atom_site_label
 _atom_site_symmetry_multiplicity
 _atom_site_fract_x
 _atom_site_fract_y
 _atom_site_fract_z
 _atom_site_occupancy
  Ca2+  Ca0  1  0.16358730  0.07484349  0.17372629  1
  Ca2+  Ca1  1  0.16037931  0.07788000  0.50636706  1
  Ca2+  Ca2  1  0.16321688  0.07196250  0.83434500  1
  Ca2+  Ca3  1  0.17145664  0.57260159  0.17446439  1
  Ca2+  Ca4  1  0.16184840  0.57616466  0.50447933  1
  Ca2+  Ca5  1  0.16580697  0.58611307  0.83525014  1
  Ca2+  Ca6  1  0.67284947  0.08407519  0.17027669  1
  Ca2+  Ca7  1  0.67858209  0.08658965  0.50531035  1
  Ca2+  Ca8  1  0.67320507  0.08516893  0.84054245  1
  Ca2+  Ca9  1  0.66873108  0.57431166  0.17452384  1
  Ca2+  Ca10  1  0.66904546  0.57643629  0.50709061  1
  Ca2+  Ca11  1  0.66971324  0.58943600  0.83062444  1
  Ca2+  Ca12  1  0.07503676  0.32861295  0.16612151  1
  Ca2+  Ca13  1  0.07854080  0.32003338  0.48870444  1
  Ca2+  Ca14  1  0.07549499  0.32396736  0.82788827  1
  Ca2+  Ca15  1  0.08656418  0.83762631  0.16382983  1
  Ca2+  Ca16  1  0.07923152  0.83789796  0.50098873  1
  Ca2+  Ca17  1  0.07977736  0.83394699  0.82092545  1
  Ca2+  Ca18  1  0.57807902  0.33048339  0.16069375  1
  Ca2+  Ca19  1  0.58349465  0.32880872  0.49412760  1
  Ca2+  Ca20  1  0.58195696  0.32058664  0.83285432  1
  Ca2+  Ca21  1  0.58206459  0.84026207  0.15851907  1
  Ca2+  Ca22  1  0.58592950  0.83066582  0.49678532  1
  Ca2+  Ca23  1  0.57388346  0.83898258  0.82557784  1
  Ca2+  Ca24  1  0.33442216  0.41367839  0.17778608  1
  Ca2+  Ca25  1  0.32762937  0.40836636  0.50104317  1
  Ca2+  Ca26  1  0.33489641  0.41755343  0.83840282  1
  Ca2+  Ca27  1  0.32600143  0.91573213  0.16880204  1
  Ca2+  Ca28  1  0.32141033  0.91186524  0.50545551  1
  Ca2+  Ca29  1  0.32495134  0.90634781  0.83674104  1
  Ca2+  Ca30  1  0.83206759  0.41110723  0.17404347  1
  Ca2+  Ca31  1  0.83124495  0.41652850  0.50336851  1
  Ca2+  Ca32  1  0.83763037  0.42271194  0.83618794  1
  Ca2+  Ca33  1  0.82157042  0.93085211  0.17177589  1
  Ca2+  Ca34  1  0.83358302  0.92769325  0.50555272  1
  Ca2+  Ca35  1  0.83224019  0.92873193  0.83822892  1
  Ca2+  Ca36  1  0.42219116  0.17750484  0.15974895  1
  Ca2+  Ca37  1  0.42450469  0.16850621  0.49580824  1
  Ca2+  Ca38  1  0.43134296  0.16154416  0.83161166  1
  Ca2+  Ca39  1  0.42018321  0.67406251  0.16059291  1
  Ca2+  Ca40  1  0.41899259  0.67194382  0.50386953  1
  Ca2+  Ca41  1  0.42332772  0.67949235  0.82627870  1
  Ca2+  Ca42  1  0.91249710  0.16960850  0.16742865  1
  Ca2+  Ca43  1  0.92399392  0.16053803  0.49422776  1
  Ca2+  Ca44  1  0.91465253  0.16576821  0.82860670  1
  Ca2+  Ca45  1  0.91990537  0.66953373  0.16369880  1
  Ca2+  Ca46  1  0.91371982  0.67144831  0.50392556  1
  Ca2+  Ca47  1  0.92104644  0.67656748  0.81948394  1
  Al0+  Al48  1  -0.00084503  -0.00032876  0.00919754  1
  Al0+  Al49  1  -0.00045121  -0.00263536  0.33431076  1
  Al0+  Al50  1  -0.00082134  0.00022658  0.66872514  1
  Al0+  Al51  1  0.00153558  0.49963097  -0.00271772  1
  Al0+  Al52  1  0.00291658  0.50096065  0.33380671  1
  Al0+  Al53  1  -0.00158903  0.50009903  0.66914924  1
  Al0+  Al54  1  0.49676090  -0.00028893  -0.00553852  1
  Al0+  Al55  1  0.49888335  -0.00175681  0.33457220  1
  Al0+  Al56  1  0.49777645  0.00260734  0.65480779  1
  Al0+  Al57  1  0.50080104  0.50221749  -0.00371451  1
  Al0+  Al58  1  0.50200934  0.50282482  0.33516120  1
  Al0+  Al59  1  0.49714144  0.50065628  0.66628739  1
  Al0+  Al60  1  0.24742643  0.24995716  -0.00388593  1
  Al0+  Al61  1  0.25052528  0.24879248  0.32949319  1
  Al0+  Al62  1  0.24836668  0.24804460  0.66745313  1
  Al0+  Al63  1  0.25228177  0.74671675  0.00265123  1
  Al0+  Al64  1  0.25120919  0.74935535  0.33614970  1
  Al0+  Al65  1  0.24971284  0.74645771  0.66317511  1
  Al0+  Al66  1  0.75101648  0.25396244  -0.00447048  1
  Al0+  Al67  1  0.75106333  0.25075485  0.33888424  1
  Al0+  Al68  1  0.74744040  0.25117489  0.66825574  1
  Al0+  Al69  1  0.75310914  0.74963045  0.00425092  1
  Al0+  Al70  1  0.75064717  0.74923548  0.33301785  1
  Al0+  Al71  1  0.74903010  0.74892090  0.66310276  1
  Al0+  Al72  1  0.42922015  0.82025765  0.98752940  1
  Al0+  Al73  1  0.57124861  0.67846954  0.65056914  1
  Al0+  Al74  1  0.81932041  0.07087220  0.35011815  1
  Al0+  Al75  1  0.07079000  0.17520964  0.31682163  1
  Al0+  Al76  1  0.18150523  0.92901876  0.68014658  1
  Al0+  Al77  1  0.82002756  0.57087282  0.68079225  1
  Al0+  Al78  1  0.18058638  0.42765017  0.34678325  1
  Al0+  Al79  1  0.42639185  0.32413181  0.98481832  1
  Al0+  Al80  1  0.57066829  0.17941064  0.98647147  1
  Al0+  Al81  1  0.67661300  0.92866206  0.01119107  1
  Al0+  Al82  1  0.92904742  0.32222528  0.31998390  1
  Al0+  Al83  1  0.67932223  0.42987296  0.34619391  1
  Al0+  Al84  1  0.42811068  0.82221736  0.64885770  1
  Al0+  Al85  1  0.18057206  0.92864028  0.34853044  1
  Al0+  Al86  1  0.06926930  0.17930713  0.65478647  1
  Al0+  Al87  1  0.67640548  0.92726473  0.34918370  1
  Al0+  Al88  1  0.43090606  0.32165427  0.32199706  1
  Al0+  Al89  1  0.18078386  0.92774722  0.01352771  1
  Al0+  Al90  1  0.81993247  0.07512590  0.01607990  1
  Al0+  Al91  1  0.57205554  0.18015713  0.65058768  1
  Al0+  Al92  1  0.93019606  0.32181703  0.98506041  1
  Al0+  Al93  1  0.07115516  0.67683215  0.65109072  1
  Al0+  Al94  1  0.81996361  0.07110452  0.68166000  1
  Al0+  Al95  1  0.92862225  0.82257574  0.65207501  1
  Si0+  Si96  1  0.32015777  0.56922917  0.68381756  1
  Si0+  Si97  1  0.67499319  0.42907608  0.68646180  1
  Si0+  Si98  1  0.17814253  0.42869828  0.01411126  1
  Si0+  Si99  1  0.57253022  0.17767617  0.31737961  1
  Si0+  Si100  1  0.92852686  0.81950349  0.31575067  1
  Si0+  Si101  1  0.67555471  0.92866171  0.68039157  1
  Si0+  Si102  1  0.32230969  0.07269331  0.34947059  1
  Si0+  Si103  1  0.32169211  0.56839796  0.01533775  1
  Si0+  Si104  1  0.07316809  0.67951576  0.31690421  1
  Si0+  Si105  1  0.57525861  0.67886217  0.98447605  1
  Si0+  Si106  1  0.32292367  0.07377522  0.68386477  1
  Si0+  Si107  1  0.82434025  0.57121038  0.01580743  1
  Si0+  Si108  1  0.42822934  0.81963378  0.31672292  1
  Si0+  Si109  1  0.32154054  0.07400448  0.01579588  1
  Si0+  Si110  1  0.57247697  0.67999715  0.31676622  1
  Si0+  Si111  1  0.93030496  0.82085629  0.98735667  1
  Si0+  Si112  1  0.67948206  0.43262361  0.01342388  1
  Si0+  Si113  1  0.92746938  0.32250891  0.65107703  1
  Si0+  Si114  1  0.82441356  0.57258445  0.34932462  1
  Si0+  Si115  1  0.07079494  0.17487094  0.98289408  1
  Si0+  Si116  1  0.07113157  0.67945385  0.98702643  1
  Si0+  Si117  1  0.17832872  0.42666187  0.68337429  1
  Si0+  Si118  1  0.32285560  0.57181226  0.35191649  1
  Si0+  Si119  1  0.42701014  0.32168704  0.65093856  1
  O2-  O120  1  0.25297145  0.00498694  0.06030545  1
  O2-  O121  1  0.25178274  0.00635942  0.39436435  1
  O2-  O122  1  0.25812727  0.00113293  0.72807313  1
  O2-  O123  1  0.25600339  0.49232047  0.05714618  1
  O2-  O124  1  0.25751938  0.49958542  0.39523021  1
  O2-  O125  1  0.24864029  0.49846338  0.72634602  1
  O2-  O126  1  0.74403721  0.00445589  0.06228147  1
  O2-  O127  1  0.74563173  0.00041256  0.40003925  1
  O2-  O128  1  0.74363205  -0.00334651  0.72641255  1
  O2-  O129  1  0.75181114  0.50193156  0.05721626  1
  O2-  O130  1  0.75818862  0.50095189  0.39156770  1
  O2-  O131  1  0.74465196  0.49771283  0.72992460  1
  O2-  O132  1  -0.00107919  0.24872965  0.26851553  1
  O2-  O133  1  -0.00593612  0.25264587  0.60729669  1
  O2-  O134  1  0.00074803  0.24290513  0.93945824  1
  O2-  O135  1  0.00192424  0.74961283  0.27354999  1
  O2-  O136  1  0.00071553  0.75001879  0.60126633  1
  O2-  O137  1  0.00389734  0.75290437  0.94458702  1
  O2-  O138  1  0.50491630  0.24778690  0.27340157  1
  O2-  O139  1  0.49672298  0.25545333  0.60610257  1
  O2-  O140  1  0.49563940  0.24948806  0.93621175  1
  O2-  O141  1  0.50441111  0.75378780  0.27432980  1
  O2-  O142  1  0.50441464  0.75435467  0.59895045  1
  O2-  O143  1  0.51162424  0.75295897  0.94244492  1
  O2-  O144  1  0.07356301  0.17688571  0.08813079  1
  O2-  O145  1  0.07032939  0.17662629  0.43053566  1
  O2-  O146  1  0.06997257  0.18152119  0.76812249  1
  O2-  O147  1  0.06961481  0.67711297  0.09240908  1
  O2-  O148  1  0.07363865  0.67850818  0.42120568  1
  O2-  O149  1  0.07039562  0.67781869  0.76557210  1
  O2-  O150  1  0.57030693  0.18311444  0.10030291  1
  O2-  O151  1  0.57036652  0.17943855  0.42290675  1
  O2-  O152  1  0.57202148  0.18069782  0.76360933  1
  O2-  O153  1  0.57217270  0.67407628  0.09027323  1
  O2-  O154  1  0.57158731  0.67826898  0.42119249  1
  O2-  O155  1  0.56788300  0.67781770  0.76455494  1
  O2-  O156  1  0.18145617  0.43215156  0.23313387  1
  O2-  O157  1  0.18042749  0.42619108  0.57845951  1
  O2-  O158  1  0.17598560  0.43387308  0.90902521  1
  O2-  O159  1  0.18489836  0.92558000  0.23503153  1
  O2-  O160  1  0.18158342  0.93096818  0.56727851  1
  O2-  O161  1  0.18047467  0.92519477  0.90070590  1
  O2-  O162  1  0.67697477  0.43370160  0.23254263  1
  O2-  O163  1  0.67467245  0.42943817  0.58080110  1
  O2-  O164  1  0.67889630  0.43560534  0.90862802  1
  O2-  O165  1  0.67725039  0.92795200  0.23539057  1
  O2-  O166  1  0.67822481  0.93065113  0.57494512  1
  O2-  O167  1  0.68053580  0.92557013  0.89778270  1
  O2-  O168  1  0.43002939  0.32639617  0.09844361  1
  O2-  O169  1  0.43183515  0.32021173  0.43505726  1
  O2-  O170  1  0.42736730  0.32177511  0.75647440  1
  O2-  O171  1  0.42575436  0.81442482  0.10085762  1
  O2-  O172  1  0.42485653  0.81535461  0.42102945  1
  O2-  O173  1  0.42733127  0.81837776  0.76282368  1
  O2-  O174  1  0.93322502  0.32774391  0.09747268  1
  O2-  O175  1  0.93194925  0.32539847  0.43322831  1
  O2-  O176  1  0.93083907  0.32351782  0.75712444  1
  O2-  O177  1  0.93041810  0.81619680  0.09262439  1
  O2-  O178  1  0.92773818  0.81772161  0.42035217  1
  O2-  O179  1  0.93102526  0.82193248  0.76653500  1
  O2-  O180  1  0.32423720  0.06963360  0.24366071  1
  O2-  O181  1  0.31970153  0.07805162  0.57848025  1
  O2-  O182  1  0.32042801  0.07420340  0.91040565  1
  O2-  O183  1  0.32099146  0.57361147  0.24564617  1
  O2-  O184  1  0.32177131  0.56718096  0.57895013  1
  O2-  O185  1  0.31886270  0.57081141  0.91049535  1
  O2-  O186  1  0.81729690  0.07080099  0.23643040  1
  O2-  O187  1  0.82062556  0.07131564  0.56908057  1
  O2-  O188  1  0.82204223  0.07158978  0.90240409  1
  O2-  O189  1  0.82231581  0.57484935  0.24299167  1
  O2-  O190  1  0.82055930  0.56619201  0.56779618  1
  O2-  O191  1  0.82544825  0.57232328  0.91116718  1
  O2-  O192  1  0.04229392  0.07636669  0.26450853  1
  O2-  O193  1  0.03941378  0.08330403  0.60144584  1
  O2-  O194  1  0.04479413  0.08009561  0.93964708  1
  O2-  O195  1  0.04588194  0.58814298  0.26751668  1
  O2-  O196  1  0.04064422  0.57825925  0.59945837  1
  O2-  O197  1  0.04170120  0.58941312  0.93763059  1
  O2-  O198  1  0.54537943  0.08380818  0.27245335  1
  O2-  O199  1  0.54185139  0.08632259  0.59223670  1
  O2-  O200  1  0.54306702  0.08182506  0.93124800  1
  O2-  O201  1  0.54073325  0.59003056  0.26733371  1
  O2-  O202  1  0.53643392  0.58118496  0.59796519  1
  O2-  O203  1  0.54427563  0.58865168  0.93513607  1
  O2-  O204  1  0.16957144  0.20307100  0.26430264  1
  O2-  O205  1  0.16591694  0.21011908  0.60090372  1
  O2-  O206  1  0.16353155  0.20100263  0.93514531  1
  O2-  O207  1  0.16536559  0.70773948  0.26932094  1
  O2-  O208  1  0.17021070  0.69845244  0.59843665  1
  O2-  O209  1  0.16465094  0.70277309  0.94167454  1
  O2-  O210  1  0.66639584  0.20396019  0.27396457  1
  O2-  O211  1  0.66730029  0.21456122  0.59643978  1
  O2-  O212  1  0.66671012  0.21265517  0.93184267  1
  O2-  O213  1  0.66570983  0.70229748  0.26878701  1
  O2-  O214  1  0.67060168  0.69893759  0.59743859  1
  O2-  O215  1  0.67178397  0.69788145  0.94201373  1
  O2-  O216  1  0.08997837  0.46540540  0.06328446  1
  O2-  O217  1  0.08592963  0.46277033  0.40151752  1
  O2-  O218  1  0.08667692  0.45460242  0.73085412  1
  O2-  O219  1  0.08448462  0.95538270  0.06973754  1
  O2-  O220  1  0.08192891  0.95331653  0.39939671  1
  O2-  O221  1  0.08569535  0.96158089  0.73463692  1
  O2-  O222  1  0.58790152  0.46261762  0.06126063  1
  O2-  O223  1  0.58531992  0.46556313  0.40247898  1
  O2-  O224  1  0.58116817  0.45590364  0.73159029  1
  O2-  O225  1  0.57456557  0.94988086  0.06022597  1
  O2-  O226  1  0.57523931  0.94800752  0.39934995  1
  O2-  O227  1  0.57966233  0.95500099  0.72144509  1
  O2-  O228  1  0.19654510  0.33375897  0.05838127  1
  O2-  O229  1  0.21007893  0.33044756  0.39974504  1
  O2-  O230  1  0.20750887  0.33592262  0.73260259  1
  O2-  O231  1  0.21361322  0.83100300  0.06794297  1
  O2-  O232  1  0.21428518  0.83263400  0.40186775  1
  O2-  O233  1  0.20980678  0.82953882  0.73092424  1
  O2-  O234  1  0.70614191  0.34093017  0.06007533  1
  O2-  O235  1  0.70566354  0.33408871  0.40259009  1
  O2-  O236  1  0.70184979  0.33629434  0.73288735  1
  O2-  O237  1  0.70808726  0.83093439  0.06687069  1
  O2-  O238  1  0.70625608  0.82780991  0.39889333  1
  O2-  O239  1  0.69704720  0.83314659  0.72360999  1
  O2-  O240  1  0.45943557  0.42043667  0.26995659  1
  O2-  O241  1  0.44861248  0.41624419  0.60592606  1
  O2-  O242  1  0.45718016  0.42191906  0.93098802  1
  O2-  O243  1  0.45011625  0.91351025  0.27055924  1
  O2-  O244  1  0.44655974  0.92160195  0.59524635  1
  O2-  O245  1  0.44775355  0.91793953  0.93163321  1
  O2-  O246  1  0.95847858  0.42147453  0.26683090  1
  O2-  O247  1  0.95409882  0.41553191  0.60605266  1
  O2-  O248  1  0.96627905  0.41694476  0.92912172  1
  O2-  O249  1  0.95663970  0.91036827  0.26786196  1
  O2-  O250  1  0.96005126  0.91904454  0.59848880  1
  O2-  O251  1  0.95596204  0.91415213  0.94318159  1
  O2-  O252  1  0.33491722  0.29250207  0.26608945  1
  O2-  O253  1  0.33349444  0.29424678  0.60589881  1
  O2-  O254  1  0.32554692  0.30202709  0.93396097  1
  O2-  O255  1  0.33850110  0.78493173  0.26824777  1
  O2-  O256  1  0.33300806  0.78412595  0.59584228  1
  O2-  O257  1  0.33588694  0.77861156  0.93328695  1
  O2-  O258  1  0.82889640  0.29569876  0.26870055  1
  O2-  O259  1  0.83179282  0.30163987  0.60905536  1
  O2-  O260  1  0.83262597  0.29959602  0.92992120  1
  O2-  O261  1  0.83816631  0.78785001  0.26679359  1
  O2-  O262  1  0.83125809  0.79331394  0.59859091  1
  O2-  O263  1  0.83979703  0.78974038  0.93979689  1
  O2-  O264  1  0.41489501  0.04852541  0.06187323  1
  O2-  O265  1  0.41496913  0.04554146  0.39657187  1
  O2-  O266  1  0.41891623  0.05043184  0.72559662  1
  O2-  O267  1  0.41579479  0.54677746  0.06183961  1
  O2-  O268  1  0.41746882  0.55115216  0.39671388  1
  O2-  O269  1  0.41111759  0.54113206  0.73366035  1
  O2-  O270  1  0.91620941  0.04344426  0.07132559  1
  O2-  O271  1  0.91714260  0.03736810  0.40045491  1
  O2-  O272  1  0.91540385  0.03898476  0.73707670  1
  O2-  O273  1  0.91602510  0.54190377  0.06325841  1
  O2-  O274  1  0.91933261  0.55235606  0.39362647  1
  O2-  O275  1  0.91623329  0.53994164  0.73755317  1
  O2-  O276  1  0.29626756  0.16858157  0.06135867  1
  O2-  O277  1  0.30035588  0.16710720  0.39459811  1
  O2-  O278  1  0.29402529  0.16536139  0.73306610  1
  O2-  O279  1  0.28891182  0.65657125  0.06729522  1
  O2-  O280  1  0.29192393  0.66278717  0.39917218  1
  O2-  O281  1  0.29142761  0.66026159  0.73207538  1
  O2-  O282  1  0.79394106  0.17573727  0.06575847  1
  O2-  O283  1  0.79549952  0.16959388  0.40395557  1
  O2-  O284  1  0.78979273  0.16908536  0.73409251  1
  O2-  O285  1  0.79888750  0.66238528  0.06607144  1
  O2-  O286  1  0.79483066  0.66431449  0.39576436  1
  O2-  O287  1  0.79026252  0.66836281  0.73503949  1
