# generated using pymatgen
data_Ca2Al2SiO7
_symmetry_space_group_name_H-M   'P 1'
_cell_length_a   15.45754519
_cell_length_b   15.45830102
_cell_length_c   15.28379331
_cell_angle_alpha   90.00118931
_cell_angle_beta   90.00415369
_cell_angle_gamma   90.00785046
_symmetry_Int_Tables_number   1
_chemical_formula_structural   Ca2Al2SiO7
_chemical_formula_sum   'Ca48 Al48 Si24 O168'
_cell_volume   3652.02242491
_cell_formula_units_Z   24
loop_
 _symmetry_equiv_pos_site_id
 _symmetry_equiv_pos_as_xyz
  1  'x, y, z'
loop_
 _atom_type_symbol
 _atom_type_oxidation_number
  Ca2+  2.0
  Al0+  0.0
  Si0+  0.0
  O2-  -2.0
loop_
 _atom_site_type_symbol
 _atom_site_label
 _atom_site_symmetry_multiplicity
 _atom_site_fract_x
 _atom_site_fract_y
 _atom_site_fract_z
 _atom_site_occupancy
  Ca2+  Ca0  1  0.17293777  0.07589101  0.17156504  1
  Ca2+  Ca1  1  0.17266094  0.07773901  0.49761387  1
  Ca2+  Ca2  1  0.17379868  0.07694340  0.84675694  1
  Ca2+  Ca3  1  0.17110918  0.58177894  0.17603196  1
  Ca2+  Ca4  1  0.17737313  0.58265166  0.50293120  1
  Ca2+  Ca5  1  0.16809419  0.59328213  0.83359438  1
  Ca2+  Ca6  1  0.66948450  0.07688388  0.17267712  1
  Ca2+  Ca7  1  0.67068020  0.09238385  0.49847160  1
  Ca2+  Ca8  1  0.66977710  0.07444885  0.84182920  1
  Ca2+  Ca9  1  0.66912635  0.57640435  0.17732514  1
  Ca2+  Ca10  1  0.65924076  0.57605614  0.50303351  1
  Ca2+  Ca11  1  0.65820672  0.57311557  0.83632096  1
  Ca2+  Ca12  1  0.08599116  0.32859333  0.16076368  1
  Ca2+  Ca13  1  0.07706919  0.33990802  0.49423805  1
  Ca2+  Ca14  1  0.07781666  0.32574490  0.82802711  1
  Ca2+  Ca15  1  0.08151284  0.83356069  0.15700714  1
  Ca2+  Ca16  1  0.08748698  0.82863137  0.49722689  1
  Ca2+  Ca17  1  0.08444626  0.82710056  0.83490300  1
  Ca2+  Ca18  1  0.58302934  0.33358707  0.17000163  1
  Ca2+  Ca19  1  0.58050981  0.33469725  0.48766260  1
  Ca2+  Ca20  1  0.58851611  0.33456949  0.83026084  1
  Ca2+  Ca21  1  0.58014490  0.82841602  0.15964112  1
  Ca2+  Ca22  1  0.57679079  0.82030702  0.49477166  1
  Ca2+  Ca23  1  0.57335212  0.83308345  0.82723323  1
  Ca2+  Ca24  1  0.32674747  0.42124436  0.17921636  1
  Ca2+  Ca25  1  0.33896621  0.42705352  0.49784062  1
  Ca2+  Ca26  1  0.33563006  0.42925841  0.83593585  1
  Ca2+  Ca27  1  0.32577416  0.92151069  0.16920181  1
  Ca2+  Ca28  1  0.33458931  0.91655748  0.49999498  1
  Ca2+  Ca29  1  0.33331238  0.91797184  0.84475653  1
  Ca2+  Ca30  1  0.82404369  0.42375592  0.17450322  1
  Ca2+  Ca31  1  0.82314975  0.42008992  0.50327480  1
  Ca2+  Ca32  1  0.82565914  0.41480856  0.83524298  1
  Ca2+  Ca33  1  0.83129787  0.91657383  0.17068059  1
  Ca2+  Ca34  1  0.83209974  0.92398876  0.49884172  1
  Ca2+  Ca35  1  0.82683504  0.91046361  0.84161798  1
  Ca2+  Ca36  1  0.41079919  0.16854918  0.16678999  1
  Ca2+  Ca37  1  0.42315220  0.17383718  0.48547176  1
  Ca2+  Ca38  1  0.41680698  0.16631881  0.83177280  1
  Ca2+  Ca39  1  0.41935162  0.66842713  0.16543040  1
  Ca2+  Ca40  1  0.42236506  0.66041292  0.49674745  1
  Ca2+  Ca41  1  0.41703029  0.68055438  0.82404485  1
  Ca2+  Ca42  1  0.92270089  0.16353300  0.16254284  1
  Ca2+  Ca43  1  0.91260769  0.17389546  0.49384291  1
  Ca2+  Ca44  1  0.92368186  0.16925280  0.83033632  1
  Ca2+  Ca45  1  0.92279536  0.66941283  0.15954395  1
  Ca2+  Ca46  1  0.92193992  0.66074691  0.49475268  1
  Ca2+  Ca47  1  0.92791967  0.66885475  0.83251580  1
  Al0+  Al48  1  0.00055789  0.00036617  -0.00762901  1
  Al0+  Al49  1  -0.00167142  -0.00002339  0.34268463  1
  Al0+  Al50  1  0.00160611  0.00048589  0.66761442  1
  Al0+  Al51  1  -0.00061515  0.49917045  -0.00579811  1
  Al0+  Al52  1  -0.00131084  0.50041287  0.33638888  1
  Al0+  Al53  1  -0.00131951  0.49873197  0.65992506  1
  Al0+  Al54  1  0.50247920  0.00169813  0.00467985  1
  Al0+  Al55  1  0.49985327  -0.00095820  0.33273705  1
  Al0+  Al56  1  0.50057970  0.00055866  0.66205838  1
  Al0+  Al57  1  0.49905659  0.49777628  0.00497056  1
  Al0+  Al58  1  0.49904631  0.49955523  0.32937830  1
  Al0+  Al59  1  0.49835973  0.49976994  0.67487934  1
  Al0+  Al60  1  0.25143530  0.25222799  -0.00431441  1
  Al0+  Al61  1  0.24794587  0.24824458  0.33784794  1
  Al0+  Al62  1  0.25011227  0.24871253  0.66678375  1
  Al0+  Al63  1  0.25237038  0.75129212  -0.00249464  1
  Al0+  Al64  1  0.24958918  0.74944672  0.33949688  1
  Al0+  Al65  1  0.24824609  0.75191395  0.66308201  1
  Al0+  Al66  1  0.74806559  0.25044245  0.00397257  1
  Al0+  Al67  1  0.74996544  0.24973157  0.33361560  1
  Al0+  Al68  1  0.75227979  0.25045275  0.66918769  1
  Al0+  Al69  1  0.75078652  0.74709667  -0.00072284  1
  Al0+  Al70  1  0.75115430  0.75052771  0.33322727  1
  Al0+  Al71  1  0.75075499  0.74998745  0.66400925  1
  Al0+  Al72  1  0.32261080  0.07063786  0.34958975  1
  Al0+  Al73  1  0.92701572  0.82184362  0.98588154  1
  Al0+  Al74  1  0.32252623  0.07410877  0.01484656  1
  Al0+  Al75  1  0.43272344  0.82189421  0.98880411  1
  Al0+  Al76  1  0.57020857  0.67704665  0.65328595  1
  Al0+  Al77  1  0.17886162  0.92817668  0.01329562  1
  Al0+  Al78  1  0.57296351  0.17758918  0.31626847  1
  Al0+  Al79  1  0.42699557  0.32034739  0.31761578  1
  Al0+  Al80  1  0.42829377  0.82349600  0.64978774  1
  Al0+  Al81  1  0.06932151  0.68046027  0.65000201  1
  Al0+  Al82  1  0.67971424  0.43016690  0.68169405  1
  Al0+  Al83  1  0.32115018  0.57064131  0.34738515  1
  Al0+  Al84  1  0.07304880  0.67774733  0.98667843  1
  Al0+  Al85  1  0.67996972  0.92636799  0.01255459  1
  Al0+  Al86  1  0.67833117  0.42870859  0.01702972  1
  Al0+  Al87  1  0.81929399  0.06995388  0.34591222  1
  Al0+  Al88  1  0.82115309  0.57402770  0.34835650  1
  Al0+  Al89  1  0.17793982  0.92877810  0.34970833  1
  Al0+  Al90  1  0.17670997  0.42680321  0.34703923  1
  Al0+  Al91  1  0.92937186  0.31825070  0.65156847  1
  Al0+  Al92  1  0.07256706  0.17960381  0.98720877  1
  Al0+  Al93  1  0.31878701  0.57097602  0.68258165  1
  Al0+  Al94  1  0.57133004  0.67921413  0.31821122  1
  Al0+  Al95  1  0.67966583  0.43073381  0.34824489  1
  Si0+  Si96  1  0.82125850  0.07123076  0.68325668  1
  Si0+  Si97  1  0.17893988  0.93006466  0.68449091  1
  Si0+  Si98  1  0.17809505  0.42949913  0.01067601  1
  Si0+  Si99  1  0.07350566  0.17691300  0.64731699  1
  Si0+  Si100  1  0.92622499  0.32081173  0.98394184  1
  Si0+  Si101  1  0.06860464  0.17749152  0.32002750  1
  Si0+  Si102  1  0.31960823  0.57179828  0.01430380  1
  Si0+  Si103  1  0.82427580  0.57003527  0.01530700  1
  Si0+  Si104  1  0.57201489  0.18029882  0.98449324  1
  Si0+  Si105  1  0.57159349  0.67515545  0.98446517  1
  Si0+  Si106  1  0.67944656  0.92943701  0.67988977  1
  Si0+  Si107  1  0.42617772  0.82149816  0.31505627  1
  Si0+  Si108  1  0.82214429  0.07162881  0.01422591  1
  Si0+  Si109  1  0.82434812  0.57322094  0.68484212  1
  Si0+  Si110  1  0.92682750  0.82448388  0.64767928  1
  Si0+  Si111  1  0.57119934  0.17979459  0.65403849  1
  Si0+  Si112  1  0.32242732  0.07107041  0.68202317  1
  Si0+  Si113  1  0.92916639  0.32180729  0.31677029  1
  Si0+  Si114  1  0.17597712  0.42703141  0.68428978  1
  Si0+  Si115  1  0.93035185  0.82318311  0.31987818  1
  Si0+  Si116  1  0.07068135  0.67955895  0.31931700  1
  Si0+  Si117  1  0.67662518  0.92630291  0.35060819  1
  Si0+  Si118  1  0.42909648  0.32210921  0.98280470  1
  Si0+  Si119  1  0.42857320  0.32071646  0.65426809  1
  O2-  O120  1  0.24914149  0.00224502  0.06233332  1
  O2-  O121  1  0.25346907  -0.00331866  0.40087580  1
  O2-  O122  1  0.25163518  0.00058402  0.72494910  1
  O2-  O123  1  0.24373323  0.50452531  0.05352232  1
  O2-  O124  1  0.25039972  0.49672249  0.39692697  1
  O2-  O125  1  0.24275507  0.49673532  0.73030834  1
  O2-  O126  1  0.75896803  -0.00223737  0.05756719  1
  O2-  O127  1  0.74074304  0.00003972  0.39458923  1
  O2-  O128  1  0.75298203  -0.00260696  0.72433628  1
  O2-  O129  1  0.75285846  0.50464885  0.05982923  1
  O2-  O130  1  0.74734176  0.50536224  0.40001404  1
  O2-  O131  1  0.75180007  0.50797281  0.72899879  1
  O2-  O132  1  0.00200787  0.25199700  0.27557292  1
  O2-  O133  1  0.00624893  0.24651109  0.60293224  1
  O2-  O134  1  -0.00421504  0.25262272  0.94014487  1
  O2-  O135  1  0.00011546  0.75106659  0.27774198  1
  O2-  O136  1  -0.00724591  0.75376239  0.60305085  1
  O2-  O137  1  0.00118163  0.75096758  0.93732070  1
  O2-  O138  1  0.49776331  0.24683906  0.26654187  1
  O2-  O139  1  0.50057677  0.25080663  0.61289192  1
  O2-  O140  1  0.50061411  0.25073694  0.94116299  1
  O2-  O141  1  0.49709894  0.75465318  0.27133818  1
  O2-  O142  1  0.49756480  0.74778123  0.60203770  1
  O2-  O143  1  0.50778663  0.74808717  0.94025425  1
  O2-  O144  1  0.07155124  0.18214078  0.10049897  1
  O2-  O145  1  0.06436629  0.17715836  0.42520835  1
  O2-  O146  1  0.07279615  0.17732978  0.75316810  1
  O2-  O147  1  0.07097132  0.67443226  0.10032701  1
  O2-  O148  1  0.06933972  0.68013809  0.42436230  1
  O2-  O149  1  0.06874716  0.68341606  0.76316654  1
  O2-  O150  1  0.57513233  0.18103123  0.08857117  1
  O2-  O151  1  0.57380906  0.18189360  0.43092589  1
  O2-  O152  1  0.57010090  0.17772351  0.75961141  1
  O2-  O153  1  0.56915766  0.67478833  0.08996534  1
  O2-  O154  1  0.57072126  0.67987722  0.43127616  1
  O2-  O155  1  0.56873145  0.67954231  0.76730703  1
  O2-  O156  1  0.17504023  0.43009117  0.23240940  1
  O2-  O157  1  0.17825944  0.42603269  0.57926593  1
  O2-  O158  1  0.18078738  0.42757088  0.90556638  1
  O2-  O159  1  0.17434737  0.93018990  0.23636748  1
  O2-  O160  1  0.17616534  0.93291529  0.57957612  1
  O2-  O161  1  0.18221889  0.92908269  0.89922779  1
  O2-  O162  1  0.68349384  0.43094291  0.23461624  1
  O2-  O163  1  0.67953934  0.42657886  0.56955936  1
  O2-  O164  1  0.67952460  0.42814500  0.90336981  1
  O2-  O165  1  0.68087377  0.92468136  0.24497150  1
  O2-  O166  1  0.68025434  0.93258209  0.57512078  1
  O2-  O167  1  0.67884733  0.93084874  0.89861100  1
  O2-  O168  1  0.42648273  0.32382654  0.08697068  1
  O2-  O169  1  0.42981097  0.32039976  0.43199692  1
  O2-  O170  1  0.42784528  0.31849327  0.75987985  1
  O2-  O171  1  0.43233540  0.81862242  0.10151168  1
  O2-  O172  1  0.42784225  0.82055758  0.42075193  1
  O2-  O173  1  0.43154588  0.82718050  0.76377755  1
  O2-  O174  1  0.92742246  0.32139877  0.08948764  1
  O2-  O175  1  0.92874091  0.31989284  0.42192110  1
  O2-  O176  1  0.92897387  0.31344025  0.76514029  1
  O2-  O177  1  0.92709130  0.82068175  0.09973080  1
  O2-  O178  1  0.93161255  0.82467691  0.42513519  1
  O2-  O179  1  0.92704595  0.82641479  0.75300663  1
  O2-  O180  1  0.31812708  0.07091054  0.23631264  1
  O2-  O181  1  0.32197821  0.07248948  0.57750049  1
  O2-  O182  1  0.32214409  0.07392208  0.90022969  1
  O2-  O183  1  0.31696443  0.57265891  0.23317709  1
  O2-  O184  1  0.32073445  0.56674425  0.57024157  1
  O2-  O185  1  0.32197837  0.56998306  0.90902704  1
  O2-  O186  1  0.82397559  0.06554948  0.23299205  1
  O2-  O187  1  0.81963448  0.07275998  0.57823629  1
  O2-  O188  1  0.81737211  0.07530405  0.90819611  1
  O2-  O189  1  0.82363332  0.57131849  0.23437161  1
  O2-  O190  1  0.82531586  0.57066482  0.57966281  1
  O2-  O191  1  0.82656247  0.56740925  0.90968047  1
  O2-  O192  1  0.03421665  0.08709446  0.27395022  1
  O2-  O193  1  0.04594514  0.08342624  0.60257752  1
  O2-  O194  1  0.04360421  0.08497404  0.92826406  1
  O2-  O195  1  0.04200319  0.58768580  0.27220674  1
  O2-  O196  1  0.04179630  0.58276887  0.59713881  1
  O2-  O197  1  0.04400108  0.58018626  0.92990837  1
  O2-  O198  1  0.55032153  0.07612534  0.26692544  1
  O2-  O199  1  0.54461366  0.08943835  0.60397998  1
  O2-  O200  1  0.54508413  0.08854736  0.93612899  1
  O2-  O201  1  0.54031716  0.58374463  0.26283853  1
  O2-  O202  1  0.53987025  0.57750734  0.60376888  1
  O2-  O203  1  0.54026904  0.58236919  0.93933746  1
  O2-  O204  1  0.16174374  0.20022640  0.27417095  1
  O2-  O205  1  0.16836316  0.20035336  0.60297218  1
  O2-  O206  1  0.16695627  0.21381737  0.92958015  1
  O2-  O207  1  0.16333400  0.70630535  0.27338667  1
  O2-  O208  1  0.16443671  0.71361208  0.59563723  1
  O2-  O209  1  0.17070731  0.70639246  0.93226280  1
  O2-  O210  1  0.67144763  0.20706004  0.26328341  1
  O2-  O211  1  0.66404861  0.20663647  0.60925101  1
  O2-  O212  1  0.66333534  0.20961176  0.93504270  1
  O2-  O213  1  0.66910613  0.71017345  0.26523664  1
  O2-  O214  1  0.66982773  0.70348294  0.60161900  1
  O2-  O215  1  0.66755627  0.69278466  0.94080859  1
  O2-  O216  1  0.08351605  0.44985184  0.05590022  1
  O2-  O217  1  0.08005127  0.45782824  0.40116929  1
  O2-  O218  1  0.08054237  0.45023631  0.72772995  1
  O2-  O219  1  0.07801304  0.95492988  0.06163947  1
  O2-  O220  1  0.08280009  0.96165171  0.40715038  1
  O2-  O221  1  0.08701626  0.95914846  0.73204187  1
  O2-  O222  1  0.58107672  0.45727547  0.07019059  1
  O2-  O223  1  0.57949168  0.45561178  0.39742102  1
  O2-  O224  1  0.58320193  0.45703039  0.73896824  1
  O2-  O225  1  0.58749158  0.96223240  0.06965905  1
  O2-  O226  1  0.58155242  0.94564012  0.39485393  1
  O2-  O227  1  0.58853007  0.96178011  0.72728744  1
  O2-  O228  1  0.21044618  0.34002223  0.05919982  1
  O2-  O229  1  0.19710987  0.32755229  0.40061280  1
  O2-  O230  1  0.20273164  0.33238792  0.72959662  1
  O2-  O231  1  0.20839403  0.83017504  0.06630902  1
  O2-  O232  1  0.20402047  0.83056358  0.40342829  1
  O2-  O233  1  0.20481919  0.83760521  0.72998594  1
  O2-  O234  1  0.70929899  0.33227100  0.07053085  1
  O2-  O235  1  0.71056064  0.33275772  0.39984497  1
  O2-  O236  1  0.71469141  0.33395180  0.73659415  1
  O2-  O237  1  0.70592125  0.82799792  0.06545664  1
  O2-  O238  1  0.70919745  0.83625417  0.39916264  1
  O2-  O239  1  0.70446916  0.83671326  0.72706078  1
  O2-  O240  1  0.45473275  0.41777553  0.26250848  1
  O2-  O241  1  0.45618565  0.41294250  0.60974372  1
  O2-  O242  1  0.45955512  0.41360828  0.93495904  1
  O2-  O243  1  0.44922683  0.91608988  0.27063789  1
  O2-  O244  1  0.46109906  0.92010610  0.59485427  1
  O2-  O245  1  0.46318267  0.91959518  0.93546289  1
  O2-  O246  1  0.95649076  0.41387065  0.26944718  1
  O2-  O247  1  0.95562228  0.41486324  0.59658956  1
  O2-  O248  1  0.95091420  0.41318248  0.93500869  1
  O2-  O249  1  0.95979725  0.91490176  0.27333089  1
  O2-  O250  1  0.95573519  0.91829301  0.60262134  1
  O2-  O251  1  0.95002674  0.92027337  0.92978765  1
  O2-  O252  1  0.32620297  0.29256261  0.26737223  1
  O2-  O253  1  0.33695766  0.29290349  0.60693073  1
  O2-  O254  1  0.33874739  0.29574235  0.93132817  1
  O2-  O255  1  0.33219617  0.79310575  0.27120384  1
  O2-  O256  1  0.32846828  0.80030087  0.59984175  1
  O2-  O257  1  0.33730684  0.79085898  0.93248645  1
  O2-  O258  1  0.83883090  0.29121585  0.26904707  1
  O2-  O259  1  0.83408481  0.28270736  0.59752058  1
  O2-  O260  1  0.83289326  0.29243944  0.93813641  1
  O2-  O261  1  0.83802121  0.79850642  0.27240878  1
  O2-  O262  1  0.83205515  0.80366250  0.60208442  1
  O2-  O263  1  0.82962803  0.79046637  0.93016311  1
  O2-  O264  1  0.42086060  0.04837858  0.06709743  1
  O2-  O265  1  0.42284580  0.04605926  0.40130583  1
  O2-  O266  1  0.41579731  0.04460666  0.72796715  1
  O2-  O267  1  0.40890390  0.53867887  0.06288145  1
  O2-  O268  1  0.41896257  0.54087209  0.39951968  1
  O2-  O269  1  0.41284342  0.53816052  0.74095215  1
  O2-  O270  1  0.91833377  0.05225214  0.05602910  1
  O2-  O271  1  0.91150757  0.03675995  0.40692588  1
  O2-  O272  1  0.91505045  0.04647821  0.72868990  1
  O2-  O273  1  0.91706878  0.54121929  0.06230056  1
  O2-  O274  1  0.91748900  0.54165196  0.40228213  1
  O2-  O275  1  0.91661989  0.54162572  0.73078177  1
  O2-  O276  1  0.29349691  0.17382478  0.06441643  1
  O2-  O277  1  0.29135974  0.16707048  0.40473069  1
  O2-  O278  1  0.29507907  0.16335570  0.73018469  1
  O2-  O279  1  0.29606827  0.66402085  0.06129704  1
  O2-  O280  1  0.29212989  0.66684693  0.40321719  1
  O2-  O281  1  0.28734076  0.66943653  0.73327688  1
  O2-  O282  1  0.79233716  0.16276146  0.06264672  1
  O2-  O283  1  0.79101096  0.16669513  0.40125415  1
  O2-  O284  1  0.79083191  0.16066783  0.73328764  1
  O2-  O285  1  0.80278770  0.66463537  0.06026729  1
  O2-  O286  1  0.80042944  0.67435766  0.40021265  1
  O2-  O287  1  0.80430797  0.66969335  0.72781217  1
