# generated using pymatgen
data_Ca2Al2SiO7
_symmetry_space_group_name_H-M   'P 1'
_cell_length_a   15.46429130
_cell_length_b   15.46610156
_cell_length_c   15.28875688
_cell_angle_alpha   90.01149364
_cell_angle_beta   90.00538481
_cell_angle_gamma   90.00081792
_symmetry_Int_Tables_number   1
_chemical_formula_structural   Ca2Al2SiO7
_chemical_formula_sum   'Ca48 Al48 Si24 O168'
_cell_volume   3656.64705290
_cell_formula_units_Z   24
loop_
 _symmetry_equiv_pos_site_id
 _symmetry_equiv_pos_as_xyz
  1  'x, y, z'
loop_
 _atom_type_symbol
 _atom_type_oxidation_number
  Ca2+  2.0
  Al0+  0.0
  Si0+  0.0
  O2-  -2.0
loop_
 _atom_site_type_symbol
 _atom_site_label
 _atom_site_symmetry_multiplicity
 _atom_site_fract_x
 _atom_site_fract_y
 _atom_site_fract_z
 _atom_site_occupancy
  Ca2+  Ca0  1  0.16799118  0.07127856  0.16755379  1
  Ca2+  Ca1  1  0.16824724  0.07114933  0.50697798  1
  Ca2+  Ca2  1  0.17656201  0.07083198  0.83861361  1
  Ca2+  Ca3  1  0.16541227  0.58259977  0.17008336  1
  Ca2+  Ca4  1  0.16246142  0.57654207  0.50391438  1
  Ca2+  Ca5  1  0.16321523  0.58916547  0.83781265  1
  Ca2+  Ca6  1  0.66698096  0.07516643  0.16388065  1
  Ca2+  Ca7  1  0.66928324  0.08206415  0.50206754  1
  Ca2+  Ca8  1  0.66620140  0.07560359  0.84167321  1
  Ca2+  Ca9  1  0.67669316  0.59036474  0.16844494  1
  Ca2+  Ca10  1  0.67628463  0.58571168  0.50736830  1
  Ca2+  Ca11  1  0.67271643  0.58213957  0.84028210  1
  Ca2+  Ca12  1  0.07206995  0.34191673  0.16317591  1
  Ca2+  Ca13  1  0.07906137  0.33265232  0.48939369  1
  Ca2+  Ca14  1  0.07390038  0.33523534  0.83268850  1
  Ca2+  Ca15  1  0.07589247  0.83341915  0.15781119  1
  Ca2+  Ca16  1  0.08187880  0.83164153  0.49591572  1
  Ca2+  Ca17  1  0.08689960  0.82596318  0.83114539  1
  Ca2+  Ca18  1  0.57995736  0.33521882  0.16133212  1
  Ca2+  Ca19  1  0.57272399  0.34121495  0.49856485  1
  Ca2+  Ca20  1  0.58228307  0.33742008  0.82631474  1
  Ca2+  Ca21  1  0.58200916  0.82293170  0.15561805  1
  Ca2+  Ca22  1  0.58588685  0.81926960  0.49471661  1
  Ca2+  Ca23  1  0.58776425  0.82353757  0.83361633  1
  Ca2+  Ca24  1  0.32705017  0.41726022  0.17486284  1
  Ca2+  Ca25  1  0.33219981  0.41063073  0.50131573  1
  Ca2+  Ca26  1  0.33421704  0.41756182  0.83526683  1
  Ca2+  Ca27  1  0.32280008  0.90943317  0.16757448  1
  Ca2+  Ca28  1  0.32091019  0.91980225  0.51039922  1
  Ca2+  Ca29  1  0.32885821  0.92068564  0.84611313  1
  Ca2+  Ca30  1  0.83600209  0.42858515  0.16967785  1
  Ca2+  Ca31  1  0.83033655  0.42930672  0.50698477  1
  Ca2+  Ca32  1  0.82326840  0.42711670  0.84198850  1
  Ca2+  Ca33  1  0.83011838  0.90191197  0.16787386  1
  Ca2+  Ca34  1  0.83633991  0.91442387  0.49984483  1
  Ca2+  Ca35  1  0.82891182  0.91348207  0.84255215  1
  Ca2+  Ca36  1  0.40954656  0.17132282  0.16363179  1
  Ca2+  Ca37  1  0.40932800  0.17515672  0.50011571  1
  Ca2+  Ca38  1  0.40991187  0.16889410  0.82851639  1
  Ca2+  Ca39  1  0.43011646  0.66898671  0.15842345  1
  Ca2+  Ca40  1  0.43280418  0.66016988  0.49665853  1
  Ca2+  Ca41  1  0.42842793  0.67154415  0.83194926  1
  Ca2+  Ca42  1  0.91527707  0.18140312  0.16145192  1
  Ca2+  Ca43  1  0.91826014  0.17622403  0.49066128  1
  Ca2+  Ca44  1  0.91130051  0.17553831  0.83242274  1
  Ca2+  Ca45  1  0.91911472  0.67086675  0.15935132  1
  Ca2+  Ca46  1  0.91779962  0.66634317  0.49668908  1
  Ca2+  Ca47  1  0.92211230  0.66442927  0.83456789  1
  Al0+  Al48  1  0.00121172  0.00335775  -0.00046400  1
  Al0+  Al49  1  -0.00053707  0.00024269  0.33377629  1
  Al0+  Al50  1  0.00014029  0.00114045  0.67119534  1
  Al0+  Al51  1  -0.00205508  0.49934080  -0.00560935  1
  Al0+  Al52  1  0.00022054  0.50057871  0.33882420  1
  Al0+  Al53  1  -0.00105924  0.50177544  0.66655813  1
  Al0+  Al54  1  0.50066162  0.00343086  0.00636293  1
  Al0+  Al55  1  0.50055139  0.00007394  0.33605227  1
  Al0+  Al56  1  0.50034333  0.00211244  0.66723199  1
  Al0+  Al57  1  0.49890788  0.49884507  -0.00060849  1
  Al0+  Al58  1  0.50086935  0.49801835  0.32295030  1
  Al0+  Al59  1  0.49822128  0.49878064  0.66094513  1
  Al0+  Al60  1  0.24848793  0.24927647  0.00300064  1
  Al0+  Al61  1  0.24990988  0.24861839  0.33250602  1
  Al0+  Al62  1  0.24789258  0.24871393  0.66633982  1
  Al0+  Al63  1  0.25120248  0.74977181  -0.00099099  1
  Al0+  Al64  1  0.25249690  0.74872628  0.34178308  1
  Al0+  Al65  1  0.24842695  0.74685349  0.66370458  1
  Al0+  Al66  1  0.74707771  0.25093913  -0.00159469  1
  Al0+  Al67  1  0.74877588  0.24943916  0.32924919  1
  Al0+  Al68  1  0.74810521  0.25067149  0.66702395  1
  Al0+  Al69  1  0.75189580  0.74924176  -0.00003907  1
  Al0+  Al70  1  0.75152410  0.74851653  0.33244533  1
  Al0+  Al71  1  0.75226163  0.75123481  0.66609406  1
  Al0+  Al72  1  0.07150020  0.67908637  0.98707018  1
  Al0+  Al73  1  0.18017681  0.42995693  0.34601192  1
  Al0+  Al74  1  0.92723533  0.32052418  0.98449075  1
  Al0+  Al75  1  0.67619845  0.42804649  0.01681702  1
  Al0+  Al76  1  0.32071862  0.07119537  0.68162389  1
  Al0+  Al77  1  0.92919334  0.32302175  0.32051879  1
  Al0+  Al78  1  0.07145757  0.67854158  0.65007554  1
  Al0+  Al79  1  0.42986804  0.82341066  0.98723968  1
  Al0+  Al80  1  0.82131624  0.56981958  0.01691428  1
  Al0+  Al81  1  0.68188725  0.92902032  0.01311656  1
  Al0+  Al82  1  0.17843735  0.92615521  0.68401157  1
  Al0+  Al83  1  0.92927748  0.82362925  0.98487736  1
  Al0+  Al84  1  0.82195158  0.57315317  0.68453919  1
  Al0+  Al85  1  0.93208449  0.82086802  0.32083493  1
  Al0+  Al86  1  0.17890547  0.92659073  0.01667634  1
  Al0+  Al87  1  0.42809516  0.31921005  0.65360004  1
  Al0+  Al88  1  0.57144235  0.67947838  0.31852235  1
  Al0+  Al89  1  0.81979626  0.57096179  0.34868128  1
  Al0+  Al90  1  0.42914155  0.31765871  0.31754582  1
  Al0+  Al91  1  0.32177367  0.07245298  0.01801354  1
  Al0+  Al92  1  0.17798441  0.92807964  0.34887781  1
  Al0+  Al93  1  0.67703352  0.43006776  0.67983130  1
  Al0+  Al94  1  0.57161611  0.68063091  0.65268018  1
  Al0+  Al95  1  0.57185407  0.67782188  0.98381121  1
  Si0+  Si96  1  0.82271417  0.07453611  0.01632727  1
  Si0+  Si97  1  0.42801894  0.82310396  0.31967801  1
  Si0+  Si98  1  0.07098642  0.17774475  0.31628356  1
  Si0+  Si99  1  0.32273995  0.07142281  0.35201665  1
  Si0+  Si100  1  0.57315255  0.17459282  0.31422813  1
  Si0+  Si101  1  0.81991802  0.07298367  0.34725661  1
  Si0+  Si102  1  0.06840550  0.17993430  0.65171080  1
  Si0+  Si103  1  0.92950725  0.82463901  0.64976886  1
  Si0+  Si104  1  0.57409852  0.17624163  0.64877367  1
  Si0+  Si105  1  0.17786539  0.42828993  0.68170906  1
  Si0+  Si106  1  0.07452378  0.67799495  0.31955709  1
  Si0+  Si107  1  0.92741182  0.32052547  0.65076438  1
  Si0+  Si108  1  0.42814082  0.82343681  0.65044989  1
  Si0+  Si109  1  0.56997936  0.17996132  0.98459087  1
  Si0+  Si110  1  0.82096692  0.07297268  0.68035521  1
  Si0+  Si111  1  0.42640573  0.31999106  0.98479989  1
  Si0+  Si112  1  0.07319631  0.17981527  0.98160872  1
  Si0+  Si113  1  0.67975202  0.92991149  0.67946377  1
  Si0+  Si114  1  0.17899355  0.42939333  0.01250223  1
  Si0+  Si115  1  0.67994803  0.92839526  0.34864680  1
  Si0+  Si116  1  0.32562590  0.57000119  0.35056540  1
  Si0+  Si117  1  0.67703201  0.42583925  0.34934032  1
  Si0+  Si118  1  0.32149488  0.57081118  0.01374920  1
  Si0+  Si119  1  0.32138040  0.56901785  0.68062214  1
  O2-  O120  1  0.25318888  -0.00316382  0.06683895  1
  O2-  O121  1  0.25571488  0.00066228  0.39489618  1
  O2-  O122  1  0.25679408  -0.00741623  0.73171431  1
  O2-  O123  1  0.24816729  0.50150718  0.05495046  1
  O2-  O124  1  0.25504675  0.50317461  0.39534574  1
  O2-  O125  1  0.24799492  0.50009461  0.72350614  1
  O2-  O126  1  0.76152955  -0.00077344  0.06076882  1
  O2-  O127  1  0.75009401  0.00100157  0.39062054  1
  O2-  O128  1  0.74973443  0.00222384  0.72113356  1
  O2-  O129  1  0.74716547  0.49997605  0.06752671  1
  O2-  O130  1  0.74542737  0.49435731  0.39359698  1
  O2-  O131  1  0.74690674  0.50250803  0.73120915  1
  O2-  O132  1  0.00555714  0.24998282  0.27288737  1
  O2-  O133  1  -0.00198293  0.25012425  0.60694037  1
  O2-  O134  1  0.00087530  0.24476466  0.93669429  1
  O2-  O135  1  0.01046323  0.75006837  0.27531863  1
  O2-  O136  1  -0.00179010  0.75589408  0.60593846  1
  O2-  O137  1  0.00316450  0.75384608  0.93523067  1
  O2-  O138  1  0.50351443  0.24268676  0.27090301  1
  O2-  O139  1  0.50411639  0.24493112  0.60700173  1
  O2-  O140  1  0.49868858  0.25076243  0.94281653  1
  O2-  O141  1  0.49548729  0.75421403  0.27483227  1
  O2-  O142  1  0.49757290  0.75617524  0.60462180  1
  O2-  O143  1  0.50239872  0.75333547  0.93500230  1
  O2-  O144  1  0.07383869  0.18315509  0.08726121  1
  O2-  O145  1  0.06790833  0.17785799  0.42254141  1
  O2-  O146  1  0.06624783  0.18250634  0.75643505  1
  O2-  O147  1  0.07148590  0.67604673  0.10090439  1
  O2-  O148  1  0.07176762  0.67775401  0.42522174  1
  O2-  O149  1  0.07143728  0.67671796  0.76240221  1
  O2-  O150  1  0.57172193  0.18060195  0.08970294  1
  O2-  O151  1  0.57510115  0.17271981  0.41977226  1
  O2-  O152  1  0.57802030  0.17456119  0.75388204  1
  O2-  O153  1  0.56961379  0.67870315  0.09747688  1
  O2-  O154  1  0.57148672  0.68068034  0.43223385  1
  O2-  O155  1  0.57048804  0.68191305  0.76505171  1
  O2-  O156  1  0.18005513  0.43255475  0.23268169  1
  O2-  O157  1  0.17805623  0.42695713  0.57659581  1
  O2-  O158  1  0.18168589  0.42684889  0.90706860  1
  O2-  O159  1  0.17716170  0.92917894  0.23641218  1
  O2-  O160  1  0.17635346  0.93100588  0.56982501  1
  O2-  O161  1  0.18077556  0.92778289  0.90339209  1
  O2-  O162  1  0.67819894  0.42467825  0.24416954  1
  O2-  O163  1  0.67943789  0.42907628  0.56589175  1
  O2-  O164  1  0.67638933  0.42738234  0.90322813  1
  O2-  O165  1  0.68005642  0.92930088  0.24395006  1
  O2-  O166  1  0.68125261  0.93073757  0.57387050  1
  O2-  O167  1  0.68112606  0.93319653  0.89946336  1
  O2-  O168  1  0.42456952  0.31863831  0.08982280  1
  O2-  O169  1  0.42920548  0.31660852  0.43075288  1
  O2-  O170  1  0.42629744  0.31825938  0.76665681  1
  O2-  O171  1  0.43029749  0.81792389  0.10123761  1
  O2-  O172  1  0.43122378  0.82370907  0.42553730  1
  O2-  O173  1  0.43035698  0.82259166  0.75561286  1
  O2-  O174  1  0.93069184  0.32084503  0.09776155  1
  O2-  O175  1  0.93018977  0.31890694  0.43412545  1
  O2-  O176  1  0.92803262  0.31741600  0.75569547  1
  O2-  O177  1  0.93077563  0.82042472  0.09868170  1
  O2-  O178  1  0.93137826  0.82183165  0.43415844  1
  O2-  O179  1  0.92821716  0.82796539  0.75458879  1
  O2-  O180  1  0.32265276  0.07197113  0.24691054  1
  O2-  O181  1  0.31599741  0.07227470  0.56775362  1
  O2-  O182  1  0.31841996  0.07593614  0.90468406  1
  O2-  O183  1  0.32439172  0.56960388  0.24484182  1
  O2-  O184  1  0.32257593  0.56624245  0.57553722  1
  O2-  O185  1  0.32354288  0.56749127  0.90846237  1
  O2-  O186  1  0.81847495  0.07599573  0.24280869  1
  O2-  O187  1  0.82120633  0.07423869  0.57489102  1
  O2-  O188  1  0.81708412  0.07740572  0.91031416  1
  O2-  O189  1  0.82141084  0.57179602  0.23631297  1
  O2-  O190  1  0.82181592  0.57138347  0.57030877  1
  O2-  O191  1  0.82214434  0.56749870  0.90359190  1
  O2-  O192  1  0.04003141  0.08675393  0.26916809  1
  O2-  O193  1  0.03954185  0.08805715  0.60439842  1
  O2-  O194  1  0.05189759  0.08564149  0.93580877  1
  O2-  O195  1  0.04648448  0.58498933  0.27470966  1
  O2-  O196  1  0.03926998  0.58132619  0.59606952  1
  O2-  O197  1  0.04228068  0.58184823  0.93124082  1
  O2-  O198  1  0.54825355  0.08007840  0.26918321  1
  O2-  O199  1  0.55008514  0.08275289  0.60036615  1
  O2-  O200  1  0.54310619  0.08836997  0.93681050  1
  O2-  O201  1  0.54221614  0.58399464  0.26287422  1
  O2-  O202  1  0.53782272  0.58533698  0.59766679  1
  O2-  O203  1  0.53779799  0.58048272  0.93167344  1
  O2-  O204  1  0.16569525  0.19889334  0.27226361  1
  O2-  O205  1  0.15910251  0.20834507  0.60294583  1
  O2-  O206  1  0.16441710  0.21189070  0.93416635  1
  O2-  O207  1  0.17181553  0.69714308  0.27839295  1
  O2-  O208  1  0.16951643  0.70263648  0.59434917  1
  O2-  O209  1  0.17123048  0.70246809  0.93414596  1
  O2-  O210  1  0.66592891  0.20004630  0.26667511  1
  O2-  O211  1  0.66730109  0.20236144  0.60040748  1
  O2-  O212  1  0.66089616  0.20612300  0.93437751  1
  O2-  O213  1  0.66641712  0.71430618  0.26576087  1
  O2-  O214  1  0.66805286  0.71396185  0.59864966  1
  O2-  O215  1  0.67016299  0.70647274  0.93283314  1
  O2-  O216  1  0.08653141  0.45602584  0.05794832  1
  O2-  O217  1  0.08524500  0.45959787  0.40405171  1
  O2-  O218  1  0.08602037  0.45558980  0.72871301  1
  O2-  O219  1  0.08057179  0.96017013  0.06805471  1
  O2-  O220  1  0.08215189  0.96341077  0.40284037  1
  O2-  O221  1  0.08184492  0.96113185  0.73644281  1
  O2-  O222  1  0.57551409  0.45226929  0.06740278  1
  O2-  O223  1  0.58185549  0.45230615  0.39167746  1
  O2-  O224  1  0.57606362  0.45355829  0.72910309  1
  O2-  O225  1  0.58839202  0.96502296  0.06979282  1
  O2-  O226  1  0.58841096  0.95555087  0.39775849  1
  O2-  O227  1  0.58790394  0.95628974  0.72663343  1
  O2-  O228  1  0.20779756  0.33943320  0.06219876  1
  O2-  O229  1  0.20884035  0.33159178  0.39904574  1
  O2-  O230  1  0.20587025  0.33708894  0.72949953  1
  O2-  O231  1  0.20697335  0.82770821  0.06952621  1
  O2-  O232  1  0.20664188  0.83112936  0.40447935  1
  O2-  O233  1  0.20093574  0.82414697  0.73024995  1
  O2-  O234  1  0.70315191  0.32818623  0.06751794  1
  O2-  O235  1  0.70024691  0.33073494  0.39419138  1
  O2-  O236  1  0.70474548  0.33042466  0.73181189  1
  O2-  O237  1  0.70936177  0.83251380  0.06807051  1
  O2-  O238  1  0.71131075  0.83865173  0.39747785  1
  O2-  O239  1  0.70934013  0.83971385  0.72759447  1
  O2-  O240  1  0.45711079  0.41338448  0.26096126  1
  O2-  O241  1  0.45618173  0.41463013  0.59540146  1
  O2-  O242  1  0.45147227  0.41220670  0.93747243  1
  O2-  O243  1  0.45267966  0.91720269  0.27476608  1
  O2-  O244  1  0.45224806  0.91816438  0.60499242  1
  O2-  O245  1  0.45540575  0.92438350  0.93894736  1
  O2-  O246  1  0.96295791  0.41898325  0.26787549  1
  O2-  O247  1  0.95657905  0.41226759  0.60539328  1
  O2-  O248  1  0.96184570  0.41354388  0.92735693  1
  O2-  O249  1  0.95548071  0.91977283  0.26797171  1
  O2-  O250  1  0.95446123  0.91945836  0.60374909  1
  O2-  O251  1  0.94944643  0.92604047  0.93567902  1
  O2-  O252  1  0.33173699  0.28777902  0.26370150  1
  O2-  O253  1  0.33113702  0.28727182  0.59884817  1
  O2-  O254  1  0.33463458  0.29123263  0.93751955  1
  O2-  O255  1  0.33323628  0.79729211  0.27648291  1
  O2-  O256  1  0.33487607  0.79610986  0.60470043  1
  O2-  O257  1  0.33307113  0.79290212  0.93337246  1
  O2-  O258  1  0.83369959  0.28946945  0.26668156  1
  O2-  O259  1  0.83592023  0.29127225  0.60345535  1
  O2-  O260  1  0.83125414  0.28733972  0.93052049  1
  O2-  O261  1  0.83606260  0.78798620  0.26826860  1
  O2-  O262  1  0.83605781  0.79937799  0.60244713  1
  O2-  O263  1  0.83140431  0.79467250  0.93200396  1
  O2-  O264  1  0.42185368  0.05353667  0.07068062  1
  O2-  O265  1  0.41799702  0.04999638  0.39784675  1
  O2-  O266  1  0.42358496  0.05409563  0.73011937  1
  O2-  O267  1  0.41079860  0.53933085  0.06355620  1
  O2-  O268  1  0.41873316  0.53891995  0.39474771  1
  O2-  O269  1  0.41116490  0.53768709  0.72920137  1
  O2-  O270  1  0.91964949  0.06124055  0.05859670  1
  O2-  O271  1  0.91135203  0.04642889  0.39618255  1
  O2-  O272  1  0.91194547  0.04759097  0.72968059  1
  O2-  O273  1  0.91973961  0.53632583  0.06794068  1
  O2-  O274  1  0.91588625  0.54023838  0.40391007  1
  O2-  O275  1  0.91980215  0.54100818  0.73559135  1
  O2-  O276  1  0.28682419  0.16942642  0.07207646  1
  O2-  O277  1  0.29407122  0.16438864  0.39779948  1
  O2-  O278  1  0.28521705  0.16754302  0.73479819  1
  O2-  O279  1  0.29631449  0.66191754  0.06271349  1
  O2-  O280  1  0.30578467  0.66386496  0.39872433  1
  O2-  O281  1  0.29581990  0.66144483  0.72691607  1
  O2-  O282  1  0.78777602  0.16432040  0.06432156  1
  O2-  O283  1  0.78967954  0.16343220  0.39759137  1
  O2-  O284  1  0.79250468  0.16390833  0.72899545  1
  O2-  O285  1  0.79549970  0.66919859  0.06828890  1
  O2-  O286  1  0.78693715  0.66690795  0.40370753  1
  O2-  O287  1  0.79648335  0.67340682  0.73390081  1
