# generated using pymatgen
data_Ca2Al2SiO7
_symmetry_space_group_name_H-M   'P 1'
_cell_length_a   15.46030062
_cell_length_b   15.46141483
_cell_length_c   15.28495890
_cell_angle_alpha   89.98848567
_cell_angle_beta   89.99239353
_cell_angle_gamma   90.01895930
_symmetry_Int_Tables_number   1
_chemical_formula_structural   Ca2Al2SiO7
_chemical_formula_sum   'Ca48 Al48 Si24 O168'
_cell_volume   3653.68755313
_cell_formula_units_Z   24
loop_
 _symmetry_equiv_pos_site_id
 _symmetry_equiv_pos_as_xyz
  1  'x, y, z'
loop_
 _atom_type_symbol
 _atom_type_oxidation_number
  Ca2+  2.0
  Al0+  0.0
  Si0+  0.0
  O2-  -2.0
loop_
 _atom_site_type_symbol
 _atom_site_label
 _atom_site_symmetry_multiplicity
 _atom_site_fract_x
 _atom_site_fract_y
 _atom_site_fract_z
 _atom_site_occupancy
  Ca2+  Ca0  1  0.17902470  0.08994581  0.16958894  1
  Ca2+  Ca1  1  0.17396970  0.09046751  0.50662689  1
  Ca2+  Ca2  1  0.17562361  0.09701103  0.83107708  1
  Ca2+  Ca3  1  0.16879518  0.57970754  0.17850490  1
  Ca2+  Ca4  1  0.17039152  0.57402737  0.50466777  1
  Ca2+  Ca5  1  0.16877351  0.57772990  0.83487946  1
  Ca2+  Ca6  1  0.67587953  0.07525984  0.17180312  1
  Ca2+  Ca7  1  0.67816191  0.08264641  0.50157832  1
  Ca2+  Ca8  1  0.67914735  0.08380329  0.84104412  1
  Ca2+  Ca9  1  0.66514067  0.57719937  0.16991714  1
  Ca2+  Ca10  1  0.66257865  0.58053838  0.50799565  1
  Ca2+  Ca11  1  0.66328549  0.57344447  0.83267808  1
  Ca2+  Ca12  1  0.07080453  0.33851227  0.16386212  1
  Ca2+  Ca13  1  0.07773960  0.33592589  0.49844306  1
  Ca2+  Ca14  1  0.07042532  0.32852692  0.82320622  1
  Ca2+  Ca15  1  0.09178712  0.81914894  0.16350653  1
  Ca2+  Ca16  1  0.08407367  0.82662865  0.49375600  1
  Ca2+  Ca17  1  0.08725295  0.82679830  0.83161766  1
  Ca2+  Ca18  1  0.57484495  0.33210735  0.15728780  1
  Ca2+  Ca19  1  0.57667579  0.33743250  0.50187013  1
  Ca2+  Ca20  1  0.57426560  0.34121698  0.82782665  1
  Ca2+  Ca21  1  0.59135013  0.83276893  0.16640528  1
  Ca2+  Ca22  1  0.58621309  0.82230448  0.49219222  1
  Ca2+  Ca23  1  0.58713138  0.82901442  0.82851338  1
  Ca2+  Ca24  1  0.32483534  0.42024482  0.17553093  1
  Ca2+  Ca25  1  0.32247865  0.42291787  0.50800452  1
  Ca2+  Ca26  1  0.33101761  0.41347723  0.83203113  1
  Ca2+  Ca27  1  0.33643614  0.92950814  0.17019520  1
  Ca2+  Ca28  1  0.33468029  0.92833920  0.50156956  1
  Ca2+  Ca29  1  0.33547710  0.93111644  0.83631112  1
  Ca2+  Ca30  1  0.82942745  0.40788491  0.16849449  1
  Ca2+  Ca31  1  0.82990605  0.41203272  0.50580880  1
  Ca2+  Ca32  1  0.82190335  0.40410799  0.83606995  1
  Ca2+  Ca33  1  0.82668373  0.92556314  0.17271124  1
  Ca2+  Ca34  1  0.83244574  0.92586212  0.50406605  1
  Ca2+  Ca35  1  0.82972155  0.92862354  0.84057202  1
  Ca2+  Ca36  1  0.41339777  0.17034736  0.15769434  1
  Ca2+  Ca37  1  0.40860414  0.17143301  0.49835004  1
  Ca2+  Ca38  1  0.41310142  0.17578285  0.82681113  1
  Ca2+  Ca39  1  0.42030848  0.66445752  0.16693967  1
  Ca2+  Ca40  1  0.42387783  0.65612188  0.49644324  1
  Ca2+  Ca41  1  0.42231814  0.66662733  0.82254208  1
  Ca2+  Ca42  1  0.90975146  0.17274379  0.16322989  1
  Ca2+  Ca43  1  0.91464491  0.17424052  0.49727581  1
  Ca2+  Ca44  1  0.91514315  0.17073739  0.82425442  1
  Ca2+  Ca45  1  0.93132530  0.66414085  0.16196455  1
  Ca2+  Ca46  1  0.92275681  0.66725213  0.49129878  1
  Ca2+  Ca47  1  0.92182313  0.66695571  0.83243625  1
  Al0+  Al48  1  0.00304936  -0.00209799  0.00490227  1
  Al0+  Al49  1  0.00116186  0.00205009  0.33439277  1
  Al0+  Al50  1  0.00066896  -0.00064015  0.66731038  1
  Al0+  Al51  1  -0.00000005  0.49871417  -0.01083143  1
  Al0+  Al52  1  -0.00242442  0.49898426  0.32845055  1
  Al0+  Al53  1  -0.00030718  0.50082924  0.66729975  1
  Al0+  Al54  1  0.50039702  -0.00081837  0.00611953  1
  Al0+  Al55  1  0.50136885  -0.00091776  0.34146063  1
  Al0+  Al56  1  0.49998404  -0.00103647  0.66981673  1
  Al0+  Al57  1  0.49969205  0.50053203  0.00055901  1
  Al0+  Al58  1  0.49946187  0.49984280  0.32976357  1
  Al0+  Al59  1  0.50038036  0.50036213  0.66537465  1
  Al0+  Al60  1  0.24842090  0.25319108  0.00093420  1
  Al0+  Al61  1  0.24722539  0.25198396  0.33927216  1
  Al0+  Al62  1  0.24870054  0.25161040  0.66664993  1
  Al0+  Al63  1  0.25329622  0.74963404  -0.00613985  1
  Al0+  Al64  1  0.25429306  0.75180796  0.33213218  1
  Al0+  Al65  1  0.25180974  0.75111153  0.66820849  1
  Al0+  Al66  1  0.74705734  0.24983688  0.00559118  1
  Al0+  Al67  1  0.74769048  0.24919478  0.33274984  1
  Al0+  Al68  1  0.74779484  0.24987725  0.67062389  1
  Al0+  Al69  1  0.75268490  0.74795379  0.00194940  1
  Al0+  Al70  1  0.74982318  0.74884265  0.33017580  1
  Al0+  Al71  1  0.75074302  0.74892097  0.66304012  1
  Al0+  Al72  1  0.92656619  0.31733480  0.98495668  1
  Al0+  Al73  1  0.57130074  0.67776565  0.31678756  1
  Al0+  Al74  1  0.68057352  0.92666295  0.35141921  1
  Al0+  Al75  1  0.07014987  0.17834394  0.65104780  1
  Al0+  Al76  1  0.67779949  0.43095151  0.01494814  1
  Al0+  Al77  1  0.07330436  0.67869309  0.98378436  1
  Al0+  Al78  1  0.56952733  0.68099870  0.65341495  1
  Al0+  Al79  1  0.32126134  0.57078701  0.68285397  1
  Al0+  Al80  1  0.32265420  0.57194581  0.34725961  1
  Al0+  Al81  1  0.67951443  0.92611319  0.01482796  1
  Al0+  Al82  1  0.42939320  0.32014071  0.65178958  1
  Al0+  Al83  1  0.68007183  0.43032198  0.67875656  1
  Al0+  Al84  1  0.82223793  0.07294456  0.35058847  1
  Al0+  Al85  1  0.92578138  0.32121662  0.65107555  1
  Al0+  Al86  1  0.32048340  0.07220537  0.34738105  1
  Al0+  Al87  1  0.07184203  0.68061634  0.32158211  1
  Al0+  Al88  1  0.42792141  0.32155632  0.98671538  1
  Al0+  Al89  1  0.32094563  0.07135645  0.68091129  1
  Al0+  Al90  1  0.17667622  0.42908782  0.68488705  1
  Al0+  Al91  1  0.82057111  0.06992648  0.68066057  1
  Al0+  Al92  1  0.92751353  0.31895197  0.31851409  1
  Al0+  Al93  1  0.31828359  0.07264153  0.01267756  1
  Al0+  Al94  1  0.82373495  0.07202778  0.01628974  1
  Al0+  Al95  1  0.17485113  0.43094617  0.34816877  1
  Si0+  Si96  1  0.07282043  0.67965677  0.65085302  1
  Si0+  Si97  1  0.17767875  0.43163144  0.01479464  1
  Si0+  Si98  1  0.43053927  0.82474714  0.31499994  1
  Si0+  Si99  1  0.42761641  0.31958559  0.31871517  1
  Si0+  Si100  1  0.92971756  0.82026696  0.65195538  1
  Si0+  Si101  1  0.17732577  0.92705821  0.68358870  1
  Si0+  Si102  1  0.67779076  0.42914635  0.34757901  1
  Si0+  Si103  1  0.17885868  0.92723019  0.34846980  1
  Si0+  Si104  1  0.07270908  0.17671266  0.98560302  1
  Si0+  Si105  1  0.82313972  0.57485197  0.68263491  1
  Si0+  Si106  1  0.82428389  0.57048407  0.01659391  1
  Si0+  Si107  1  0.42696735  0.82451008  0.64864179  1
  Si0+  Si108  1  0.82032690  0.56975850  0.34542546  1
  Si0+  Si109  1  0.07385568  0.17782145  0.31538979  1
  Si0+  Si110  1  0.56928688  0.17833922  0.31917219  1
  Si0+  Si111  1  0.18096572  0.92372901  0.01673264  1
  Si0+  Si112  1  0.43085376  0.82220615  0.98423722  1
  Si0+  Si113  1  0.57167832  0.17563938  0.65065044  1
  Si0+  Si114  1  0.67972296  0.92519757  0.68272977  1
  Si0+  Si115  1  0.92854615  0.82385418  0.31619086  1
  Si0+  Si116  1  0.92898400  0.82167282  0.98382053  1
  Si0+  Si117  1  0.56926752  0.17670860  0.98499789  1
  Si0+  Si118  1  0.32105886  0.57235291  0.01496158  1
  Si0+  Si119  1  0.57217947  0.67888287  0.98476518  1
  O2-  O120  1  0.24361077  -0.00197999  0.06032925  1
  O2-  O121  1  0.24321962  -0.00062224  0.39284690  1
  O2-  O122  1  0.24482202  -0.00266087  0.72698647  1
  O2-  O123  1  0.24818894  0.50344202  0.05709082  1
  O2-  O124  1  0.24756164  0.50336987  0.39625186  1
  O2-  O125  1  0.24936852  0.50069290  0.73563684  1
  O2-  O126  1  0.75221630  -0.00225327  0.06363353  1
  O2-  O127  1  0.75408784  -0.00290821  0.40055387  1
  O2-  O128  1  0.74420066  -0.00328581  0.72748050  1
  O2-  O129  1  0.75590766  0.50217798  0.06200846  1
  O2-  O130  1  0.74762569  0.50152837  0.38884758  1
  O2-  O131  1  0.75817158  0.50213062  0.72527332  1
  O2-  O132  1  0.00208625  0.24350755  0.27172508  1
  O2-  O133  1  -0.00183753  0.25005698  0.60057057  1
  O2-  O134  1  -0.00319340  0.23693945  0.94151374  1
  O2-  O135  1  0.00016634  0.75764424  0.27243749  1
  O2-  O136  1  0.00059336  0.74942852  0.60893072  1
  O2-  O137  1  -0.00098604  0.75482554  0.93798157  1
  O2-  O138  1  0.49508200  0.24572472  0.27574724  1
  O2-  O139  1  0.50054985  0.24145553  0.60521027  1
  O2-  O140  1  0.50122915  0.24540214  0.93995808  1
  O2-  O141  1  0.49781622  0.75429548  0.27048236  1
  O2-  O142  1  0.49518061  0.75523981  0.60530635  1
  O2-  O143  1  0.50493006  0.75367689  0.94323466  1
  O2-  O144  1  0.07710589  0.18168614  0.09108434  1
  O2-  O145  1  0.07572199  0.17795360  0.42039338  1
  O2-  O146  1  0.06787731  0.17811376  0.76521963  1
  O2-  O147  1  0.07406221  0.67919967  0.09707438  1
  O2-  O148  1  0.06825976  0.68206835  0.43474693  1
  O2-  O149  1  0.07228552  0.68221725  0.75613234  1
  O2-  O150  1  0.56635381  0.17777544  0.09103475  1
  O2-  O151  1  0.57066115  0.18199089  0.42423632  1
  O2-  O152  1  0.57140513  0.17548583  0.75632239  1
  O2-  O153  1  0.56949037  0.67714215  0.08973876  1
  O2-  O154  1  0.57057237  0.67636866  0.42964213  1
  O2-  O155  1  0.57030226  0.68369596  0.76712618  1
  O2-  O156  1  0.17626566  0.43180410  0.23352562  1
  O2-  O157  1  0.17515835  0.43294277  0.57147694  1
  O2-  O158  1  0.17880323  0.43174559  0.91018873  1
  O2-  O159  1  0.18175949  0.92511182  0.24280987  1
  O2-  O160  1  0.17784495  0.92363414  0.57804648  1
  O2-  O161  1  0.18427422  0.91927786  0.91145237  1
  O2-  O162  1  0.67720379  0.42964320  0.24231027  1
  O2-  O163  1  0.67926746  0.43312867  0.56520408  1
  O2-  O164  1  0.67522021  0.43442517  0.90217043  1
  O2-  O165  1  0.68188923  0.92868567  0.23781747  1
  O2-  O166  1  0.68309945  0.92251221  0.57761186  1
  O2-  O167  1  0.68074291  0.92599384  0.90088844  1
  O2-  O168  1  0.42776718  0.32081774  0.10050230  1
  O2-  O169  1  0.42993993  0.32045859  0.42361987  1
  O2-  O170  1  0.43170977  0.31973899  0.76517202  1
  O2-  O171  1  0.42709391  0.82074571  0.08904174  1
  O2-  O172  1  0.43068792  0.82697263  0.42027165  1
  O2-  O173  1  0.42809079  0.82541889  0.75467655  1
  O2-  O174  1  0.92976742  0.32029313  0.09822995  1
  O2-  O175  1  0.92527898  0.31999057  0.43089580  1
  O2-  O176  1  0.92473480  0.31765896  0.76475140  1
  O2-  O177  1  0.92924365  0.81866653  0.08911701  1
  O2-  O178  1  0.92910571  0.82085556  0.42228977  1
  O2-  O179  1  0.92933335  0.81846474  0.75709611  1
  O2-  O180  1  0.32047932  0.07199751  0.23386964  1
  O2-  O181  1  0.32025994  0.06848435  0.56791304  1
  O2-  O182  1  0.31788750  0.07199430  0.89992783  1
  O2-  O183  1  0.32249059  0.56857633  0.23270047  1
  O2-  O184  1  0.31910278  0.57037900  0.56956294  1
  O2-  O185  1  0.32174730  0.57319405  0.91023028  1
  O2-  O186  1  0.81850072  0.07309311  0.23722253  1
  O2-  O187  1  0.81981430  0.06801395  0.56792066  1
  O2-  O188  1  0.82206338  0.07046084  0.90239103  1
  O2-  O189  1  0.82089178  0.56843367  0.24034003  1
  O2-  O190  1  0.82207462  0.57938576  0.57688786  1
  O2-  O191  1  0.82217004  0.57368496  0.91111248  1
  O2-  O192  1  0.05435428  0.08200448  0.27008670  1
  O2-  O193  1  0.04627461  0.07753924  0.59987582  1
  O2-  O194  1  0.05957454  0.07830512  0.94472036  1
  O2-  O195  1  0.03670388  0.58649948  0.26531357  1
  O2-  O196  1  0.04515920  0.58804140  0.60448881  1
  O2-  O197  1  0.04018544  0.58497989  0.92643269  1
  O2-  O198  1  0.54448507  0.08447644  0.27485478  1
  O2-  O199  1  0.54989000  0.08029003  0.60594076  1
  O2-  O200  1  0.54537014  0.08227142  0.93987094  1
  O2-  O201  1  0.53839850  0.58196748  0.26068347  1
  O2-  O202  1  0.53892791  0.58524553  0.59849546  1
  O2-  O203  1  0.53913056  0.58932721  0.93670858  1
  O2-  O204  1  0.16668985  0.20773046  0.26856553  1
  O2-  O205  1  0.16859437  0.20711648  0.59927073  1
  O2-  O206  1  0.16248884  0.21134502  0.93692218  1
  O2-  O207  1  0.16952887  0.71016247  0.26749504  1
  O2-  O208  1  0.16428791  0.70970700  0.60431652  1
  O2-  O209  1  0.16927967  0.71078047  0.92860437  1
  O2-  O210  1  0.65861982  0.20975097  0.26923873  1
  O2-  O211  1  0.66329259  0.20594339  0.60376757  1
  O2-  O212  1  0.66324546  0.20275633  0.94103151  1
  O2-  O213  1  0.66889225  0.70568609  0.26217576  1
  O2-  O214  1  0.66692885  0.70955311  0.59857520  1
  O2-  O215  1  0.66623081  0.70171971  0.93926803  1
  O2-  O216  1  0.08492253  0.46060639  0.05942968  1
  O2-  O217  1  0.07654176  0.46067404  0.39965366  1
  O2-  O218  1  0.07826400  0.45976625  0.73762294  1
  O2-  O219  1  0.08540738  0.94026032  0.06186046  1
  O2-  O220  1  0.08340127  0.94670052  0.39303496  1
  O2-  O221  1  0.08355359  0.94892971  0.73072405  1
  O2-  O222  1  0.58258037  0.46572464  0.07060847  1
  O2-  O223  1  0.58586929  0.45710657  0.39375051  1
  O2-  O224  1  0.58589250  0.46607782  0.73388573  1
  O2-  O225  1  0.58122344  0.95244591  0.06911906  1
  O2-  O226  1  0.58303723  0.95452314  0.40523390  1
  O2-  O227  1  0.58399803  0.94514957  0.72644940  1
  O2-  O228  1  0.20592210  0.34096002  0.06364408  1
  O2-  O229  1  0.20265841  0.33356087  0.40161398  1
  O2-  O230  1  0.20559076  0.33095585  0.73674060  1
  O2-  O231  1  0.21446901  0.83258326  0.06414375  1
  O2-  O232  1  0.20835148  0.83587574  0.39718226  1
  O2-  O233  1  0.20529808  0.83485482  0.73185892  1
  O2-  O234  1  0.70312210  0.33367081  0.06983534  1
  O2-  O235  1  0.70537039  0.33788613  0.39461751  1
  O2-  O236  1  0.70529640  0.33373237  0.73533601  1
  O2-  O237  1  0.70757257  0.82696505  0.06746654  1
  O2-  O238  1  0.70804789  0.82623031  0.40102797  1
  O2-  O239  1  0.70992587  0.83305528  0.72989101  1
  O2-  O240  1  0.45866268  0.40952119  0.26932555  1
  O2-  O241  1  0.46511291  0.41469661  0.59747835  1
  O2-  O242  1  0.46081550  0.41800346  0.93363119  1
  O2-  O243  1  0.45895764  0.91810517  0.26876595  1
  O2-  O244  1  0.45297710  0.91806049  0.60246935  1
  O2-  O245  1  0.45721986  0.91490678  0.93730994  1
  O2-  O246  1  0.95734735  0.41519995  0.26218819  1
  O2-  O247  1  0.95147427  0.42252377  0.60162419  1
  O2-  O248  1  0.95889539  0.41240249  0.92921870  1
  O2-  O249  1  0.95099747  0.91885162  0.27180490  1
  O2-  O250  1  0.95821666  0.91095400  0.60346552  1
  O2-  O251  1  0.95387285  0.91612463  0.93859354  1
  O2-  O252  1  0.33383097  0.29462945  0.27350095  1
  O2-  O253  1  0.33224225  0.29206605  0.59866629  1
  O2-  O254  1  0.33080438  0.29204090  0.93343461  1
  O2-  O255  1  0.33690142  0.80129884  0.26722184  1
  O2-  O256  1  0.33259545  0.80072052  0.60330203  1
  O2-  O257  1  0.34162115  0.79230493  0.93307443  1
  O2-  O258  1  0.82993512  0.28825534  0.26469413  1
  O2-  O259  1  0.82631875  0.29247395  0.60009809  1
  O2-  O260  1  0.82668179  0.29112991  0.93547265  1
  O2-  O261  1  0.83666403  0.79468155  0.26936059  1
  O2-  O262  1  0.83920707  0.79177160  0.60242254  1
  O2-  O263  1  0.83646317  0.79319688  0.93606008  1
  O2-  O264  1  0.41406216  0.04083092  0.06748927  1
  O2-  O265  1  0.41539686  0.04054979  0.40294007  1
  O2-  O266  1  0.41740486  0.03991981  0.73604925  1
  O2-  O267  1  0.41199526  0.54339288  0.06283324  1
  O2-  O268  1  0.42008850  0.53878740  0.39887266  1
  O2-  O269  1  0.41974377  0.54217562  0.73463819  1
  O2-  O270  1  0.92359681  0.04621227  0.06840133  1
  O2-  O271  1  0.92335885  0.04971005  0.40020565  1
  O2-  O272  1  0.91659206  0.03657349  0.73405822  1
  O2-  O273  1  0.91915431  0.54388734  0.05938247  1
  O2-  O274  1  0.91063280  0.54077297  0.39440045  1
  O2-  O275  1  0.91789272  0.55522433  0.72796485  1
  O2-  O276  1  0.28668794  0.16892363  0.06787755  1
  O2-  O277  1  0.29069492  0.16821988  0.40170775  1
  O2-  O278  1  0.29018351  0.16767379  0.73432925  1
  O2-  O279  1  0.29529007  0.66548667  0.06079683  1
  O2-  O280  1  0.30276508  0.67341632  0.39640887  1
  O2-  O281  1  0.29553638  0.67127072  0.73431975  1
  O2-  O282  1  0.79071149  0.16807819  0.07048870  1
  O2-  O283  1  0.78523661  0.16909462  0.40304911  1
  O2-  O284  1  0.78826170  0.16523554  0.73521578  1
  O2-  O285  1  0.80029946  0.66375204  0.06417647  1
  O2-  O286  1  0.79677823  0.66274833  0.39227973  1
  O2-  O287  1  0.79300352  0.66640265  0.73140222  1
