# generated using pymatgen
data_Ca2Al2SiO7
_symmetry_space_group_name_H-M   'P 1'
_cell_length_a   15.47206823
_cell_length_b   15.46938390
_cell_length_c   15.29367638
_cell_angle_alpha   89.99562238
_cell_angle_beta   90.00995975
_cell_angle_gamma   89.99753379
_symmetry_Int_Tables_number   1
_chemical_formula_structural   Ca2Al2SiO7
_chemical_formula_sum   'Ca48 Al48 Si24 O168'
_cell_volume   3660.43987103
_cell_formula_units_Z   24
loop_
 _symmetry_equiv_pos_site_id
 _symmetry_equiv_pos_as_xyz
  1  'x, y, z'
loop_
 _atom_type_symbol
 _atom_type_oxidation_number
  Ca2+  2.0
  Al0+  0.0
  Si0+  0.0
  O2-  -2.0
loop_
 _atom_site_type_symbol
 _atom_site_label
 _atom_site_symmetry_multiplicity
 _atom_site_fract_x
 _atom_site_fract_y
 _atom_site_fract_z
 _atom_site_occupancy
  Ca2+  Ca0  1  0.17383673  0.08987682  0.17768575  1
  Ca2+  Ca1  1  0.17077377  0.08699829  0.50569247  1
  Ca2+  Ca2  1  0.16120381  0.08110418  0.83099946  1
  Ca2+  Ca3  1  0.17259766  0.57876880  0.17162623  1
  Ca2+  Ca4  1  0.17550466  0.57591829  0.51233573  1
  Ca2+  Ca5  1  0.17259816  0.57771933  0.82857194  1
  Ca2+  Ca6  1  0.66644564  0.08453370  0.17293459  1
  Ca2+  Ca7  1  0.65389488  0.07371926  0.50506866  1
  Ca2+  Ca8  1  0.66233400  0.08227425  0.83775975  1
  Ca2+  Ca9  1  0.66928747  0.57430722  0.18156649  1
  Ca2+  Ca10  1  0.66672367  0.57415520  0.50526314  1
  Ca2+  Ca11  1  0.66574557  0.57769919  0.82626914  1
  Ca2+  Ca12  1  0.07622134  0.32698483  0.16357641  1
  Ca2+  Ca13  1  0.08248636  0.33009220  0.49971910  1
  Ca2+  Ca14  1  0.07149706  0.33126858  0.82157911  1
  Ca2+  Ca15  1  0.07498827  0.83341500  0.16783207  1
  Ca2+  Ca16  1  0.07677407  0.83459072  0.49579036  1
  Ca2+  Ca17  1  0.08287000  0.83360988  0.82344835  1
  Ca2+  Ca18  1  0.57625770  0.32949312  0.16236673  1
  Ca2+  Ca19  1  0.58467413  0.32722415  0.49349742  1
  Ca2+  Ca20  1  0.58742683  0.32153495  0.82663307  1
  Ca2+  Ca21  1  0.59434130  0.82691943  0.17055794  1
  Ca2+  Ca22  1  0.59377012  0.82264272  0.49828159  1
  Ca2+  Ca23  1  0.57889996  0.82791987  0.81740736  1
  Ca2+  Ca24  1  0.33549964  0.40513192  0.17329264  1
  Ca2+  Ca25  1  0.33196423  0.41840574  0.50836859  1
  Ca2+  Ca26  1  0.33267508  0.41483245  0.83290563  1
  Ca2+  Ca27  1  0.33080819  0.92788031  0.17602474  1
  Ca2+  Ca28  1  0.33100466  0.92217927  0.50863595  1
  Ca2+  Ca29  1  0.33049749  0.91370152  0.83009670  1
  Ca2+  Ca30  1  0.82695380  0.41974698  0.17444608  1
  Ca2+  Ca31  1  0.82419997  0.42315874  0.50824824  1
  Ca2+  Ca32  1  0.83273053  0.41268363  0.83133157  1
  Ca2+  Ca33  1  0.82970230  0.92492806  0.17460590  1
  Ca2+  Ca34  1  0.82395367  0.91599625  0.50131483  1
  Ca2+  Ca35  1  0.82569504  0.92759650  0.83405123  1
  Ca2+  Ca36  1  0.42641802  0.17226138  0.16915056  1
  Ca2+  Ca37  1  0.42536617  0.16944738  0.49306583  1
  Ca2+  Ca38  1  0.42694461  0.17064410  0.83018269  1
  Ca2+  Ca39  1  0.42671110  0.66603227  0.16702967  1
  Ca2+  Ca40  1  0.42416931  0.66932107  0.50064211  1
  Ca2+  Ca41  1  0.42130579  0.67201066  0.81954432  1
  Ca2+  Ca42  1  0.91771994  0.16952010  0.16042007  1
  Ca2+  Ca43  1  0.92853239  0.16904681  0.50101478  1
  Ca2+  Ca44  1  0.91470895  0.17662856  0.82617147  1
  Ca2+  Ca45  1  0.90575586  0.67370649  0.17020314  1
  Ca2+  Ca46  1  0.90571053  0.66986180  0.49351347  1
  Ca2+  Ca47  1  0.91556237  0.66688804  0.82420995  1
  Al0+  Al48  1  -0.00233532  -0.00259200  0.00439962  1
  Al0+  Al49  1  0.00006454  -0.00154276  0.32418266  1
  Al0+  Al50  1  0.00047106  -0.00004580  0.66754427  1
  Al0+  Al51  1  0.00209128  0.50058934  -0.00092179  1
  Al0+  Al52  1  0.00263505  0.50120911  0.33474801  1
  Al0+  Al53  1  0.00063632  0.50130660  0.66932876  1
  Al0+  Al54  1  0.49671475  -0.00339167  0.00006490  1
  Al0+  Al55  1  0.49791072  0.00078172  0.33778789  1
  Al0+  Al56  1  0.49687530  0.00000247  0.66641695  1
  Al0+  Al57  1  0.49915094  0.50191018  -0.00284566  1
  Al0+  Al58  1  0.49915041  0.50143261  0.32933472  1
  Al0+  Al59  1  0.50223314  0.50097381  0.67288876  1
  Al0+  Al60  1  0.24963801  0.24875669  -0.00221239  1
  Al0+  Al61  1  0.24990789  0.24886538  0.33189704  1
  Al0+  Al62  1  0.25028874  0.24894245  0.67075590  1
  Al0+  Al63  1  0.24922093  0.74779132  0.00318247  1
  Al0+  Al64  1  0.24892686  0.74990573  0.33118690  1
  Al0+  Al65  1  0.24903793  0.75148584  0.66990680  1
  Al0+  Al66  1  0.75098054  0.24964314  -0.00158878  1
  Al0+  Al67  1  0.75336508  0.24897176  0.33553375  1
  Al0+  Al68  1  0.75188731  0.25022064  0.65884002  1
  Al0+  Al69  1  0.75108475  0.75003446  -0.00311184  1
  Al0+  Al70  1  0.75082992  0.75275089  0.32864004  1
  Al0+  Al71  1  0.74942779  0.75169534  0.67230068  1
  Al0+  Al72  1  0.42745888  0.32236299  0.98283615  1
  Al0+  Al73  1  0.93020621  0.32163717  0.98730935  1
  Al0+  Al74  1  0.17823052  0.93083807  0.67901094  1
  Al0+  Al75  1  0.82141963  0.57117429  0.34592882  1
  Al0+  Al76  1  0.67730064  0.42683319  0.34707095  1
  Al0+  Al77  1  0.67946892  0.42544290  0.68284518  1
  Al0+  Al78  1  0.57055188  0.17796112  0.98606465  1
  Al0+  Al79  1  0.92888921  0.32473435  0.64848675  1
  Al0+  Al80  1  0.06970967  0.18031274  0.31958605  1
  Al0+  Al81  1  0.82067725  0.57192688  0.68188303  1
  Al0+  Al82  1  0.43062414  0.32145881  0.32193171  1
  Al0+  Al83  1  0.57284485  0.67924391  0.65073133  1
  Al0+  Al84  1  0.07147935  0.17819042  0.65296799  1
  Al0+  Al85  1  0.42615252  0.82091207  0.65090101  1
  Al0+  Al86  1  0.92926775  0.81949981  0.31909925  1
  Al0+  Al87  1  0.31906901  0.07145825  0.34828881  1
  Al0+  Al88  1  0.67988024  0.93248985  0.34625185  1
  Al0+  Al89  1  0.57411228  0.17632841  0.31977476  1
  Al0+  Al90  1  0.81882223  0.07161213  0.01336704  1
  Al0+  Al91  1  0.67746952  0.93140466  0.68001958  1
  Al0+  Al92  1  0.57007900  0.68119556  0.31970744  1
  Al0+  Al93  1  0.57137246  0.17869902  0.65269539  1
  Al0+  Al94  1  0.32216487  0.57087919  0.68140681  1
  Al0+  Al95  1  0.17927386  0.42638700  0.68245781  1
  Si0+  Si96  1  0.17815478  0.92660484  0.01696550  1
  Si0+  Si97  1  0.82643994  0.07273977  0.35055284  1
  Si0+  Si98  1  0.42880754  0.32235773  0.65272790  1
  Si0+  Si99  1  0.92966938  0.32502371  0.31658101  1
  Si0+  Si100  1  0.92926854  0.82053880  0.98193726  1
  Si0+  Si101  1  0.57242102  0.68021433  0.98397163  1
  Si0+  Si102  1  0.32094361  0.57136798  0.01740368  1
  Si0+  Si103  1  0.31958512  0.07031066  0.01630408  1
  Si0+  Si104  1  0.07133189  0.17567076  0.98416746  1
  Si0+  Si105  1  0.92927341  0.82062841  0.65295115  1
  Si0+  Si106  1  0.42637145  0.81823966  0.98633627  1
  Si0+  Si107  1  0.42474743  0.82212739  0.31614617  1
  Si0+  Si108  1  0.32211828  0.07255559  0.68673903  1
  Si0+  Si109  1  0.18077728  0.42906794  0.34693314  1
  Si0+  Si110  1  0.07458417  0.67654531  0.31552075  1
  Si0+  Si111  1  0.17682479  0.92722111  0.34875838  1
  Si0+  Si112  1  0.17997834  0.42908622  0.01635690  1
  Si0+  Si113  1  0.82293067  0.57194911  0.01513747  1
  Si0+  Si114  1  0.67649230  0.92684037  0.01634347  1
  Si0+  Si115  1  0.07207885  0.68034222  0.98366509  1
  Si0+  Si116  1  0.82308352  0.07064803  0.68062291  1
  Si0+  Si117  1  0.67915752  0.43048799  0.01407396  1
  Si0+  Si118  1  0.07112842  0.67974897  0.65257399  1
  Si0+  Si119  1  0.32126727  0.57361699  0.34721572  1
  O2-  O120  1  0.24523967  0.00128290  0.05846382  1
  O2-  O121  1  0.24516109  -0.00515404  0.39301110  1
  O2-  O122  1  0.25126891  0.00464886  0.72978771  1
  O2-  O123  1  0.25572064  0.49493157  0.06021483  1
  O2-  O124  1  0.25138930  0.50104510  0.38744672  1
  O2-  O125  1  0.25379581  0.49592798  0.73313147  1
  O2-  O126  1  0.74110929  -0.00068636  0.05986002  1
  O2-  O127  1  0.75036451  0.01155973  0.39321721  1
  O2-  O128  1  0.74752328  0.01020124  0.72640752  1
  O2-  O129  1  0.75054154  0.50217809  0.05621953  1
  O2-  O130  1  0.75137643  0.49806096  0.39523346  1
  O2-  O131  1  0.75269366  0.49704488  0.73345522  1
  O2-  O132  1  -0.00646716  0.25219523  0.27115653  1
  O2-  O133  1  0.00406097  0.25360728  0.60226188  1
  O2-  O134  1  0.00273068  0.24417522  0.94130694  1
  O2-  O135  1  0.00276259  0.74251906  0.27183692  1
  O2-  O136  1  -0.00368044  0.74611419  0.61044262  1
  O2-  O137  1  0.00056377  0.75001694  0.93991084  1
  O2-  O138  1  0.50699872  0.25407763  0.27135447  1
  O2-  O139  1  0.49900845  0.25654423  0.60790470  1
  O2-  O140  1  0.50148423  0.25213109  0.93460432  1
  O2-  O141  1  0.49580377  0.75631508  0.27074753  1
  O2-  O142  1  0.50067425  0.75178037  0.60145316  1
  O2-  O143  1  0.50203203  0.75277300  0.94424712  1
  O2-  O144  1  0.07228665  0.17789777  0.09000025  1
  O2-  O145  1  0.07061617  0.18113612  0.43195078  1
  O2-  O146  1  0.06573670  0.17525076  0.76695041  1
  O2-  O147  1  0.07419297  0.68188986  0.08870387  1
  O2-  O148  1  0.08015571  0.67794441  0.42034807  1
  O2-  O149  1  0.07147432  0.68317972  0.75832986  1
  O2-  O150  1  0.56913539  0.17826507  0.09932303  1
  O2-  O151  1  0.56722017  0.17465506  0.43275734  1
  O2-  O152  1  0.56902840  0.17721763  0.76616253  1
  O2-  O153  1  0.57314802  0.68007562  0.08925643  1
  O2-  O154  1  0.56931824  0.68063304  0.43160317  1
  O2-  O155  1  0.57172386  0.68258476  0.76529664  1
  O2-  O156  1  0.18025406  0.43062135  0.24105856  1
  O2-  O157  1  0.18122658  0.42926537  0.56834525  1
  O2-  O158  1  0.17818214  0.43263258  0.91219555  1
  O2-  O159  1  0.17894529  0.92644825  0.24237307  1
  O2-  O160  1  0.17688096  0.93086132  0.56637208  1
  O2-  O161  1  0.17851874  0.92396996  0.91221168  1
  O2-  O162  1  0.67785735  0.42973348  0.23216739  1
  O2-  O163  1  0.67818898  0.42666559  0.56972415  1
  O2-  O164  1  0.67950175  0.43177367  0.90954439  1
  O2-  O165  1  0.68367955  0.93074458  0.23240526  1
  O2-  O166  1  0.68196320  0.92895368  0.56728840  1
  O2-  O167  1  0.67817631  0.92452022  0.91099882  1
  O2-  O168  1  0.42775010  0.32081698  0.09625886  1
  O2-  O169  1  0.42653978  0.32149295  0.43497043  1
  O2-  O170  1  0.42851771  0.31836662  0.75847656  1
  O2-  O171  1  0.42328649  0.81609984  0.09131983  1
  O2-  O172  1  0.41821989  0.81763817  0.42051285  1
  O2-  O173  1  0.42704469  0.81877377  0.76574594  1
  O2-  O174  1  0.93341229  0.32335931  0.10063745  1
  O2-  O175  1  0.93445599  0.32845450  0.42118031  1
  O2-  O176  1  0.92974430  0.32160109  0.76276220  1
  O2-  O177  1  0.92900829  0.81900672  0.08685719  1
  O2-  O178  1  0.93144461  0.82002959  0.43210737  1
  O2-  O179  1  0.93224699  0.82111335  0.75860671  1
  O2-  O180  1  0.31671307  0.06970148  0.23420933  1
  O2-  O181  1  0.32108007  0.07272595  0.58144211  1
  O2-  O182  1  0.32015170  0.06811974  0.91166582  1
  O2-  O183  1  0.31826771  0.57657170  0.24152274  1
  O2-  O184  1  0.31855897  0.57150242  0.56742895  1
  O2-  O185  1  0.31711711  0.57666801  0.91333912  1
  O2-  O186  1  0.82887230  0.06928311  0.24451625  1
  O2-  O187  1  0.82910826  0.06393312  0.57563743  1
  O2-  O188  1  0.82213691  0.06751511  0.90056370  1
  O2-  O189  1  0.81943096  0.56931471  0.23107496  1
  O2-  O190  1  0.81866406  0.57411662  0.56884250  1
  O2-  O191  1  0.82397881  0.57446428  0.91077350  1
  O2-  O192  1  0.04425732  0.08327419  0.26324477  1
  O2-  O193  1  0.03954699  0.08084314  0.59919492  1
  O2-  O194  1  0.04683341  0.07987049  0.94236924  1
  O2-  O195  1  0.05254916  0.58233709  0.26839674  1
  O2-  O196  1  0.05007533  0.58663628  0.60649370  1
  O2-  O197  1  0.04536302  0.58837041  0.93726129  1
  O2-  O198  1  0.53878922  0.07956808  0.26605387  1
  O2-  O199  1  0.53570462  0.08345780  0.60028472  1
  O2-  O200  1  0.53991769  0.07795396  0.93594670  1
  O2-  O201  1  0.53699850  0.58687928  0.26169792  1
  O2-  O202  1  0.54500474  0.57931134  0.60206263  1
  O2-  O203  1  0.54322379  0.58939724  0.93684669  1
  O2-  O204  1  0.16425942  0.21476639  0.26338361  1
  O2-  O205  1  0.17240515  0.20209198  0.60365419  1
  O2-  O206  1  0.16499111  0.19947226  0.93862018  1
  O2-  O207  1  0.16562522  0.70629973  0.26437747  1
  O2-  O208  1  0.16052009  0.71212101  0.60457985  1
  O2-  O209  1  0.16346923  0.71016674  0.93655549  1
  O2-  O210  1  0.67686042  0.19548750  0.27158396  1
  O2-  O211  1  0.66898650  0.20146425  0.59860211  1
  O2-  O212  1  0.66963567  0.20386382  0.93400275  1
  O2-  O213  1  0.66489993  0.71379856  0.26234371  1
  O2-  O214  1  0.67087626  0.71254052  0.60048914  1
  O2-  O215  1  0.66447773  0.70665742  0.93661387  1
  O2-  O216  1  0.09064676  0.46338325  0.06579435  1
  O2-  O217  1  0.08982512  0.45675803  0.39492925  1
  O2-  O218  1  0.08324839  0.46037964  0.73662094  1
  O2-  O219  1  0.08469002  0.94906373  0.06371825  1
  O2-  O220  1  0.08203402  0.95191906  0.39090524  1
  O2-  O221  1  0.08248994  0.96080792  0.73713360  1
  O2-  O222  1  0.58681600  0.46030664  0.06015470  1
  O2-  O223  1  0.57878069  0.45857192  0.39697003  1
  O2-  O224  1  0.58281470  0.45487669  0.73903172  1
  O2-  O225  1  0.58016941  0.94419599  0.06044186  1
  O2-  O226  1  0.58140894  0.95442270  0.39944882  1
  O2-  O227  1  0.57934953  0.95750546  0.73357007  1
  O2-  O228  1  0.20288971  0.33472830  0.06193140  1
  O2-  O229  1  0.20905851  0.33829054  0.39384144  1
  O2-  O230  1  0.20344352  0.32788360  0.73735249  1
  O2-  O231  1  0.20944506  0.83608563  0.06563067  1
  O2-  O232  1  0.20029960  0.83230994  0.39287438  1
  O2-  O233  1  0.20850034  0.83553651  0.73671841  1
  O2-  O234  1  0.70687288  0.33872991  0.06061688  1
  O2-  O235  1  0.70329191  0.32761219  0.39855871  1
  O2-  O236  1  0.71017380  0.32613401  0.73388988  1
  O2-  O237  1  0.70922788  0.83417432  0.06194251  1
  O2-  O238  1  0.71696701  0.83707431  0.39780321  1
  O2-  O239  1  0.71248890  0.83813293  0.73774858  1
  O2-  O240  1  0.45084373  0.42083179  0.26584177  1
  O2-  O241  1  0.44979165  0.41823089  0.61101416  1
  O2-  O242  1  0.45028073  0.42377005  0.93377842  1
  O2-  O243  1  0.44892091  0.91671415  0.27246204  1
  O2-  O244  1  0.44859244  0.92106967  0.60170860  1
  O2-  O245  1  0.44724986  0.91164482  0.93975671  1
  O2-  O246  1  0.96040633  0.41696358  0.26824545  1
  O2-  O247  1  0.95771265  0.42408379  0.59862651  1
  O2-  O248  1  0.96376636  0.41771638  0.93373666  1
  O2-  O249  1  0.96287878  0.91250654  0.25874671  1
  O2-  O250  1  0.96157950  0.91001430  0.60505912  1
  O2-  O251  1  0.95797858  0.91249110  0.93594930  1
  O2-  O252  1  0.33426844  0.28714574  0.26639494  1
  O2-  O253  1  0.33459395  0.29640329  0.60849784  1
  O2-  O254  1  0.32873809  0.29231997  0.93140009  1
  O2-  O255  1  0.33246238  0.79433653  0.26609309  1
  O2-  O256  1  0.32783369  0.79118383  0.59908098  1
  O2-  O257  1  0.33578755  0.78570009  0.93888507  1
  O2-  O258  1  0.83466814  0.30277086  0.27235721  1
  O2-  O259  1  0.83306230  0.29478901  0.59314964  1
  O2-  O260  1  0.83385769  0.29284556  0.93330151  1
  O2-  O261  1  0.83533418  0.78966848  0.25892382  1
  O2-  O262  1  0.83672193  0.79520602  0.60762865  1
  O2-  O263  1  0.83764201  0.79281412  0.93413070  1
  O2-  O264  1  0.40960616  0.03791144  0.06504449  1
  O2-  O265  1  0.41426197  0.04164003  0.40348589  1
  O2-  O266  1  0.41312193  0.04278602  0.73549346  1
  O2-  O267  1  0.41555169  0.55044484  0.06267419  1
  O2-  O268  1  0.41324885  0.54822792  0.39287107  1
  O2-  O269  1  0.42024403  0.54827794  0.73661885  1
  O2-  O270  1  0.91438088  0.03665091  0.06949270  1
  O2-  O271  1  0.91739717  0.03644899  0.39502019  1
  O2-  O272  1  0.91184507  0.03640273  0.73181745  1
  O2-  O273  1  0.91547200  0.54537601  0.06210135  1
  O2-  O274  1  0.92317642  0.55079932  0.39560512  1
  O2-  O275  1  0.92104495  0.54954142  0.73434895  1
  O2-  O276  1  0.29245146  0.16269947  0.06311388  1
  O2-  O277  1  0.28469610  0.16639390  0.40222674  1
  O2-  O278  1  0.29779183  0.16518235  0.73495130  1
  O2-  O279  1  0.28610673  0.65997176  0.06820734  1
  O2-  O280  1  0.29084150  0.66448736  0.39441002  1
  O2-  O281  1  0.28644415  0.66681056  0.73618940  1
  O2-  O282  1  0.79353845  0.16926405  0.06835427  1
  O2-  O283  1  0.81375610  0.16932162  0.39349548  1
  O2-  O284  1  0.80454779  0.16725205  0.72114641  1
  O2-  O285  1  0.79506948  0.66533082  0.06078792  1
  O2-  O286  1  0.79390306  0.67103973  0.39377367  1
  O2-  O287  1  0.79111148  0.66913219  0.73841821  1
