# generated using pymatgen
data_Ca2Al2SiO7
_symmetry_space_group_name_H-M   'P 1'
_cell_length_a   15.46529040
_cell_length_b   15.46628404
_cell_length_c   15.28782913
_cell_angle_alpha   90.01623312
_cell_angle_beta   89.99429627
_cell_angle_gamma   90.02326578
_symmetry_Int_Tables_number   1
_chemical_formula_structural   Ca2Al2SiO7
_chemical_formula_sum   'Ca48 Al48 Si24 O168'
_cell_volume   3656.70415925
_cell_formula_units_Z   24
loop_
 _symmetry_equiv_pos_site_id
 _symmetry_equiv_pos_as_xyz
  1  'x, y, z'
loop_
 _atom_type_symbol
 _atom_type_oxidation_number
  Ca2+  2.0
  Al0+  0.0
  Si0+  0.0
  O2-  -2.0
loop_
 _atom_site_type_symbol
 _atom_site_label
 _atom_site_symmetry_multiplicity
 _atom_site_fract_x
 _atom_site_fract_y
 _atom_site_fract_z
 _atom_site_occupancy
  Ca2+  Ca0  1  0.17746720  0.08464542  0.17081473  1
  Ca2+  Ca1  1  0.17498278  0.07479899  0.50148733  1
  Ca2+  Ca2  1  0.17083698  0.07777364  0.83860121  1
  Ca2+  Ca3  1  0.17082914  0.57409550  0.17392958  1
  Ca2+  Ca4  1  0.17068036  0.57392431  0.51099152  1
  Ca2+  Ca5  1  0.16973849  0.58324381  0.82606791  1
  Ca2+  Ca6  1  0.67085487  0.07942083  0.16980100  1
  Ca2+  Ca7  1  0.66763640  0.07764774  0.51093024  1
  Ca2+  Ca8  1  0.67249530  0.08463907  0.83063506  1
  Ca2+  Ca9  1  0.67651110  0.58003980  0.17392224  1
  Ca2+  Ca10  1  0.66644373  0.57283080  0.50243741  1
  Ca2+  Ca11  1  0.66714712  0.57807399  0.83442895  1
  Ca2+  Ca12  1  0.08550023  0.32690355  0.16148747  1
  Ca2+  Ca13  1  0.08698690  0.33772017  0.49544706  1
  Ca2+  Ca14  1  0.08340137  0.32651797  0.82875967  1
  Ca2+  Ca15  1  0.08449488  0.83460727  0.16494806  1
  Ca2+  Ca16  1  0.08275712  0.83426876  0.50145469  1
  Ca2+  Ca17  1  0.07750675  0.82886804  0.81674290  1
  Ca2+  Ca18  1  0.57183315  0.33840954  0.16439804  1
  Ca2+  Ca19  1  0.57816947  0.33438592  0.49696631  1
  Ca2+  Ca20  1  0.57497163  0.32909366  0.82094103  1
  Ca2+  Ca21  1  0.58042765  0.83595762  0.16256803  1
  Ca2+  Ca22  1  0.58077627  0.84169681  0.49835483  1
  Ca2+  Ca23  1  0.57294819  0.83754246  0.82537402  1
  Ca2+  Ca24  1  0.33039183  0.40912999  0.17423903  1
  Ca2+  Ca25  1  0.32840479  0.41594099  0.50891050  1
  Ca2+  Ca26  1  0.33498087  0.41433996  0.83168823  1
  Ca2+  Ca27  1  0.33302027  0.92949773  0.17336845  1
  Ca2+  Ca28  1  0.32524646  0.91584882  0.50844178  1
  Ca2+  Ca29  1  0.33304024  0.91738609  0.83743257  1
  Ca2+  Ca30  1  0.82953702  0.42886589  0.17530849  1
  Ca2+  Ca31  1  0.82250367  0.41902287  0.50492416  1
  Ca2+  Ca32  1  0.82512176  0.42005609  0.83641169  1
  Ca2+  Ca33  1  0.82795946  0.92268291  0.17160613  1
  Ca2+  Ca34  1  0.82253251  0.91941938  0.50996457  1
  Ca2+  Ca35  1  0.83310061  0.92373604  0.83070547  1
  Ca2+  Ca36  1  0.40973618  0.17367789  0.16167479  1
  Ca2+  Ca37  1  0.41833400  0.17478558  0.49780886  1
  Ca2+  Ca38  1  0.41916719  0.17423331  0.82711375  1
  Ca2+  Ca39  1  0.41983768  0.67611956  0.15974545  1
  Ca2+  Ca40  1  0.41113663  0.67009059  0.50360717  1
  Ca2+  Ca41  1  0.41163198  0.67710268  0.82414497  1
  Ca2+  Ca42  1  0.92553457  0.16382395  0.15749626  1
  Ca2+  Ca43  1  0.91667817  0.16378084  0.49998955  1
  Ca2+  Ca44  1  0.92026257  0.15615146  0.82831941  1
  Ca2+  Ca45  1  0.91420543  0.66331858  0.16171002  1
  Ca2+  Ca46  1  0.91829261  0.66775441  0.49866833  1
  Ca2+  Ca47  1  0.92132409  0.67094268  0.82320456  1
  Al0+  Al48  1  -0.00090959  -0.00216504  0.00004470  1
  Al0+  Al49  1  0.00124941  -0.00075537  0.33282891  1
  Al0+  Al50  1  0.00094271  -0.00120102  0.66662315  1
  Al0+  Al51  1  -0.00028079  0.49853467  0.00293398  1
  Al0+  Al52  1  0.00163937  0.50179242  0.33783686  1
  Al0+  Al53  1  0.00136942  0.49835530  0.66727814  1
  Al0+  Al54  1  0.49868686  0.00114043  0.00048696  1
  Al0+  Al55  1  0.50128341  0.00378059  0.33774997  1
  Al0+  Al56  1  0.50011604  0.00093131  0.66245731  1
  Al0+  Al57  1  0.49821048  0.50144325  -0.00315587  1
  Al0+  Al58  1  0.50116996  0.50228952  0.32936786  1
  Al0+  Al59  1  0.49867562  0.50207789  0.67161480  1
  Al0+  Al60  1  0.24827421  0.24775530  -0.00588056  1
  Al0+  Al61  1  0.24976168  0.24941774  0.33739004  1
  Al0+  Al62  1  0.24856057  0.24916599  0.66644316  1
  Al0+  Al63  1  0.24881718  0.74723584  -0.00200614  1
  Al0+  Al64  1  0.24857746  0.75037974  0.33181043  1
  Al0+  Al65  1  0.24890520  0.74793307  0.66545947  1
  Al0+  Al66  1  0.74915512  0.25007403  0.00694340  1
  Al0+  Al67  1  0.75060620  0.25177524  0.33240349  1
  Al0+  Al68  1  0.75141486  0.24992622  0.67138252  1
  Al0+  Al69  1  0.75017362  0.74786751  0.00256641  1
  Al0+  Al70  1  0.75145410  0.75219375  0.33839296  1
  Al0+  Al71  1  0.74889459  0.75092808  0.66691766  1
  Al0+  Al72  1  0.18153772  0.42966520  0.34486977  1
  Al0+  Al73  1  0.82211056  0.57232891  0.35034078  1
  Al0+  Al74  1  0.82249348  0.07056607  0.01518362  1
  Al0+  Al75  1  0.31988597  0.07042213  0.01212840  1
  Al0+  Al76  1  0.92782576  0.82201554  0.64981551  1
  Al0+  Al77  1  0.67854277  0.42908025  0.68091250  1
  Al0+  Al78  1  0.18063557  0.92891050  0.68060153  1
  Al0+  Al79  1  0.67739057  0.42902004  0.34785558  1
  Al0+  Al80  1  0.82136999  0.07075546  0.68062441  1
  Al0+  Al81  1  0.42975722  0.32023451  0.31992951  1
  Al0+  Al82  1  0.82069269  0.56909288  0.01257125  1
  Al0+  Al83  1  0.07016860  0.67744595  0.64953325  1
  Al0+  Al84  1  0.42840647  0.32224440  0.65074400  1
  Al0+  Al85  1  0.42942437  0.82101914  0.65222012  1
  Al0+  Al86  1  0.67591118  0.92753375  0.68332562  1
  Al0+  Al87  1  0.67982488  0.93134818  0.34595901  1
  Al0+  Al88  1  0.42917842  0.82160602  0.98788474  1
  Al0+  Al89  1  0.06859211  0.17779598  0.98583986  1
  Al0+  Al90  1  0.42865920  0.32071424  0.98542570  1
  Al0+  Al91  1  0.17932683  0.92754871  0.34829449  1
  Al0+  Al92  1  0.17748130  0.42581816  0.68456377  1
  Al0+  Al93  1  0.32175970  0.07269623  0.34979967  1
  Al0+  Al94  1  0.57324614  0.18043396  0.65162848  1
  Al0+  Al95  1  0.32057880  0.57018712  0.68228931  1
  Si0+  Si96  1  0.67466135  0.42849003  0.01740375  1
  Si0+  Si97  1  0.57272930  0.67754217  0.64958781  1
  Si0+  Si98  1  0.57273064  0.68179110  0.31810179  1
  Si0+  Si99  1  0.32103509  0.57264055  0.01636903  1
  Si0+  Si100  1  0.92900394  0.32375286  0.31851536  1
  Si0+  Si101  1  0.57455141  0.17737216  0.31458534  1
  Si0+  Si102  1  0.42819431  0.82296666  0.31864756  1
  Si0+  Si103  1  0.07093392  0.17758413  0.64985999  1
  Si0+  Si104  1  0.92964558  0.32069473  0.65241775  1
  Si0+  Si105  1  0.57432080  0.17789625  0.98432181  1
  Si0+  Si106  1  0.82356237  0.07308573  0.34793683  1
  Si0+  Si107  1  0.07018763  0.67587728  0.98547121  1
  Si0+  Si108  1  0.32352611  0.57396227  0.34682230  1
  Si0+  Si109  1  0.82219596  0.57153527  0.68294916  1
  Si0+  Si110  1  0.07102437  0.67811606  0.31565993  1
  Si0+  Si111  1  0.06911210  0.17934612  0.31859180  1
  Si0+  Si112  1  0.17776192  0.92497302  0.01540972  1
  Si0+  Si113  1  0.32192337  0.07136447  0.68397440  1
  Si0+  Si114  1  0.67812480  0.92827064  0.01590920  1
  Si0+  Si115  1  0.92734856  0.32230403  0.98511871  1
  Si0+  Si116  1  0.57281023  0.67924323  0.98327724  1
  Si0+  Si117  1  0.92846766  0.81907782  0.98594585  1
  Si0+  Si118  1  0.18099920  0.42889141  0.01457229  1
  Si0+  Si119  1  0.92916218  0.82062821  0.31610632  1
  O2-  O120  1  0.24724508  -0.00701738  0.05900387  1
  O2-  O121  1  0.25569639  -0.00560704  0.39798216  1
  O2-  O122  1  0.25604389  0.00071116  0.72950271  1
  O2-  O123  1  0.25399685  0.49761573  0.05826428  1
  O2-  O124  1  0.25782555  0.50251230  0.38960537  1
  O2-  O125  1  0.25180704  0.49547088  0.73399991  1
  O2-  O126  1  0.74652043  -0.00298251  0.06119367  1
  O2-  O127  1  0.75136497  0.00904299  0.39135284  1
  O2-  O128  1  0.74888035  -0.00056563  0.73132695  1
  O2-  O129  1  0.74606382  0.49517180  0.06054083  1
  O2-  O130  1  0.75116264  0.49892638  0.39817176  1
  O2-  O131  1  0.75216100  0.50493565  0.72795606  1
  O2-  O132  1  -0.00245068  0.25021797  0.27580936  1
  O2-  O133  1  0.00146019  0.25091034  0.60886085  1
  O2-  O134  1  -0.01054555  0.24852621  0.93953936  1
  O2-  O135  1  0.00008664  0.74939142  0.27252549  1
  O2-  O136  1  -0.00233368  0.74837946  0.59868257  1
  O2-  O137  1  0.00102824  0.74916817  0.94492785  1
  O2-  O138  1  0.50533608  0.24652207  0.27122066  1
  O2-  O139  1  0.50225449  0.25271040  0.60046522  1
  O2-  O140  1  0.50740668  0.24908535  0.94169703  1
  O2-  O141  1  0.50079111  0.75298869  0.27613559  1
  O2-  O142  1  0.50706151  0.74922432  0.60506759  1
  O2-  O143  1  0.50407275  0.74777554  0.94014729  1
  O2-  O144  1  0.07009863  0.18140310  0.09958622  1
  O2-  O145  1  0.06704197  0.17846522  0.42345088  1
  O2-  O146  1  0.06976454  0.17687101  0.75515049  1
  O2-  O147  1  0.07036547  0.67513497  0.09103721  1
  O2-  O148  1  0.07165832  0.67667516  0.41963076  1
  O2-  O149  1  0.06701315  0.67849018  0.76417079  1
  O2-  O150  1  0.57447452  0.17720462  0.09016910  1
  O2-  O151  1  0.57695138  0.17734307  0.41940104  1
  O2-  O152  1  0.57254516  0.18213377  0.76584245  1
  O2-  O153  1  0.57248022  0.67987026  0.08946255  1
  O2-  O154  1  0.57239549  0.68056265  0.42257482  1
  O2-  O155  1  0.57217012  0.67756183  0.75550718  1
  O2-  O156  1  0.18103265  0.43011777  0.23078963  1
  O2-  O157  1  0.17764642  0.42740275  0.57090853  1
  O2-  O158  1  0.17875065  0.43066737  0.91032106  1
  O2-  O159  1  0.17897613  0.92836770  0.23401311  1
  O2-  O160  1  0.18077811  0.93223961  0.56769877  1
  O2-  O161  1  0.17731979  0.92448714  0.91020666  1
  O2-  O162  1  0.67809930  0.43286061  0.23377200  1
  O2-  O163  1  0.68084769  0.43033156  0.56801088  1
  O2-  O164  1  0.67539121  0.42984106  0.91199809  1
  O2-  O165  1  0.68223769  0.93045927  0.23200164  1
  O2-  O166  1  0.67794173  0.93005116  0.56968513  1
  O2-  O167  1  0.67855529  0.92683122  0.91120230  1
  O2-  O168  1  0.42787671  0.32023018  0.09910407  1
  O2-  O169  1  0.42925237  0.32070001  0.43196050  1
  O2-  O170  1  0.42946122  0.31848515  0.76474833  1
  O2-  O171  1  0.43089540  0.81974621  0.10180519  1
  O2-  O172  1  0.42661210  0.81993119  0.42319360  1
  O2-  O173  1  0.42919286  0.81945846  0.76566208  1
  O2-  O174  1  0.93267179  0.32459874  0.09097625  1
  O2-  O175  1  0.92936971  0.32308009  0.42344919  1
  O2-  O176  1  0.93033329  0.32120991  0.75772195  1
  O2-  O177  1  0.92858137  0.81853791  0.09160641  1
  O2-  O178  1  0.92935000  0.82178366  0.42018499  1
  O2-  O179  1  0.92999318  0.82025455  0.76434418  1
  O2-  O180  1  0.31821701  0.07295675  0.23540043  1
  O2-  O181  1  0.31858793  0.07136643  0.57845151  1
  O2-  O182  1  0.31799516  0.06980224  0.89956359  1
  O2-  O183  1  0.32057290  0.57593029  0.24039626  1
  O2-  O184  1  0.31893459  0.57035297  0.56831464  1
  O2-  O185  1  0.31890214  0.57654757  0.91235098  1
  O2-  O186  1  0.82529722  0.06981243  0.24185558  1
  O2-  O187  1  0.82176169  0.07093632  0.56678672  1
  O2-  O188  1  0.82410326  0.06749429  0.90322157  1
  O2-  O189  1  0.82101558  0.57139145  0.23602921  1
  O2-  O190  1  0.82242154  0.56862971  0.57757688  1
  O2-  O191  1  0.82098801  0.56820122  0.89995906  1
  O2-  O192  1  0.04158140  0.08795141  0.26898874  1
  O2-  O193  1  0.04047931  0.08772231  0.60091898  1
  O2-  O194  1  0.04068599  0.07958833  0.93333236  1
  O2-  O195  1  0.04247696  0.58626612  0.26695816  1
  O2-  O196  1  0.04282739  0.57770888  0.59831334  1
  O2-  O197  1  0.03992947  0.58491029  0.93846214  1
  O2-  O198  1  0.54908340  0.08336743  0.26774228  1
  O2-  O199  1  0.54467732  0.08280223  0.59812387  1
  O2-  O200  1  0.54715743  0.08495583  0.93867888  1
  O2-  O201  1  0.54556240  0.59139472  0.26666040  1
  O2-  O202  1  0.54281611  0.58554937  0.60299105  1
  O2-  O203  1  0.54734006  0.58587160  0.93736385  1
  O2-  O204  1  0.16040777  0.20956727  0.27156691  1
  O2-  O205  1  0.16251921  0.20413420  0.60210607  1
  O2-  O206  1  0.16190119  0.21170346  0.92897428  1
  O2-  O207  1  0.16279088  0.70573083  0.26581051  1
  O2-  O208  1  0.16786930  0.70577676  0.59694417  1
  O2-  O209  1  0.16255219  0.70047730  0.93842702  1
  O2-  O210  1  0.66908491  0.20190062  0.26761222  1
  O2-  O211  1  0.67315834  0.20756902  0.60092504  1
  O2-  O212  1  0.66968640  0.20120445  0.94033010  1
  O2-  O213  1  0.66445843  0.71195615  0.27050011  1
  O2-  O214  1  0.66745587  0.69809504  0.60424789  1
  O2-  O215  1  0.66694404  0.70314455  0.93761354  1
  O2-  O216  1  0.08999635  0.45851809  0.06351310  1
  O2-  O217  1  0.08614166  0.46045690  0.39944006  1
  O2-  O218  1  0.07936237  0.45571798  0.73798391  1
  O2-  O219  1  0.08420677  0.95050338  0.06156350  1
  O2-  O220  1  0.08161116  0.95949912  0.39959413  1
  O2-  O221  1  0.08481491  0.96115267  0.73444121  1
  O2-  O222  1  0.58186120  0.45856678  0.06331568  1
  O2-  O223  1  0.57999817  0.46189425  0.39928980  1
  O2-  O224  1  0.58347174  0.46047757  0.73639050  1
  O2-  O225  1  0.58494948  0.95451426  0.06291422  1
  O2-  O226  1  0.58280703  0.95715716  0.39964558  1
  O2-  O227  1  0.57731955  0.95753818  0.73465654  1
  O2-  O228  1  0.20758172  0.33615910  0.06040309  1
  O2-  O229  1  0.20714084  0.33348690  0.39982576  1
  O2-  O230  1  0.20291899  0.32609011  0.73619249  1
  O2-  O231  1  0.20129497  0.83033614  0.06138995  1
  O2-  O232  1  0.20273884  0.82729422  0.39864275  1
  O2-  O233  1  0.20754717  0.83123817  0.73285945  1
  O2-  O234  1  0.69582831  0.33437858  0.06393996  1
  O2-  O235  1  0.70476457  0.32977895  0.39864145  1
  O2-  O236  1  0.71286825  0.33535739  0.73733997  1
  O2-  O237  1  0.70450620  0.83467342  0.06269503  1
  O2-  O238  1  0.71171226  0.83680102  0.40099604  1
  O2-  O239  1  0.70217067  0.82819218  0.73559897  1
  O2-  O240  1  0.45791763  0.41847174  0.26457357  1
  O2-  O241  1  0.45383254  0.42327899  0.60301646  1
  O2-  O242  1  0.45417425  0.41982490  0.93363155  1
  O2-  O243  1  0.45628475  0.91605352  0.27344342  1
  O2-  O244  1  0.45606405  0.91774171  0.59718154  1
  O2-  O245  1  0.45782998  0.91848216  0.93418117  1
  O2-  O246  1  0.96044285  0.41488192  0.27099293  1
  O2-  O247  1  0.95620032  0.41200059  0.60385349  1
  O2-  O248  1  0.95889262  0.41347345  0.93734603  1
  O2-  O249  1  0.95836844  0.91238367  0.26721271  1
  O2-  O250  1  0.95982844  0.91920927  0.59656053  1
  O2-  O251  1  0.95489591  0.91066155  0.93863907  1
  O2-  O252  1  0.33201716  0.28728918  0.26688999  1
  O2-  O253  1  0.32908017  0.29227312  0.60023928  1
  O2-  O254  1  0.33352406  0.28790243  0.93122855  1
  O2-  O255  1  0.33703654  0.79395931  0.26935869  1
  O2-  O256  1  0.33448950  0.78573535  0.59814498  1
  O2-  O257  1  0.33229554  0.78907937  0.93530516  1
  O2-  O258  1  0.83642502  0.30029417  0.26981905  1
  O2-  O259  1  0.83879865  0.29156321  0.60444812  1
  O2-  O260  1  0.82999694  0.30390601  0.94473795  1
  O2-  O261  1  0.83712461  0.79264748  0.26820108  1
  O2-  O262  1  0.82788793  0.79572446  0.59909689  1
  O2-  O263  1  0.83679168  0.78996251  0.93967149  1
  O2-  O264  1  0.41688844  0.04285968  0.06793420  1
  O2-  O265  1  0.42229838  0.05357898  0.39938281  1
  O2-  O266  1  0.41640342  0.04823318  0.72753121  1
  O2-  O267  1  0.41514454  0.54995110  0.06202605  1
  O2-  O268  1  0.41848327  0.55371026  0.38998793  1
  O2-  O269  1  0.41908637  0.54884071  0.73790542  1
  O2-  O270  1  0.91819339  0.03667655  0.07062113  1
  O2-  O271  1  0.91583159  0.04446904  0.39367675  1
  O2-  O272  1  0.91898425  0.03950068  0.73367711  1
  O2-  O273  1  0.91673214  0.53773335  0.06930383  1
  O2-  O274  1  0.92041982  0.54514389  0.40177163  1
  O2-  O275  1  0.91474485  0.54329638  0.72906982  1
  O2-  O276  1  0.28367001  0.16603867  0.06605814  1
  O2-  O277  1  0.28510726  0.16633174  0.40495891  1
  O2-  O278  1  0.29226319  0.16361937  0.72973234  1
  O2-  O279  1  0.28895807  0.66227350  0.06690361  1
  O2-  O280  1  0.29508324  0.66616518  0.39280156  1
  O2-  O281  1  0.28627050  0.66645421  0.73680355  1
  O2-  O282  1  0.79663352  0.16853374  0.07038540  1
  O2-  O283  1  0.80474444  0.16919714  0.39035429  1
  O2-  O284  1  0.79680014  0.16867817  0.73649300  1
  O2-  O285  1  0.79089572  0.66553444  0.06898917  1
  O2-  O286  1  0.79393419  0.67000342  0.40209035  1
  O2-  O287  1  0.79837381  0.66574097  0.72791024  1
