# generated using pymatgen
data_Ca2Al2SiO7
_symmetry_space_group_name_H-M   'P 1'
_cell_length_a   15.45640190
_cell_length_b   15.45594575
_cell_length_c   15.28286851
_cell_angle_alpha   90.00362320
_cell_angle_beta   89.99392676
_cell_angle_gamma   90.00653088
_symmetry_Int_Tables_number   1
_chemical_formula_structural   Ca2Al2SiO7
_chemical_formula_sum   'Ca48 Al48 Si24 O168'
_cell_volume   3650.97498132
_cell_formula_units_Z   24
loop_
 _symmetry_equiv_pos_site_id
 _symmetry_equiv_pos_as_xyz
  1  'x, y, z'
loop_
 _atom_type_symbol
 _atom_type_oxidation_number
  Ca2+  2.0
  Al0+  0.0
  Si0+  0.0
  O2-  -2.0
loop_
 _atom_site_type_symbol
 _atom_site_label
 _atom_site_symmetry_multiplicity
 _atom_site_fract_x
 _atom_site_fract_y
 _atom_site_fract_z
 _atom_site_occupancy
  Ca2+  Ca0  1  0.16795130  0.07732751  0.17208860  1
  Ca2+  Ca1  1  0.16303767  0.08163947  0.50325067  1
  Ca2+  Ca2  1  0.17740621  0.09038762  0.83456036  1
  Ca2+  Ca3  1  0.17361203  0.58665039  0.17218208  1
  Ca2+  Ca4  1  0.17677923  0.58495911  0.50498651  1
  Ca2+  Ca5  1  0.17298137  0.57290562  0.83768071  1
  Ca2+  Ca6  1  0.66989798  0.08012368  0.17167969  1
  Ca2+  Ca7  1  0.67480573  0.07502958  0.50937887  1
  Ca2+  Ca8  1  0.67275081  0.07875015  0.83211638  1
  Ca2+  Ca9  1  0.67254993  0.57468117  0.17447449  1
  Ca2+  Ca10  1  0.67123073  0.58249345  0.49955085  1
  Ca2+  Ca11  1  0.66453294  0.57962272  0.83621011  1
  Ca2+  Ca12  1  0.08340813  0.33392171  0.16582129  1
  Ca2+  Ca13  1  0.07989705  0.32554209  0.49572768  1
  Ca2+  Ca14  1  0.08464579  0.33332781  0.82193964  1
  Ca2+  Ca15  1  0.07923230  0.82914990  0.16955166  1
  Ca2+  Ca16  1  0.08155321  0.82960297  0.48621900  1
  Ca2+  Ca17  1  0.07876143  0.83334330  0.83333681  1
  Ca2+  Ca18  1  0.57986603  0.34359281  0.16782700  1
  Ca2+  Ca19  1  0.57684873  0.33404356  0.49061588  1
  Ca2+  Ca20  1  0.58220863  0.33514879  0.83055168  1
  Ca2+  Ca21  1  0.56947940  0.83076460  0.16183660  1
  Ca2+  Ca22  1  0.57926665  0.82958488  0.49768004  1
  Ca2+  Ca23  1  0.57811539  0.82702233  0.82488554  1
  Ca2+  Ca24  1  0.33040136  0.42821456  0.17254255  1
  Ca2+  Ca25  1  0.32887023  0.42435994  0.50468001  1
  Ca2+  Ca26  1  0.32197816  0.42488791  0.83861319  1
  Ca2+  Ca27  1  0.33280886  0.91755195  0.17457236  1
  Ca2+  Ca28  1  0.32799116  0.91915109  0.50140308  1
  Ca2+  Ca29  1  0.33781599  0.92760550  0.83866027  1
  Ca2+  Ca30  1  0.82337208  0.41666371  0.17780148  1
  Ca2+  Ca31  1  0.83688309  0.41437864  0.49888390  1
  Ca2+  Ca32  1  0.82949919  0.41469810  0.83823922  1
  Ca2+  Ca33  1  0.83874493  0.91212498  0.17282840  1
  Ca2+  Ca34  1  0.83285508  0.92109370  0.50842419  1
  Ca2+  Ca35  1  0.83146821  0.91828918  0.83460317  1
  Ca2+  Ca36  1  0.41358625  0.17363230  0.16413680  1
  Ca2+  Ca37  1  0.41294097  0.17352730  0.49470277  1
  Ca2+  Ca38  1  0.41302300  0.16452895  0.82823549  1
  Ca2+  Ca39  1  0.40381556  0.67587160  0.16431704  1
  Ca2+  Ca40  1  0.41948359  0.66356266  0.49304954  1
  Ca2+  Ca41  1  0.41658097  0.66475070  0.82955524  1
  Ca2+  Ca42  1  0.92470972  0.16980371  0.16924707  1
  Ca2+  Ca43  1  0.92371661  0.17296722  0.49610519  1
  Ca2+  Ca44  1  0.92518594  0.17501626  0.81922244  1
  Ca2+  Ca45  1  0.91725597  0.67090265  0.16774165  1
  Ca2+  Ca46  1  0.92450164  0.67075758  0.48726885  1
  Ca2+  Ca47  1  0.91512920  0.67185246  0.83040348  1
  Al0+  Al48  1  0.00046266  0.00148371  -0.00636752  1
  Al0+  Al49  1  0.00106745  0.00033633  0.33026418  1
  Al0+  Al50  1  -0.00036024  0.00144399  0.66877245  1
  Al0+  Al51  1  -0.00111628  0.50022181  0.00205337  1
  Al0+  Al52  1  0.00005030  0.49911435  0.32839071  1
  Al0+  Al53  1  -0.00145977  0.50169065  0.66668201  1
  Al0+  Al54  1  0.50165953  0.00055957  -0.00002586  1
  Al0+  Al55  1  0.50079218  0.00017582  0.33086080  1
  Al0+  Al56  1  0.49977783  -0.00144215  0.67266550  1
  Al0+  Al57  1  0.49946470  0.49994656  0.00595809  1
  Al0+  Al58  1  0.50075232  0.49889977  0.33632836  1
  Al0+  Al59  1  0.50149170  0.50192542  0.66541252  1
  Al0+  Al60  1  0.25109727  0.24977823  0.00736807  1
  Al0+  Al61  1  0.25273502  0.25049543  0.32373131  1
  Al0+  Al62  1  0.24933302  0.24932501  0.66857507  1
  Al0+  Al63  1  0.24776722  0.75209094  -0.00582795  1
  Al0+  Al64  1  0.24974248  0.75190345  0.33515595  1
  Al0+  Al65  1  0.25056740  0.75203708  0.67205650  1
  Al0+  Al66  1  0.75033906  0.24811243  0.00409463  1
  Al0+  Al67  1  0.74991886  0.24732653  0.33469217  1
  Al0+  Al68  1  0.74956940  0.24956744  0.66681516  1
  Al0+  Al69  1  0.74898098  0.75072991  -0.00461354  1
  Al0+  Al70  1  0.74822962  0.74839745  0.33327226  1
  Al0+  Al71  1  0.74684153  0.74798605  0.66617235  1
  Al0+  Al72  1  0.31947437  0.07026679  0.67797215  1
  Al0+  Al73  1  0.68056057  0.42771471  0.01340878  1
  Al0+  Al74  1  0.31867368  0.57183336  0.34787679  1
  Al0+  Al75  1  0.17810519  0.43029851  0.67828453  1
  Al0+  Al76  1  0.32314693  0.06923217  0.01627221  1
  Al0+  Al77  1  0.92843663  0.82093844  0.98380288  1
  Al0+  Al78  1  0.82281531  0.57149541  0.34870016  1
  Al0+  Al79  1  0.67966675  0.92658872  0.68259557  1
  Al0+  Al80  1  0.31952536  0.57290239  0.01595324  1
  Al0+  Al81  1  0.17677717  0.42831154  0.01725465  1
  Al0+  Al82  1  0.07309594  0.67750018  0.31959298  1
  Al0+  Al83  1  0.92783506  0.32060197  0.31645926  1
  Al0+  Al84  1  0.92702153  0.82081752  0.32131232  1
  Al0+  Al85  1  0.43008519  0.82058173  0.32182934  1
  Al0+  Al86  1  0.68001911  0.42757142  0.35164933  1
  Al0+  Al87  1  0.56972515  0.67808325  0.65094699  1
  Al0+  Al88  1  0.17964509  0.93136443  0.34551442  1
  Al0+  Al89  1  0.43034210  0.32241899  0.31914545  1
  Al0+  Al90  1  0.32382220  0.57247427  0.68218653  1
  Al0+  Al91  1  0.82200709  0.07195645  0.68236417  1
  Al0+  Al92  1  0.07255867  0.17857722  0.31608660  1
  Al0+  Al93  1  0.07337520  0.17887495  0.65160409  1
  Al0+  Al94  1  0.92695880  0.32371166  0.65176143  1
  Al0+  Al95  1  0.42736862  0.82240999  0.98439922  1
  Si0+  Si96  1  0.07121881  0.67642108  0.98026343  1
  Si0+  Si97  1  0.82069637  0.57112042  0.68173308  1
  Si0+  Si98  1  0.82098834  0.57443379  0.01557704  1
  Si0+  Si99  1  0.92749463  0.31993659  0.98622805  1
  Si0+  Si100  1  0.57187436  0.17705890  0.31692765  1
  Si0+  Si101  1  0.43012229  0.32074283  0.98459731  1
  Si0+  Si102  1  0.82139669  0.06852800  0.34774342  1
  Si0+  Si103  1  0.43032443  0.32026752  0.65446172  1
  Si0+  Si104  1  0.57150531  0.67708692  0.31534208  1
  Si0+  Si105  1  0.17595852  0.92996793  0.01565449  1
  Si0+  Si106  1  0.92868370  0.81999220  0.65308730  1
  Si0+  Si107  1  0.07159276  0.68071062  0.65353504  1
  Si0+  Si108  1  0.57025479  0.67782846  0.98379849  1
  Si0+  Si109  1  0.32364866  0.07294578  0.34872467  1
  Si0+  Si110  1  0.67652959  0.92845377  0.34678873  1
  Si0+  Si111  1  0.57091151  0.17712254  0.65325658  1
  Si0+  Si112  1  0.17818861  0.42517070  0.34944269  1
  Si0+  Si113  1  0.42750689  0.82360005  0.64965305  1
  Si0+  Si114  1  0.68059980  0.92835995  0.01601513  1
  Si0+  Si115  1  0.67859599  0.42835838  0.68090158  1
  Si0+  Si116  1  0.07195309  0.18103238  0.98349317  1
  Si0+  Si117  1  0.17579688  0.92683743  0.68484804  1
  Si0+  Si118  1  0.57302944  0.17884544  0.98372760  1
  Si0+  Si119  1  0.82193320  0.06941115  0.01618473  1
  O2-  O120  1  0.25014440  -0.00772724  0.06058887  1
  O2-  O121  1  0.25262294  0.00754941  0.39300718  1
  O2-  O122  1  0.24472973  -0.00340745  0.72681202  1
  O2-  O123  1  0.24608179  0.50298136  0.06646922  1
  O2-  O124  1  0.24327853  0.49722668  0.39411521  1
  O2-  O125  1  0.24994178  0.50164294  0.72996538  1
  O2-  O126  1  0.75386756  -0.00384109  0.05983981  1
  O2-  O127  1  0.75238035  -0.00554656  0.38826382  1
  O2-  O128  1  0.75235413  -0.00217342  0.73355710  1
  O2-  O129  1  0.75571872  0.50220852  0.05842334  1
  O2-  O130  1  0.75412072  0.49736712  0.40149968  1
  O2-  O131  1  0.75247541  0.49652883  0.72305391  1
  O2-  O132  1  0.00350595  0.25319286  0.26500553  1
  O2-  O133  1  -0.00018429  0.25096043  0.60447427  1
  O2-  O134  1  0.00381445  0.25571344  0.94259596  1
  O2-  O135  1  -0.00367458  0.74632314  0.27129251  1
  O2-  O136  1  0.00358495  0.75430727  0.61061517  1
  O2-  O137  1  0.00090714  0.74457593  0.93626840  1
  O2-  O138  1  0.50592803  0.24783118  0.27229838  1
  O2-  O139  1  0.50025228  0.24804257  0.61140940  1
  O2-  O140  1  0.50119099  0.24934703  0.94137302  1
  O2-  O141  1  0.50131555  0.74428434  0.27167504  1
  O2-  O142  1  0.49228277  0.75101661  0.60603887  1
  O2-  O143  1  0.49949956  0.74431377  0.93907221  1
  O2-  O144  1  0.06869255  0.17723557  0.08815518  1
  O2-  O145  1  0.07058293  0.17738661  0.42937779  1
  O2-  O146  1  0.07411255  0.18167017  0.76599016  1
  O2-  O147  1  0.07191129  0.67714666  0.08534705  1
  O2-  O148  1  0.07447444  0.68214675  0.43391470  1
  O2-  O149  1  0.06797310  0.68091869  0.75882556  1
  O2-  O150  1  0.57495390  0.17738192  0.08861626  1
  O2-  O151  1  0.56968643  0.17406861  0.42262664  1
  O2-  O152  1  0.57136465  0.17922547  0.75884608  1
  O2-  O153  1  0.57440690  0.68132973  0.08889523  1
  O2-  O154  1  0.57215394  0.67959549  0.42107505  1
  O2-  O155  1  0.57080764  0.67760585  0.76442854  1
  O2-  O156  1  0.18277179  0.42517682  0.24387476  1
  O2-  O157  1  0.18007560  0.43080553  0.56494210  1
  O2-  O158  1  0.17827712  0.42735815  0.90333991  1
  O2-  O159  1  0.18071288  0.93152694  0.23229207  1
  O2-  O160  1  0.17586382  0.92401604  0.57942640  1
  O2-  O161  1  0.17392298  0.93444075  0.90984743  1
  O2-  O162  1  0.68020888  0.42996127  0.23777865  1
  O2-  O163  1  0.67599238  0.42828512  0.57665338  1
  O2-  O164  1  0.68192379  0.42698823  0.89955382  1
  O2-  O165  1  0.67418287  0.93221182  0.24130479  1
  O2-  O166  1  0.68069211  0.92878149  0.56853687  1
  O2-  O167  1  0.68119853  0.93018407  0.91114929  1
  O2-  O168  1  0.43276513  0.31992250  0.08943213  1
  O2-  O169  1  0.43001324  0.31953919  0.43300351  1
  O2-  O170  1  0.43306362  0.31947899  0.76000590  1
  O2-  O171  1  0.43035534  0.82375865  0.09761997  1
  O2-  O172  1  0.43386355  0.82377912  0.43467394  1
  O2-  O173  1  0.43060067  0.82538691  0.75537505  1
  O2-  O174  1  0.92476715  0.31497635  0.09060718  1
  O2-  O175  1  0.92671208  0.31574972  0.42967989  1
  O2-  O176  1  0.92583873  0.32290278  0.76639756  1
  O2-  O177  1  0.92848254  0.82054471  0.09621208  1
  O2-  O178  1  0.92859042  0.82269995  0.43528889  1
  O2-  O179  1  0.92878424  0.81703272  0.75861653  1
  O2-  O180  1  0.32607289  0.06919528  0.24312330  1
  O2-  O181  1  0.32156028  0.06949878  0.56518087  1
  O2-  O182  1  0.32190786  0.07074160  0.90281981  1
  O2-  O183  1  0.31746692  0.57269014  0.23499787  1
  O2-  O184  1  0.32356163  0.57099472  0.56864902  1
  O2-  O185  1  0.32077799  0.56850503  0.90233392  1
  O2-  O186  1  0.81907663  0.06864718  0.24194014  1
  O2-  O187  1  0.81981501  0.06965628  0.56858622  1
  O2-  O188  1  0.81907756  0.07077352  0.91138060  1
  O2-  O189  1  0.81687680  0.57419210  0.23488318  1
  O2-  O190  1  0.82066672  0.57452092  0.57749722  1
  O2-  O191  1  0.81941898  0.57454948  0.90927947  1
  O2-  O192  1  0.03831252  0.08270634  0.26093882  1
  O2-  O193  1  0.04503368  0.07901523  0.60093803  1
  O2-  O194  1  0.04147292  0.09121248  0.93377279  1
  O2-  O195  1  0.05080594  0.57889821  0.26530751  1
  O2-  O196  1  0.04171754  0.59038725  0.60584628  1
  O2-  O197  1  0.04426496  0.58251737  0.93414468  1
  O2-  O198  1  0.54439394  0.08536715  0.26705230  1
  O2-  O199  1  0.54378998  0.08459106  0.60737627  1
  O2-  O200  1  0.54610999  0.08721734  0.93557496  1
  O2-  O201  1  0.54851031  0.58250616  0.27185149  1
  O2-  O202  1  0.54215179  0.58139386  0.59530965  1
  O2-  O203  1  0.54613030  0.58265889  0.93921418  1
  O2-  O204  1  0.17164571  0.20156634  0.26234100  1
  O2-  O205  1  0.17176308  0.20611260  0.59794291  1
  O2-  O206  1  0.16613493  0.20701052  0.93969957  1
  O2-  O207  1  0.16779612  0.71428769  0.26486970  1
  O2-  O208  1  0.16528679  0.70648589  0.60893702  1
  O2-  O209  1  0.16280872  0.70421476  0.93102670  1
  O2-  O210  1  0.66618049  0.19882117  0.27097539  1
  O2-  O211  1  0.66212670  0.20423751  0.60495245  1
  O2-  O212  1  0.66481278  0.20821181  0.93601477  1
  O2-  O213  1  0.66358387  0.70500772  0.26770387  1
  O2-  O214  1  0.66551650  0.71121639  0.59596851  1
  O2-  O215  1  0.66260837  0.70525699  0.93483880  1
  O2-  O216  1  0.07585509  0.45183376  0.06737682  1
  O2-  O217  1  0.08160694  0.44380449  0.39026269  1
  O2-  O218  1  0.07985294  0.45939567  0.73280696  1
  O2-  O219  1  0.08423159  0.96242479  0.06176277  1
  O2-  O220  1  0.08262908  0.96101615  0.39993410  1
  O2-  O221  1  0.08217074  0.95108069  0.73135189  1
  O2-  O222  1  0.58463751  0.45790824  0.06778110  1
  O2-  O223  1  0.58215445  0.45735560  0.40438110  1
  O2-  O224  1  0.58883634  0.45985109  0.73052225  1
  O2-  O225  1  0.59051679  0.96038561  0.06390292  1
  O2-  O226  1  0.58789505  0.96240925  0.39689614  1
  O2-  O227  1  0.58284704  0.95700573  0.73731234  1
  O2-  O228  1  0.20742609  0.33137820  0.07069672  1
  O2-  O229  1  0.20966536  0.33201804  0.39341809  1
  O2-  O230  1  0.20757421  0.33279045  0.73254414  1
  O2-  O231  1  0.19416330  0.83324893  0.05641547  1
  O2-  O232  1  0.21219349  0.83727650  0.40269057  1
  O2-  O233  1  0.20114835  0.83477946  0.73452324  1
  O2-  O234  1  0.71032405  0.33127184  0.06843377  1
  O2-  O235  1  0.70380758  0.32628744  0.40148231  1
  O2-  O236  1  0.70214106  0.33576224  0.72921876  1
  O2-  O237  1  0.70564058  0.83530292  0.06179271  1
  O2-  O238  1  0.69763377  0.83481787  0.39227841  1
  O2-  O239  1  0.70779612  0.82830663  0.73607319  1
  O2-  O240  1  0.46355523  0.41793745  0.26437422  1
  O2-  O241  1  0.46032099  0.41087165  0.60680593  1
  O2-  O242  1  0.45950800  0.41255331  0.93776232  1
  O2-  O243  1  0.46358584  0.91599781  0.26570197  1
  O2-  O244  1  0.45778182  0.91600976  0.60348228  1
  O2-  O245  1  0.46427821  0.91814338  0.93129948  1
  O2-  O246  1  0.94871266  0.42042074  0.26374782  1
  O2-  O247  1  0.95272900  0.42318832  0.60000295  1
  O2-  O248  1  0.94620184  0.41559188  0.94210874  1
  O2-  O249  1  0.95725368  0.91742711  0.26614252  1
  O2-  O250  1  0.95078207  0.91455091  0.60957415  1
  O2-  O251  1  0.96071621  0.91727538  0.92842497  1
  O2-  O252  1  0.33715989  0.29165182  0.25961492  1
  O2-  O253  1  0.33913476  0.29221324  0.60733336  1
  O2-  O254  1  0.33775520  0.29094929  0.93935592  1
  O2-  O255  1  0.33363217  0.79224376  0.26771282  1
  O2-  O256  1  0.33098129  0.80324283  0.60764818  1
  O2-  O257  1  0.32921402  0.79916280  0.92976255  1
  O2-  O258  1  0.83010603  0.28548520  0.26434268  1
  O2-  O259  1  0.82796554  0.29445035  0.60016438  1
  O2-  O260  1  0.83724714  0.28629083  0.93804293  1
  O2-  O261  1  0.82724745  0.79610270  0.26798598  1
  O2-  O262  1  0.83755232  0.78948017  0.60714766  1
  O2-  O263  1  0.83125959  0.79145789  0.92854170  1
  O2-  O264  1  0.42167574  0.04242041  0.06846396  1
  O2-  O265  1  0.41690935  0.04526497  0.39504197  1
  O2-  O266  1  0.41527136  0.04068358  0.73538160  1
  O2-  O267  1  0.41769975  0.54455527  0.06897635  1
  O2-  O268  1  0.41590341  0.54021066  0.39968074  1
  O2-  O269  1  0.42188174  0.54175926  0.73464545  1
  O2-  O270  1  0.91509850  0.04293890  0.06081382  1
  O2-  O271  1  0.91313235  0.04237335  0.39452556  1
  O2-  O272  1  0.92039514  0.04581670  0.73665971  1
  O2-  O273  1  0.91584742  0.55395966  0.05957436  1
  O2-  O274  1  0.92378523  0.54771685  0.39868744  1
  O2-  O275  1  0.91225186  0.54717828  0.73174673  1
  O2-  O276  1  0.29207121  0.16491032  0.07050046  1
  O2-  O277  1  0.30142551  0.16884041  0.39056242  1
  O2-  O278  1  0.29103754  0.16622100  0.73534056  1
  O2-  O279  1  0.29141612  0.67412589  0.06342892  1
  O2-  O280  1  0.28989050  0.66831723  0.40283800  1
  O2-  O281  1  0.29787641  0.67182819  0.73442113  1
  O2-  O282  1  0.79031252  0.15885099  0.06575827  1
  O2-  O283  1  0.79022455  0.15798144  0.39668662  1
  O2-  O284  1  0.78915140  0.16904979  0.73651357  1
  O2-  O285  1  0.79141354  0.66707718  0.06111874  1
  O2-  O286  1  0.79072924  0.66952853  0.40262183  1
  O2-  O287  1  0.78802827  0.66050553  0.73154462  1
