# generated using pymatgen
data_Ca2Al2SiO7
_symmetry_space_group_name_H-M   'P 1'
_cell_length_a   15.46085348
_cell_length_b   15.46043088
_cell_length_c   15.28619095
_cell_angle_alpha   90.01344414
_cell_angle_beta   89.99902768
_cell_angle_gamma   89.99495753
_symmetry_Int_Tables_number   1
_chemical_formula_structural   Ca2Al2SiO7
_chemical_formula_sum   'Ca48 Al48 Si24 O168'
_cell_volume   3653.88037257
_cell_formula_units_Z   24
loop_
 _symmetry_equiv_pos_site_id
 _symmetry_equiv_pos_as_xyz
  1  'x, y, z'
loop_
 _atom_type_symbol
 _atom_type_oxidation_number
  Ca2+  2.0
  Al0+  0.0
  Si0+  0.0
  O2-  -2.0
loop_
 _atom_site_type_symbol
 _atom_site_label
 _atom_site_symmetry_multiplicity
 _atom_site_fract_x
 _atom_site_fract_y
 _atom_site_fract_z
 _atom_site_occupancy
  Ca2+  Ca0  1  0.17688600  0.07450936  0.16784059  1
  Ca2+  Ca1  1  0.16704570  0.07333826  0.50611468  1
  Ca2+  Ca2  1  0.17190937  0.07717405  0.83804252  1
  Ca2+  Ca3  1  0.17472731  0.58499972  0.16678148  1
  Ca2+  Ca4  1  0.17664740  0.57805983  0.51014885  1
  Ca2+  Ca5  1  0.17929761  0.57975401  0.83434460  1
  Ca2+  Ca6  1  0.66277975  0.08723680  0.16968867  1
  Ca2+  Ca7  1  0.66221833  0.07620929  0.50460965  1
  Ca2+  Ca8  1  0.66379238  0.07900282  0.83697565  1
  Ca2+  Ca9  1  0.66447896  0.57431631  0.17606694  1
  Ca2+  Ca10  1  0.66480557  0.58815695  0.49958274  1
  Ca2+  Ca11  1  0.66242087  0.57874787  0.83774721  1
  Ca2+  Ca12  1  0.08083939  0.33204828  0.16173084  1
  Ca2+  Ca13  1  0.08453903  0.33260558  0.50134310  1
  Ca2+  Ca14  1  0.08053360  0.32949777  0.81846561  1
  Ca2+  Ca15  1  0.07558869  0.84336971  0.16305166  1
  Ca2+  Ca16  1  0.08166217  0.83712505  0.49369053  1
  Ca2+  Ca17  1  0.08108422  0.84293590  0.83132948  1
  Ca2+  Ca18  1  0.58089052  0.33049384  0.16230490  1
  Ca2+  Ca19  1  0.57815962  0.32867194  0.48795179  1
  Ca2+  Ca20  1  0.58188672  0.33131821  0.83729397  1
  Ca2+  Ca21  1  0.57151368  0.82759866  0.16279476  1
  Ca2+  Ca22  1  0.57388823  0.82625384  0.49573893  1
  Ca2+  Ca23  1  0.56908083  0.82975835  0.82281641  1
  Ca2+  Ca24  1  0.34506098  0.41935703  0.16737579  1
  Ca2+  Ca25  1  0.33436373  0.42233338  0.50813259  1
  Ca2+  Ca26  1  0.34043839  0.42777560  0.83825648  1
  Ca2+  Ca27  1  0.32841593  0.91122022  0.17013471  1
  Ca2+  Ca28  1  0.32730332  0.90917838  0.50594070  1
  Ca2+  Ca29  1  0.32597900  0.91504771  0.84307874  1
  Ca2+  Ca30  1  0.81910349  0.42243577  0.17591010  1
  Ca2+  Ca31  1  0.82841986  0.42013910  0.50193783  1
  Ca2+  Ca32  1  0.82898846  0.41538134  0.83926941  1
  Ca2+  Ca33  1  0.83523949  0.91409192  0.17230491  1
  Ca2+  Ca34  1  0.82561873  0.91341762  0.50389295  1
  Ca2+  Ca35  1  0.82540509  0.91322918  0.83633385  1
  Ca2+  Ca36  1  0.42536856  0.17523735  0.15882548  1
  Ca2+  Ca37  1  0.42174203  0.17347867  0.49041047  1
  Ca2+  Ca38  1  0.41489209  0.16713874  0.83601752  1
  Ca2+  Ca39  1  0.41628066  0.67265701  0.16388540  1
  Ca2+  Ca40  1  0.42226773  0.67220522  0.49777962  1
  Ca2+  Ca41  1  0.41305652  0.67266825  0.82751460  1
  Ca2+  Ca42  1  0.91958151  0.16607512  0.16210366  1
  Ca2+  Ca43  1  0.92257640  0.16989133  0.50346500  1
  Ca2+  Ca44  1  0.92584797  0.17365563  0.82368196  1
  Ca2+  Ca45  1  0.91375770  0.67545932  0.16561480  1
  Ca2+  Ca46  1  0.91815314  0.67092784  0.49048195  1
  Ca2+  Ca47  1  0.91950120  0.67155324  0.83155033  1
  Al0+  Al48  1  -0.00174713  0.00060870  -0.00249637  1
  Al0+  Al49  1  0.00078980  0.00024953  0.33454593  1
  Al0+  Al50  1  -0.00059502  0.00290172  0.66608455  1
  Al0+  Al51  1  0.00003829  0.50252025  0.00029373  1
  Al0+  Al52  1  -0.00005150  0.50030741  0.33543325  1
  Al0+  Al53  1  -0.00190297  0.50139487  0.66628107  1
  Al0+  Al54  1  0.50054779  -0.00009015  -0.00349983  1
  Al0+  Al55  1  0.49930637  0.00130607  0.32729898  1
  Al0+  Al56  1  0.49905501  -0.00045728  0.66678726  1
  Al0+  Al57  1  0.50094922  0.49836600  0.00559526  1
  Al0+  Al58  1  0.49999929  0.49979408  0.33333855  1
  Al0+  Al59  1  0.50303802  0.50042972  0.66736354  1
  Al0+  Al60  1  0.25063858  0.24928214  -0.00025825  1
  Al0+  Al61  1  0.24972118  0.24813447  0.32925074  1
  Al0+  Al62  1  0.24910260  0.24770658  0.66375836  1
  Al0+  Al63  1  0.24720030  0.74707586  0.00537989  1
  Al0+  Al64  1  0.24757045  0.74785761  0.33550663  1
  Al0+  Al65  1  0.24768584  0.75020562  0.67161880  1
  Al0+  Al66  1  0.75013127  0.24928756  0.00042059  1
  Al0+  Al67  1  0.75243395  0.25048360  0.33606002  1
  Al0+  Al68  1  0.75158729  0.25093000  0.66288801  1
  Al0+  Al69  1  0.75141980  0.75063049  -0.00424324  1
  Al0+  Al70  1  0.75113013  0.75068711  0.32905551  1
  Al0+  Al71  1  0.74894272  0.74965046  0.66976249  1
  Al0+  Al72  1  0.17788695  0.92948882  0.01619382  1
  Al0+  Al73  1  0.17830889  0.42763655  0.67983185  1
  Al0+  Al74  1  0.42542274  0.82035686  0.31821534  1
  Al0+  Al75  1  0.68167891  0.42911836  0.01408872  1
  Al0+  Al76  1  0.42904856  0.32186673  0.98267770  1
  Al0+  Al77  1  0.92966776  0.82182838  0.98368810  1
  Al0+  Al78  1  0.57314145  0.17855453  0.98232219  1
  Al0+  Al79  1  0.32076235  0.56932962  0.01586708  1
  Al0+  Al80  1  0.07293283  0.17865994  0.64995687  1
  Al0+  Al81  1  0.82068264  0.57272917  0.34906173  1
  Al0+  Al82  1  0.92814804  0.32398888  0.64999896  1
  Al0+  Al83  1  0.93097586  0.82105935  0.32150680  1
  Al0+  Al84  1  0.67807731  0.42922714  0.35159775  1
  Al0+  Al85  1  0.32310113  0.56931668  0.68158042  1
  Al0+  Al86  1  0.42554162  0.82165178  0.65248049  1
  Al0+  Al87  1  0.17819533  0.92979928  0.68084458  1
  Al0+  Al88  1  0.17989478  0.92955865  0.34834782  1
  Al0+  Al89  1  0.57150798  0.67981281  0.31733678  1
  Al0+  Al90  1  0.67832229  0.92849623  0.67985119  1
  Al0+  Al91  1  0.42706412  0.81908791  0.98653569  1
  Al0+  Al92  1  0.42741161  0.32117950  0.31907828  1
  Al0+  Al93  1  0.32380498  0.07202964  0.01626356  1
  Al0+  Al94  1  0.57204348  0.67801789  0.65217280  1
  Al0+  Al95  1  0.57403299  0.17878955  0.31933359  1
  Si0+  Si96  1  0.07171608  0.67523722  0.31676631  1
  Si0+  Si97  1  0.82001919  0.07258095  0.68356402  1
  Si0+  Si98  1  0.82346606  0.07168751  0.34925136  1
  Si0+  Si99  1  0.07137859  0.67616538  0.98119000  1
  Si0+  Si100  1  0.57191402  0.17873576  0.65195709  1
  Si0+  Si101  1  0.07037152  0.18001952  0.98582611  1
  Si0+  Si102  1  0.92856262  0.82146733  0.65214855  1
  Si0+  Si103  1  0.32001041  0.56980634  0.34925175  1
  Si0+  Si104  1  0.67914472  0.92754442  0.01513100  1
  Si0+  Si105  1  0.92995784  0.32179880  0.98788095  1
  Si0+  Si106  1  0.68066687  0.42722809  0.68255371  1
  Si0+  Si107  1  0.06967035  0.67976442  0.65220584  1
  Si0+  Si108  1  0.81972438  0.06974546  0.01413260  1
  Si0+  Si109  1  0.43055064  0.32099407  0.65329165  1
  Si0+  Si110  1  0.32351808  0.07270187  0.68217775  1
  Si0+  Si111  1  0.32216480  0.07198578  0.35000274  1
  Si0+  Si112  1  0.82128182  0.57244183  0.68337294  1
  Si0+  Si113  1  0.17767851  0.42620034  0.34718079  1
  Si0+  Si114  1  0.06980348  0.17839688  0.31623573  1
  Si0+  Si115  1  0.17561677  0.42725346  0.01584291  1
  Si0+  Si116  1  0.82365961  0.57411194  0.01684012  1
  Si0+  Si117  1  0.93077044  0.32219002  0.31728039  1
  Si0+  Si118  1  0.67849546  0.93024389  0.34557531  1
  Si0+  Si119  1  0.57178862  0.67787836  0.98431318  1
  O2-  O120  1  0.25529519  -0.00409777  0.06604374  1
  O2-  O121  1  0.25831355  -0.00036894  0.39588491  1
  O2-  O122  1  0.25616728  0.00179247  0.72507398  1
  O2-  O123  1  0.24706862  0.49188097  0.06151840  1
  O2-  O124  1  0.25101542  0.49486667  0.38869174  1
  O2-  O125  1  0.25335002  0.49442198  0.73167228  1
  O2-  O126  1  0.74923972  -0.00045677  0.05807293  1
  O2-  O127  1  0.74783015  0.00393047  0.38833380  1
  O2-  O128  1  0.75153263  0.00446817  0.72841314  1
  O2-  O129  1  0.75466287  0.50599731  0.05988082  1
  O2-  O130  1  0.74808132  0.50325527  0.40218655  1
  O2-  O131  1  0.75098156  0.49986396  0.72410673  1
  O2-  O132  1  0.00108962  0.25149923  0.27319797  1
  O2-  O133  1  0.00369925  0.25469300  0.60096260  1
  O2-  O134  1  0.00545896  0.25711033  0.94449759  1
  O2-  O135  1  0.00425699  0.74575312  0.27365265  1
  O2-  O136  1  0.00065312  0.75256242  0.60934248  1
  O2-  O137  1  0.00532071  0.74812281  0.93732819  1
  O2-  O138  1  0.50274325  0.25172165  0.27078174  1
  O2-  O139  1  0.50029952  0.24906867  0.61066059  1
  O2-  O140  1  0.49880248  0.24789486  0.93171162  1
  O2-  O141  1  0.49808025  0.74979094  0.26706980  1
  O2-  O142  1  0.49885738  0.74987711  0.60429921  1
  O2-  O143  1  0.50257569  0.74525493  0.93947586  1
  O2-  O144  1  0.06592543  0.17959939  0.09140102  1
  O2-  O145  1  0.06858286  0.17862542  0.42093698  1
  O2-  O146  1  0.06851877  0.17777230  0.76391421  1
  O2-  O147  1  0.06792444  0.67104063  0.08663113  1
  O2-  O148  1  0.07126206  0.67431475  0.42258087  1
  O2-  O149  1  0.06674557  0.67843177  0.75719872  1
  O2-  O150  1  0.57789743  0.18278513  0.09525604  1
  O2-  O151  1  0.57165933  0.17759010  0.43376321  1
  O2-  O152  1  0.57424722  0.17983991  0.75665573  1
  O2-  O153  1  0.57356078  0.68078929  0.08969865  1
  O2-  O154  1  0.57074291  0.68314757  0.43086004  1
  O2-  O155  1  0.57330570  0.67830375  0.76593607  1
  O2-  O156  1  0.17370971  0.42760785  0.24209096  1
  O2-  O157  1  0.18059841  0.43101641  0.56568289  1
  O2-  O158  1  0.17027446  0.43009451  0.91090374  1
  O2-  O159  1  0.17593384  0.93392287  0.23582301  1
  O2-  O160  1  0.17637992  0.93096360  0.56756764  1
  O2-  O161  1  0.17530233  0.93429295  0.90261003  1
  O2-  O162  1  0.68255544  0.42774951  0.23809110  1
  O2-  O163  1  0.68095918  0.42482747  0.57802053  1
  O2-  O164  1  0.68530562  0.42920056  0.90024535  1
  O2-  O165  1  0.68143844  0.93055097  0.24032091  1
  O2-  O166  1  0.68097144  0.93044222  0.56627823  1
  O2-  O167  1  0.68229918  0.92752754  0.91000738  1
  O2-  O168  1  0.43173934  0.32160715  0.09576440  1
  O2-  O169  1  0.42553771  0.31816946  0.43366545  1
  O2-  O170  1  0.43262636  0.32166401  0.75803994  1
  O2-  O171  1  0.42935306  0.81703855  0.09954687  1
  O2-  O172  1  0.42552532  0.81872773  0.43168332  1
  O2-  O173  1  0.42606282  0.82087023  0.76622576  1
  O2-  O174  1  0.93094886  0.31911363  0.09323527  1
  O2-  O175  1  0.93247485  0.32197703  0.42198129  1
  O2-  O176  1  0.92653428  0.32078074  0.76439779  1
  O2-  O177  1  0.92909838  0.82216593  0.09672383  1
  O2-  O178  1  0.93207220  0.82192627  0.43498767  1
  O2-  O179  1  0.92870800  0.81981452  0.75733697  1
  O2-  O180  1  0.31823488  0.07453366  0.24502248  1
  O2-  O181  1  0.32398276  0.07455092  0.57647855  1
  O2-  O182  1  0.31845279  0.07283931  0.90237709  1
  O2-  O183  1  0.31731030  0.57115943  0.24412564  1
  O2-  O184  1  0.32142121  0.56773765  0.56755411  1
  O2-  O185  1  0.31981482  0.56918500  0.90298391  1
  O2-  O186  1  0.82745176  0.07093074  0.24383104  1
  O2-  O187  1  0.81950239  0.07184368  0.57774384  1
  O2-  O188  1  0.82052866  0.06997949  0.90922408  1
  O2-  O189  1  0.82284432  0.56893757  0.23547715  1
  O2-  O190  1  0.82255055  0.57495376  0.57871854  1
  O2-  O191  1  0.82542407  0.57246254  0.91086759  1
  O2-  O192  1  0.03635740  0.08908765  0.26824208  1
  O2-  O193  1  0.03607742  0.08316899  0.59474908  1
  O2-  O194  1  0.03467360  0.09203161  0.93680090  1
  O2-  O195  1  0.04531103  0.58243947  0.26892740  1
  O2-  O196  1  0.04038255  0.58926575  0.60320948  1
  O2-  O197  1  0.04152808  0.58443740  0.93185678  1
  O2-  O198  1  0.54745625  0.08135406  0.26437419  1
  O2-  O199  1  0.54483320  0.08683784  0.60465312  1
  O2-  O200  1  0.54880857  0.07894688  0.93008153  1
  O2-  O201  1  0.54425894  0.58042458  0.26730888  1
  O2-  O202  1  0.54658798  0.57879666  0.59905882  1
  O2-  O203  1  0.54761095  0.58303763  0.94141724  1
  O2-  O204  1  0.16129799  0.20445286  0.26794763  1
  O2-  O205  1  0.17143242  0.20207028  0.59435941  1
  O2-  O206  1  0.16347124  0.20109508  0.93945885  1
  O2-  O207  1  0.16490987  0.69989280  0.27075463  1
  O2-  O208  1  0.16163090  0.70584549  0.60513298  1
  O2-  O209  1  0.16584556  0.69857231  0.93738925  1
  O2-  O210  1  0.67492912  0.20376085  0.26920006  1
  O2-  O211  1  0.66349046  0.20607889  0.60414159  1
  O2-  O212  1  0.67176341  0.20982912  0.92874637  1
  O2-  O213  1  0.66944921  0.70774859  0.26376555  1
  O2-  O214  1  0.67075377  0.70833801  0.60031865  1
  O2-  O215  1  0.66585141  0.70230960  0.93791163  1
  O2-  O216  1  0.08304230  0.45660467  0.06472976  1
  O2-  O217  1  0.08719901  0.45553229  0.39628749  1
  O2-  O218  1  0.07963661  0.45816913  0.73155583  1
  O2-  O219  1  0.07973827  0.96495262  0.06703533  1
  O2-  O220  1  0.08438565  0.96552522  0.40260118  1
  O2-  O221  1  0.08123812  0.96352613  0.73346653  1
  O2-  O222  1  0.58594304  0.45743014  0.06919022  1
  O2-  O223  1  0.57814678  0.45421990  0.40291053  1
  O2-  O224  1  0.58944042  0.45467392  0.73081233  1
  O2-  O225  1  0.58724953  0.95386177  0.06164340  1
  O2-  O226  1  0.58608209  0.95672270  0.39270590  1
  O2-  O227  1  0.58186831  0.95917486  0.73386298  1
  O2-  O228  1  0.19549385  0.33185347  0.06016526  1
  O2-  O229  1  0.20210083  0.33254609  0.39261686  1
  O2-  O230  1  0.19947269  0.32598056  0.72823144  1
  O2-  O231  1  0.19677013  0.82834547  0.06671911  1
  O2-  O232  1  0.20318474  0.82990125  0.40045573  1
  O2-  O233  1  0.20203524  0.83242167  0.73583805  1
  O2-  O234  1  0.71676466  0.33374104  0.06795677  1
  O2-  O235  1  0.71119440  0.33108249  0.40404685  1
  O2-  O236  1  0.71102563  0.33593639  0.73013497  1
  O2-  O237  1  0.71005227  0.83617496  0.06167808  1
  O2-  O238  1  0.71062805  0.84023497  0.39309970  1
  O2-  O239  1  0.71223675  0.83414698  0.73641053  1
  O2-  O240  1  0.45299297  0.42028615  0.26833807  1
  O2-  O241  1  0.46009831  0.41191991  0.60556353  1
  O2-  O242  1  0.46299853  0.41985889  0.93141316  1
  O2-  O243  1  0.45169034  0.91944979  0.26657522  1
  O2-  O244  1  0.45392711  0.92062937  0.59987535  1
  O2-  O245  1  0.45679942  0.91588120  0.93344721  1
  O2-  O246  1  0.95948232  0.41343923  0.26932312  1
  O2-  O247  1  0.95248528  0.42348059  0.59786142  1
  O2-  O248  1  0.95096833  0.41618418  0.94231792  1
  O2-  O249  1  0.96234320  0.91771083  0.26684512  1
  O2-  O250  1  0.95264825  0.91467952  0.60654459  1
  O2-  O251  1  0.95796584  0.91903182  0.92902536  1
  O2-  O252  1  0.32937218  0.29289994  0.26448703  1
  O2-  O253  1  0.33820720  0.29515091  0.60636704  1
  O2-  O254  1  0.32808336  0.29736234  0.93199483  1
  O2-  O255  1  0.32688023  0.78908272  0.26691371  1
  O2-  O256  1  0.32650550  0.79207247  0.60162183  1
  O2-  O257  1  0.32851227  0.78818995  0.93682927  1
  O2-  O258  1  0.83944857  0.29281371  0.27060673  1
  O2-  O259  1  0.83230391  0.28991526  0.59451717  1
  O2-  O260  1  0.84104766  0.28867936  0.93912060  1
  O2-  O261  1  0.83550019  0.79304726  0.26461686  1
  O2-  O262  1  0.83723832  0.79130527  0.60606510  1
  O2-  O263  1  0.83379371  0.78964971  0.92782320  1
  O2-  O264  1  0.42512658  0.04957665  0.06515768  1
  O2-  O265  1  0.41832347  0.05212910  0.39329005  1
  O2-  O266  1  0.41750495  0.05104932  0.72877020  1
  O2-  O267  1  0.41687312  0.53995968  0.07097547  1
  O2-  O268  1  0.41206657  0.54463521  0.39628454  1
  O2-  O269  1  0.42197341  0.54189782  0.73452972  1
  O2-  O270  1  0.91090931  0.04163527  0.06299517  1
  O2-  O271  1  0.91232945  0.03906990  0.39932580  1
  O2-  O272  1  0.91328690  0.04674096  0.72973371  1
  O2-  O273  1  0.91720508  0.54925442  0.06334326  1
  O2-  O274  1  0.91946168  0.54237263  0.40206824  1
  O2-  O275  1  0.91258419  0.54523315  0.73231553  1
  O2-  O276  1  0.29069733  0.16958556  0.06959016  1
  O2-  O277  1  0.29081987  0.16430303  0.39698930  1
  O2-  O278  1  0.29535008  0.16524340  0.72913038  1
  O2-  O279  1  0.28552742  0.66282376  0.07299830  1
  O2-  O280  1  0.28769750  0.65903611  0.39888106  1
  O2-  O281  1  0.28881851  0.66546403  0.73494096  1
  O2-  O282  1  0.79416895  0.16149781  0.06336302  1
  O2-  O283  1  0.80144141  0.16436237  0.39716666  1
  O2-  O284  1  0.79488488  0.16679195  0.72899889  1
  O2-  O285  1  0.79869576  0.66878266  0.06071114  1
  O2-  O286  1  0.79574787  0.67326731  0.40009842  1
  O2-  O287  1  0.79328161  0.66291443  0.73357693  1
