# generated using pymatgen
data_Ca2Al2SiO7
_symmetry_space_group_name_H-M   'P 1'
_cell_length_a   15.45206553
_cell_length_b   15.45266635
_cell_length_c   15.27939526
_cell_angle_alpha   89.99705246
_cell_angle_beta   89.99687855
_cell_angle_gamma   89.99745777
_symmetry_Int_Tables_number   1
_chemical_formula_structural   Ca2Al2SiO7
_chemical_formula_sum   'Ca48 Al48 Si24 O168'
_cell_volume   3648.34695622
_cell_formula_units_Z   24
loop_
 _symmetry_equiv_pos_site_id
 _symmetry_equiv_pos_as_xyz
  1  'x, y, z'
loop_
 _atom_type_symbol
 _atom_type_oxidation_number
  Ca2+  2.0
  Al0+  0.0
  Si0+  0.0
  O2-  -2.0
loop_
 _atom_site_type_symbol
 _atom_site_label
 _atom_site_symmetry_multiplicity
 _atom_site_fract_x
 _atom_site_fract_y
 _atom_site_fract_z
 _atom_site_occupancy
  Ca2+  Ca0  1  0.16570570  0.08033706  0.17546015  1
  Ca2+  Ca1  1  0.17716433  0.09470818  0.50353343  1
  Ca2+  Ca2  1  0.17151751  0.07954995  0.83596923  1
  Ca2+  Ca3  1  0.16811181  0.58010062  0.17325614  1
  Ca2+  Ca4  1  0.16367003  0.58069181  0.50449249  1
  Ca2+  Ca5  1  0.17643341  0.59110319  0.83441531  1
  Ca2+  Ca6  1  0.67139170  0.07982461  0.17475675  1
  Ca2+  Ca7  1  0.67605288  0.09375709  0.50489092  1
  Ca2+  Ca8  1  0.67121604  0.08193593  0.83159776  1
  Ca2+  Ca9  1  0.67951436  0.57696363  0.17147187  1
  Ca2+  Ca10  1  0.66397109  0.56937072  0.50800565  1
  Ca2+  Ca11  1  0.67006640  0.57862638  0.83593759  1
  Ca2+  Ca12  1  0.07759320  0.33114239  0.16730134  1
  Ca2+  Ca13  1  0.07131674  0.33246040  0.48978515  1
  Ca2+  Ca14  1  0.06912368  0.33739887  0.82914555  1
  Ca2+  Ca15  1  0.07841625  0.83132059  0.16007388  1
  Ca2+  Ca16  1  0.08438453  0.82297208  0.50032091  1
  Ca2+  Ca17  1  0.07506604  0.83191173  0.82717753  1
  Ca2+  Ca18  1  0.59075823  0.32771562  0.17030458  1
  Ca2+  Ca19  1  0.58286880  0.32718176  0.49911725  1
  Ca2+  Ca20  1  0.57897698  0.32946998  0.81965830  1
  Ca2+  Ca21  1  0.58272678  0.83566705  0.16022138  1
  Ca2+  Ca22  1  0.58417289  0.82589898  0.50027969  1
  Ca2+  Ca23  1  0.58694542  0.82606548  0.82834315  1
  Ca2+  Ca24  1  0.32523414  0.42156931  0.17281132  1
  Ca2+  Ca25  1  0.32430561  0.41527855  0.50832519  1
  Ca2+  Ca26  1  0.33948512  0.42761135  0.83325580  1
  Ca2+  Ca27  1  0.32375785  0.92148061  0.17160145  1
  Ca2+  Ca28  1  0.33281003  0.92944848  0.50442991  1
  Ca2+  Ca29  1  0.32651610  0.92068150  0.83694152  1
  Ca2+  Ca30  1  0.83731602  0.41667770  0.17178942  1
  Ca2+  Ca31  1  0.82385007  0.40423906  0.50477499  1
  Ca2+  Ca32  1  0.83159047  0.41721236  0.83466591  1
  Ca2+  Ca33  1  0.83069924  0.91908572  0.16888967  1
  Ca2+  Ca34  1  0.84022507  0.93001837  0.50564143  1
  Ca2+  Ca35  1  0.83366862  0.91743746  0.83837315  1
  Ca2+  Ca36  1  0.41984628  0.16314642  0.16808752  1
  Ca2+  Ca37  1  0.42531192  0.16283424  0.49523744  1
  Ca2+  Ca38  1  0.42319546  0.17269981  0.82047565  1
  Ca2+  Ca39  1  0.41781298  0.66422526  0.16222536  1
  Ca2+  Ca40  1  0.41984368  0.66010107  0.50323694  1
  Ca2+  Ca41  1  0.41980897  0.66294349  0.82335228  1
  Ca2+  Ca42  1  0.91282868  0.17694603  0.16782484  1
  Ca2+  Ca43  1  0.91418609  0.17322708  0.49294994  1
  Ca2+  Ca44  1  0.91247272  0.17548222  0.82590884  1
  Ca2+  Ca45  1  0.92337488  0.66620976  0.15870644  1
  Ca2+  Ca46  1  0.92661933  0.67100083  0.49774790  1
  Ca2+  Ca47  1  0.91505478  0.67808964  0.82572471  1
  Al0+  Al48  1  0.00097515  0.00021629  0.00079578  1
  Al0+  Al49  1  -0.00051658  -0.00164453  0.33482396  1
  Al0+  Al50  1  0.00004740  0.00132764  0.66842202  1
  Al0+  Al51  1  0.00147617  0.49907999  -0.00238335  1
  Al0+  Al52  1  0.00107255  0.50303336  0.32923503  1
  Al0+  Al53  1  -0.00236222  0.50042807  0.65970889  1
  Al0+  Al54  1  0.50101045  -0.00100973  0.00136321  1
  Al0+  Al55  1  0.49901634  -0.00174454  0.33209487  1
  Al0+  Al56  1  0.50086478  -0.00064733  0.66850776  1
  Al0+  Al57  1  0.50046811  0.49863420  0.00666460  1
  Al0+  Al58  1  0.50168568  0.50051488  0.33377015  1
  Al0+  Al59  1  0.49871178  0.49864951  0.66646906  1
  Al0+  Al60  1  0.25215765  0.25109775  -0.00191070  1
  Al0+  Al61  1  0.24985842  0.25185061  0.33682178  1
  Al0+  Al62  1  0.24878364  0.25188821  0.67389688  1
  Al0+  Al63  1  0.25199611  0.75180944  0.00901943  1
  Al0+  Al64  1  0.25089290  0.75116028  0.32943845  1
  Al0+  Al65  1  0.25005226  0.74991660  0.66647325  1
  Al0+  Al66  1  0.74970881  0.24904117  -0.00531260  1
  Al0+  Al67  1  0.74790740  0.24933793  0.33084048  1
  Al0+  Al68  1  0.74856868  0.24907311  0.67118096  1
  Al0+  Al69  1  0.75044315  0.74887467  0.00553612  1
  Al0+  Al70  1  0.74892768  0.74919684  0.33357112  1
  Al0+  Al71  1  0.74968801  0.75051643  0.65481159  1
  Al0+  Al72  1  0.81949862  0.06862594  0.34556768  1
  Al0+  Al73  1  0.68126483  0.42991591  0.34739266  1
  Al0+  Al74  1  0.92751913  0.32016454  0.31803821  1
  Al0+  Al75  1  0.17846714  0.43092973  0.34682855  1
  Al0+  Al76  1  0.56952241  0.17772474  0.65188146  1
  Al0+  Al77  1  0.07141544  0.68090600  0.31669138  1
  Al0+  Al78  1  0.92961586  0.32084034  0.98395674  1
  Al0+  Al79  1  0.31868215  0.56959035  0.67853148  1
  Al0+  Al80  1  0.17839719  0.93107729  0.01409736  1
  Al0+  Al81  1  0.07248896  0.67981387  0.65287401  1
  Al0+  Al82  1  0.82162461  0.57003893  0.01109471  1
  Al0+  Al83  1  0.32271863  0.07266497  0.68170247  1
  Al0+  Al84  1  0.92766085  0.82448239  0.65013926  1
  Al0+  Al85  1  0.82114429  0.07039563  0.68150710  1
  Al0+  Al86  1  0.57065771  0.67793535  0.65412140  1
  Al0+  Al87  1  0.42682361  0.32215047  0.65189302  1
  Al0+  Al88  1  0.32010322  0.07048504  0.34650029  1
  Al0+  Al89  1  0.92850375  0.82011332  0.98741632  1
  Al0+  Al90  1  0.67995370  0.92896819  0.01261648  1
  Al0+  Al91  1  0.67972979  0.42958073  0.68104216  1
  Al0+  Al92  1  0.56930972  0.17869246  0.31842707  1
  Al0+  Al93  1  0.92837166  0.31952748  0.65298947  1
  Al0+  Al94  1  0.07346613  0.17808375  0.31983835  1
  Al0+  Al95  1  0.32204084  0.57055607  0.01498304  1
  Si0+  Si96  1  0.42894560  0.82091818  0.98537444  1
  Si0+  Si97  1  0.42775252  0.32374892  0.31573771  1
  Si0+  Si98  1  0.32245364  0.07312195  0.01677120  1
  Si0+  Si99  1  0.82202076  0.57373240  0.68045413  1
  Si0+  Si100  1  0.56993258  0.67837082  0.98743955  1
  Si0+  Si101  1  0.67850206  0.42631839  0.01700031  1
  Si0+  Si102  1  0.42722532  0.82210361  0.65091060  1
  Si0+  Si103  1  0.07460230  0.67867392  0.98365124  1
  Si0+  Si104  1  0.42931721  0.32199227  0.98563021  1
  Si0+  Si105  1  0.32222644  0.57350847  0.35053121  1
  Si0+  Si106  1  0.07448311  0.17748541  0.98262419  1
  Si0+  Si107  1  0.57112581  0.67708654  0.31569023  1
  Si0+  Si108  1  0.43098453  0.82056575  0.31658168  1
  Si0+  Si109  1  0.17812028  0.42728704  0.01619035  1
  Si0+  Si110  1  0.17332991  0.42844503  0.68479668  1
  Si0+  Si111  1  0.82156697  0.07357220  0.01698221  1
  Si0+  Si112  1  0.17953182  0.92805031  0.68298435  1
  Si0+  Si113  1  0.82338886  0.57387238  0.35158585  1
  Si0+  Si114  1  0.67872600  0.92469669  0.68199401  1
  Si0+  Si115  1  0.92659988  0.82197372  0.31507379  1
  Si0+  Si116  1  0.67609240  0.92595715  0.35152027  1
  Si0+  Si117  1  0.07252916  0.17801814  0.65278080  1
  Si0+  Si118  1  0.17750546  0.92663607  0.35152271  1
  Si0+  Si119  1  0.56975549  0.17752511  0.98424956  1
  O2-  O120  1  0.25027783  0.00866279  0.06113900  1
  O2-  O121  1  0.24068172  0.00103878  0.39456058  1
  O2-  O122  1  0.24728088  -0.00187059  0.72736662  1
  O2-  O123  1  0.24561889  0.49763985  0.06029813  1
  O2-  O124  1  0.25365980  0.50533486  0.39386428  1
  O2-  O125  1  0.24328693  0.49704190  0.72811869  1
  O2-  O126  1  0.75412634  0.00311255  0.06049884  1
  O2-  O127  1  0.74594941  -0.00688295  0.39428936  1
  O2-  O128  1  0.74867295  -0.00803041  0.72635665  1
  O2-  O129  1  0.75095677  0.49179174  0.05948400  1
  O2-  O130  1  0.75743353  0.50261643  0.39512834  1
  O2-  O131  1  0.75396519  0.50540080  0.72663086  1
  O2-  O132  1  0.00074896  0.24857704  0.26815423  1
  O2-  O133  1  0.00454792  0.24622992  0.60780701  1
  O2-  O134  1  0.00465464  0.24515350  0.93865274  1
  O2-  O135  1  -0.00511998  0.75353559  0.26977937  1
  O2-  O136  1  -0.00020823  0.75127499  0.60278140  1
  O2-  O137  1  0.00384524  0.74571423  0.94040310  1
  O2-  O138  1  0.49468703  0.25343634  0.27025242  1
  O2-  O139  1  0.49417228  0.24615866  0.60177667  1
  O2-  O140  1  0.49948828  0.25003391  0.94388240  1
  O2-  O141  1  0.50120770  0.74893428  0.27314056  1
  O2-  O142  1  0.49610014  0.75327815  0.60704367  1
  O2-  O143  1  0.49802189  0.74796789  0.94343564  1
  O2-  O144  1  0.07677325  0.17858939  0.08793788  1
  O2-  O145  1  0.07386308  0.18119990  0.43325979  1
  O2-  O146  1  0.07114654  0.17811181  0.75892340  1
  O2-  O147  1  0.07370449  0.67998311  0.08942764  1
  O2-  O148  1  0.07307447  0.68300730  0.42942886  1
  O2-  O149  1  0.07448026  0.68309262  0.76681114  1
  O2-  O150  1  0.56938364  0.17692249  0.08949788  1
  O2-  O151  1  0.56888333  0.17844064  0.43066552  1
  O2-  O152  1  0.56884008  0.17891279  0.76636945  1
  O2-  O153  1  0.56780007  0.67986390  0.09281281  1
  O2-  O154  1  0.56947436  0.67675367  0.42051826  1
  O2-  O155  1  0.57028108  0.67966435  0.76798941  1
  O2-  O156  1  0.18128731  0.43244231  0.23307451  1
  O2-  O157  1  0.17370372  0.42843840  0.57928295  1
  O2-  O158  1  0.17920837  0.42685705  0.91080693  1
  O2-  O159  1  0.18101260  0.92507890  0.24560865  1
  O2-  O160  1  0.18214531  0.92646973  0.57752892  1
  O2-  O161  1  0.18205444  0.93035145  0.90097816  1
  O2-  O162  1  0.68112724  0.43311557  0.23364524  1
  O2-  O163  1  0.68011179  0.42938786  0.56805371  1
  O2-  O164  1  0.67440865  0.42868228  0.91169188  1
  O2-  O165  1  0.67572453  0.92577167  0.24537555  1
  O2-  O166  1  0.67703320  0.92397850  0.57663415  1
  O2-  O167  1  0.67817578  0.92853426  0.89988881  1
  O2-  O168  1  0.42759573  0.32164118  0.09068451  1
  O2-  O169  1  0.42863610  0.32533299  0.42066983  1
  O2-  O170  1  0.43123823  0.32243246  0.76655947  1
  O2-  O171  1  0.43092273  0.82185938  0.09066186  1
  O2-  O172  1  0.43166035  0.82095180  0.42145399  1
  O2-  O173  1  0.42660866  0.82120918  0.75692299  1
  O2-  O174  1  0.92917247  0.31999483  0.09669257  1
  O2-  O175  1  0.92649765  0.31731253  0.43136284  1
  O2-  O176  1  0.92954787  0.31968595  0.76663720  1
  O2-  O177  1  0.92938436  0.81806409  0.10053598  1
  O2-  O178  1  0.92718550  0.82083874  0.42026004  1
  O2-  O179  1  0.92738222  0.82252337  0.76440670  1
  O2-  O180  1  0.32169480  0.06538547  0.23300203  1
  O2-  O181  1  0.32238105  0.06999564  0.56859985  1
  O2-  O182  1  0.32344358  0.07090731  0.91129433  1
  O2-  O183  1  0.32236264  0.57226061  0.24437533  1
  O2-  O184  1  0.31781535  0.56919446  0.56569624  1
  O2-  O185  1  0.32492527  0.57058433  0.90209225  1
  O2-  O186  1  0.81649205  0.06694989  0.23194296  1
  O2-  O187  1  0.81978058  0.07133720  0.56848817  1
  O2-  O188  1  0.81899410  0.07452853  0.91145184  1
  O2-  O189  1  0.82006474  0.57612602  0.24539579  1
  O2-  O190  1  0.82069986  0.57294340  0.57503783  1
  O2-  O191  1  0.81678717  0.57265921  0.89818162  1
  O2-  O192  1  0.04765428  0.07724144  0.26948936  1
  O2-  O193  1  0.05096963  0.08389665  0.60721070  1
  O2-  O194  1  0.05046898  0.08329398  0.93723915  1
  O2-  O195  1  0.04187924  0.58519901  0.26036458  1
  O2-  O196  1  0.04410695  0.58260900  0.59800351  1
  O2-  O197  1  0.05409504  0.58375429  0.93917482  1
  O2-  O198  1  0.53811697  0.08133343  0.26434054  1
  O2-  O199  1  0.54637936  0.07727181  0.60081562  1
  O2-  O200  1  0.54087832  0.08582902  0.93702114  1
  O2-  O201  1  0.54221758  0.58659156  0.26588416  1
  O2-  O202  1  0.53601968  0.58385379  0.59873783  1
  O2-  O203  1  0.54285105  0.58507060  0.94249746  1
  O2-  O204  1  0.17195959  0.20725786  0.26602928  1
  O2-  O205  1  0.16710386  0.20354298  0.60974340  1
  O2-  O206  1  0.16877914  0.20303156  0.93614612  1
  O2-  O207  1  0.16870140  0.71163881  0.26258894  1
  O2-  O208  1  0.16994235  0.70973592  0.59790615  1
  O2-  O209  1  0.16917251  0.70817937  0.94149315  1
  O2-  O210  1  0.66359675  0.21133613  0.26113297  1
  O2-  O211  1  0.66663431  0.21142838  0.60140444  1
  O2-  O212  1  0.66147133  0.20368645  0.93620516  1
  O2-  O213  1  0.66378120  0.70456149  0.26890043  1
  O2-  O214  1  0.66403125  0.70720236  0.59376607  1
  O2-  O215  1  0.66112479  0.70784822  0.94107035  1
  O2-  O216  1  0.08456030  0.45145289  0.06233038  1
  O2-  O217  1  0.08184021  0.46321149  0.39954970  1
  O2-  O218  1  0.07960232  0.45658246  0.72968512  1
  O2-  O219  1  0.08153251  0.95839289  0.06976128  1
  O2-  O220  1  0.08171259  0.94311155  0.39495302  1
  O2-  O221  1  0.08609078  0.95338665  0.72945657  1
  O2-  O222  1  0.58712216  0.45407416  0.06673748  1
  O2-  O223  1  0.58466923  0.46352505  0.40013550  1
  O2-  O224  1  0.58344258  0.46158642  0.73503580  1
  O2-  O225  1  0.58313925  0.95956280  0.06832882  1
  O2-  O226  1  0.58221086  0.95060960  0.39608775  1
  O2-  O227  1  0.58531750  0.94941199  0.72972679  1
  O2-  O228  1  0.20705325  0.33415930  0.06243099  1
  O2-  O229  1  0.20803828  0.33529943  0.40251653  1
  O2-  O230  1  0.19638363  0.33568377  0.73392650  1
  O2-  O231  1  0.21290965  0.83748026  0.07223764  1
  O2-  O232  1  0.21264505  0.83571604  0.39754906  1
  O2-  O233  1  0.20783774  0.83609543  0.73108198  1
  O2-  O234  1  0.70220347  0.33081865  0.05999799  1
  O2-  O235  1  0.70827251  0.33208405  0.39929971  1
  O2-  O236  1  0.71099655  0.33489226  0.73804564  1
  O2-  O237  1  0.70819986  0.83332911  0.07012504  1
  O2-  O238  1  0.69898760  0.83065415  0.39588434  1
  O2-  O239  1  0.70388145  0.82984051  0.72661911  1
  O2-  O240  1  0.45629421  0.41692590  0.26848312  1
  O2-  O241  1  0.45662364  0.41852877  0.59768299  1
  O2-  O242  1  0.45961581  0.41412625  0.93972456  1
  O2-  O243  1  0.45975752  0.91042791  0.26571422  1
  O2-  O244  1  0.45442609  0.91474355  0.60422537  1
  O2-  O245  1  0.45794046  0.91230151  0.93736585  1
  O2-  O246  1  0.95511461  0.41984539  0.26711798  1
  O2-  O247  1  0.95370007  0.41647301  0.59802233  1
  O2-  O248  1  0.96092354  0.41749253  0.92914460  1
  O2-  O249  1  0.95196584  0.91545709  0.26896231  1
  O2-  O250  1  0.95922397  0.92241361  0.59846306  1
  O2-  O251  1  0.95745504  0.91824352  0.93505998  1
  O2-  O252  1  0.33410364  0.29860369  0.26971184  1
  O2-  O253  1  0.32469915  0.29929941  0.60538958  1
  O2-  O254  1  0.33754018  0.29729285  0.93629212  1
  O2-  O255  1  0.33946973  0.79351772  0.26753879  1
  O2-  O256  1  0.33508847  0.79617595  0.60300740  1
  O2-  O257  1  0.33615117  0.79440295  0.93995059  1
  O2-  O258  1  0.83057711  0.28969311  0.26287773  1
  O2-  O259  1  0.83231152  0.28510791  0.60224129  1
  O2-  O260  1  0.83222531  0.29072110  0.93000611  1
  O2-  O261  1  0.83113051  0.79743572  0.27085874  1
  O2-  O262  1  0.83087187  0.79874514  0.59352181  1
  O2-  O263  1  0.83123407  0.78800738  0.93488775  1
  O2-  O264  1  0.41462096  0.04269755  0.06312940  1
  O2-  O265  1  0.41484069  0.03249916  0.39995608  1
  O2-  O266  1  0.41859617  0.03985662  0.73666832  1
  O2-  O267  1  0.41711854  0.53789107  0.07240319  1
  O2-  O268  1  0.41704660  0.54907094  0.39385625  1
  O2-  O269  1  0.41452546  0.53824355  0.73457985  1
  O2-  O270  1  0.91625484  0.05079281  0.06095993  1
  O2-  O271  1  0.91663679  0.04010900  0.40032487  1
  O2-  O272  1  0.91882581  0.04378712  0.73646729  1
  O2-  O273  1  0.91996885  0.54254497  0.06390893  1
  O2-  O274  1  0.91898195  0.55357980  0.39357009  1
  O2-  O275  1  0.91584364  0.54887475  0.72635010  1
  O2-  O276  1  0.30223089  0.16901411  0.06062906  1
  O2-  O277  1  0.29659613  0.16870828  0.39972249  1
  O2-  O278  1  0.29235172  0.16828865  0.73873748  1
  O2-  O279  1  0.29565788  0.66729734  0.07092567  1
  O2-  O280  1  0.29841584  0.66862890  0.39358678  1
  O2-  O281  1  0.29151684  0.66764481  0.73365449  1
  O2-  O282  1  0.79142970  0.16628879  0.06270221  1
  O2-  O283  1  0.78602630  0.16475571  0.39771020  1
  O2-  O284  1  0.78478771  0.16341505  0.73920849  1
  O2-  O285  1  0.78708942  0.66264771  0.07082731  1
  O2-  O286  1  0.79424767  0.66678796  0.39750499  1
  O2-  O287  1  0.79422271  0.66837421  0.72369584  1
