# generated using pymatgen
data_Ca2Al2SiO7
_symmetry_space_group_name_H-M   'P 1'
_cell_length_a   15.46675766
_cell_length_b   15.46816924
_cell_length_c   15.29013113
_cell_angle_alpha   89.99453311
_cell_angle_beta   90.00969165
_cell_angle_gamma   90.03987751
_symmetry_Int_Tables_number   1
_chemical_formula_structural   Ca2Al2SiO7
_chemical_formula_sum   'Ca48 Al48 Si24 O168'
_cell_volume   3658.04709667
_cell_formula_units_Z   24
loop_
 _symmetry_equiv_pos_site_id
 _symmetry_equiv_pos_as_xyz
  1  'x, y, z'
loop_
 _atom_type_symbol
 _atom_type_oxidation_number
  Ca2+  2.0
  Al0+  0.0
  Si0+  0.0
  O2-  -2.0
loop_
 _atom_site_type_symbol
 _atom_site_label
 _atom_site_symmetry_multiplicity
 _atom_site_fract_x
 _atom_site_fract_y
 _atom_site_fract_z
 _atom_site_occupancy
  Ca2+  Ca0  1  0.17108959  0.07761838  0.16757648  1
  Ca2+  Ca1  1  0.16507596  0.07282022  0.50368277  1
  Ca2+  Ca2  1  0.16866362  0.07437567  0.84646230  1
  Ca2+  Ca3  1  0.16964829  0.58454020  0.17433615  1
  Ca2+  Ca4  1  0.16976055  0.57002865  0.49847395  1
  Ca2+  Ca5  1  0.16349058  0.57773801  0.83606754  1
  Ca2+  Ca6  1  0.66948996  0.09320108  0.16775700  1
  Ca2+  Ca7  1  0.67170496  0.08944564  0.50147407  1
  Ca2+  Ca8  1  0.67786893  0.08919401  0.84096128  1
  Ca2+  Ca9  1  0.67356864  0.57611514  0.17051540  1
  Ca2+  Ca10  1  0.67725252  0.57211769  0.50635085  1
  Ca2+  Ca11  1  0.67091510  0.57481846  0.84336629  1
  Ca2+  Ca12  1  0.07689429  0.33525291  0.16233987  1
  Ca2+  Ca13  1  0.07741035  0.34109661  0.49186449  1
  Ca2+  Ca14  1  0.08604018  0.32519773  0.82821629  1
  Ca2+  Ca15  1  0.08194420  0.83023530  0.15527018  1
  Ca2+  Ca16  1  0.08668913  0.83489839  0.49601823  1
  Ca2+  Ca17  1  0.08308759  0.83328763  0.83502209  1
  Ca2+  Ca18  1  0.58771814  0.32809986  0.16242819  1
  Ca2+  Ca19  1  0.58488052  0.33319280  0.49517924  1
  Ca2+  Ca20  1  0.58245327  0.33453492  0.83043424  1
  Ca2+  Ca21  1  0.58058013  0.82398949  0.15711306  1
  Ca2+  Ca22  1  0.58189856  0.82989068  0.49348729  1
  Ca2+  Ca23  1  0.58834910  0.82476604  0.83389930  1
  Ca2+  Ca24  1  0.32443302  0.42348767  0.17385571  1
  Ca2+  Ca25  1  0.32606178  0.41257459  0.50381937  1
  Ca2+  Ca26  1  0.32975431  0.40786145  0.83297230  1
  Ca2+  Ca27  1  0.32382760  0.92553773  0.17159661  1
  Ca2+  Ca28  1  0.32407524  0.92324391  0.50031695  1
  Ca2+  Ca29  1  0.32196371  0.92115821  0.84257702  1
  Ca2+  Ca30  1  0.82684971  0.42360365  0.17301001  1
  Ca2+  Ca31  1  0.82662010  0.41985420  0.50231896  1
  Ca2+  Ca32  1  0.82188299  0.42561791  0.84001297  1
  Ca2+  Ca33  1  0.83926805  0.92084955  0.16146986  1
  Ca2+  Ca34  1  0.83221848  0.92627060  0.50611543  1
  Ca2+  Ca35  1  0.83869368  0.92651239  0.83998724  1
  Ca2+  Ca36  1  0.42392385  0.16004446  0.16124676  1
  Ca2+  Ca37  1  0.42134083  0.17269785  0.49197411  1
  Ca2+  Ca38  1  0.42142387  0.16863103  0.83071202  1
  Ca2+  Ca39  1  0.41962202  0.66409133  0.15955544  1
  Ca2+  Ca40  1  0.41357190  0.66649019  0.49409896  1
  Ca2+  Ca41  1  0.42369284  0.66408415  0.83234527  1
  Ca2+  Ca42  1  0.92112318  0.17399912  0.15881046  1
  Ca2+  Ca43  1  0.91624159  0.17448271  0.49305842  1
  Ca2+  Ca44  1  0.91921651  0.16016000  0.83301055  1
  Ca2+  Ca45  1  0.91862990  0.66971895  0.15536061  1
  Ca2+  Ca46  1  0.91388828  0.66225386  0.49512481  1
  Ca2+  Ca47  1  0.91454617  0.66657721  0.83450456  1
  Al0+  Al48  1  -0.00095934  0.00045592  0.00147151  1
  Al0+  Al49  1  -0.00140020  0.00004839  0.33616991  1
  Al0+  Al50  1  0.00046692  -0.00231973  0.67147649  1
  Al0+  Al51  1  -0.00234151  0.50078459  -0.00261025  1
  Al0+  Al52  1  0.00002058  0.50267340  0.33361134  1
  Al0+  Al53  1  0.00244408  0.49983998  0.67318802  1
  Al0+  Al54  1  0.50035859  0.00047025  -0.00410885  1
  Al0+  Al55  1  0.49956858  -0.00077980  0.33295446  1
  Al0+  Al56  1  0.50084641  -0.00212019  0.66423345  1
  Al0+  Al57  1  0.49816645  0.49873563  -0.00109577  1
  Al0+  Al58  1  0.50107280  0.49985898  0.33832277  1
  Al0+  Al59  1  0.49987082  0.49943805  0.66298841  1
  Al0+  Al60  1  0.24953893  0.24967440  0.00134814  1
  Al0+  Al61  1  0.25041652  0.24848684  0.33798844  1
  Al0+  Al62  1  0.25201600  0.24786744  0.66440606  1
  Al0+  Al63  1  0.24855494  0.74907002  -0.00217517  1
  Al0+  Al64  1  0.24939842  0.75139317  0.33974300  1
  Al0+  Al65  1  0.24956840  0.74929941  0.66835696  1
  Al0+  Al66  1  0.74863266  0.25016973  0.00275074  1
  Al0+  Al67  1  0.75134085  0.25144792  0.32850718  1
  Al0+  Al68  1  0.75230225  0.25075372  0.67381651  1
  Al0+  Al69  1  0.75013745  0.75101561  -0.00607511  1
  Al0+  Al70  1  0.74995199  0.75156068  0.33508667  1
  Al0+  Al71  1  0.75208222  0.75149820  0.66564756  1
  Al0+  Al72  1  0.67745248  0.42963470  0.68319151  1
  Al0+  Al73  1  0.17828921  0.42836867  0.34522473  1
  Al0+  Al74  1  0.93138481  0.32272563  0.31994221  1
  Al0+  Al75  1  0.82072697  0.57296810  0.01593958  1
  Al0+  Al76  1  0.67623033  0.42942293  0.01729340  1
  Al0+  Al77  1  0.17735857  0.93096437  0.34883408  1
  Al0+  Al78  1  0.81965282  0.07043917  0.67922797  1
  Al0+  Al79  1  0.68029705  0.42647072  0.34912288  1
  Al0+  Al80  1  0.92932698  0.82153020  0.98360650  1
  Al0+  Al81  1  0.17872894  0.92799341  0.01588053  1
  Al0+  Al82  1  0.82077252  0.57386134  0.34773204  1
  Al0+  Al83  1  0.56947229  0.17995493  0.31957800  1
  Al0+  Al84  1  0.32233485  0.57166016  0.34705507  1
  Al0+  Al85  1  0.07276982  0.67676790  0.98360431  1
  Al0+  Al86  1  0.18050142  0.92844606  0.68299565  1
  Al0+  Al87  1  0.82248615  0.57280979  0.68355082  1
  Al0+  Al88  1  0.32441146  0.07129165  0.34984666  1
  Al0+  Al89  1  0.82016334  0.07097095  0.01576706  1
  Al0+  Al90  1  0.42943175  0.31973370  0.65141951  1
  Al0+  Al91  1  0.18114599  0.42684276  0.68130706  1
  Al0+  Al92  1  0.32286972  0.07283260  0.01436551  1
  Al0+  Al93  1  0.57151604  0.17863180  0.98500234  1
  Al0+  Al94  1  0.56942472  0.67785477  0.98713177  1
  Al0+  Al95  1  0.07041665  0.18161506  0.98784031  1
  Si0+  Si96  1  0.07179738  0.67777946  0.64879176  1
  Si0+  Si97  1  0.67812595  0.92830111  0.34654288  1
  Si0+  Si98  1  0.42838897  0.81925385  0.31837332  1
  Si0+  Si99  1  0.67725802  0.92775692  0.01560373  1
  Si0+  Si100  1  0.57208013  0.68012094  0.64958040  1
  Si0+  Si101  1  0.32187495  0.57165828  0.68373549  1
  Si0+  Si102  1  0.31963156  0.57031760  0.01176808  1
  Si0+  Si103  1  0.57468900  0.17778897  0.65058400  1
  Si0+  Si104  1  0.42709923  0.32161504  0.98459336  1
  Si0+  Si105  1  0.17764853  0.42797800  0.01283990  1
  Si0+  Si106  1  0.81964561  0.07077793  0.34668743  1
  Si0+  Si107  1  0.57179527  0.67909581  0.31943716  1
  Si0+  Si108  1  0.42575633  0.32381388  0.31625199  1
  Si0+  Si109  1  0.42773994  0.81998044  0.65005283  1
  Si0+  Si110  1  0.93075079  0.82139984  0.64895219  1
  Si0+  Si111  1  0.67626737  0.92725416  0.68245883  1
  Si0+  Si112  1  0.92680047  0.32229022  0.98138960  1
  Si0+  Si113  1  0.07052977  0.17662274  0.65187734  1
  Si0+  Si114  1  0.07018534  0.68244085  0.32064582  1
  Si0+  Si115  1  0.42748058  0.82174418  0.98266228  1
  Si0+  Si116  1  0.93137013  0.32104933  0.65327610  1
  Si0+  Si117  1  0.32391506  0.07082641  0.68330338  1
  Si0+  Si118  1  0.07202824  0.17532928  0.31818678  1
  Si0+  Si119  1  0.92672766  0.82354986  0.31911144  1
  O2-  O120  1  0.25141296  0.00006499  0.06359695  1
  O2-  O121  1  0.24673643  0.00508615  0.39967784  1
  O2-  O122  1  0.25517149  0.00315298  0.72799796  1
  O2-  O123  1  0.24429307  0.50392163  0.05329383  1
  O2-  O124  1  0.25565613  0.49440731  0.39627447  1
  O2-  O125  1  0.25722683  0.49989758  0.72875478  1
  O2-  O126  1  0.74304613  -0.00203718  0.06186480  1
  O2-  O127  1  0.74783040  0.00049795  0.38878767  1
  O2-  O128  1  0.74142947  -0.00089052  0.72523454  1
  O2-  O129  1  0.74969771  0.50060550  0.06575635  1
  O2-  O130  1  0.75097372  0.50031214  0.39783362  1
  O2-  O131  1  0.74710494  0.50416720  0.73210301  1
  O2-  O132  1  0.00951760  0.25013094  0.27510716  1
  O2-  O133  1  0.00237918  0.25008537  0.60921041  1
  O2-  O134  1  -0.00309109  0.25510253  0.93659876  1
  O2-  O135  1  -0.00165716  0.75271918  0.27909761  1
  O2-  O136  1  -0.00105924  0.74770423  0.60631869  1
  O2-  O137  1  0.00038666  0.74845842  0.93335145  1
  O2-  O138  1  0.49345142  0.25388659  0.27272270  1
  O2-  O139  1  0.50597644  0.24577248  0.60589341  1
  O2-  O140  1  0.49594371  0.25296081  0.94041904  1
  O2-  O141  1  0.49692475  0.74589814  0.27622464  1
  O2-  O142  1  0.50027408  0.75066432  0.60660541  1
  O2-  O143  1  0.49633361  0.75339422  0.93781390  1
  O2-  O144  1  0.07057463  0.18542668  0.10097067  1
  O2-  O145  1  0.06572943  0.17056325  0.42415065  1
  O2-  O146  1  0.06934295  0.17662125  0.75690689  1
  O2-  O147  1  0.07551746  0.67770520  0.09761063  1
  O2-  O148  1  0.06998714  0.68309764  0.42603455  1
  O2-  O149  1  0.07363406  0.67877818  0.75334737  1
  O2-  O150  1  0.57009604  0.17936590  0.09809311  1
  O2-  O151  1  0.57093591  0.17929887  0.43310004  1
  O2-  O152  1  0.57310731  0.17615983  0.75580282  1
  O2-  O153  1  0.56569624  0.67957226  0.10053508  1
  O2-  O154  1  0.57313065  0.68493188  0.42465839  1
  O2-  O155  1  0.57064556  0.68215915  0.75459545  1
  O2-  O156  1  0.17758030  0.43352645  0.23137849  1
  O2-  O157  1  0.17932053  0.42951180  0.56854930  1
  O2-  O158  1  0.18151574  0.42570503  0.90765157  1
  O2-  O159  1  0.17776641  0.92877646  0.23609637  1
  O2-  O160  1  0.18028814  0.92989289  0.56980991  1
  O2-  O161  1  0.18142643  0.92911025  0.90209258  1
  O2-  O162  1  0.68086831  0.42804536  0.23610312  1
  O2-  O163  1  0.68031016  0.42851534  0.56965117  1
  O2-  O164  1  0.67523884  0.43154223  0.90366071  1
  O2-  O165  1  0.67816453  0.92406001  0.24211081  1
  O2-  O166  1  0.67721442  0.92547800  0.57628025  1
  O2-  O167  1  0.67778595  0.92836909  0.90985818  1
  O2-  O168  1  0.42546894  0.32439217  0.08980467  1
  O2-  O169  1  0.42728177  0.32274103  0.42192248  1
  O2-  O170  1  0.42789202  0.31648922  0.76452092  1
  O2-  O171  1  0.42801472  0.81950552  0.08849118  1
  O2-  O172  1  0.43093937  0.81888690  0.42395174  1
  O2-  O173  1  0.42797767  0.81913301  0.75481514  1
  O2-  O174  1  0.92973274  0.32183066  0.08724820  1
  O2-  O175  1  0.93030717  0.31922394  0.43391537  1
  O2-  O176  1  0.93313136  0.31930098  0.75801354  1
  O2-  O177  1  0.93046062  0.82070569  0.09797940  1
  O2-  O178  1  0.92561234  0.82570706  0.42444368  1
  O2-  O179  1  0.93132304  0.82412880  0.75317138  1
  O2-  O180  1  0.32716910  0.06571205  0.23690290  1
  O2-  O181  1  0.32389774  0.06851629  0.57781967  1
  O2-  O182  1  0.32135161  0.07133147  0.90030837  1
  O2-  O183  1  0.31956859  0.57429618  0.23302827  1
  O2-  O184  1  0.31880220  0.57377684  0.57836742  1
  O2-  O185  1  0.32227022  0.56859242  0.90671801  1
  O2-  O186  1  0.82097101  0.06875343  0.24214055  1
  O2-  O187  1  0.81930746  0.06959626  0.56525983  1
  O2-  O188  1  0.81934590  0.06921852  0.90255901  1
  O2-  O189  1  0.81865457  0.57793408  0.23495249  1
  O2-  O190  1  0.82096194  0.57182978  0.56974486  1
  O2-  O191  1  0.81836989  0.57080299  0.90248276  1
  O2-  O192  1  0.03880376  0.08460515  0.27036593  1
  O2-  O193  1  0.03848201  0.08556991  0.60479900  1
  O2-  O194  1  0.03906349  0.08514908  0.93459540  1
  O2-  O195  1  0.04492558  0.59096569  0.27220398  1
  O2-  O196  1  0.04477748  0.58465933  0.60319154  1
  O2-  O197  1  0.04521228  0.57807069  0.92968495  1
  O2-  O198  1  0.54199309  0.08111720  0.26712039  1
  O2-  O199  1  0.55181693  0.08216876  0.60517513  1
  O2-  O200  1  0.54438363  0.08145073  0.92911386  1
  O2-  O201  1  0.54816653  0.58570171  0.27419517  1
  O2-  O202  1  0.54493194  0.58865562  0.60193216  1
  O2-  O203  1  0.53416405  0.58355177  0.93111173  1
  O2-  O204  1  0.16916432  0.19266560  0.27729916  1
  O2-  O205  1  0.16380025  0.19975905  0.60571032  1
  O2-  O206  1  0.16684006  0.21204485  0.93222669  1
  O2-  O207  1  0.16254212  0.71117391  0.27436043  1
  O2-  O208  1  0.16340620  0.70839286  0.60175674  1
  O2-  O209  1  0.17133105  0.70372278  0.92868069  1
  O2-  O210  1  0.66616360  0.21002226  0.26549563  1
  O2-  O211  1  0.66932091  0.20437623  0.60632165  1
  O2-  O212  1  0.66837108  0.20983552  0.93179315  1
  O2-  O213  1  0.66142354  0.71312648  0.27146765  1
  O2-  O214  1  0.66338217  0.71061831  0.60193685  1
  O2-  O215  1  0.66369987  0.71015468  0.93034293  1
  O2-  O216  1  0.08380553  0.45086730  0.05690931  1
  O2-  O217  1  0.08341494  0.46400707  0.40086129  1
  O2-  O218  1  0.08669086  0.45841608  0.73742479  1
  O2-  O219  1  0.08097524  0.95703434  0.06741033  1
  O2-  O220  1  0.07828004  0.95760394  0.40341523  1
  O2-  O221  1  0.08413303  0.95843514  0.73574909  1
  O2-  O222  1  0.57711893  0.45851826  0.06852096  1
  O2-  O223  1  0.58138509  0.45265364  0.40124353  1
  O2-  O224  1  0.57730279  0.45667286  0.73273120  1
  O2-  O225  1  0.58206011  0.94890217  0.05969906  1
  O2-  O226  1  0.58706650  0.95432173  0.39597458  1
  O2-  O227  1  0.58095063  0.94644022  0.72742068  1
  O2-  O228  1  0.20917569  0.33948524  0.06325187  1
  O2-  O229  1  0.19685660  0.32794356  0.39781210  1
  O2-  O230  1  0.21118450  0.32893039  0.73349135  1
  O2-  O231  1  0.20745813  0.82852967  0.06646027  1
  O2-  O232  1  0.20944449  0.83488841  0.40435776  1
  O2-  O233  1  0.21195511  0.83162007  0.73509535  1
  O2-  O234  1  0.70475082  0.33097719  0.06804298  1
  O2-  O235  1  0.71258709  0.32888584  0.40193948  1
  O2-  O236  1  0.70715536  0.33221989  0.73644013  1
  O2-  O237  1  0.70454282  0.83480999  0.06169586  1
  O2-  O238  1  0.70767295  0.83901762  0.39838949  1
  O2-  O239  1  0.70515857  0.83512327  0.72852424  1
  O2-  O240  1  0.45076034  0.41882053  0.27207284  1
  O2-  O241  1  0.45487616  0.41822965  0.59760783  1
  O2-  O242  1  0.45183011  0.41429945  0.93558769  1
  O2-  O243  1  0.45967466  0.90917724  0.27046498  1
  O2-  O244  1  0.45477242  0.91203674  0.60131920  1
  O2-  O245  1  0.45285145  0.91424282  0.93474595  1
  O2-  O246  1  0.96089709  0.41970014  0.26549339  1
  O2-  O247  1  0.96083388  0.41302702  0.60678430  1
  O2-  O248  1  0.95004315  0.41606939  0.93555155  1
  O2-  O249  1  0.95396365  0.91557529  0.27185175  1
  O2-  O250  1  0.96189154  0.91249949  0.60049649  1
  O2-  O251  1  0.95900848  0.91983539  0.93102248  1
  O2-  O252  1  0.33017662  0.30157898  0.27189106  1
  O2-  O253  1  0.33336704  0.28740353  0.59558107  1
  O2-  O254  1  0.33413921  0.29489090  0.93718427  1
  O2-  O255  1  0.33562114  0.79251525  0.27276782  1
  O2-  O256  1  0.33673432  0.78942562  0.60197089  1
  O2-  O257  1  0.33524314  0.79374643  0.93554349  1
  O2-  O258  1  0.83762384  0.28812925  0.26382740  1
  O2-  O259  1  0.83911221  0.29152590  0.60703681  1
  O2-  O260  1  0.83390473  0.29350993  0.93703102  1
  O2-  O261  1  0.83470500  0.79702618  0.27156585  1
  O2-  O262  1  0.83707889  0.79845794  0.60111138  1
  O2-  O263  1  0.83050771  0.79779826  0.92877647  1
  O2-  O264  1  0.42202490  0.04338920  0.06462936  1
  O2-  O265  1  0.41997514  0.03518031  0.40498272  1
  O2-  O266  1  0.41855812  0.04469481  0.72726731  1
  O2-  O267  1  0.40896036  0.53960235  0.06171185  1
  O2-  O268  1  0.42215250  0.55190530  0.40006183  1
  O2-  O269  1  0.41747517  0.55038218  0.72641303  1
  O2-  O270  1  0.91520287  0.03875656  0.07086913  1
  O2-  O271  1  0.90950745  0.04167098  0.39720843  1
  O2-  O272  1  0.91406011  0.03526344  0.73364323  1
  O2-  O273  1  0.92085550  0.54593958  0.06651544  1
  O2-  O274  1  0.91963024  0.54739952  0.39945562  1
  O2-  O275  1  0.92027494  0.54398450  0.73549147  1
  O2-  O276  1  0.29382179  0.17044651  0.06819380  1
  O2-  O277  1  0.30396263  0.17176713  0.40077260  1
  O2-  O278  1  0.29941530  0.16454749  0.72768964  1
  O2-  O279  1  0.29669113  0.66309914  0.05901714  1
  O2-  O280  1  0.28987836  0.66729556  0.40340997  1
  O2-  O281  1  0.29357904  0.66371733  0.73103638  1
  O2-  O282  1  0.79074603  0.16735100  0.06975796  1
  O2-  O283  1  0.79143078  0.16205520  0.39384671  1
  O2-  O284  1  0.79462138  0.16620147  0.73613566  1
  O2-  O285  1  0.79251739  0.67307216  0.06454045  1
  O2-  O286  1  0.79114340  0.67202707  0.40242499  1
  O2-  O287  1  0.79780878  0.67416936  0.73142940  1
