# generated using pymatgen
data_Ca2Al2SiO7
_symmetry_space_group_name_H-M   'P 1'
_cell_length_a   15.45562202
_cell_length_b   15.45669719
_cell_length_c   15.28209261
_cell_angle_alpha   90.00435654
_cell_angle_beta   89.99026572
_cell_angle_gamma   90.00013605
_symmetry_Int_Tables_number   1
_chemical_formula_structural   Ca2Al2SiO7
_chemical_formula_sum   'Ca48 Al48 Si24 O168'
_cell_volume   3650.78289309
_cell_formula_units_Z   24
loop_
 _symmetry_equiv_pos_site_id
 _symmetry_equiv_pos_as_xyz
  1  'x, y, z'
loop_
 _atom_type_symbol
 _atom_type_oxidation_number
  Ca2+  2.0
  Al0+  0.0
  Si0+  0.0
  O2-  -2.0
loop_
 _atom_site_type_symbol
 _atom_site_label
 _atom_site_symmetry_multiplicity
 _atom_site_fract_x
 _atom_site_fract_y
 _atom_site_fract_z
 _atom_site_occupancy
  Ca2+  Ca0  1  0.16946544  0.08853538  0.17399495  1
  Ca2+  Ca1  1  0.17794794  0.08223494  0.50250971  1
  Ca2+  Ca2  1  0.17025126  0.08455512  0.83269388  1
  Ca2+  Ca3  1  0.17283422  0.57294261  0.17191186  1
  Ca2+  Ca4  1  0.17588446  0.58453749  0.50106138  1
  Ca2+  Ca5  1  0.16724231  0.57482504  0.83960583  1
  Ca2+  Ca6  1  0.66933421  0.07949589  0.17238161  1
  Ca2+  Ca7  1  0.67300298  0.08572034  0.50686608  1
  Ca2+  Ca8  1  0.67068327  0.07371697  0.83334430  1
  Ca2+  Ca9  1  0.66944849  0.58405877  0.17573454  1
  Ca2+  Ca10  1  0.67144094  0.58059658  0.50368669  1
  Ca2+  Ca11  1  0.67011629  0.57853740  0.83183797  1
  Ca2+  Ca12  1  0.08215846  0.32164726  0.15745036  1
  Ca2+  Ca13  1  0.07500216  0.32540800  0.49524444  1
  Ca2+  Ca14  1  0.07562247  0.33112588  0.83319257  1
  Ca2+  Ca15  1  0.07448003  0.83161676  0.16053263  1
  Ca2+  Ca16  1  0.08426073  0.83764330  0.49974512  1
  Ca2+  Ca17  1  0.07847718  0.83693672  0.82844289  1
  Ca2+  Ca18  1  0.57318918  0.32848783  0.16656941  1
  Ca2+  Ca19  1  0.58110832  0.32807557  0.49202819  1
  Ca2+  Ca20  1  0.57974811  0.33582272  0.82797836  1
  Ca2+  Ca21  1  0.57477985  0.83267452  0.16360137  1
  Ca2+  Ca22  1  0.57541183  0.83549382  0.49465561  1
  Ca2+  Ca23  1  0.57640707  0.84452024  0.82933309  1
  Ca2+  Ca24  1  0.33175037  0.41185921  0.17286971  1
  Ca2+  Ca25  1  0.34056253  0.42143296  0.49918460  1
  Ca2+  Ca26  1  0.32706759  0.41520132  0.84549318  1
  Ca2+  Ca27  1  0.33455812  0.91859139  0.17303570  1
  Ca2+  Ca28  1  0.33659566  0.92486116  0.50766248  1
  Ca2+  Ca29  1  0.33531901  0.91973422  0.83355338  1
  Ca2+  Ca30  1  0.83603819  0.42106428  0.17217598  1
  Ca2+  Ca31  1  0.82717083  0.42387167  0.51110113  1
  Ca2+  Ca32  1  0.83613295  0.41521920  0.83344891  1
  Ca2+  Ca33  1  0.82868101  0.91830896  0.17145648  1
  Ca2+  Ca34  1  0.82489114  0.93105302  0.50788775  1
  Ca2+  Ca35  1  0.82322697  0.91591458  0.84065433  1
  Ca2+  Ca36  1  0.41649616  0.17204466  0.16742851  1
  Ca2+  Ca37  1  0.42188276  0.16561221  0.48908507  1
  Ca2+  Ca38  1  0.41458859  0.17010988  0.83052174  1
  Ca2+  Ca39  1  0.41727280  0.67373705  0.16645288  1
  Ca2+  Ca40  1  0.42298947  0.67745690  0.48890662  1
  Ca2+  Ca41  1  0.41681753  0.68094936  0.82671189  1
  Ca2+  Ca42  1  0.92822660  0.16413373  0.16041012  1
  Ca2+  Ca43  1  0.91473070  0.16672289  0.49366116  1
  Ca2+  Ca44  1  0.91722850  0.17388093  0.82732950  1
  Ca2+  Ca45  1  0.91366243  0.67060264  0.16225512  1
  Ca2+  Ca46  1  0.91196873  0.66399967  0.49708236  1
  Ca2+  Ca47  1  0.91468526  0.66934833  0.83060033  1
  Al0+  Al48  1  0.00158112  -0.00142113  -0.00916052  1
  Al0+  Al49  1  -0.00149533  -0.00029083  0.33347124  1
  Al0+  Al50  1  0.00258961  0.00051208  0.67103564  1
  Al0+  Al51  1  0.00218476  0.49833446  0.00360259  1
  Al0+  Al52  1  -0.00003901  0.50048317  0.33796463  1
  Al0+  Al53  1  0.00092168  0.50016049  0.66399561  1
  Al0+  Al54  1  0.50115993  -0.00053347  0.00197648  1
  Al0+  Al55  1  0.49896638  0.00013392  0.32823831  1
  Al0+  Al56  1  0.49949302  0.00367623  0.66984608  1
  Al0+  Al57  1  0.50188053  0.50099327  -0.00325663  1
  Al0+  Al58  1  0.49917455  0.50120746  0.33013831  1
  Al0+  Al59  1  0.50051142  0.50280454  0.67048075  1
  Al0+  Al60  1  0.25037015  0.24962703  -0.00352365  1
  Al0+  Al61  1  0.24648246  0.24800426  0.33302056  1
  Al0+  Al62  1  0.24878204  0.25115315  0.66852866  1
  Al0+  Al63  1  0.25161327  0.75050762  -0.00313570  1
  Al0+  Al64  1  0.24695628  0.74708445  0.33248234  1
  Al0+  Al65  1  0.24958173  0.75103499  0.66564765  1
  Al0+  Al66  1  0.75059608  0.24992771  -0.00059335  1
  Al0+  Al67  1  0.74947977  0.25062338  0.33124336  1
  Al0+  Al68  1  0.74882638  0.25203325  0.67073286  1
  Al0+  Al69  1  0.74923788  0.74941498  0.00076649  1
  Al0+  Al70  1  0.74912691  0.74978194  0.33531258  1
  Al0+  Al71  1  0.74980589  0.74862582  0.67276800  1
  Al0+  Al72  1  0.57428122  0.17734613  0.31824838  1
  Al0+  Al73  1  0.82102507  0.57147711  0.34662130  1
  Al0+  Al74  1  0.06772419  0.17838647  0.32137809  1
  Al0+  Al75  1  0.42795615  0.32076789  0.32059005  1
  Al0+  Al76  1  0.57239346  0.67996522  0.31895354  1
  Al0+  Al77  1  0.67767286  0.42941012  0.68222847  1
  Al0+  Al78  1  0.42615636  0.82172473  0.31817390  1
  Al0+  Al79  1  0.32146621  0.07319933  0.68247873  1
  Al0+  Al80  1  0.67891836  0.92964275  0.68035249  1
  Al0+  Al81  1  0.43024187  0.82243641  0.65196968  1
  Al0+  Al82  1  0.32127511  0.57061206  0.34661457  1
  Al0+  Al83  1  0.82357920  0.57039544  0.68408104  1
  Al0+  Al84  1  0.82125252  0.07123900  0.34436334  1
  Al0+  Al85  1  0.92848247  0.32200904  0.98572087  1
  Al0+  Al86  1  0.07272179  0.17735808  0.98164454  1
  Al0+  Al87  1  0.82287688  0.07316727  0.68272061  1
  Al0+  Al88  1  0.92868500  0.32010626  0.65095353  1
  Al0+  Al89  1  0.67919039  0.92869914  0.01719082  1
  Al0+  Al90  1  0.18059603  0.92720458  0.68244441  1
  Al0+  Al91  1  0.43118123  0.32050579  0.98604029  1
  Al0+  Al92  1  0.18066552  0.42839215  0.01457754  1
  Al0+  Al93  1  0.42988375  0.82115576  0.98423301  1
  Al0+  Al94  1  0.32040250  0.06997717  0.34441353  1
  Al0+  Al95  1  0.92834892  0.81883215  0.98643626  1
  Si0+  Si96  1  0.18011447  0.43050090  0.68057887  1
  Si0+  Si97  1  0.57214832  0.67701582  0.64980539  1
  Si0+  Si98  1  0.67692434  0.42747353  0.01718994  1
  Si0+  Si99  1  0.07083427  0.67609106  0.31795445  1
  Si0+  Si100  1  0.82356885  0.07126479  0.01628138  1
  Si0+  Si101  1  0.42648887  0.32407611  0.65302595  1
  Si0+  Si102  1  0.57266587  0.17770544  0.98210935  1
  Si0+  Si103  1  0.57337634  0.67774094  0.98063365  1
  Si0+  Si104  1  0.32118932  0.57183954  0.68174459  1
  Si0+  Si105  1  0.17633036  0.92634340  0.34722690  1
  Si0+  Si106  1  0.92780887  0.32388875  0.31789261  1
  Si0+  Si107  1  0.17815478  0.42686251  0.35244104  1
  Si0+  Si108  1  0.92988391  0.81966924  0.32133502  1
  Si0+  Si109  1  0.67739028  0.42814736  0.34780583  1
  Si0+  Si110  1  0.82039835  0.56907291  0.01567457  1
  Si0+  Si111  1  0.67770456  0.92875226  0.34896420  1
  Si0+  Si112  1  0.31981249  0.06974628  0.01606756  1
  Si0+  Si113  1  0.07291503  0.17742737  0.64734671  1
  Si0+  Si114  1  0.07060826  0.67894674  0.65045343  1
  Si0+  Si115  1  0.56871249  0.18189487  0.65370316  1
  Si0+  Si116  1  0.07226023  0.67768864  0.98450309  1
  Si0+  Si117  1  0.17801992  0.92698811  0.01524925  1
  Si0+  Si118  1  0.92760536  0.82140946  0.65179416  1
  Si0+  Si119  1  0.32348023  0.57313748  0.01604279  1
  O2-  O120  1  0.24782757  -0.00133553  0.05779833  1
  O2-  O121  1  0.25014494  -0.00987477  0.38967220  1
  O2-  O122  1  0.25129244  -0.00029752  0.73340892  1
  O2-  O123  1  0.25790784  0.50134223  0.06023762  1
  O2-  O124  1  0.24932053  0.49387495  0.39597618  1
  O2-  O125  1  0.25413513  0.49768065  0.72435235  1
  O2-  O126  1  0.75547168  0.00284015  0.06225597  1
  O2-  O127  1  0.74168017  0.00237686  0.39204068  1
  O2-  O128  1  0.75590798  -0.00409344  0.73181442  1
  O2-  O129  1  0.75055404  0.49688398  0.05808435  1
  O2-  O130  1  0.74739360  0.49577304  0.39184090  1
  O2-  O131  1  0.75241526  0.49789332  0.73401250  1
  O2-  O132  1  -0.00693190  0.25252339  0.27375555  1
  O2-  O133  1  -0.00104712  0.24121787  0.60378742  1
  O2-  O134  1  -0.00281395  0.24747360  0.93464974  1
  O2-  O135  1  -0.00108548  0.74687555  0.27769237  1
  O2-  O136  1  -0.00099519  0.75033914  0.60890600  1
  O2-  O137  1  0.00454371  0.74594799  0.93870889  1
  O2-  O138  1  0.49928174  0.24800870  0.27044973  1
  O2-  O139  1  0.49758648  0.25350376  0.61166975  1
  O2-  O140  1  0.50680993  0.24877320  0.93665262  1
  O2-  O141  1  0.49924062  0.75037072  0.26829798  1
  O2-  O142  1  0.50705450  0.74942335  0.60651075  1
  O2-  O143  1  0.50440780  0.74642480  0.93706597  1
  O2-  O144  1  0.07226043  0.17746288  0.09578842  1
  O2-  O145  1  0.06738162  0.17934465  0.43430523  1
  O2-  O146  1  0.07603593  0.18194579  0.75259259  1
  O2-  O147  1  0.07106065  0.67869299  0.09035124  1
  O2-  O148  1  0.07263078  0.67582698  0.42307710  1
  O2-  O149  1  0.07161874  0.67712979  0.75556920  1
  O2-  O150  1  0.57134579  0.17874379  0.08762742  1
  O2-  O151  1  0.57511115  0.17972485  0.43232111  1
  O2-  O152  1  0.56685304  0.18232140  0.75893398  1
  O2-  O153  1  0.57367820  0.67688906  0.08610800  1
  O2-  O154  1  0.57327172  0.68216818  0.43260612  1
  O2-  O155  1  0.56774835  0.67274288  0.75531772  1
  O2-  O156  1  0.17633172  0.42914936  0.24684808  1
  O2-  O157  1  0.18103882  0.43200477  0.57549357  1
  O2-  O158  1  0.18078254  0.43237192  0.90087129  1
  O2-  O159  1  0.17240900  0.92694919  0.24135239  1
  O2-  O160  1  0.18138943  0.92663937  0.56847496  1
  O2-  O161  1  0.17973838  0.92457733  0.91069877  1
  O2-  O162  1  0.67923107  0.42876557  0.24186133  1
  O2-  O163  1  0.67526820  0.43121740  0.56855172  1
  O2-  O164  1  0.67451580  0.42969854  0.91242193  1
  O2-  O165  1  0.68237042  0.92641470  0.24323694  1
  O2-  O166  1  0.67884748  0.93261637  0.56652188  1
  O2-  O167  1  0.67960016  0.93053407  0.90427443  1
  O2-  O168  1  0.43079555  0.31892527  0.09873039  1
  O2-  O169  1  0.43069185  0.32072475  0.43481170  1
  O2-  O170  1  0.42641348  0.32394389  0.75826794  1
  O2-  O171  1  0.42776466  0.81931287  0.09693724  1
  O2-  O172  1  0.42765262  0.82142585  0.43192162  1
  O2-  O173  1  0.43015593  0.81950417  0.76532884  1
  O2-  O174  1  0.93054190  0.32334814  0.09956757  1
  O2-  O175  1  0.93000142  0.32487673  0.42353072  1
  O2-  O176  1  0.93385761  0.32205607  0.76373787  1
  O2-  O177  1  0.92978858  0.81666033  0.10032828  1
  O2-  O178  1  0.93209381  0.81997442  0.42641421  1
  O2-  O179  1  0.92898517  0.81858416  0.75685222  1
  O2-  O180  1  0.31634863  0.07132632  0.23107567  1
  O2-  O181  1  0.32136508  0.07452663  0.56880651  1
  O2-  O182  1  0.32008294  0.06906416  0.91100343  1
  O2-  O183  1  0.31622261  0.57180518  0.23370461  1
  O2-  O184  1  0.32028378  0.57123362  0.57662991  1
  O2-  O185  1  0.32000150  0.57318661  0.90989798  1
  O2-  O186  1  0.82574669  0.06516561  0.23145127  1
  O2-  O187  1  0.81963377  0.07254110  0.56853430  1
  O2-  O188  1  0.82094775  0.07031932  0.91093889  1
  O2-  O189  1  0.82231138  0.57050508  0.23299336  1
  O2-  O190  1  0.82221348  0.56937543  0.57042595  1
  O2-  O191  1  0.82041137  0.56942321  0.91096610  1
  O2-  O192  1  0.03780792  0.08181122  0.26575983  1
  O2-  O193  1  0.05419009  0.08083773  0.60491326  1
  O2-  O194  1  0.04958879  0.07846590  0.92804420  1
  O2-  O195  1  0.04238921  0.58445029  0.27022930  1
  O2-  O196  1  0.04380773  0.58826865  0.60021433  1
  O2-  O197  1  0.04545091  0.58438502  0.93896258  1
  O2-  O198  1  0.54760910  0.07973734  0.26382593  1
  O2-  O199  1  0.54072214  0.09121111  0.60481699  1
  O2-  O200  1  0.54303879  0.08527996  0.93675887  1
  O2-  O201  1  0.54581616  0.58174014  0.26502254  1
  O2-  O202  1  0.54189477  0.58513262  0.60193555  1
  O2-  O203  1  0.54872983  0.58427554  0.93351459  1
  O2-  O204  1  0.16277776  0.21014482  0.26561038  1
  O2-  O205  1  0.16484624  0.21059850  0.60082539  1
  O2-  O206  1  0.16917425  0.20999002  0.92812160  1
  O2-  O207  1  0.16070813  0.70324547  0.26704788  1
  O2-  O208  1  0.16179672  0.70788802  0.60160889  1
  O2-  O209  1  0.16581910  0.70159368  0.93771360  1
  O2-  O210  1  0.67123489  0.20708968  0.26189078  1
  O2-  O211  1  0.66066819  0.20947615  0.60676498  1
  O2-  O212  1  0.66732542  0.20044165  0.93757983  1
  O2-  O213  1  0.67092652  0.70853080  0.26483131  1
  O2-  O214  1  0.66872554  0.69766591  0.60808260  1
  O2-  O215  1  0.66689899  0.70303809  0.93511268  1
  O2-  O216  1  0.08594708  0.46134467  0.07156684  1
  O2-  O217  1  0.08631219  0.45715041  0.39994889  1
  O2-  O218  1  0.09050181  0.46357124  0.72818404  1
  O2-  O219  1  0.08427449  0.95243269  0.06053134  1
  O2-  O220  1  0.08536091  0.95684922  0.39609653  1
  O2-  O221  1  0.08183761  0.95300427  0.73565148  1
  O2-  O222  1  0.58593668  0.45853725  0.06490249  1
  O2-  O223  1  0.58417471  0.45411346  0.39364393  1
  O2-  O224  1  0.58040931  0.46139483  0.73803984  1
  O2-  O225  1  0.58303226  0.96102875  0.07134223  1
  O2-  O226  1  0.58185006  0.94939422  0.39099617  1
  O2-  O227  1  0.58382895  0.96512095  0.73529143  1
  O2-  O228  1  0.21153117  0.33123998  0.06707485  1
  O2-  O229  1  0.20079579  0.33311614  0.39850071  1
  O2-  O230  1  0.20410293  0.33856470  0.72885640  1
  O2-  O231  1  0.20576940  0.83455981  0.06282107  1
  O2-  O232  1  0.19440634  0.83050854  0.39165999  1
  O2-  O233  1  0.20662743  0.82807635  0.73599949  1
  O2-  O234  1  0.70202492  0.33446500  0.06355552  1
  O2-  O235  1  0.70147145  0.33444651  0.39425447  1
  O2-  O236  1  0.70207253  0.33163759  0.73697630  1
  O2-  O237  1  0.71033589  0.83122085  0.06957239  1
  O2-  O238  1  0.70824217  0.83771675  0.39700289  1
  O2-  O239  1  0.70061723  0.82980207  0.73326925  1
  O2-  O240  1  0.45466416  0.41863443  0.26602124  1
  O2-  O241  1  0.45417856  0.41724124  0.60788059  1
  O2-  O242  1  0.45827830  0.41870614  0.93231526  1
  O2-  O243  1  0.45301511  0.91917557  0.26348129  1
  O2-  O244  1  0.45959329  0.92105790  0.60156265  1
  O2-  O245  1  0.46205550  0.91831987  0.93235938  1
  O2-  O246  1  0.95693039  0.41718942  0.27244234  1
  O2-  O247  1  0.96427773  0.41584702  0.59685059  1
  O2-  O248  1  0.96105122  0.41999916  0.93356371  1
  O2-  O249  1  0.96014167  0.90910537  0.27107473  1
  O2-  O250  1  0.95642700  0.91378927  0.60551950  1
  O2-  O251  1  0.95748787  0.91377165  0.92986483  1
  O2-  O252  1  0.32886126  0.29271287  0.26926255  1
  O2-  O253  1  0.33385587  0.29888546  0.60625194  1
  O2-  O254  1  0.33570704  0.28874631  0.93114019  1
  O2-  O255  1  0.32701574  0.79147682  0.26656763  1
  O2-  O256  1  0.33348886  0.78922263  0.59985765  1
  O2-  O257  1  0.33303077  0.79057416  0.92954237  1
  O2-  O258  1  0.83294066  0.30435205  0.27311806  1
  O2-  O259  1  0.82894361  0.29492554  0.60045537  1
  O2-  O260  1  0.82810881  0.29850767  0.93400340  1
  O2-  O261  1  0.83825577  0.79255498  0.27377697  1
  O2-  O262  1  0.83536989  0.79320523  0.60536089  1
  O2-  O263  1  0.83288880  0.78535578  0.93253290  1
  O2-  O264  1  0.41164801  0.04177797  0.06270066  1
  O2-  O265  1  0.41915304  0.04418399  0.39697711  1
  O2-  O266  1  0.41892147  0.04709656  0.73749586  1
  O2-  O267  1  0.41913447  0.55115716  0.05863277  1
  O2-  O268  1  0.41848067  0.54279967  0.40101182  1
  O2-  O269  1  0.41317184  0.54884713  0.73026549  1
  O2-  O270  1  0.91883091  0.04379182  0.05815991  1
  O2-  O271  1  0.91486464  0.03511203  0.40148324  1
  O2-  O272  1  0.92351210  0.05158019  0.73223558  1
  O2-  O273  1  0.91307417  0.54399161  0.06338065  1
  O2-  O274  1  0.91820016  0.54414333  0.40186018  1
  O2-  O275  1  0.92342917  0.54308162  0.73473589  1
  O2-  O276  1  0.29136241  0.16187052  0.06174840  1
  O2-  O277  1  0.28558495  0.16457162  0.40033339  1
  O2-  O278  1  0.29088515  0.17156581  0.73616678  1
  O2-  O279  1  0.29400646  0.66575491  0.06219476  1
  O2-  O280  1  0.28502004  0.66526479  0.40247593  1
  O2-  O281  1  0.28835857  0.66159728  0.72939324  1
  O2-  O282  1  0.79910485  0.16566453  0.06189807  1
  O2-  O283  1  0.79608103  0.17033108  0.39638768  1
  O2-  O284  1  0.79015084  0.16920810  0.73632672  1
  O2-  O285  1  0.79107475  0.66032826  0.06346870  1
  O2-  O286  1  0.79125676  0.66790892  0.40186518  1
  O2-  O287  1  0.79578052  0.66824165  0.73815947  1
