# generated using pymatgen
data_Ca2Al2SiO7
_symmetry_space_group_name_H-M   'P 1'
_cell_length_a   15.45992301
_cell_length_b   15.45922175
_cell_length_c   15.28407624
_cell_angle_alpha   89.98747753
_cell_angle_beta   89.98093321
_cell_angle_gamma   90.00606017
_symmetry_Int_Tables_number   1
_chemical_formula_structural   Ca2Al2SiO7
_chemical_formula_sum   'Ca48 Al48 Si24 O168'
_cell_volume   3652.86912070
_cell_formula_units_Z   24
loop_
 _symmetry_equiv_pos_site_id
 _symmetry_equiv_pos_as_xyz
  1  'x, y, z'
loop_
 _atom_type_symbol
 _atom_type_oxidation_number
  Ca2+  2.0
  Al0+  0.0
  Si0+  0.0
  O2-  -2.0
loop_
 _atom_site_type_symbol
 _atom_site_label
 _atom_site_symmetry_multiplicity
 _atom_site_fract_x
 _atom_site_fract_y
 _atom_site_fract_z
 _atom_site_occupancy
  Ca2+  Ca0  1  0.17500230  0.07306483  0.16765103  1
  Ca2+  Ca1  1  0.17787908  0.08516538  0.50677552  1
  Ca2+  Ca2  1  0.17523260  0.08149462  0.84086731  1
  Ca2+  Ca3  1  0.16490549  0.58283748  0.16592311  1
  Ca2+  Ca4  1  0.16690091  0.57851376  0.50823474  1
  Ca2+  Ca5  1  0.17585054  0.57415587  0.83753262  1
  Ca2+  Ca6  1  0.67841164  0.08138458  0.17046304  1
  Ca2+  Ca7  1  0.67060107  0.08533718  0.50300461  1
  Ca2+  Ca8  1  0.66983709  0.08278786  0.83944468  1
  Ca2+  Ca9  1  0.67473657  0.59476307  0.16903273  1
  Ca2+  Ca10  1  0.67729076  0.59294556  0.50063768  1
  Ca2+  Ca11  1  0.67441330  0.58897182  0.83962578  1
  Ca2+  Ca12  1  0.07245960  0.33474148  0.15958658  1
  Ca2+  Ca13  1  0.08294185  0.33145622  0.49746699  1
  Ca2+  Ca14  1  0.08483139  0.33481093  0.83115475  1
  Ca2+  Ca15  1  0.08102035  0.82956927  0.16024613  1
  Ca2+  Ca16  1  0.08229483  0.82244707  0.49408531  1
  Ca2+  Ca17  1  0.07895537  0.84123326  0.83537922  1
  Ca2+  Ca18  1  0.58255423  0.33016807  0.16238658  1
  Ca2+  Ca19  1  0.58345792  0.32767705  0.50015429  1
  Ca2+  Ca20  1  0.58103779  0.32481161  0.82936559  1
  Ca2+  Ca21  1  0.57606856  0.82465281  0.16216900  1
  Ca2+  Ca22  1  0.57102700  0.82744633  0.49380282  1
  Ca2+  Ca23  1  0.57100491  0.82811097  0.83307262  1
  Ca2+  Ca24  1  0.32754029  0.42229526  0.16515607  1
  Ca2+  Ca25  1  0.32532417  0.42692042  0.51233716  1
  Ca2+  Ca26  1  0.32284006  0.42171944  0.84081743  1
  Ca2+  Ca27  1  0.34066994  0.92032286  0.16763817  1
  Ca2+  Ca28  1  0.34059391  0.92052974  0.50389021  1
  Ca2+  Ca29  1  0.33389274  0.92235818  0.84054482  1
  Ca2+  Ca30  1  0.83820575  0.42342168  0.16968236  1
  Ca2+  Ca31  1  0.83704737  0.42516784  0.49997046  1
  Ca2+  Ca32  1  0.83556222  0.42681754  0.83995132  1
  Ca2+  Ca33  1  0.84194666  0.92684096  0.16856729  1
  Ca2+  Ca34  1  0.83150375  0.92128610  0.50198838  1
  Ca2+  Ca35  1  0.83308412  0.92272514  0.84554027  1
  Ca2+  Ca36  1  0.41250446  0.16228888  0.16294487  1
  Ca2+  Ca37  1  0.41929855  0.15960098  0.49844475  1
  Ca2+  Ca38  1  0.41854260  0.15976521  0.82471737  1
  Ca2+  Ca39  1  0.42439057  0.67389768  0.15411439  1
  Ca2+  Ca40  1  0.41409481  0.67666451  0.49050441  1
  Ca2+  Ca41  1  0.40599220  0.67409338  0.83025318  1
  Ca2+  Ca42  1  0.90898522  0.17616429  0.15881363  1
  Ca2+  Ca43  1  0.92489255  0.17273605  0.49204161  1
  Ca2+  Ca44  1  0.92370299  0.17179316  0.82903791  1
  Ca2+  Ca45  1  0.91975777  0.66503701  0.15930871  1
  Ca2+  Ca46  1  0.92109423  0.65913206  0.49199288  1
  Ca2+  Ca47  1  0.91149919  0.66868370  0.83322251  1
  Al0+  Al48  1  0.00211937  0.00134582  0.00451602  1
  Al0+  Al49  1  0.00328594  0.00007609  0.34018442  1
  Al0+  Al50  1  -0.00024055  0.00223189  0.65951192  1
  Al0+  Al51  1  -0.00160723  0.49935653  0.00087876  1
  Al0+  Al52  1  -0.00079075  0.49815690  0.32953281  1
  Al0+  Al53  1  -0.00167568  0.50126597  0.67465682  1
  Al0+  Al54  1  0.50234296  -0.00220836  0.00075468  1
  Al0+  Al55  1  0.50131447  0.00030806  0.33324176  1
  Al0+  Al56  1  0.50167659  -0.00164553  0.66140316  1
  Al0+  Al57  1  0.50128639  0.49682467  -0.00185457  1
  Al0+  Al58  1  0.50096006  0.49778132  0.33138065  1
  Al0+  Al59  1  0.50359573  0.50101271  0.66911639  1
  Al0+  Al60  1  0.24939926  0.25026510  0.00848860  1
  Al0+  Al61  1  0.25002244  0.24818043  0.33713708  1
  Al0+  Al62  1  0.24984706  0.24942473  0.66911311  1
  Al0+  Al63  1  0.24917916  0.74951145  0.00138169  1
  Al0+  Al64  1  0.24815152  0.75036500  0.32394008  1
  Al0+  Al65  1  0.24612453  0.75171680  0.66446737  1
  Al0+  Al66  1  0.75038353  0.25168383  -0.00274816  1
  Al0+  Al67  1  0.75015431  0.25098235  0.33523098  1
  Al0+  Al68  1  0.75023225  0.25151861  0.66163057  1
  Al0+  Al69  1  0.74968296  0.75061793  -0.00368760  1
  Al0+  Al70  1  0.74986364  0.75251424  0.33603223  1
  Al0+  Al71  1  0.74777974  0.75321887  0.66993934  1
  Al0+  Al72  1  0.81805442  0.57162346  0.01430541  1
  Al0+  Al73  1  0.81857970  0.57175469  0.68117142  1
  Al0+  Al74  1  0.17794232  0.92788352  0.01482613  1
  Al0+  Al75  1  0.32283715  0.57099232  0.01548513  1
  Al0+  Al76  1  0.42888880  0.82158070  0.31598976  1
  Al0+  Al77  1  0.17918696  0.42812370  0.68141807  1
  Al0+  Al78  1  0.17766141  0.42916249  0.01801115  1
  Al0+  Al79  1  0.42757028  0.82049986  0.98268187  1
  Al0+  Al80  1  0.57088629  0.17889404  0.65246399  1
  Al0+  Al81  1  0.82247185  0.07311086  0.34904157  1
  Al0+  Al82  1  0.93093588  0.82238743  0.98788179  1
  Al0+  Al83  1  0.06861095  0.67752972  0.31942656  1
  Al0+  Al84  1  0.57122538  0.67616122  0.98259661  1
  Al0+  Al85  1  0.32067226  0.06910114  0.34997615  1
  Al0+  Al86  1  0.42747430  0.81784644  0.65217380  1
  Al0+  Al87  1  0.92845204  0.32154616  0.98380978  1
  Al0+  Al88  1  0.32406867  0.06942483  0.01467671  1
  Al0+  Al89  1  0.82097656  0.07234400  0.01085917  1
  Al0+  Al90  1  0.93015400  0.31784947  0.31936821  1
  Al0+  Al91  1  0.57238221  0.67695020  0.31882385  1
  Al0+  Al92  1  0.81987080  0.57056555  0.34537560  1
  Al0+  Al93  1  0.07249366  0.17924719  0.65263718  1
  Al0+  Al94  1  0.32261768  0.57479358  0.67837844  1
  Al0+  Al95  1  0.32178735  0.06768290  0.67908231  1
  Si0+  Si96  1  0.92806747  0.82426890  0.31907328  1
  Si0+  Si97  1  0.57077911  0.17903028  0.98678784  1
  Si0+  Si98  1  0.06639137  0.67972071  0.65371759  1
  Si0+  Si99  1  0.67905232  0.93006809  0.35200403  1
  Si0+  Si100  1  0.68004825  0.93155993  0.68279898  1
  Si0+  Si101  1  0.07131971  0.67670628  0.98066955  1
  Si0+  Si102  1  0.67551595  0.42643921  0.35148188  1
  Si0+  Si103  1  0.92926127  0.32371995  0.64924432  1
  Si0+  Si104  1  0.07447532  0.17673040  0.31556712  1
  Si0+  Si105  1  0.17453006  0.92826408  0.68168658  1
  Si0+  Si106  1  0.67818886  0.42597392  0.01657606  1
  Si0+  Si107  1  0.07281722  0.17944802  0.98509531  1
  Si0+  Si108  1  0.92569524  0.82313591  0.65121241  1
  Si0+  Si109  1  0.82198296  0.07218388  0.68059455  1
  Si0+  Si110  1  0.42699764  0.31909819  0.98580825  1
  Si0+  Si111  1  0.42806774  0.32337050  0.65142610  1
  Si0+  Si112  1  0.17839313  0.92466790  0.35281193  1
  Si0+  Si113  1  0.67846630  0.42493080  0.68435301  1
  Si0+  Si114  1  0.67948820  0.92820232  0.01725542  1
  Si0+  Si115  1  0.17928810  0.42983053  0.34829059  1
  Si0+  Si116  1  0.57436684  0.67773057  0.64965853  1
  Si0+  Si117  1  0.42687046  0.32050499  0.31912773  1
  Si0+  Si118  1  0.32172125  0.57078617  0.34535719  1
  Si0+  Si119  1  0.57081293  0.18018704  0.31772072  1
  O2-  O120  1  0.25550426  -0.00570576  0.06463585  1
  O2-  O121  1  0.24814952  -0.00749617  0.39689647  1
  O2-  O122  1  0.24488944  -0.00445447  0.72487603  1
  O2-  O123  1  0.24818437  0.50275809  0.06790837  1
  O2-  O124  1  0.25037609  0.50105984  0.39005812  1
  O2-  O125  1  0.25627630  0.49696600  0.72760255  1
  O2-  O126  1  0.75051965  -0.00474959  0.06052968  1
  O2-  O127  1  0.74963456  -0.00278610  0.39701906  1
  O2-  O128  1  0.75175783  0.00217753  0.72478478  1
  O2-  O129  1  0.74196645  0.49863468  0.06098233  1
  O2-  O130  1  0.74142013  0.49956211  0.39307714  1
  O2-  O131  1  0.74346821  0.49734518  0.72729138  1
  O2-  O132  1  0.00082164  0.23980378  0.27136574  1
  O2-  O133  1  -0.00105041  0.25563664  0.60573468  1
  O2-  O134  1  0.00472369  0.24791218  0.93887031  1
  O2-  O135  1  -0.00670122  0.75283488  0.27518831  1
  O2-  O136  1  -0.00578561  0.74949015  0.61002957  1
  O2-  O137  1  0.00450680  0.74839516  0.93720970  1
  O2-  O138  1  0.49825118  0.24954809  0.27609354  1
  O2-  O139  1  0.49553370  0.25355899  0.60566219  1
  O2-  O140  1  0.49507131  0.24461038  0.94431578  1
  O2-  O141  1  0.49716829  0.74490666  0.26858608  1
  O2-  O142  1  0.49687123  0.73689318  0.60642409  1
  O2-  O143  1  0.49413565  0.74296489  0.93255141  1
  O2-  O144  1  0.07141603  0.18063388  0.09070907  1
  O2-  O145  1  0.07529376  0.18122161  0.42156019  1
  O2-  O146  1  0.06812582  0.17502182  0.76532677  1
  O2-  O147  1  0.06728998  0.67567421  0.08649031  1
  O2-  O148  1  0.06794949  0.67654047  0.43357531  1
  O2-  O149  1  0.06583665  0.68083788  0.75819695  1
  O2-  O150  1  0.57354250  0.18209422  0.09203543  1
  O2-  O151  1  0.57120715  0.18126055  0.42302154  1
  O2-  O152  1  0.57238301  0.17959957  0.76575663  1
  O2-  O153  1  0.57262777  0.68025909  0.09611826  1
  O2-  O154  1  0.57105043  0.67901335  0.43296094  1
  O2-  O155  1  0.58060306  0.68350765  0.75428491  1
  O2-  O156  1  0.18015069  0.42923077  0.24378307  1
  O2-  O157  1  0.17742981  0.43182300  0.56683065  1
  O2-  O158  1  0.18059741  0.42781065  0.90454507  1
  O2-  O159  1  0.17490256  0.92687671  0.24785703  1
  O2-  O160  1  0.17328375  0.92742560  0.57606415  1
  O2-  O161  1  0.17497802  0.93460868  0.90086736  1
  O2-  O162  1  0.67531468  0.42022594  0.24647590  1
  O2-  O163  1  0.67967768  0.42136729  0.57879074  1
  O2-  O164  1  0.68098734  0.42103834  0.91098720  1
  O2-  O165  1  0.67872877  0.93246842  0.24674346  1
  O2-  O166  1  0.68273795  0.93129832  0.57752404  1
  O2-  O167  1  0.67864914  0.93242518  0.91117581  1
  O2-  O168  1  0.42963555  0.31930699  0.09134309  1
  O2-  O169  1  0.42742616  0.32111449  0.42425290  1
  O2-  O170  1  0.43019512  0.32162796  0.75695464  1
  O2-  O171  1  0.43392937  0.82371995  0.09574993  1
  O2-  O172  1  0.43018756  0.82078363  0.43028371  1
  O2-  O173  1  0.42939514  0.82084906  0.76452907  1
  O2-  O174  1  0.92658597  0.31893907  0.09700599  1
  O2-  O175  1  0.93374614  0.31956940  0.43284257  1
  O2-  O176  1  0.92727261  0.32162700  0.75458973  1
  O2-  O177  1  0.93176316  0.82239432  0.10095094  1
  O2-  O178  1  0.92946978  0.82391452  0.42542028  1
  O2-  O179  1  0.92611082  0.82647538  0.75601429  1
  O2-  O180  1  0.31957958  0.07112377  0.23748785  1
  O2-  O181  1  0.32201935  0.06575064  0.56582467  1
  O2-  O182  1  0.32413150  0.07086827  0.90093127  1
  O2-  O183  1  0.32200108  0.56668556  0.24094310  1
  O2-  O184  1  0.31752354  0.57438866  0.56371792  1
  O2-  O185  1  0.32104740  0.56695818  0.90178131  1
  O2-  O186  1  0.81916518  0.07328129  0.23597909  1
  O2-  O187  1  0.82075947  0.06980344  0.57535440  1
  O2-  O188  1  0.81793474  0.07193030  0.89719725  1
  O2-  O189  1  0.82053513  0.56893304  0.23293498  1
  O2-  O190  1  0.81996764  0.57065855  0.56761871  1
  O2-  O191  1  0.81711008  0.57047442  0.90094250  1
  O2-  O192  1  0.05433392  0.07983621  0.27549028  1
  O2-  O193  1  0.03970270  0.08493618  0.59369338  1
  O2-  O194  1  0.04677810  0.08632109  0.93927801  1
  O2-  O195  1  0.03726934  0.58260186  0.26382989  1
  O2-  O196  1  0.03793354  0.58747844  0.60657671  1
  O2-  O197  1  0.04167662  0.58447962  0.93457683  1
  O2-  O198  1  0.54559124  0.08816774  0.27060540  1
  O2-  O199  1  0.54179609  0.08348405  0.59561759  1
  O2-  O200  1  0.54899129  0.08582507  0.93987425  1
  O2-  O201  1  0.55218601  0.57536686  0.26891140  1
  O2-  O202  1  0.56306924  0.57949257  0.60848945  1
  O2-  O203  1  0.55258884  0.57375427  0.93320064  1
  O2-  O204  1  0.16660461  0.20693073  0.26986754  1
  O2-  O205  1  0.16960114  0.20882354  0.59805897  1
  O2-  O206  1  0.16706636  0.20616934  0.94041197  1
  O2-  O207  1  0.16356571  0.70680570  0.26254508  1
  O2-  O208  1  0.15654179  0.70826387  0.60284555  1
  O2-  O209  1  0.16627355  0.69835072  0.93667881  1
  O2-  O210  1  0.66180722  0.21039994  0.27042743  1
  O2-  O211  1  0.66690520  0.21097931  0.59601592  1
  O2-  O212  1  0.65946893  0.21210255  0.93607345  1
  O2-  O213  1  0.67049763  0.71072478  0.26791073  1
  O2-  O214  1  0.66410350  0.71493742  0.60085495  1
  O2-  O215  1  0.66731498  0.71142942  0.92860437  1
  O2-  O216  1  0.07885851  0.45735528  0.06933163  1
  O2-  O217  1  0.08775783  0.45862103  0.39542049  1
  O2-  O218  1  0.08282111  0.45959332  0.73567817  1
  O2-  O219  1  0.08331733  0.96165804  0.07302586  1
  O2-  O220  1  0.08568548  0.94954920  0.40203144  1
  O2-  O221  1  0.08051190  0.95615986  0.72622816  1
  O2-  O222  1  0.58267732  0.44384795  0.06114837  1
  O2-  O223  1  0.58062416  0.44686211  0.39826494  1
  O2-  O224  1  0.58361248  0.44474137  0.73013609  1
  O2-  O225  1  0.58864984  0.95764959  0.06578423  1
  O2-  O226  1  0.58726788  0.96003304  0.39958552  1
  O2-  O227  1  0.58938296  0.96213394  0.72956270  1
  O2-  O228  1  0.20759932  0.33259148  0.07377994  1
  O2-  O229  1  0.20757030  0.33818778  0.39620273  1
  O2-  O230  1  0.20394118  0.32937701  0.73457903  1
  O2-  O231  1  0.19602704  0.82671081  0.06474954  1
  O2-  O232  1  0.20263974  0.82924973  0.39669987  1
  O2-  O233  1  0.19609108  0.83418383  0.72731796  1
  O2-  O234  1  0.70838226  0.33469383  0.06543973  1
  O2-  O235  1  0.70614458  0.33541314  0.40083668  1
  O2-  O236  1  0.70767369  0.33229258  0.73149362  1
  O2-  O237  1  0.70402678  0.83468063  0.06170354  1
  O2-  O238  1  0.70346886  0.83718545  0.40061628  1
  O2-  O239  1  0.70720253  0.84103009  0.73220403  1
  O2-  O240  1  0.45438903  0.41122494  0.26964307  1
  O2-  O241  1  0.45525911  0.41701596  0.60451360  1
  O2-  O242  1  0.45759516  0.40815631  0.93538734  1
  O2-  O243  1  0.46298171  0.91949082  0.26539989  1
  O2-  O244  1  0.46684776  0.91119723  0.59673568  1
  O2-  O245  1  0.46364813  0.91805140  0.93029003  1
  O2-  O246  1  0.96356505  0.41233779  0.26413493  1
  O2-  O247  1  0.95551671  0.41837619  0.60539414  1
  O2-  O248  1  0.95864260  0.41830217  0.93031369  1
  O2-  O249  1  0.95706727  0.91788837  0.27453187  1
  O2-  O250  1  0.95454880  0.91324442  0.60052762  1
  O2-  O251  1  0.96155580  0.91997324  0.93357314  1
  O2-  O252  1  0.33554621  0.29095178  0.27192558  1
  O2-  O253  1  0.33393583  0.30001899  0.60585798  1
  O2-  O254  1  0.33379899  0.29381636  0.94062851  1
  O2-  O255  1  0.32921172  0.79995514  0.26453110  1
  O2-  O256  1  0.32840749  0.79432918  0.59806632  1
  O2-  O257  1  0.32616856  0.79849434  0.93270357  1
  O2-  O258  1  0.83161571  0.29039403  0.26741747  1
  O2-  O259  1  0.83643806  0.29767088  0.60167471  1
  O2-  O260  1  0.83275309  0.28906406  0.92857171  1
  O2-  O261  1  0.83259418  0.80525757  0.27587427  1
  O2-  O262  1  0.83285033  0.79757579  0.60464140  1
  O2-  O263  1  0.83431781  0.79414538  0.93228556  1
  O2-  O264  1  0.42397394  0.04458221  0.06737674  1
  O2-  O265  1  0.41999064  0.04185168  0.40112026  1
  O2-  O266  1  0.41957260  0.03679003  0.73042713  1
  O2-  O267  1  0.42076850  0.53727482  0.06688859  1
  O2-  O268  1  0.41337897  0.54242359  0.39328224  1
  O2-  O269  1  0.42480347  0.55598951  0.72683381  1
  O2-  O270  1  0.91702937  0.04567805  0.06639693  1
  O2-  O271  1  0.92000806  0.04480526  0.40315170  1
  O2-  O272  1  0.91418575  0.04352678  0.72587295  1
  O2-  O273  1  0.91426932  0.53938557  0.06668368  1
  O2-  O274  1  0.91546227  0.53401495  0.39960666  1
  O2-  O275  1  0.91353435  0.54195561  0.73753492  1
  O2-  O276  1  0.29472454  0.16666056  0.06926367  1
  O2-  O277  1  0.28927686  0.16606730  0.40474725  1
  O2-  O278  1  0.29592826  0.16600395  0.73106068  1
  O2-  O279  1  0.29847214  0.67049016  0.06645728  1
  O2-  O280  1  0.29385085  0.66442376  0.38859997  1
  O2-  O281  1  0.28588239  0.67027124  0.73149229  1
  O2-  O282  1  0.78435548  0.16696194  0.06497857  1
  O2-  O283  1  0.78807157  0.16819554  0.40396817  1
  O2-  O284  1  0.79469928  0.16535981  0.72468102  1
  O2-  O285  1  0.78996051  0.66975091  0.06641938  1
  O2-  O286  1  0.79456760  0.66908700  0.40029516  1
  O2-  O287  1  0.78926030  0.66981901  0.73338397  1
