# generated using pymatgen
data_Ca2Al2SiO7
_symmetry_space_group_name_H-M   'P 1'
_cell_length_a   15.45433434
_cell_length_b   15.45450166
_cell_length_c   15.28088529
_cell_angle_alpha   90.00705493
_cell_angle_beta   90.01181055
_cell_angle_gamma   89.99928199
_symmetry_Int_Tables_number   1
_chemical_formula_structural   Ca2Al2SiO7
_chemical_formula_sum   'Ca48 Al48 Si24 O168'
_cell_volume   3649.67180228
_cell_formula_units_Z   24
loop_
 _symmetry_equiv_pos_site_id
 _symmetry_equiv_pos_as_xyz
  1  'x, y, z'
loop_
 _atom_type_symbol
 _atom_type_oxidation_number
  Ca2+  2.0
  Al0+  0.0
  Si0+  0.0
  O2-  -2.0
loop_
 _atom_site_type_symbol
 _atom_site_label
 _atom_site_symmetry_multiplicity
 _atom_site_fract_x
 _atom_site_fract_y
 _atom_site_fract_z
 _atom_site_occupancy
  Ca2+  Ca0  1  0.17782508  0.08443454  0.17258936  1
  Ca2+  Ca1  1  0.16489528  0.07315393  0.50593643  1
  Ca2+  Ca2  1  0.16260915  0.08259638  0.83961434  1
  Ca2+  Ca3  1  0.15350582  0.58047608  0.16631518  1
  Ca2+  Ca4  1  0.16439126  0.58225621  0.50428337  1
  Ca2+  Ca5  1  0.15864917  0.57171480  0.83884031  1
  Ca2+  Ca6  1  0.67390321  0.08417810  0.16901773  1
  Ca2+  Ca7  1  0.67217923  0.07685595  0.50611544  1
  Ca2+  Ca8  1  0.67859099  0.09487639  0.83740543  1
  Ca2+  Ca9  1  0.66273173  0.57453755  0.16921838  1
  Ca2+  Ca10  1  0.66632107  0.57111602  0.50599898  1
  Ca2+  Ca11  1  0.66875417  0.57248589  0.84171903  1
  Ca2+  Ca12  1  0.07537768  0.32837725  0.15207536  1
  Ca2+  Ca13  1  0.08211336  0.33065125  0.50072284  1
  Ca2+  Ca14  1  0.07802694  0.32528721  0.82676612  1
  Ca2+  Ca15  1  0.08639972  0.82682670  0.16679595  1
  Ca2+  Ca16  1  0.07619036  0.83794894  0.49239624  1
  Ca2+  Ca17  1  0.08059433  0.83161131  0.82645511  1
  Ca2+  Ca18  1  0.58284705  0.33168382  0.15782386  1
  Ca2+  Ca19  1  0.59298505  0.32775934  0.50000951  1
  Ca2+  Ca20  1  0.59055191  0.32450087  0.82935364  1
  Ca2+  Ca21  1  0.57905357  0.83709140  0.16312246  1
  Ca2+  Ca22  1  0.57749061  0.83657536  0.48869481  1
  Ca2+  Ca23  1  0.58473743  0.82631022  0.83195438  1
  Ca2+  Ca24  1  0.32460454  0.41669496  0.16634701  1
  Ca2+  Ca25  1  0.32596592  0.42117473  0.50734841  1
  Ca2+  Ca26  1  0.31809405  0.41009003  0.83675360  1
  Ca2+  Ca27  1  0.33163169  0.92687291  0.17572149  1
  Ca2+  Ca28  1  0.32355373  0.91605938  0.49964082  1
  Ca2+  Ca29  1  0.32528591  0.92364592  0.83764777  1
  Ca2+  Ca30  1  0.82267380  0.41039513  0.16740936  1
  Ca2+  Ca31  1  0.82718907  0.41448617  0.50616578  1
  Ca2+  Ca32  1  0.82674103  0.40288121  0.83749362  1
  Ca2+  Ca33  1  0.83069214  0.92046330  0.17134764  1
  Ca2+  Ca34  1  0.83595650  0.91691563  0.50694767  1
  Ca2+  Ca35  1  0.84093335  0.93029258  0.83433163  1
  Ca2+  Ca36  1  0.42152217  0.15963990  0.15954267  1
  Ca2+  Ca37  1  0.42141711  0.16289435  0.49751205  1
  Ca2+  Ca38  1  0.42849454  0.15990719  0.83206775  1
  Ca2+  Ca39  1  0.42124088  0.67580330  0.16195478  1
  Ca2+  Ca40  1  0.41687037  0.67455639  0.49263342  1
  Ca2+  Ca41  1  0.42309628  0.66222994  0.83454864  1
  Ca2+  Ca42  1  0.92202987  0.16969911  0.15553881  1
  Ca2+  Ca43  1  0.91860434  0.16588514  0.50663880  1
  Ca2+  Ca44  1  0.91975957  0.17233756  0.82781972  1
  Ca2+  Ca45  1  0.92355766  0.67350454  0.16455799  1
  Ca2+  Ca46  1  0.92288436  0.67902114  0.49233903  1
  Ca2+  Ca47  1  0.91996678  0.67355861  0.83035663  1
  Al0+  Al48  1  -0.00040355  -0.00052958  0.00444380  1
  Al0+  Al49  1  0.00112802  0.00220461  0.33035936  1
  Al0+  Al50  1  0.00017806  -0.00044075  0.66763067  1
  Al0+  Al51  1  -0.00368225  0.50246111  -0.00319963  1
  Al0+  Al52  1  -0.00289428  0.49919262  0.33088388  1
  Al0+  Al53  1  -0.00070987  0.50073315  0.66625309  1
  Al0+  Al54  1  0.49822951  -0.00011301  -0.00307168  1
  Al0+  Al55  1  0.50275519  0.00120007  0.33609641  1
  Al0+  Al56  1  0.49999098  -0.00195634  0.66249842  1
  Al0+  Al57  1  0.49790585  0.50103276  -0.00033339  1
  Al0+  Al58  1  0.49828413  0.49730119  0.33854452  1
  Al0+  Al59  1  0.50049160  0.49928054  0.67037490  1
  Al0+  Al60  1  0.24976998  0.24990929  0.00656181  1
  Al0+  Al61  1  0.25278956  0.25178411  0.33755871  1
  Al0+  Al62  1  0.25256455  0.24991702  0.66568347  1
  Al0+  Al63  1  0.24963967  0.74952281  -0.00565285  1
  Al0+  Al64  1  0.25177301  0.74979499  0.32730021  1
  Al0+  Al65  1  0.25250192  0.75078183  0.67262258  1
  Al0+  Al66  1  0.74877377  0.24907959  0.00445583  1
  Al0+  Al67  1  0.75030662  0.24934807  0.33737749  1
  Al0+  Al68  1  0.75017933  0.24841168  0.66354780  1
  Al0+  Al69  1  0.74826711  0.74949764  -0.00414774  1
  Al0+  Al70  1  0.75134273  0.74842983  0.33259683  1
  Al0+  Al71  1  0.74940601  0.74791467  0.66250508  1
  Al0+  Al72  1  0.17914329  0.93015225  0.68140794  1
  Al0+  Al73  1  0.82089944  0.07082659  0.01424830  1
  Al0+  Al74  1  0.07051394  0.68010776  0.98364283  1
  Al0+  Al75  1  0.56926416  0.17955132  0.98828075  1
  Al0+  Al76  1  0.68150431  0.92804244  0.34495640  1
  Al0+  Al77  1  0.81891824  0.06790340  0.67985950  1
  Al0+  Al78  1  0.07335087  0.17812185  0.98731564  1
  Al0+  Al79  1  0.07129739  0.67801319  0.31843808  1
  Al0+  Al80  1  0.57046129  0.67807350  0.98688134  1
  Al0+  Al81  1  0.32069454  0.07003985  0.01292070  1
  Al0+  Al82  1  0.07382791  0.17852836  0.65091859  1
  Al0+  Al83  1  0.57113687  0.17904624  0.65117153  1
  Al0+  Al84  1  0.92742587  0.82474781  0.31630627  1
  Al0+  Al85  1  0.32326572  0.07303114  0.35103883  1
  Al0+  Al86  1  0.67841170  0.42938485  0.34842734  1
  Al0+  Al87  1  0.17995255  0.92877541  0.34700386  1
  Al0+  Al88  1  0.17683279  0.43097886  0.01386324  1
  Al0+  Al89  1  0.68125003  0.42926073  0.68234442  1
  Al0+  Al90  1  0.93030210  0.82069988  0.65396066  1
  Al0+  Al91  1  0.92894363  0.32183870  0.64981323  1
  Al0+  Al92  1  0.17811903  0.42905613  0.67957671  1
  Al0+  Al93  1  0.43143128  0.82204598  0.31934625  1
  Al0+  Al94  1  0.67923169  0.42970263  0.01376145  1
  Al0+  Al95  1  0.92735850  0.32016486  0.98635545  1
  Si0+  Si96  1  0.42870302  0.32311917  0.64927584  1
  Si0+  Si97  1  0.67788004  0.92644255  0.01389977  1
  Si0+  Si98  1  0.17668876  0.42980889  0.34750874  1
  Si0+  Si99  1  0.82307333  0.57099697  0.35072564  1
  Si0+  Si100  1  0.57090485  0.18120346  0.31809402  1
  Si0+  Si101  1  0.32432732  0.07154923  0.68353076  1
  Si0+  Si102  1  0.92841290  0.31954997  0.31772537  1
  Si0+  Si103  1  0.07389300  0.18108434  0.31849190  1
  Si0+  Si104  1  0.07411018  0.67877598  0.65120795  1
  Si0+  Si105  1  0.67510694  0.92498896  0.68328228  1
  Si0+  Si106  1  0.42819325  0.82257560  0.98063421  1
  Si0+  Si107  1  0.57149253  0.67465352  0.31890729  1
  Si0+  Si108  1  0.42667773  0.32358120  0.98435220  1
  Si0+  Si109  1  0.32249910  0.57284484  0.68493731  1
  Si0+  Si110  1  0.42801500  0.32293440  0.31789993  1
  Si0+  Si111  1  0.42939567  0.81951282  0.65076513  1
  Si0+  Si112  1  0.17755296  0.92566883  0.01730932  1
  Si0+  Si113  1  0.32130279  0.57321396  0.01782561  1
  Si0+  Si114  1  0.32087977  0.57035765  0.34693693  1
  Si0+  Si115  1  0.82038082  0.57620580  0.01791297  1
  Si0+  Si116  1  0.92651809  0.82280326  0.98265486  1
  Si0+  Si117  1  0.82155705  0.57415414  0.68378393  1
  Si0+  Si118  1  0.82314633  0.07223682  0.35123132  1
  Si0+  Si119  1  0.57022081  0.67693818  0.65024672  1
  O2-  O120  1  0.24403496  -0.00260805  0.05966095  1
  O2-  O121  1  0.24951960  0.00224837  0.39952635  1
  O2-  O122  1  0.25067998  0.00837925  0.72771419  1
  O2-  O123  1  0.24974272  0.50762293  0.06251217  1
  O2-  O124  1  0.24553648  0.50361730  0.38878687  1
  O2-  O125  1  0.25210881  0.50486613  0.72669814  1
  O2-  O126  1  0.74666780  -0.00571249  0.05873266  1
  O2-  O127  1  0.76022435  -0.00287597  0.39356439  1
  O2-  O128  1  0.74363478  -0.00676382  0.72740461  1
  O2-  O129  1  0.75298142  0.50517495  0.06126066  1
  O2-  O130  1  0.75114929  0.50562328  0.39517550  1
  O2-  O131  1  0.75747107  0.50185581  0.72927754  1
  O2-  O132  1  0.00169565  0.25097999  0.27632612  1
  O2-  O133  1  0.00417259  0.25287782  0.59947520  1
  O2-  O134  1  0.00195133  0.25044232  0.93722775  1
  O2-  O135  1  0.00147366  0.75291418  0.26901474  1
  O2-  O136  1  0.00647755  0.74766182  0.60654040  1
  O2-  O137  1  -0.00208825  0.75695727  0.93821695  1
  O2-  O138  1  0.49849914  0.25117838  0.27626611  1
  O2-  O139  1  0.49689126  0.25444224  0.60384640  1
  O2-  O140  1  0.49564807  0.25511811  0.94064354  1
  O2-  O141  1  0.50898546  0.74874219  0.27415843  1
  O2-  O142  1  0.50171756  0.74986122  0.60781308  1
  O2-  O143  1  0.49669591  0.75274680  0.93761040  1
  O2-  O144  1  0.07295679  0.18088015  0.10173848  1
  O2-  O145  1  0.07411903  0.18243261  0.42344434  1
  O2-  O146  1  0.07326399  0.17899665  0.76412573  1
  O2-  O147  1  0.06920384  0.68176746  0.09660840  1
  O2-  O148  1  0.06951881  0.67469566  0.43211638  1
  O2-  O149  1  0.07258700  0.67977883  0.75676007  1
  O2-  O150  1  0.56837305  0.17998881  0.10186334  1
  O2-  O151  1  0.57146401  0.18285897  0.42321799  1
  O2-  O152  1  0.57002503  0.17978684  0.76429670  1
  O2-  O153  1  0.56768425  0.67884442  0.10005231  1
  O2-  O154  1  0.56612163  0.67288209  0.42487642  1
  O2-  O155  1  0.56893352  0.67699934  0.75533745  1
  O2-  O156  1  0.17786920  0.42857208  0.24254774  1
  O2-  O157  1  0.18116420  0.43286439  0.56561584  1
  O2-  O158  1  0.17949630  0.43070750  0.90097317  1
  O2-  O159  1  0.18305733  0.93024447  0.23344907  1
  O2-  O160  1  0.18174434  0.92643960  0.56856921  1
  O2-  O161  1  0.17931282  0.92474023  0.91136293  1
  O2-  O162  1  0.67783095  0.42891278  0.23538534  1
  O2-  O163  1  0.68028805  0.43254077  0.56887951  1
  O2-  O164  1  0.68032330  0.42999035  0.90085651  1
  O2-  O165  1  0.67875948  0.93306745  0.23180670  1
  O2-  O166  1  0.67406540  0.92551440  0.57743443  1
  O2-  O167  1  0.67861701  0.92444111  0.90828030  1
  O2-  O168  1  0.42841282  0.32497775  0.09050009  1
  O2-  O169  1  0.42684494  0.32578194  0.42270708  1
  O2-  O170  1  0.42830260  0.32388815  0.75465085  1
  O2-  O171  1  0.42952271  0.82326550  0.08625833  1
  O2-  O172  1  0.43099591  0.81778990  0.43288101  1
  O2-  O173  1  0.43034743  0.81884950  0.75583215  1
  O2-  O174  1  0.92759626  0.31775768  0.10098778  1
  O2-  O175  1  0.92855899  0.32071453  0.42257522  1
  O2-  O176  1  0.92788462  0.31883432  0.76282081  1
  O2-  O177  1  0.92415441  0.82098689  0.08803309  1
  O2-  O178  1  0.92800567  0.82208720  0.43012314  1
  O2-  O179  1  0.93081001  0.81881779  0.76711788  1
  O2-  O180  1  0.32255945  0.07328708  0.23726663  1
  O2-  O181  1  0.32663713  0.06731513  0.57815401  1
  O2-  O182  1  0.32427751  0.06629263  0.89994913  1
  O2-  O183  1  0.32645109  0.56664283  0.24243606  1
  O2-  O184  1  0.32364182  0.57426306  0.57879538  1
  O2-  O185  1  0.32283036  0.57107243  0.91228191  1
  O2-  O186  1  0.81923629  0.07678006  0.24568533  1
  O2-  O187  1  0.81707589  0.06542256  0.56644262  1
  O2-  O188  1  0.82031219  0.07101053  0.90125738  1
  O2-  O189  1  0.82440424  0.56835154  0.24527121  1
  O2-  O190  1  0.81704495  0.57654936  0.57813145  1
  O2-  O191  1  0.81738651  0.58079584  0.91246400  1
  O2-  O192  1  0.04862368  0.08942087  0.27039048  1
  O2-  O193  1  0.04053981  0.08138438  0.59821568  1
  O2-  O194  1  0.04668561  0.07767972  0.93836500  1
  O2-  O195  1  0.03798449  0.58024630  0.26461204  1
  O2-  O196  1  0.04917066  0.58538266  0.60495060  1
  O2-  O197  1  0.03687712  0.58512946  0.92874857  1
  O2-  O198  1  0.54457733  0.08920445  0.27131299  1
  O2-  O199  1  0.54056420  0.08152333  0.59747250  1
  O2-  O200  1  0.53879878  0.08375026  0.93227207  1
  O2-  O201  1  0.53841406  0.58287790  0.27295259  1
  O2-  O202  1  0.53915732  0.58580898  0.60292765  1
  O2-  O203  1  0.53662230  0.58313792  0.93050631  1
  O2-  O204  1  0.16631129  0.21121692  0.27326490  1
  O2-  O205  1  0.17374168  0.20416033  0.59849128  1
  O2-  O206  1  0.17281918  0.20519741  0.93651623  1
  O2-  O207  1  0.17067902  0.70079945  0.26472870  1
  O2-  O208  1  0.17004486  0.70249944  0.60879040  1
  O2-  O209  1  0.16851246  0.70559520  0.92921370  1
  O2-  O210  1  0.66313967  0.21068234  0.27200715  1
  O2-  O211  1  0.66577509  0.21047928  0.59463642  1
  O2-  O212  1  0.66500794  0.21218482  0.93533734  1
  O2-  O213  1  0.66772353  0.69136195  0.27633317  1
  O2-  O214  1  0.66237543  0.70071165  0.60209089  1
  O2-  O215  1  0.66566653  0.70800166  0.92957017  1
  O2-  O216  1  0.07927791  0.46240344  0.06645877  1
  O2-  O217  1  0.08387217  0.45501518  0.39389653  1
  O2-  O218  1  0.08118821  0.45858716  0.73310594  1
  O2-  O219  1  0.08288945  0.94542085  0.06269373  1
  O2-  O220  1  0.08028117  0.95752343  0.39788919  1
  O2-  O221  1  0.08259538  0.95744983  0.73597305  1
  O2-  O222  1  0.58113308  0.46064430  0.06596383  1
  O2-  O223  1  0.58149594  0.45760993  0.40395930  1
  O2-  O224  1  0.58416624  0.46064252  0.73513361  1
  O2-  O225  1  0.58358895  0.95245503  0.05797936  1
  O2-  O226  1  0.58763829  0.96283900  0.40211860  1
  O2-  O227  1  0.58083230  0.94919732  0.72836083  1
  O2-  O228  1  0.21007176  0.33656035  0.07119191  1
  O2-  O229  1  0.20885801  0.34060244  0.39703853  1
  O2-  O230  1  0.21225694  0.33289781  0.73275443  1
  O2-  O231  1  0.20759528  0.83240123  0.06167049  1
  O2-  O232  1  0.21018523  0.82924673  0.39755810  1
  O2-  O233  1  0.21412549  0.83509039  0.73735368  1
  O2-  O234  1  0.70995124  0.33470470  0.07085870  1
  O2-  O235  1  0.71256526  0.33371496  0.40235808  1
  O2-  O236  1  0.71025681  0.33113158  0.73251518  1
  O2-  O237  1  0.70181613  0.83266989  0.06077936  1
  O2-  O238  1  0.70197193  0.82775566  0.39751653  1
  O2-  O239  1  0.69947087  0.82971998  0.72638627  1
  O2-  O240  1  0.45720844  0.41402145  0.26949577  1
  O2-  O241  1  0.45411998  0.41777640  0.60387027  1
  O2-  O242  1  0.44920762  0.41720197  0.93769327  1
  O2-  O243  1  0.46354229  0.91892584  0.26631864  1
  O2-  O244  1  0.45521394  0.91068145  0.60161066  1
  O2-  O245  1  0.45540909  0.91415243  0.93182619  1
  O2-  O246  1  0.95300521  0.41178871  0.27012252  1
  O2-  O247  1  0.95343351  0.42256514  0.59794419  1
  O2-  O248  1  0.94776917  0.42083912  0.93593046  1
  O2-  O249  1  0.95313429  0.92410419  0.26379112  1
  O2-  O250  1  0.96015212  0.91638132  0.59931038  1
  O2-  O251  1  0.95186152  0.91719018  0.93885573  1
  O2-  O252  1  0.33539728  0.29745856  0.27004859  1
  O2-  O253  1  0.33588525  0.29866541  0.60077431  1
  O2-  O254  1  0.33314827  0.29628973  0.94025028  1
  O2-  O255  1  0.33774327  0.78887393  0.26214261  1
  O2-  O256  1  0.33810819  0.78836514  0.60380746  1
  O2-  O257  1  0.33555562  0.79601888  0.93326245  1
  O2-  O258  1  0.83659615  0.28861950  0.27162084  1
  O2-  O259  1  0.83250212  0.28874992  0.59512715  1
  O2-  O260  1  0.82998333  0.28745219  0.93522235  1
  O2-  O261  1  0.82895074  0.79377523  0.26337311  1
  O2-  O262  1  0.83296216  0.79011114  0.59957453  1
  O2-  O263  1  0.83418335  0.79543987  0.93511814  1
  O2-  O264  1  0.41683895  0.03586721  0.06771084  1
  O2-  O265  1  0.42139055  0.04349392  0.40279652  1
  O2-  O266  1  0.41602150  0.03813228  0.73008832  1
  O2-  O267  1  0.41345304  0.54548777  0.06591547  1
  O2-  O268  1  0.40907166  0.53842795  0.40004877  1
  O2-  O269  1  0.41530140  0.54528576  0.73172595  1
  O2-  O270  1  0.91696857  0.04132376  0.07084244  1
  O2-  O271  1  0.91929394  0.05369001  0.39383550  1
  O2-  O272  1  0.91487195  0.03747286  0.73431163  1
  O2-  O273  1  0.91454422  0.55263077  0.06270634  1
  O2-  O274  1  0.91449009  0.54050518  0.39929844  1
  O2-  O275  1  0.91750548  0.55514662  0.72671514  1
  O2-  O276  1  0.29571883  0.16684848  0.06987293  1
  O2-  O277  1  0.29884385  0.17322512  0.40308258  1
  O2-  O278  1  0.30785621  0.16814160  0.72575769  1
  O2-  O279  1  0.29909330  0.66906885  0.06072739  1
  O2-  O280  1  0.29663983  0.66310839  0.39384996  1
  O2-  O281  1  0.30048379  0.66590082  0.73331483  1
  O2-  O282  1  0.78617483  0.16415837  0.07208829  1
  O2-  O283  1  0.79045993  0.16256919  0.40000123  1
  O2-  O284  1  0.78635529  0.16429412  0.73202953  1
  O2-  O285  1  0.79098689  0.66824032  0.06583278  1
  O2-  O286  1  0.80159751  0.66582244  0.39593674  1
  O2-  O287  1  0.79057823  0.66579204  0.73176653  1
