# generated using pymatgen
data_Ca2Al2SiO7
_symmetry_space_group_name_H-M   'P 1'
_cell_length_a   15.47253103
_cell_length_b   15.47056638
_cell_length_c   15.29332659
_cell_angle_alpha   90.00644592
_cell_angle_beta   90.00285661
_cell_angle_gamma   89.98473138
_symmetry_Int_Tables_number   1
_chemical_formula_structural   Ca2Al2SiO7
_chemical_formula_sum   'Ca48 Al48 Si24 O168'
_cell_volume   3660.74535752
_cell_formula_units_Z   24
loop_
 _symmetry_equiv_pos_site_id
 _symmetry_equiv_pos_as_xyz
  1  'x, y, z'
loop_
 _atom_type_symbol
 _atom_type_oxidation_number
  Ca2+  2.0
  Al0+  0.0
  Si0+  0.0
  O2-  -2.0
loop_
 _atom_site_type_symbol
 _atom_site_label
 _atom_site_symmetry_multiplicity
 _atom_site_fract_x
 _atom_site_fract_y
 _atom_site_fract_z
 _atom_site_occupancy
  Ca2+  Ca0  1  0.15477105  0.07808813  0.16479308  1
  Ca2+  Ca1  1  0.15939422  0.07607092  0.51072877  1
  Ca2+  Ca2  1  0.15047389  0.07447562  0.83729170  1
  Ca2+  Ca3  1  0.15616428  0.57168641  0.16744668  1
  Ca2+  Ca4  1  0.15882213  0.57396767  0.50368325  1
  Ca2+  Ca5  1  0.15880001  0.57125325  0.83645043  1
  Ca2+  Ca6  1  0.68156597  0.08845127  0.17086256  1
  Ca2+  Ca7  1  0.67829870  0.09059167  0.50742381  1
  Ca2+  Ca8  1  0.67837127  0.09581139  0.83391478  1
  Ca2+  Ca9  1  0.67508938  0.57701779  0.16367221  1
  Ca2+  Ca10  1  0.66989410  0.58283805  0.50726254  1
  Ca2+  Ca11  1  0.67435241  0.57879738  0.84288280  1
  Ca2+  Ca12  1  0.07593001  0.33177651  0.15638085  1
  Ca2+  Ca13  1  0.07471264  0.33652247  0.49616345  1
  Ca2+  Ca14  1  0.07374183  0.33042780  0.82600942  1
  Ca2+  Ca15  1  0.08252128  0.82348417  0.16120313  1
  Ca2+  Ca16  1  0.08557660  0.82310902  0.49545975  1
  Ca2+  Ca17  1  0.09148616  0.82352012  0.82938130  1
  Ca2+  Ca18  1  0.57087718  0.34346703  0.16063990  1
  Ca2+  Ca19  1  0.57177528  0.32891198  0.49972223  1
  Ca2+  Ca20  1  0.57305458  0.33808583  0.82763234  1
  Ca2+  Ca21  1  0.58159861  0.83415975  0.16325298  1
  Ca2+  Ca22  1  0.58642953  0.82756566  0.50081880  1
  Ca2+  Ca23  1  0.58411270  0.82594557  0.82760506  1
  Ca2+  Ca24  1  0.32011879  0.40632717  0.16831873  1
  Ca2+  Ca25  1  0.32183330  0.40935460  0.50335229  1
  Ca2+  Ca26  1  0.32272380  0.40703827  0.83557047  1
  Ca2+  Ca27  1  0.32603757  0.91932187  0.16748694  1
  Ca2+  Ca28  1  0.32616067  0.92131618  0.50988473  1
  Ca2+  Ca29  1  0.32149337  0.92012279  0.83788514  1
  Ca2+  Ca30  1  0.84021473  0.41760861  0.16730986  1
  Ca2+  Ca31  1  0.83708475  0.41231385  0.50455581  1
  Ca2+  Ca32  1  0.82956857  0.41455828  0.84357043  1
  Ca2+  Ca33  1  0.84360106  0.92955518  0.17217822  1
  Ca2+  Ca34  1  0.84312819  0.92891861  0.50380277  1
  Ca2+  Ca35  1  0.83765932  0.93276875  0.83806576  1
  Ca2+  Ca36  1  0.41807087  0.17836276  0.16055582  1
  Ca2+  Ca37  1  0.41380675  0.17848454  0.49877918  1
  Ca2+  Ca38  1  0.42395646  0.17795292  0.82684995  1
  Ca2+  Ca39  1  0.41705062  0.66637186  0.16202711  1
  Ca2+  Ca40  1  0.42337784  0.66279279  0.50069849  1
  Ca2+  Ca41  1  0.42348663  0.66546141  0.82686094  1
  Ca2+  Ca42  1  0.91602844  0.17446554  0.16032427  1
  Ca2+  Ca43  1  0.91653389  0.17288246  0.50055647  1
  Ca2+  Ca44  1  0.91974967  0.17307911  0.83033237  1
  Ca2+  Ca45  1  0.92667734  0.66756833  0.16110026  1
  Ca2+  Ca46  1  0.93061928  0.67319098  0.49309887  1
  Ca2+  Ca47  1  0.92716112  0.66127707  0.83116728  1
  Al0+  Al48  1  -0.00170094  -0.00168607  0.00764052  1
  Al0+  Al49  1  0.00024683  -0.00120101  0.33767166  1
  Al0+  Al50  1  -0.00173838  0.00089065  0.67428197  1
  Al0+  Al51  1  -0.00023762  0.50134482  -0.00025917  1
  Al0+  Al52  1  -0.00049758  0.49968290  0.33147627  1
  Al0+  Al53  1  0.00013399  0.50211412  0.66243902  1
  Al0+  Al54  1  0.49860659  0.00001180  -0.00069292  1
  Al0+  Al55  1  0.50130201  -0.00105845  0.33474208  1
  Al0+  Al56  1  0.50162452  -0.00122145  0.66485497  1
  Al0+  Al57  1  0.49986091  0.50199794  -0.00103033  1
  Al0+  Al58  1  0.50006131  0.49985897  0.32978372  1
  Al0+  Al59  1  0.49981159  0.50119845  0.65762840  1
  Al0+  Al60  1  0.25140452  0.24694607  -0.00431102  1
  Al0+  Al61  1  0.25058801  0.24887576  0.33344619  1
  Al0+  Al62  1  0.24923347  0.24764765  0.66467651  1
  Al0+  Al63  1  0.24988833  0.75126283  0.00041312  1
  Al0+  Al64  1  0.25355766  0.74819587  0.33028905  1
  Al0+  Al65  1  0.25138976  0.74949494  0.66616595  1
  Al0+  Al66  1  0.74673917  0.25002294  0.00755748  1
  Al0+  Al67  1  0.75030495  0.24977891  0.33546776  1
  Al0+  Al68  1  0.74842919  0.25235294  0.66477391  1
  Al0+  Al69  1  0.74981680  0.75037461  0.00470547  1
  Al0+  Al70  1  0.74986662  0.75092448  0.32976656  1
  Al0+  Al71  1  0.75032702  0.75134235  0.66286620  1
  Al0+  Al72  1  0.06936325  0.17643775  0.65265292  1
  Al0+  Al73  1  0.92878727  0.31932042  0.31878123  1
  Al0+  Al74  1  0.57257541  0.67977920  0.65379648  1
  Al0+  Al75  1  0.42669446  0.32126512  0.65000656  1
  Al0+  Al76  1  0.07250235  0.67992192  0.65276083  1
  Al0+  Al77  1  0.81875170  0.07273834  0.68237672  1
  Al0+  Al78  1  0.07297731  0.67874644  0.31626920  1
  Al0+  Al79  1  0.42865843  0.32010764  0.31703412  1
  Al0+  Al80  1  0.82251618  0.57142646  0.01560360  1
  Al0+  Al81  1  0.17811093  0.42842299  0.67973368  1
  Al0+  Al82  1  0.17987283  0.92904453  0.68070359  1
  Al0+  Al83  1  0.67671422  0.42899743  0.01474867  1
  Al0+  Al84  1  0.42913942  0.32252119  0.98513919  1
  Al0+  Al85  1  0.57195047  0.17833361  0.65212906  1
  Al0+  Al86  1  0.07119688  0.68009117  0.98412961  1
  Al0+  Al87  1  0.17962515  0.92888895  0.01583891  1
  Al0+  Al88  1  0.18016748  0.42702236  0.01103904  1
  Al0+  Al89  1  0.82097926  0.07089970  0.35064851  1
  Al0+  Al90  1  0.92744275  0.32139900  0.98605017  1
  Al0+  Al91  1  0.81937212  0.07097817  0.01579604  1
  Al0+  Al92  1  0.06987445  0.17640427  0.98601703  1
  Al0+  Al93  1  0.17876532  0.42944650  0.34659273  1
  Al0+  Al94  1  0.92922954  0.32233412  0.65217057  1
  Al0+  Al95  1  0.92976803  0.82246654  0.31835549  1
  Si0+  Si96  1  0.67734309  0.43071429  0.35036711  1
  Si0+  Si97  1  0.43074548  0.82187141  0.31782785  1
  Si0+  Si98  1  0.57202260  0.67843284  0.31567181  1
  Si0+  Si99  1  0.57072912  0.17607725  0.98508318  1
  Si0+  Si100  1  0.42865199  0.82227677  0.98454321  1
  Si0+  Si101  1  0.67839889  0.43212832  0.67917451  1
  Si0+  Si102  1  0.32455121  0.57290020  0.35018299  1
  Si0+  Si103  1  0.92832859  0.82240271  0.65259729  1
  Si0+  Si104  1  0.32498169  0.07187027  0.68400572  1
  Si0+  Si105  1  0.32347540  0.57086144  0.68184184  1
  Si0+  Si106  1  0.32208426  0.57275145  0.01469717  1
  Si0+  Si107  1  0.92648920  0.82157308  0.98326329  1
  Si0+  Si108  1  0.57099878  0.68105774  0.98587153  1
  Si0+  Si109  1  0.18193489  0.92781933  0.34877010  1
  Si0+  Si110  1  0.57144705  0.17761920  0.31649167  1
  Si0+  Si111  1  0.82064803  0.57355908  0.67894728  1
  Si0+  Si112  1  0.67762923  0.92598639  0.68386383  1
  Si0+  Si113  1  0.67625807  0.92682088  0.35211154  1
  Si0+  Si114  1  0.42843380  0.82128766  0.65011096  1
  Si0+  Si115  1  0.81989189  0.57171940  0.34959252  1
  Si0+  Si116  1  0.67593044  0.92730121  0.01676272  1
  Si0+  Si117  1  0.32470914  0.07053284  0.01753777  1
  Si0+  Si118  1  0.07306682  0.17682326  0.31855869  1
  Si0+  Si119  1  0.32331689  0.06971319  0.34855947  1
  O2-  O120  1  0.25128416  0.00687982  0.06245759  1
  O2-  O121  1  0.25066316  0.00067405  0.39120761  1
  O2-  O122  1  0.25245549  0.00653316  0.72736904  1
  O2-  O123  1  0.25507501  0.50261842  0.05817467  1
  O2-  O124  1  0.25396294  0.50573752  0.39233480  1
  O2-  O125  1  0.25556487  0.50206409  0.72565995  1
  O2-  O126  1  0.74374062  -0.00445193  0.06148952  1
  O2-  O127  1  0.74607583  -0.00595165  0.39551777  1
  O2-  O128  1  0.74205883  -0.00205139  0.72787615  1
  O2-  O129  1  0.75474445  0.49449351  0.06551076  1
  O2-  O130  1  0.75011472  0.49986607  0.39331411  1
  O2-  O131  1  0.75091349  0.50143990  0.72089678  1
  O2-  O132  1  0.00514960  0.24574977  0.27444514  1
  O2-  O133  1  0.00280319  0.25219755  0.60119209  1
  O2-  O134  1  0.00123268  0.25148812  0.93610271  1
  O2-  O135  1  0.00077606  0.75085902  0.26682864  1
  O2-  O136  1  -0.00067230  0.75666158  0.60776927  1
  O2-  O137  1  -0.00554212  0.75332979  0.93766325  1
  O2-  O138  1  0.50414958  0.24614603  0.27032478  1
  O2-  O139  1  0.49629283  0.24574282  0.60139997  1
  O2-  O140  1  0.50608275  0.24868591  0.94149605  1
  O2-  O141  1  0.50115624  0.75052155  0.27475289  1
  O2-  O142  1  0.49827770  0.75402505  0.60535974  1
  O2-  O143  1  0.50040744  0.75201591  0.94309786  1
  O2-  O144  1  0.06755052  0.17695872  0.10022159  1
  O2-  O145  1  0.07346015  0.17593449  0.42396820  1
  O2-  O146  1  0.06463091  0.17532235  0.76559867  1
  O2-  O147  1  0.07258358  0.68195625  0.09695896  1
  O2-  O148  1  0.07251107  0.68093572  0.43013256  1
  O2-  O149  1  0.07098646  0.67911312  0.76564249  1
  O2-  O150  1  0.56605576  0.17068328  0.09059876  1
  O2-  O151  1  0.56868652  0.17815598  0.42183232  1
  O2-  O152  1  0.57176739  0.18265681  0.76579374  1
  O2-  O153  1  0.56885648  0.68275935  0.09121358  1
  O2-  O154  1  0.57196010  0.67876969  0.42080390  1
  O2-  O155  1  0.57156952  0.68117148  0.76692979  1
  O2-  O156  1  0.18045842  0.42839016  0.23346511  1
  O2-  O157  1  0.17763506  0.43204128  0.56644099  1
  O2-  O158  1  0.18053141  0.42886460  0.89812219  1
  O2-  O159  1  0.18432468  0.92802088  0.24375532  1
  O2-  O160  1  0.18329258  0.92796221  0.56689411  1
  O2-  O161  1  0.18343016  0.92688898  0.90304164  1
  O2-  O162  1  0.67447131  0.43425630  0.24568424  1
  O2-  O163  1  0.67783728  0.43459643  0.57368061  1
  O2-  O164  1  0.67335334  0.43455371  0.90084999  1
  O2-  O165  1  0.67091686  0.92803913  0.24669493  1
  O2-  O166  1  0.67959512  0.92204671  0.57846003  1
  O2-  O167  1  0.67469538  0.92435784  0.91145537  1
  O2-  O168  1  0.42975241  0.32110686  0.09856138  1
  O2-  O169  1  0.42928476  0.31912247  0.42963591  1
  O2-  O170  1  0.43047015  0.32372621  0.76342779  1
  O2-  O171  1  0.42998946  0.82208877  0.09008785  1
  O2-  O172  1  0.43074833  0.82205445  0.42261371  1
  O2-  O173  1  0.42869149  0.81962777  0.75567565  1
  O2-  O174  1  0.92976373  0.31959925  0.09988808  1
  O2-  O175  1  0.92813736  0.31947514  0.43159607  1
  O2-  O176  1  0.92609783  0.32366143  0.76529069  1
  O2-  O177  1  0.92822186  0.82040412  0.08885810  1
  O2-  O178  1  0.93268632  0.82152511  0.43228541  1
  O2-  O179  1  0.92544247  0.81920565  0.75796612  1
  O2-  O180  1  0.32658248  0.06658185  0.24371614  1
  O2-  O181  1  0.32704459  0.06721372  0.57788135  1
  O2-  O182  1  0.33315158  0.06467899  0.91286635  1
  O2-  O183  1  0.32820005  0.57501544  0.24484975  1
  O2-  O184  1  0.32466495  0.57226592  0.57618559  1
  O2-  O185  1  0.32466471  0.57523772  0.90933061  1
  O2-  O186  1  0.81868566  0.06999531  0.23769443  1
  O2-  O187  1  0.81833131  0.07015097  0.56927211  1
  O2-  O188  1  0.81725281  0.06998971  0.90278380  1
  O2-  O189  1  0.81745147  0.57171948  0.24487827  1
  O2-  O190  1  0.81772907  0.57522300  0.57353105  1
  O2-  O191  1  0.81729875  0.57612347  0.90174756  1
  O2-  O192  1  0.04704266  0.08243681  0.27480266  1
  O2-  O193  1  0.03713720  0.07816318  0.60032652  1
  O2-  O194  1  0.03739658  0.07726406  0.93694511  1
  O2-  O195  1  0.04064541  0.58154887  0.26475827  1
  O2-  O196  1  0.03758591  0.58684850  0.59580014  1
  O2-  O197  1  0.04000584  0.58392763  0.93054708  1
  O2-  O198  1  0.54634333  0.08291082  0.27204818  1
  O2-  O199  1  0.55203057  0.07661539  0.60169586  1
  O2-  O200  1  0.54260248  0.08400321  0.93634278  1
  O2-  O201  1  0.54237480  0.58813076  0.26736261  1
  O2-  O202  1  0.54130974  0.58651240  0.59403401  1
  O2-  O203  1  0.54235867  0.59094332  0.93688560  1
  O2-  O204  1  0.16741590  0.19848898  0.27254820  1
  O2-  O205  1  0.17132017  0.19347195  0.60326627  1
  O2-  O206  1  0.17180803  0.19339698  0.93654010  1
  O2-  O207  1  0.17284009  0.70552650  0.26553161  1
  O2-  O208  1  0.16959916  0.70926857  0.59903881  1
  O2-  O209  1  0.16794856  0.71380908  0.93196138  1
  O2-  O210  1  0.66519298  0.20359981  0.27245583  1
  O2-  O211  1  0.66635412  0.21332669  0.59616622  1
  O2-  O212  1  0.66562919  0.19890991  0.94282207  1
  O2-  O213  1  0.66274441  0.70632022  0.26707073  1
  O2-  O214  1  0.66712022  0.71197218  0.59589030  1
  O2-  O215  1  0.66262216  0.70963578  0.93901840  1
  O2-  O216  1  0.08440410  0.45957005  0.06486456  1
  O2-  O217  1  0.08212771  0.46153291  0.40049888  1
  O2-  O218  1  0.08201573  0.46421546  0.73215034  1
  O2-  O219  1  0.08344579  0.95600277  0.07198351  1
  O2-  O220  1  0.09012776  0.95300451  0.39653902  1
  O2-  O221  1  0.08322597  0.95580894  0.73589003  1
  O2-  O222  1  0.58174237  0.46833512  0.06987747  1
  O2-  O223  1  0.58630097  0.46225048  0.39781379  1
  O2-  O224  1  0.58655693  0.46310700  0.72467308  1
  O2-  O225  1  0.58144373  0.95230286  0.06261120  1
  O2-  O226  1  0.58270344  0.95161210  0.39998346  1
  O2-  O227  1  0.58156560  0.94472998  0.72808012  1
  O2-  O228  1  0.21189864  0.32995314  0.06429377  1
  O2-  O229  1  0.21127875  0.33239396  0.39949903  1
  O2-  O230  1  0.20655093  0.33002318  0.73123365  1
  O2-  O231  1  0.21715483  0.83472343  0.07110975  1
  O2-  O232  1  0.21405650  0.83629850  0.39457050  1
  O2-  O233  1  0.21510451  0.83307854  0.73414989  1
  O2-  O234  1  0.69199039  0.32885522  0.06815660  1
  O2-  O235  1  0.70289685  0.33782420  0.39585804  1
  O2-  O236  1  0.70327821  0.34051101  0.72676333  1
  O2-  O237  1  0.69930519  0.83419504  0.06521625  1
  O2-  O238  1  0.69961028  0.83116038  0.39555875  1
  O2-  O239  1  0.70632153  0.83313853  0.73105009  1
  O2-  O240  1  0.46000163  0.41725432  0.26442865  1
  O2-  O241  1  0.45823471  0.41762767  0.59486415  1
  O2-  O242  1  0.45946534  0.41987724  0.93248227  1
  O2-  O243  1  0.45966317  0.91288369  0.26894752  1
  O2-  O244  1  0.45282150  0.91435080  0.60272242  1
  O2-  O245  1  0.45634957  0.91312631  0.93593657  1
  O2-  O246  1  0.95691712  0.41701707  0.26687681  1
  O2-  O247  1  0.95586848  0.42075026  0.59768325  1
  O2-  O248  1  0.95122262  0.42139811  0.93528778  1
  O2-  O249  1  0.96065238  0.92055228  0.26658701  1
  O2-  O250  1  0.95282302  0.91672886  0.60943557  1
  O2-  O251  1  0.95317407  0.91536540  0.93984866  1
  O2-  O252  1  0.33294006  0.28576491  0.26368480  1
  O2-  O253  1  0.32908116  0.29205215  0.59645845  1
  O2-  O254  1  0.33490892  0.28863693  0.92977888  1
  O2-  O255  1  0.34032631  0.79412173  0.26795742  1
  O2-  O256  1  0.33698106  0.79353961  0.60136146  1
  O2-  O257  1  0.33833878  0.79311202  0.93654774  1
  O2-  O258  1  0.83082742  0.28974533  0.26678651  1
  O2-  O259  1  0.83075774  0.29437979  0.59946637  1
  O2-  O260  1  0.82594231  0.29354197  0.93885965  1
  O2-  O261  1  0.82935850  0.79863002  0.26714202  1
  O2-  O262  1  0.83649738  0.79592186  0.60312091  1
  O2-  O263  1  0.83113741  0.79844690  0.93973183  1
  O2-  O264  1  0.41498109  0.03808719  0.06827254  1
  O2-  O265  1  0.41375969  0.03891314  0.39762000  1
  O2-  O266  1  0.41744555  0.04163510  0.73070364  1
  O2-  O267  1  0.41610599  0.55013575  0.06162971  1
  O2-  O268  1  0.41835402  0.54595965  0.39630827  1
  O2-  O269  1  0.41873171  0.54689663  0.72629401  1
  O2-  O270  1  0.91352242  0.03768645  0.07273361  1
  O2-  O271  1  0.91764803  0.03918612  0.40473550  1
  O2-  O272  1  0.91269345  0.03949752  0.73916745  1
  O2-  O273  1  0.92117064  0.54751408  0.06898827  1
  O2-  O274  1  0.91213921  0.54514356  0.39596252  1
  O2-  O275  1  0.91295471  0.54787395  0.72480615  1
  O2-  O276  1  0.30371507  0.16560709  0.06124101  1
  O2-  O277  1  0.29740835  0.16182723  0.39524768  1
  O2-  O278  1  0.30541887  0.16715054  0.72728302  1
  O2-  O279  1  0.29715281  0.66619005  0.06205536  1
  O2-  O280  1  0.30320704  0.66806053  0.39625617  1
  O2-  O281  1  0.30046099  0.66518370  0.72770949  1
  O2-  O282  1  0.78755068  0.16560972  0.07293770  1
  O2-  O283  1  0.78757863  0.16709243  0.40435615  1
  O2-  O284  1  0.78523876  0.16949715  0.73459644  1
  O2-  O285  1  0.78747711  0.66758199  0.07120451  1
  O2-  O286  1  0.78938324  0.66377289  0.39567562  1
  O2-  O287  1  0.79072813  0.66454486  0.72665542  1
