# generated using pymatgen
data_Ca2Al2SiO7
_symmetry_space_group_name_H-M   'P 1'
_cell_length_a   15.45850654
_cell_length_b   15.45882467
_cell_length_c   15.28435958
_cell_angle_alpha   89.99299514
_cell_angle_beta   90.00630091
_cell_angle_gamma   89.98879344
_symmetry_Int_Tables_number   1
_chemical_formula_structural   Ca2Al2SiO7
_chemical_formula_sum   'Ca48 Al48 Si24 O168'
_cell_volume   3652.50852137
_cell_formula_units_Z   24
loop_
 _symmetry_equiv_pos_site_id
 _symmetry_equiv_pos_as_xyz
  1  'x, y, z'
loop_
 _atom_type_symbol
 _atom_type_oxidation_number
  Ca2+  2.0
  Al0+  0.0
  Si0+  0.0
  O2-  -2.0
loop_
 _atom_site_type_symbol
 _atom_site_label
 _atom_site_symmetry_multiplicity
 _atom_site_fract_x
 _atom_site_fract_y
 _atom_site_fract_z
 _atom_site_occupancy
  Ca2+  Ca0  1  0.17372738  0.07694006  0.18126643  1
  Ca2+  Ca1  1  0.17067884  0.08698629  0.50315668  1
  Ca2+  Ca2  1  0.17420774  0.09031907  0.83441450  1
  Ca2+  Ca3  1  0.16212765  0.57310435  0.17409607  1
  Ca2+  Ca4  1  0.15860880  0.57938227  0.50032270  1
  Ca2+  Ca5  1  0.16633590  0.57768908  0.84017931  1
  Ca2+  Ca6  1  0.66644385  0.08457957  0.17603759  1
  Ca2+  Ca7  1  0.67262841  0.08913701  0.49750046  1
  Ca2+  Ca8  1  0.66568893  0.08260225  0.83909719  1
  Ca2+  Ca9  1  0.67488988  0.58451905  0.16812580  1
  Ca2+  Ca10  1  0.67414068  0.57988405  0.50756969  1
  Ca2+  Ca11  1  0.66392482  0.57780691  0.84205480  1
  Ca2+  Ca12  1  0.08312627  0.33604068  0.16925705  1
  Ca2+  Ca13  1  0.08095780  0.32390709  0.48939278  1
  Ca2+  Ca14  1  0.08404828  0.33137716  0.82836589  1
  Ca2+  Ca15  1  0.07393570  0.83614424  0.16655062  1
  Ca2+  Ca16  1  0.08367439  0.82300285  0.48933759  1
  Ca2+  Ca17  1  0.07648032  0.82561030  0.82827109  1
  Ca2+  Ca18  1  0.58125511  0.32220436  0.15757855  1
  Ca2+  Ca19  1  0.57690004  0.33371864  0.49558223  1
  Ca2+  Ca20  1  0.57516264  0.34206109  0.83013240  1
  Ca2+  Ca21  1  0.57696355  0.82888427  0.15709329  1
  Ca2+  Ca22  1  0.58447063  0.82839471  0.49869792  1
  Ca2+  Ca23  1  0.58003693  0.82079463  0.83464196  1
  Ca2+  Ca24  1  0.32405630  0.41005541  0.16700288  1
  Ca2+  Ca25  1  0.32702620  0.41050099  0.50191370  1
  Ca2+  Ca26  1  0.33049728  0.41065778  0.83968492  1
  Ca2+  Ca27  1  0.33072091  0.92013020  0.17805227  1
  Ca2+  Ca28  1  0.32813936  0.92951488  0.50158986  1
  Ca2+  Ca29  1  0.33653427  0.92122952  0.83688864  1
  Ca2+  Ca30  1  0.83360972  0.42789472  0.17321169  1
  Ca2+  Ca31  1  0.83148617  0.41765973  0.50055678  1
  Ca2+  Ca32  1  0.81846136  0.42396187  0.84372370  1
  Ca2+  Ca33  1  0.83650175  0.91912094  0.17386956  1
  Ca2+  Ca34  1  0.84236559  0.92148771  0.49484435  1
  Ca2+  Ca35  1  0.83479981  0.91657055  0.83929655  1
  Ca2+  Ca36  1  0.42594765  0.16494166  0.16158636  1
  Ca2+  Ca37  1  0.41727428  0.16586194  0.49646373  1
  Ca2+  Ca38  1  0.42024283  0.17753060  0.83042319  1
  Ca2+  Ca39  1  0.42161701  0.67409295  0.15739136  1
  Ca2+  Ca40  1  0.42563383  0.66275165  0.49777669  1
  Ca2+  Ca41  1  0.42799609  0.66274373  0.83118050  1
  Ca2+  Ca42  1  0.91808439  0.17058876  0.17011987  1
  Ca2+  Ca43  1  0.92539147  0.17079904  0.48743019  1
  Ca2+  Ca44  1  0.92540951  0.17011457  0.82681936  1
  Ca2+  Ca45  1  0.91426578  0.67090366  0.16599051  1
  Ca2+  Ca46  1  0.92574528  0.66854716  0.48875803  1
  Ca2+  Ca47  1  0.91587659  0.66746348  0.83314007  1
  Al0+  Al48  1  0.00123557  -0.00083906  -0.00555116  1
  Al0+  Al49  1  0.00005879  -0.00140680  0.33468323  1
  Al0+  Al50  1  0.00117668  -0.00023134  0.66527502  1
  Al0+  Al51  1  -0.00057284  0.49914923  0.00647274  1
  Al0+  Al52  1  -0.00035249  0.49970343  0.33594189  1
  Al0+  Al53  1  -0.00166261  0.50124418  0.66558794  1
  Al0+  Al54  1  0.50125365  0.00065805  -0.00738775  1
  Al0+  Al55  1  0.50035031  -0.00095370  0.33605846  1
  Al0+  Al56  1  0.50016286  0.00094434  0.67243437  1
  Al0+  Al57  1  0.49798830  0.49853330  0.00010459  1
  Al0+  Al58  1  0.49961572  0.49901967  0.33036506  1
  Al0+  Al59  1  0.49866090  0.50009958  0.65993705  1
  Al0+  Al60  1  0.25167889  0.24765265  0.00287994  1
  Al0+  Al61  1  0.25061188  0.25115096  0.33748361  1
  Al0+  Al62  1  0.25113197  0.24937591  0.66427119  1
  Al0+  Al63  1  0.24714186  0.75117453  -0.00354622  1
  Al0+  Al64  1  0.25192430  0.74831176  0.33442195  1
  Al0+  Al65  1  0.24950291  0.75107311  0.66429037  1
  Al0+  Al66  1  0.75285735  0.24939704  -0.00132959  1
  Al0+  Al67  1  0.74878888  0.24947579  0.33030747  1
  Al0+  Al68  1  0.74857211  0.25034472  0.67373365  1
  Al0+  Al69  1  0.75040933  0.75251849  -0.00401168  1
  Al0+  Al70  1  0.75098266  0.74860963  0.33594868  1
  Al0+  Al71  1  0.74939912  0.75210685  0.66321386  1
  Al0+  Al72  1  0.17985866  0.43050777  0.34901944  1
  Al0+  Al73  1  0.92893341  0.82025121  0.31815670  1
  Al0+  Al74  1  0.32038968  0.07172416  0.68420323  1
  Al0+  Al75  1  0.32273829  0.07122017  0.34844398  1
  Al0+  Al76  1  0.42819639  0.31870701  0.98598776  1
  Al0+  Al77  1  0.56911031  0.17899701  0.32207615  1
  Al0+  Al78  1  0.67538655  0.42710267  0.01711140  1
  Al0+  Al79  1  0.81972155  0.57107349  0.34934433  1
  Al0+  Al80  1  0.42498739  0.82245654  0.98515937  1
  Al0+  Al81  1  0.43016893  0.32040093  0.65098133  1
  Al0+  Al82  1  0.57014045  0.67888280  0.98699189  1
  Al0+  Al83  1  0.07103722  0.67855154  0.65341363  1
  Al0+  Al84  1  0.17811142  0.92705520  0.34845791  1
  Al0+  Al85  1  0.57005090  0.67954252  0.65134351  1
  Al0+  Al86  1  0.92817359  0.32123464  0.31815545  1
  Al0+  Al87  1  0.81924811  0.57291883  0.01575656  1
  Al0+  Al88  1  0.93024407  0.82174264  0.98516981  1
  Al0+  Al89  1  0.57512642  0.17917235  0.98316903  1
  Al0+  Al90  1  0.07328066  0.17840612  0.31767848  1
  Al0+  Al91  1  0.18001487  0.42762626  0.01313456  1
  Al0+  Al92  1  0.82019753  0.07161552  0.34527818  1
  Al0+  Al93  1  0.07033130  0.18071973  0.65336069  1
  Al0+  Al94  1  0.67758784  0.43047130  0.67981975  1
  Al0+  Al95  1  0.07342828  0.67755916  0.31635133  1
  Si0+  Si96  1  0.67685796  0.42778711  0.34958317  1
  Si0+  Si97  1  0.42747012  0.32330210  0.31537023  1
  Si0+  Si98  1  0.17794394  0.92715037  0.68594826  1
  Si0+  Si99  1  0.92762468  0.82260100  0.64851943  1
  Si0+  Si100  1  0.07031550  0.17923695  0.98584553  1
  Si0+  Si101  1  0.82235634  0.07022406  0.68241907  1
  Si0+  Si102  1  0.32494368  0.57217985  0.35031096  1
  Si0+  Si103  1  0.43126492  0.81997614  0.32137512  1
  Si0+  Si104  1  0.57209102  0.67764386  0.31863084  1
  Si0+  Si105  1  0.82485214  0.07070091  0.01362452  1
  Si0+  Si106  1  0.92544293  0.32140977  0.65256668  1
  Si0+  Si107  1  0.42847993  0.82424885  0.64886155  1
  Si0+  Si108  1  0.32095957  0.57470213  0.01502880  1
  Si0+  Si109  1  0.32112438  0.06785632  0.01479833  1
  Si0+  Si110  1  0.57337923  0.17634324  0.64992657  1
  Si0+  Si111  1  0.93015311  0.32333357  0.98439494  1
  Si0+  Si112  1  0.07040977  0.67534892  0.98395870  1
  Si0+  Si113  1  0.17723553  0.92858453  0.01323749  1
  Si0+  Si114  1  0.82158756  0.57353003  0.68353652  1
  Si0+  Si115  1  0.32056122  0.57248185  0.68040485  1
  Si0+  Si116  1  0.67749131  0.92690894  0.35031551  1
  Si0+  Si117  1  0.67905036  0.92825344  0.68384361  1
  Si0+  Si118  1  0.67982364  0.93199847  0.01352995  1
  Si0+  Si119  1  0.17895865  0.43008767  0.68047215  1
  O2-  O120  1  0.25439371  -0.00757449  0.05550486  1
  O2-  O121  1  0.24559152  0.00391377  0.39811522  1
  O2-  O122  1  0.24548032  -0.00344425  0.73154170  1
  O2-  O123  1  0.25302281  0.50506820  0.05859252  1
  O2-  O124  1  0.25477149  0.50561972  0.39546164  1
  O2-  O125  1  0.24707497  0.50383116  0.72286694  1
  O2-  O126  1  0.74831602  0.00536128  0.05526079  1
  O2-  O127  1  0.74687971  -0.00433764  0.39352389  1
  O2-  O128  1  0.75105981  -0.00055232  0.72497000  1
  O2-  O129  1  0.74689835  0.50062595  0.06570872  1
  O2-  O130  1  0.74471555  0.49629786  0.39543065  1
  O2-  O131  1  0.75215192  0.50558444  0.72700368  1
  O2-  O132  1  0.00142998  0.25021413  0.26697301  1
  O2-  O133  1  -0.00615164  0.25337974  0.60781755  1
  O2-  O134  1  0.00157642  0.25216551  0.94256365  1
  O2-  O135  1  0.00204062  0.75028503  0.26669072  1
  O2-  O136  1  -0.00412375  0.75274874  0.60723124  1
  O2-  O137  1  0.00174343  0.74389963  0.93921465  1
  O2-  O138  1  0.49446190  0.25216829  0.27366366  1
  O2-  O139  1  0.50610256  0.24593277  0.60596755  1
  O2-  O140  1  0.50648860  0.25470229  0.93378452  1
  O2-  O141  1  0.50073369  0.74846275  0.27777458  1
  O2-  O142  1  0.49583060  0.75470080  0.60358036  1
  O2-  O143  1  0.49353926  0.74650218  0.93630179  1
  O2-  O144  1  0.06881520  0.17606140  0.09014439  1
  O2-  O145  1  0.07124784  0.18093413  0.43152441  1
  O2-  O146  1  0.06942135  0.18339587  0.76753193  1
  O2-  O147  1  0.07239124  0.67628898  0.08874525  1
  O2-  O148  1  0.07107377  0.67909834  0.43036364  1
  O2-  O149  1  0.07013450  0.67821873  0.76694335  1
  O2-  O150  1  0.57099574  0.17426468  0.09670244  1
  O2-  O151  1  0.56941328  0.18056595  0.43540387  1
  O2-  O152  1  0.57316640  0.17583973  0.75523106  1
  O2-  O153  1  0.57023046  0.68432481  0.10089411  1
  O2-  O154  1  0.57070006  0.67781102  0.42398727  1
  O2-  O155  1  0.56909213  0.68008665  0.76402775  1
  O2-  O156  1  0.18303061  0.43028169  0.23579037  1
  O2-  O157  1  0.17942674  0.43046533  0.57582852  1
  O2-  O158  1  0.17960977  0.42827179  0.89909106  1
  O2-  O159  1  0.18313288  0.92693242  0.23403342  1
  O2-  O160  1  0.17889142  0.92697749  0.58091246  1
  O2-  O161  1  0.17469844  0.93218324  0.90810720  1
  O2-  O162  1  0.67560776  0.43031314  0.24446813  1
  O2-  O163  1  0.67988531  0.43055057  0.56663611  1
  O2-  O164  1  0.67802253  0.42975870  0.90289361  1
  O2-  O165  1  0.67402614  0.92673783  0.24470858  1
  O2-  O166  1  0.67756646  0.92734309  0.57891167  1
  O2-  O167  1  0.68189391  0.93181159  0.90807089  1
  O2-  O168  1  0.42341939  0.31116661  0.09899928  1
  O2-  O169  1  0.43056778  0.32672828  0.42112006  1
  O2-  O170  1  0.42878574  0.32103943  0.76382270  1
  O2-  O171  1  0.42808200  0.82356132  0.09933900  1
  O2-  O172  1  0.43412000  0.81977153  0.42652263  1
  O2-  O173  1  0.43003671  0.82264227  0.75431550  1
  O2-  O174  1  0.92982605  0.32278554  0.08890666  1
  O2-  O175  1  0.92783267  0.31864323  0.43243070  1
  O2-  O176  1  0.92768548  0.32021328  0.75867395  1
  O2-  O177  1  0.93247302  0.82770608  0.09704387  1
  O2-  O178  1  0.92770218  0.81722885  0.43195235  1
  O2-  O179  1  0.92760576  0.82334229  0.75454325  1
  O2-  O180  1  0.32627429  0.06549528  0.23438423  1
  O2-  O181  1  0.32057344  0.07000798  0.57164641  1
  O2-  O182  1  0.31755401  0.07028387  0.90959139  1
  O2-  O183  1  0.32869677  0.57208617  0.24493624  1
  O2-  O184  1  0.32118271  0.57186787  0.57543319  1
  O2-  O185  1  0.31854996  0.57586953  0.90899539  1
  O2-  O186  1  0.81690102  0.07060213  0.23197840  1
  O2-  O187  1  0.82207018  0.07073514  0.57766157  1
  O2-  O188  1  0.82739426  0.06731122  0.90796927  1
  O2-  O189  1  0.81573825  0.57405572  0.23663250  1
  O2-  O190  1  0.82171639  0.57242471  0.57811477  1
  O2-  O191  1  0.82066203  0.57048162  0.90148594  1
  O2-  O192  1  0.04600584  0.07904832  0.26749810  1
  O2-  O193  1  0.04235129  0.08257598  0.60193900  1
  O2-  O194  1  0.04011738  0.08996558  0.93419946  1
  O2-  O195  1  0.04302616  0.57929946  0.26641835  1
  O2-  O196  1  0.04091641  0.58162750  0.59933770  1
  O2-  O197  1  0.04433459  0.58151002  0.93797197  1
  O2-  O198  1  0.54072592  0.08071548  0.26883778  1
  O2-  O199  1  0.54728356  0.08213647  0.60557842  1
  O2-  O200  1  0.54363686  0.08259379  0.92803196  1
  O2-  O201  1  0.54442813  0.58633432  0.27079484  1
  O2-  O202  1  0.53722842  0.58566806  0.59420411  1
  O2-  O203  1  0.54399745  0.57978258  0.93476736  1
  O2-  O204  1  0.17289309  0.20655556  0.26713743  1
  O2-  O205  1  0.16566853  0.21222358  0.59972892  1
  O2-  O206  1  0.16270617  0.20668402  0.93952737  1
  O2-  O207  1  0.17472543  0.70092996  0.26673600  1
  O2-  O208  1  0.16811179  0.70760257  0.59953090  1
  O2-  O209  1  0.16329940  0.70113032  0.93582395  1
  O2-  O210  1  0.66443683  0.20805274  0.26591952  1
  O2-  O211  1  0.66896151  0.20069824  0.60717575  1
  O2-  O212  1  0.67670446  0.19894026  0.93220987  1
  O2-  O213  1  0.66304048  0.70701163  0.27249103  1
  O2-  O214  1  0.66644591  0.71194867  0.59729343  1
  O2-  O215  1  0.66542296  0.71321622  0.93148282  1
  O2-  O216  1  0.08393785  0.45604135  0.06826478  1
  O2-  O217  1  0.08365923  0.45967220  0.40415098  1
  O2-  O218  1  0.08549051  0.45511788  0.72744434  1
  O2-  O219  1  0.08805066  0.96367913  0.06110248  1
  O2-  O220  1  0.07826052  0.94822734  0.40050879  1
  O2-  O221  1  0.08291965  0.95177701  0.73077954  1
  O2-  O222  1  0.57493152  0.45007695  0.06816262  1
  O2-  O223  1  0.58260342  0.45432849  0.39499320  1
  O2-  O224  1  0.58007597  0.46346574  0.73071333  1
  O2-  O225  1  0.58666067  0.95775779  0.05992434  1
  O2-  O226  1  0.58576353  0.95358837  0.39977896  1
  O2-  O227  1  0.58829005  0.95597524  0.73317679  1
  O2-  O228  1  0.21257085  0.33178321  0.06799759  1
  O2-  O229  1  0.21109539  0.33486656  0.40486013  1
  O2-  O230  1  0.20961617  0.33924972  0.72777993  1
  O2-  O231  1  0.19604786  0.83387210  0.05848643  1
  O2-  O232  1  0.21206151  0.83000752  0.40204982  1
  O2-  O233  1  0.20487873  0.83348143  0.73250504  1
  O2-  O234  1  0.70611206  0.32707055  0.06564605  1
  O2-  O235  1  0.70229861  0.33424885  0.39520308  1
  O2-  O236  1  0.70548249  0.33375263  0.73629620  1
  O2-  O237  1  0.70855826  0.84104570  0.06114921  1
  O2-  O238  1  0.70354000  0.83419982  0.39811662  1
  O2-  O239  1  0.70818984  0.83663054  0.73172425  1
  O2-  O240  1  0.45369835  0.41602018  0.26724001  1
  O2-  O241  1  0.45854314  0.41604299  0.59428177  1
  O2-  O242  1  0.44606752  0.42055252  0.93567399  1
  O2-  O243  1  0.46056571  0.91050928  0.27279537  1
  O2-  O244  1  0.45816492  0.91748597  0.60450913  1
  O2-  O245  1  0.45881973  0.91741167  0.92916470  1
  O2-  O246  1  0.95718619  0.41936048  0.26663584  1
  O2-  O247  1  0.94907531  0.41581352  0.60806136  1
  O2-  O248  1  0.95890720  0.41454788  0.93638006  1
  O2-  O249  1  0.95407169  0.91962780  0.26609106  1
  O2-  O250  1  0.95389890  0.91630146  0.60355517  1
  O2-  O251  1  0.96505383  0.91582774  0.92647847  1
  O2-  O252  1  0.33288398  0.29980396  0.27264844  1
  O2-  O253  1  0.33449417  0.28789965  0.59703867  1
  O2-  O254  1  0.33169095  0.28318095  0.93091623  1
  O2-  O255  1  0.33994459  0.79358485  0.27320446  1
  O2-  O256  1  0.33413205  0.80084240  0.60429637  1
  O2-  O257  1  0.32486713  0.80101500  0.93200530  1
  O2-  O258  1  0.83084948  0.29168120  0.26420643  1
  O2-  O259  1  0.83146043  0.29514873  0.60837914  1
  O2-  O260  1  0.83955279  0.29456009  0.93506228  1
  O2-  O261  1  0.82910402  0.79195334  0.26679291  1
  O2-  O262  1  0.83328724  0.80110266  0.60302691  1
  O2-  O263  1  0.83357877  0.79486669  0.92950494  1
  O2-  O264  1  0.41526609  0.04255908  0.05847482  1
  O2-  O265  1  0.41843041  0.03634686  0.40437310  1
  O2-  O266  1  0.41741824  0.04148732  0.73845764  1
  O2-  O267  1  0.41476062  0.55211656  0.06125884  1
  O2-  O268  1  0.41813298  0.54358149  0.39765362  1
  O2-  O269  1  0.41148115  0.54133753  0.72707871  1
  O2-  O270  1  0.91470619  0.03671982  0.06066679  1
  O2-  O271  1  0.91584173  0.04129570  0.40136388  1
  O2-  O272  1  0.91412202  0.04150824  0.73085783  1
  O2-  O273  1  0.91714710  0.54370450  0.06890439  1
  O2-  O274  1  0.91569132  0.54010563  0.40350325  1
  O2-  O275  1  0.91518192  0.54769771  0.73032761  1
  O2-  O276  1  0.28942538  0.15691746  0.06403548  1
  O2-  O277  1  0.30066798  0.17106879  0.40007239  1
  O2-  O278  1  0.28632333  0.16815024  0.73765058  1
  O2-  O279  1  0.29528235  0.66896236  0.06091960  1
  O2-  O280  1  0.30407546  0.66619706  0.39741860  1
  O2-  O281  1  0.29619226  0.66553583  0.72758874  1
  O2-  O282  1  0.80516331  0.16489759  0.05843726  1
  O2-  O283  1  0.78685701  0.16690102  0.40130848  1
  O2-  O284  1  0.79629459  0.16164476  0.73225503  1
  O2-  O285  1  0.79150886  0.67310392  0.06580864  1
  O2-  O286  1  0.78763436  0.66655920  0.40557339  1
  O2-  O287  1  0.79712612  0.66901477  0.72652787  1
