# generated using pymatgen
data_Ca2Al2SiO7
_symmetry_space_group_name_H-M   'P 1'
_cell_length_a   15.47225070
_cell_length_b   15.47057642
_cell_length_c   15.29429453
_cell_angle_alpha   89.98903014
_cell_angle_beta   89.98327826
_cell_angle_gamma   90.02895515
_symmetry_Int_Tables_number   1
_chemical_formula_structural   Ca2Al2SiO7
_chemical_formula_sum   'Ca48 Al48 Si24 O168'
_cell_volume   3660.91256636
_cell_formula_units_Z   24
loop_
 _symmetry_equiv_pos_site_id
 _symmetry_equiv_pos_as_xyz
  1  'x, y, z'
loop_
 _atom_type_symbol
 _atom_type_oxidation_number
  Ca2+  2.0
  Al0+  0.0
  Si0+  0.0
  O2-  -2.0
loop_
 _atom_site_type_symbol
 _atom_site_label
 _atom_site_symmetry_multiplicity
 _atom_site_fract_x
 _atom_site_fract_y
 _atom_site_fract_z
 _atom_site_occupancy
  Ca2+  Ca0  1  0.17274565  0.08705176  0.17015076  1
  Ca2+  Ca1  1  0.17076115  0.08332435  0.50001374  1
  Ca2+  Ca2  1  0.16723421  0.07803110  0.84880593  1
  Ca2+  Ca3  1  0.15789207  0.57480978  0.17280550  1
  Ca2+  Ca4  1  0.16816987  0.58946690  0.49922896  1
  Ca2+  Ca5  1  0.16472042  0.58344533  0.83823616  1
  Ca2+  Ca6  1  0.68147419  0.08058041  0.17101123  1
  Ca2+  Ca7  1  0.67248823  0.07793233  0.49283398  1
  Ca2+  Ca8  1  0.67489377  0.08210016  0.83976875  1
  Ca2+  Ca9  1  0.68011815  0.57836845  0.16844229  1
  Ca2+  Ca10  1  0.68304514  0.58066635  0.50566276  1
  Ca2+  Ca11  1  0.68017727  0.57160976  0.83870449  1
  Ca2+  Ca12  1  0.07638217  0.33382706  0.15994622  1
  Ca2+  Ca13  1  0.07277340  0.33823543  0.49379795  1
  Ca2+  Ca14  1  0.07326656  0.33641416  0.83807495  1
  Ca2+  Ca15  1  0.08621802  0.82088439  0.16311518  1
  Ca2+  Ca16  1  0.07582460  0.81949066  0.49200656  1
  Ca2+  Ca17  1  0.08667390  0.82369367  0.83242112  1
  Ca2+  Ca18  1  0.58016322  0.33671582  0.15965072  1
  Ca2+  Ca19  1  0.58400323  0.33736124  0.49702336  1
  Ca2+  Ca20  1  0.58729959  0.33953465  0.82888833  1
  Ca2+  Ca21  1  0.57870307  0.84157411  0.16802828  1
  Ca2+  Ca22  1  0.57703465  0.83414199  0.48595803  1
  Ca2+  Ca23  1  0.58031301  0.83032364  0.83039935  1
  Ca2+  Ca24  1  0.31601320  0.42067757  0.17419736  1
  Ca2+  Ca25  1  0.32385793  0.42890349  0.50097300  1
  Ca2+  Ca26  1  0.32436762  0.42392814  0.83986345  1
  Ca2+  Ca27  1  0.32593163  0.92241027  0.16982665  1
  Ca2+  Ca28  1  0.33550796  0.91711705  0.49713172  1
  Ca2+  Ca29  1  0.32335766  0.92316700  0.84366331  1
  Ca2+  Ca30  1  0.84424225  0.42425016  0.16871172  1
  Ca2+  Ca31  1  0.83915393  0.42502397  0.50357192  1
  Ca2+  Ca32  1  0.83542473  0.42060469  0.83863068  1
  Ca2+  Ca33  1  0.83590602  0.92630017  0.17759801  1
  Ca2+  Ca34  1  0.83706154  0.91577418  0.49567600  1
  Ca2+  Ca35  1  0.83613515  0.92519573  0.84255895  1
  Ca2+  Ca36  1  0.41566927  0.16062198  0.16229868  1
  Ca2+  Ca37  1  0.41944994  0.16651473  0.49072933  1
  Ca2+  Ca38  1  0.41577488  0.16813675  0.83314839  1
  Ca2+  Ca39  1  0.41339931  0.66911630  0.16697013  1
  Ca2+  Ca40  1  0.41587452  0.66676708  0.49028465  1
  Ca2+  Ca41  1  0.41628831  0.66442264  0.82643511  1
  Ca2+  Ca42  1  0.91524841  0.17527328  0.15843524  1
  Ca2+  Ca43  1  0.91203689  0.17969999  0.49288824  1
  Ca2+  Ca44  1  0.91493824  0.17745884  0.83252577  1
  Ca2+  Ca45  1  0.92262179  0.66447368  0.16394059  1
  Ca2+  Ca46  1  0.92345130  0.66180186  0.49023037  1
  Ca2+  Ca47  1  0.92686369  0.65370704  0.83253721  1
  Al0+  Al48  1  0.00059221  -0.00218465  0.00670093  1
  Al0+  Al49  1  0.00202954  0.00142784  0.33826153  1
  Al0+  Al50  1  0.00141977  -0.00065448  0.66681557  1
  Al0+  Al51  1  0.00118269  0.50053330  -0.00147074  1
  Al0+  Al52  1  -0.00106470  0.49723696  0.33410731  1
  Al0+  Al53  1  0.00268439  0.49849707  0.66170656  1
  Al0+  Al54  1  0.49898709  0.00087672  -0.00157655  1
  Al0+  Al55  1  0.50024694  -0.00005115  0.33475680  1
  Al0+  Al56  1  0.50021773  0.00147016  0.66712636  1
  Al0+  Al57  1  0.50148572  0.50143295  0.00053417  1
  Al0+  Al58  1  0.49802729  0.49958170  0.33307214  1
  Al0+  Al59  1  0.49901035  0.50094921  0.67074372  1
  Al0+  Al60  1  0.25161824  0.25202614  0.00185333  1
  Al0+  Al61  1  0.25074408  0.25107474  0.34353725  1
  Al0+  Al62  1  0.25201780  0.25073852  0.66607252  1
  Al0+  Al63  1  0.25114711  0.75310907  -0.00206446  1
  Al0+  Al64  1  0.25160462  0.75084851  0.32731472  1
  Al0+  Al65  1  0.25015005  0.75217188  0.66624924  1
  Al0+  Al66  1  0.74625350  0.24863065  0.00121120  1
  Al0+  Al67  1  0.74844881  0.24836212  0.33187739  1
  Al0+  Al68  1  0.74828721  0.24700867  0.66304201  1
  Al0+  Al69  1  0.74733558  0.74858106  0.00082330  1
  Al0+  Al70  1  0.74879351  0.74885004  0.33705449  1
  Al0+  Al71  1  0.74961505  0.75041680  0.67166334  1
  Al0+  Al72  1  0.17999228  0.43119888  0.01234888  1
  Al0+  Al73  1  0.32074337  0.57279447  0.34648534  1
  Al0+  Al74  1  0.82519289  0.57119137  0.68226449  1
  Al0+  Al75  1  0.68075247  0.92904456  0.34658516  1
  Al0+  Al76  1  0.82170391  0.07028431  0.01190922  1
  Al0+  Al77  1  0.82012616  0.56929143  0.34635271  1
  Al0+  Al78  1  0.17740632  0.92691683  0.01650007  1
  Al0+  Al79  1  0.92638900  0.82250750  0.31921326  1
  Al0+  Al80  1  0.07051123  0.68039958  0.65298019  1
  Al0+  Al81  1  0.32046829  0.07178826  0.01428589  1
  Al0+  Al82  1  0.17700673  0.42953488  0.35055098  1
  Al0+  Al83  1  0.07325947  0.17743300  0.98796876  1
  Al0+  Al84  1  0.92923087  0.31818707  0.65197498  1
  Al0+  Al85  1  0.07072020  0.68049619  0.98550361  1
  Al0+  Al86  1  0.92743500  0.31950989  0.98460450  1
  Al0+  Al87  1  0.67770590  0.42766265  0.01563212  1
  Al0+  Al88  1  0.82451818  0.07275446  0.34969727  1
  Al0+  Al89  1  0.67987026  0.42772409  0.67948394  1
  Al0+  Al90  1  0.32044745  0.06976847  0.34845035  1
  Al0+  Al91  1  0.82229265  0.56970548  0.01619346  1
  Al0+  Al92  1  0.06955697  0.67915436  0.31697561  1
  Al0+  Al93  1  0.31860780  0.57273162  0.68053024  1
  Al0+  Al94  1  0.43012829  0.82192719  0.31740399  1
  Al0+  Al95  1  0.92814700  0.31838074  0.31902939  1
  Si0+  Si96  1  0.17899795  0.42593977  0.68537051  1
  Si0+  Si97  1  0.18049076  0.93132688  0.68129849  1
  Si0+  Si98  1  0.82024502  0.06859477  0.68080920  1
  Si0+  Si99  1  0.56871474  0.17928082  0.31640626  1
  Si0+  Si100  1  0.92671204  0.82528929  0.65206608  1
  Si0+  Si101  1  0.57191213  0.67590312  0.31570161  1
  Si0+  Si102  1  0.56882583  0.17849092  0.98340898  1
  Si0+  Si103  1  0.43136752  0.82169596  0.65159089  1
  Si0+  Si104  1  0.57126623  0.67754898  0.98194093  1
  Si0+  Si105  1  0.57085334  0.67890367  0.65184109  1
  Si0+  Si106  1  0.67563480  0.42684503  0.34844879  1
  Si0+  Si107  1  0.42822207  0.32115901  0.31838256  1
  Si0+  Si108  1  0.17834039  0.92639824  0.35246390  1
  Si0+  Si109  1  0.56931125  0.17747684  0.64903864  1
  Si0+  Si110  1  0.42960939  0.32357027  0.98433849  1
  Si0+  Si111  1  0.67716444  0.92754923  0.01432407  1
  Si0+  Si112  1  0.32316970  0.57416993  0.01525696  1
  Si0+  Si113  1  0.07375194  0.17501605  0.65052348  1
  Si0+  Si114  1  0.43142558  0.82163060  0.98231916  1
  Si0+  Si115  1  0.67574420  0.92918198  0.68229183  1
  Si0+  Si116  1  0.07535064  0.17872481  0.31998454  1
  Si0+  Si117  1  0.42896605  0.32244616  0.65055958  1
  Si0+  Si118  1  0.92462307  0.82171434  0.98508555  1
  Si0+  Si119  1  0.32262423  0.07212661  0.68234653  1
  O2-  O120  1  0.24407194  0.00529768  0.06417613  1
  O2-  O121  1  0.24607252  -0.00350495  0.39759090  1
  O2-  O122  1  0.24740553  0.00647870  0.72387485  1
  O2-  O123  1  0.25244295  0.50843215  0.05851534  1
  O2-  O124  1  0.24610884  0.50566026  0.39871888  1
  O2-  O125  1  0.24498367  0.49823176  0.72828061  1
  O2-  O126  1  0.75135631  -0.00982398  0.05637614  1
  O2-  O127  1  0.75716498  -0.00489429  0.39888092  1
  O2-  O128  1  0.75226948  -0.00569271  0.72356771  1
  O2-  O129  1  0.75399091  0.49359354  0.06578479  1
  O2-  O130  1  0.74474863  0.49435558  0.39220616  1
  O2-  O131  1  0.75437064  0.49624715  0.73005093  1
  O2-  O132  1  0.00197656  0.24129485  0.27569392  1
  O2-  O133  1  0.00626056  0.24421722  0.60659097  1
  O2-  O134  1  -0.00122109  0.24541520  0.93524409  1
  O2-  O135  1  -0.00204413  0.75193221  0.26713428  1
  O2-  O136  1  -0.01126458  0.74981557  0.61014078  1
  O2-  O137  1  -0.00657837  0.75388903  0.93915761  1
  O2-  O138  1  0.49937091  0.25160447  0.27419497  1
  O2-  O139  1  0.50025442  0.25119152  0.60805196  1
  O2-  O140  1  0.50067608  0.25237968  0.94109779  1
  O2-  O141  1  0.50403331  0.74592689  0.27103523  1
  O2-  O142  1  0.50229842  0.75178313  0.60839730  1
  O2-  O143  1  0.49973627  0.74868205  0.93910504  1
  O2-  O144  1  0.07486325  0.18147105  0.10115336  1
  O2-  O145  1  0.07686085  0.18167928  0.42611787  1
  O2-  O146  1  0.07289846  0.17066603  0.75565062  1
  O2-  O147  1  0.07248221  0.68028528  0.09763009  1
  O2-  O148  1  0.06976900  0.68142799  0.43098830  1
  O2-  O149  1  0.07351506  0.68402922  0.76613508  1
  O2-  O150  1  0.56623197  0.17470355  0.08806003  1
  O2-  O151  1  0.56736381  0.17957726  0.42207825  1
  O2-  O152  1  0.56722866  0.17258678  0.75403258  1
  O2-  O153  1  0.57059502  0.67721896  0.08648175  1
  O2-  O154  1  0.56940126  0.67592716  0.42173153  1
  O2-  O155  1  0.56805556  0.68180434  0.75711782  1
  O2-  O156  1  0.17990771  0.42711130  0.23704175  1
  O2-  O157  1  0.18234320  0.42213741  0.58036370  1
  O2-  O158  1  0.18278388  0.43188282  0.89880052  1
  O2-  O159  1  0.18034835  0.92714565  0.24741367  1
  O2-  O160  1  0.18305615  0.93172074  0.57655160  1
  O2-  O161  1  0.18351280  0.92543872  0.90178963  1
  O2-  O162  1  0.67236232  0.42803925  0.24332996  1
  O2-  O163  1  0.67738475  0.43065520  0.56609434  1
  O2-  O164  1  0.67444814  0.43138546  0.90225998  1
  O2-  O165  1  0.67710113  0.93537043  0.23325931  1
  O2-  O166  1  0.66943736  0.93151827  0.57819694  1
  O2-  O167  1  0.67460848  0.93009532  0.90783617  1
  O2-  O168  1  0.43141991  0.32426577  0.08919517  1
  O2-  O169  1  0.43121169  0.31998021  0.42385538  1
  O2-  O170  1  0.42757317  0.31976889  0.75571668  1
  O2-  O171  1  0.43388759  0.82376903  0.08678154  1
  O2-  O172  1  0.43280752  0.82316899  0.43127586  1
  O2-  O173  1  0.43353883  0.82341413  0.75688998  1
  O2-  O174  1  0.92885822  0.31899588  0.09769542  1
  O2-  O175  1  0.92788572  0.31790378  0.43264634  1
  O2-  O176  1  0.92764825  0.31589846  0.76480387  1
  O2-  O177  1  0.92205179  0.81982287  0.08992864  1
  O2-  O178  1  0.92926715  0.81884435  0.43356419  1
  O2-  O179  1  0.93059607  0.83460938  0.75710101  1
  O2-  O180  1  0.32032120  0.07029289  0.23605360  1
  O2-  O181  1  0.32577894  0.07038713  0.57751776  1
  O2-  O182  1  0.32433585  0.06810336  0.89990907  1
  O2-  O183  1  0.32492700  0.56759823  0.23326401  1
  O2-  O184  1  0.32017965  0.57289579  0.56818416  1
  O2-  O185  1  0.32419100  0.57192332  0.90903055  1
  O2-  O186  1  0.81908481  0.07512288  0.23653754  1
  O2-  O187  1  0.81822776  0.06831483  0.57631298  1
  O2-  O188  1  0.81683932  0.06963153  0.89771652  1
  O2-  O189  1  0.81955940  0.56882454  0.23381871  1
  O2-  O190  1  0.82182738  0.57260997  0.56878223  1
  O2-  O191  1  0.82052280  0.56962305  0.90249504  1
  O2-  O192  1  0.05851333  0.08186572  0.27865315  1
  O2-  O193  1  0.04879955  0.08161120  0.60284788  1
  O2-  O194  1  0.04966720  0.07533310  0.93882292  1
  O2-  O195  1  0.03968206  0.58020952  0.26764101  1
  O2-  O196  1  0.04883398  0.58187315  0.59966935  1
  O2-  O197  1  0.04172202  0.58406659  0.93002265  1
  O2-  O198  1  0.53735752  0.08919931  0.26926117  1
  O2-  O199  1  0.53639102  0.08747068  0.60012944  1
  O2-  O200  1  0.53797158  0.08829584  0.93240173  1
  O2-  O201  1  0.54386448  0.58321302  0.26873045  1
  O2-  O202  1  0.54065150  0.58789832  0.60533323  1
  O2-  O203  1  0.54171414  0.58687821  0.93273280  1
  O2-  O204  1  0.16862148  0.20843533  0.27548616  1
  O2-  O205  1  0.16929542  0.19922947  0.60654946  1
  O2-  O206  1  0.17191353  0.20753234  0.93370085  1
  O2-  O207  1  0.16873278  0.70580744  0.26499036  1
  O2-  O208  1  0.16543529  0.71872260  0.59914769  1
  O2-  O209  1  0.16791244  0.71362181  0.93124392  1
  O2-  O210  1  0.66036978  0.20512286  0.26874821  1
  O2-  O211  1  0.66094479  0.20125892  0.60011558  1
  O2-  O212  1  0.66029543  0.20302229  0.93389164  1
  O2-  O213  1  0.66544462  0.70087146  0.27077428  1
  O2-  O214  1  0.66435355  0.70501895  0.60703166  1
  O2-  O215  1  0.66177923  0.70724020  0.93227399  1
  O2-  O216  1  0.08383903  0.45972233  0.06586470  1
  O2-  O217  1  0.07929448  0.45597923  0.40372057  1
  O2-  O218  1  0.08471907  0.45019178  0.72847172  1
  O2-  O219  1  0.07752486  0.94288366  0.06850174  1
  O2-  O220  1  0.08574889  0.95064052  0.40115398  1
  O2-  O221  1  0.08764639  0.95491052  0.72881932  1
  O2-  O222  1  0.58060502  0.46147677  0.06909994  1
  O2-  O223  1  0.58198205  0.45207688  0.39488835  1
  O2-  O224  1  0.58189262  0.45758811  0.73316663  1
  O2-  O225  1  0.58605856  0.96048901  0.05997371  1
  O2-  O226  1  0.58521752  0.96548123  0.40211794  1
  O2-  O227  1  0.58673915  0.96344579  0.73289390  1
  O2-  O228  1  0.21452986  0.33697685  0.06706009  1
  O2-  O229  1  0.21144381  0.33487258  0.40774751  1
  O2-  O230  1  0.20924777  0.33334742  0.73199605  1
  O2-  O231  1  0.21685109  0.83265459  0.06995683  1
  O2-  O232  1  0.20896319  0.83419192  0.39777696  1
  O2-  O233  1  0.21399783  0.84226206  0.73009068  1
  O2-  O234  1  0.69320628  0.32564602  0.06418772  1
  O2-  O235  1  0.69822955  0.33210553  0.39294593  1
  O2-  O236  1  0.70035381  0.32519312  0.72840073  1
  O2-  O237  1  0.69262010  0.83181815  0.05794207  1
  O2-  O238  1  0.69912272  0.82936737  0.40103691  1
  O2-  O239  1  0.69617084  0.83593130  0.73001263  1
  O2-  O240  1  0.45454902  0.41246426  0.26965021  1
  O2-  O241  1  0.45723574  0.41432562  0.60387776  1
  O2-  O242  1  0.45762169  0.41530576  0.93573337  1
  O2-  O243  1  0.46458527  0.91785296  0.26381312  1
  O2-  O244  1  0.45965358  0.91423526  0.60511586  1
  O2-  O245  1  0.46250601  0.91212534  0.93239143  1
  O2-  O246  1  0.96128178  0.41363014  0.26579027  1
  O2-  O247  1  0.96024567  0.41430614  0.59770838  1
  O2-  O248  1  0.96031793  0.41677620  0.93160222  1
  O2-  O249  1  0.95250030  0.92444032  0.27244035  1
  O2-  O250  1  0.95849849  0.91571216  0.60175241  1
  O2-  O251  1  0.94989199  0.91617936  0.94004840  1
  O2-  O252  1  0.33620647  0.29061785  0.27413907  1
  O2-  O253  1  0.33800089  0.29343259  0.60196968  1
  O2-  O254  1  0.33941191  0.29475292  0.93466074  1
  O2-  O255  1  0.33456762  0.79433750  0.26119205  1
  O2-  O256  1  0.33935452  0.79541828  0.60512814  1
  O2-  O257  1  0.33972484  0.79608570  0.93359815  1
  O2-  O258  1  0.83038732  0.28973279  0.26627091  1
  O2-  O259  1  0.83308141  0.28422985  0.59807507  1
  O2-  O260  1  0.82750741  0.29051448  0.93345850  1
  O2-  O261  1  0.82541754  0.79890691  0.27003634  1
  O2-  O262  1  0.82894807  0.80762450  0.61150712  1
  O2-  O263  1  0.82974640  0.79915491  0.93790112  1
  O2-  O264  1  0.41782005  0.03782491  0.06599020  1
  O2-  O265  1  0.41637319  0.03784312  0.40319383  1
  O2-  O266  1  0.41294823  0.04024625  0.73074869  1
  O2-  O267  1  0.41624585  0.54787856  0.06029134  1
  O2-  O268  1  0.41810961  0.54030480  0.40104059  1
  O2-  O269  1  0.41474860  0.54141088  0.73537201  1
  O2-  O270  1  0.91781885  0.04607375  0.06743379  1
  O2-  O271  1  0.92401699  0.05226617  0.40410314  1
  O2-  O272  1  0.91350398  0.04390491  0.72703537  1
  O2-  O273  1  0.92138237  0.54426027  0.06683278  1
  O2-  O274  1  0.91464701  0.53593025  0.40132976  1
  O2-  O275  1  0.92452927  0.54188430  0.73191515  1
  O2-  O276  1  0.30141559  0.17219264  0.06519849  1
  O2-  O277  1  0.29262910  0.16536790  0.40643087  1
  O2-  O278  1  0.30123825  0.16640198  0.72749861  1
  O2-  O279  1  0.30248198  0.66968111  0.05711051  1
  O2-  O280  1  0.29858282  0.67381583  0.39664634  1
  O2-  O281  1  0.29116419  0.67076313  0.73429679  1
  O2-  O282  1  0.78357007  0.16326035  0.06622990  1
  O2-  O283  1  0.78396200  0.16737623  0.40389305  1
  O2-  O284  1  0.78645867  0.15810700  0.72826292  1
  O2-  O285  1  0.78781673  0.66749356  0.06680831  1
  O2-  O286  1  0.78965478  0.66477677  0.40247395  1
  O2-  O287  1  0.79646126  0.67032837  0.73498244  1
