# generated using pymatgen
data_Ca2Al2SiO7
_symmetry_space_group_name_H-M   'P 1'
_cell_length_a   15.46396774
_cell_length_b   15.46447937
_cell_length_c   15.28894600
_cell_angle_alpha   90.00054308
_cell_angle_beta   89.99157217
_cell_angle_gamma   90.01707713
_symmetry_Int_Tables_number   1
_chemical_formula_structural   Ca2Al2SiO7
_chemical_formula_sum   'Ca48 Al48 Si24 O168'
_cell_volume   3656.23213286
_cell_formula_units_Z   24
loop_
 _symmetry_equiv_pos_site_id
 _symmetry_equiv_pos_as_xyz
  1  'x, y, z'
loop_
 _atom_type_symbol
 _atom_type_oxidation_number
  Ca2+  2.0
  Al0+  0.0
  Si0+  0.0
  O2-  -2.0
loop_
 _atom_site_type_symbol
 _atom_site_label
 _atom_site_symmetry_multiplicity
 _atom_site_fract_x
 _atom_site_fract_y
 _atom_site_fract_z
 _atom_site_occupancy
  Ca2+  Ca0  1  0.16920077  0.07776435  0.16464273  1
  Ca2+  Ca1  1  0.17095516  0.07100142  0.50961383  1
  Ca2+  Ca2  1  0.17480566  0.07586664  0.84515144  1
  Ca2+  Ca3  1  0.17880025  0.57174417  0.16736407  1
  Ca2+  Ca4  1  0.16814628  0.58128530  0.49916240  1
  Ca2+  Ca5  1  0.16791220  0.57731142  0.84156675  1
  Ca2+  Ca6  1  0.66957229  0.09753402  0.16501587  1
  Ca2+  Ca7  1  0.67131494  0.08953436  0.50697435  1
  Ca2+  Ca8  1  0.67782372  0.08984897  0.84022538  1
  Ca2+  Ca9  1  0.66453978  0.58072958  0.16257931  1
  Ca2+  Ca10  1  0.67075140  0.57261233  0.50912331  1
  Ca2+  Ca11  1  0.67032961  0.57469900  0.84524923  1
  Ca2+  Ca12  1  0.08318537  0.33535932  0.15887790  1
  Ca2+  Ca13  1  0.07044443  0.33618054  0.49230282  1
  Ca2+  Ca14  1  0.08218992  0.32709245  0.83053421  1
  Ca2+  Ca15  1  0.08832560  0.83699672  0.16105149  1
  Ca2+  Ca16  1  0.09462994  0.83013364  0.50064025  1
  Ca2+  Ca17  1  0.09490974  0.82699961  0.82820949  1
  Ca2+  Ca18  1  0.57676082  0.32731862  0.15663816  1
  Ca2+  Ca19  1  0.58425309  0.32763655  0.49549917  1
  Ca2+  Ca20  1  0.58214421  0.33668303  0.83710758  1
  Ca2+  Ca21  1  0.57323082  0.82417305  0.15163587  1
  Ca2+  Ca22  1  0.57317893  0.83702825  0.49731106  1
  Ca2+  Ca23  1  0.57154590  0.82815744  0.83316323  1
  Ca2+  Ca24  1  0.32975853  0.41872508  0.16687999  1
  Ca2+  Ca25  1  0.32950214  0.42113915  0.50057434  1
  Ca2+  Ca26  1  0.32974327  0.42232350  0.84876835  1
  Ca2+  Ca27  1  0.32706809  0.91623870  0.16505194  1
  Ca2+  Ca28  1  0.32732081  0.92080193  0.50856213  1
  Ca2+  Ca29  1  0.33025297  0.92167718  0.83751317  1
  Ca2+  Ca30  1  0.82963714  0.41666616  0.16401650  1
  Ca2+  Ca31  1  0.82978289  0.40781036  0.50835623  1
  Ca2+  Ca32  1  0.82414886  0.41539527  0.83908367  1
  Ca2+  Ca33  1  0.83121797  0.92479094  0.16525121  1
  Ca2+  Ca34  1  0.82795943  0.92656422  0.50809561  1
  Ca2+  Ca35  1  0.83539151  0.92890051  0.84029966  1
  Ca2+  Ca36  1  0.42489303  0.16896061  0.15230147  1
  Ca2+  Ca37  1  0.42244340  0.16319050  0.49619828  1
  Ca2+  Ca38  1  0.41482761  0.16626171  0.83460217  1
  Ca2+  Ca39  1  0.41351007  0.66794543  0.15451607  1
  Ca2+  Ca40  1  0.41195002  0.67115948  0.49806770  1
  Ca2+  Ca41  1  0.40756780  0.67805987  0.83413312  1
  Ca2+  Ca42  1  0.92417593  0.17188499  0.15902846  1
  Ca2+  Ca43  1  0.91261093  0.17632680  0.49741475  1
  Ca2+  Ca44  1  0.92023197  0.16561053  0.83150814  1
  Ca2+  Ca45  1  0.91673346  0.66867831  0.15766616  1
  Ca2+  Ca46  1  0.92623754  0.66695222  0.49832096  1
  Ca2+  Ca47  1  0.92223508  0.66533291  0.82876810  1
  Al0+  Al48  1  -0.00169787  0.00186050  0.00460769  1
  Al0+  Al49  1  -0.00185051  0.00044209  0.33937620  1
  Al0+  Al50  1  -0.00017950  -0.00259716  0.67222125  1
  Al0+  Al51  1  -0.00194799  0.50163688  0.00557337  1
  Al0+  Al52  1  -0.00022555  0.50276456  0.33002032  1
  Al0+  Al53  1  -0.00005139  0.50036166  0.65679785  1
  Al0+  Al54  1  0.50095841  -0.00105926  -0.00644406  1
  Al0+  Al55  1  0.50109849  -0.00220533  0.32693961  1
  Al0+  Al56  1  0.50006586  -0.00030419  0.66475292  1
  Al0+  Al57  1  0.50205224  0.49931135  0.00104758  1
  Al0+  Al58  1  0.50239050  0.50010906  0.33901877  1
  Al0+  Al59  1  0.49966771  0.49900661  0.66906840  1
  Al0+  Al60  1  0.24928527  0.24714173  -0.00040749  1
  Al0+  Al61  1  0.24943113  0.24971298  0.33901165  1
  Al0+  Al62  1  0.25051216  0.24977254  0.66509367  1
  Al0+  Al63  1  0.24764780  0.74897317  0.00239587  1
  Al0+  Al64  1  0.25007598  0.75023418  0.33904483  1
  Al0+  Al65  1  0.25128550  0.74894882  0.65918266  1
  Al0+  Al66  1  0.75074881  0.25159017  0.00530945  1
  Al0+  Al67  1  0.75165468  0.25197718  0.32570258  1
  Al0+  Al68  1  0.74981795  0.25023348  0.67189425  1
  Al0+  Al69  1  0.75057635  0.75177748  -0.00223839  1
  Al0+  Al70  1  0.75018224  0.75143745  0.33514671  1
  Al0+  Al71  1  0.75023473  0.74849787  0.66471958  1
  Al0+  Al72  1  0.32268392  0.07312535  0.68178341  1
  Al0+  Al73  1  0.93004918  0.31716926  0.65508291  1
  Al0+  Al74  1  0.17891764  0.92883856  0.01490143  1
  Al0+  Al75  1  0.43157722  0.82032504  0.65025682  1
  Al0+  Al76  1  0.07023600  0.68001848  0.65171343  1
  Al0+  Al77  1  0.32414468  0.07045334  0.01537888  1
  Al0+  Al78  1  0.57311542  0.17921228  0.98205986  1
  Al0+  Al79  1  0.67903664  0.42936493  0.68091901  1
  Al0+  Al80  1  0.32267619  0.56969982  0.35019136  1
  Al0+  Al81  1  0.57307341  0.67765523  0.98483782  1
  Al0+  Al82  1  0.82083195  0.57388401  0.01420521  1
  Al0+  Al83  1  0.17876795  0.93153524  0.34910169  1
  Al0+  Al84  1  0.18095851  0.92681185  0.68260751  1
  Al0+  Al85  1  0.17650965  0.42739053  0.34996600  1
  Al0+  Al86  1  0.82004882  0.07210617  0.01620988  1
  Al0+  Al87  1  0.67852923  0.42927065  0.01766715  1
  Al0+  Al88  1  0.07082812  0.17815493  0.98741733  1
  Al0+  Al89  1  0.32101898  0.57059833  0.01169767  1
  Al0+  Al90  1  0.17750529  0.42563665  0.01158400  1
  Al0+  Al91  1  0.42522391  0.81967659  0.98420373  1
  Al0+  Al92  1  0.93089179  0.32263660  0.31667106  1
  Al0+  Al93  1  0.56950564  0.17907068  0.32016124  1
  Al0+  Al94  1  0.81979203  0.07013289  0.68019294  1
  Al0+  Al95  1  0.42772923  0.32075706  0.98593707  1
  Si0+  Si96  1  0.82094376  0.57521833  0.34980314  1
  Si0+  Si97  1  0.17642375  0.42937844  0.67917083  1
  Si0+  Si98  1  0.92843379  0.82307309  0.98562409  1
  Si0+  Si99  1  0.92726406  0.82209497  0.31849669  1
  Si0+  Si100  1  0.68312864  0.42956771  0.34967139  1
  Si0+  Si101  1  0.92996157  0.32361295  0.98334930  1
  Si0+  Si102  1  0.07138339  0.68220203  0.31524848  1
  Si0+  Si103  1  0.67869592  0.92837976  0.01545165  1
  Si0+  Si104  1  0.57255179  0.67551652  0.64883817  1
  Si0+  Si105  1  0.07331887  0.17520919  0.64998506  1
  Si0+  Si106  1  0.67695422  0.92561265  0.68262154  1
  Si0+  Si107  1  0.92529383  0.82381745  0.64916896  1
  Si0+  Si108  1  0.81759759  0.07180699  0.34893007  1
  Si0+  Si109  1  0.57008177  0.18189642  0.65322963  1
  Si0+  Si110  1  0.67862094  0.92730570  0.34753342  1
  Si0+  Si111  1  0.57317259  0.67874784  0.32017270  1
  Si0+  Si112  1  0.07162054  0.17592336  0.31935571  1
  Si0+  Si113  1  0.82383659  0.57192196  0.68068993  1
  Si0+  Si114  1  0.32601107  0.07099728  0.34857564  1
  Si0+  Si115  1  0.31981026  0.56866126  0.68123358  1
  Si0+  Si116  1  0.42880266  0.81813488  0.31722318  1
  Si0+  Si117  1  0.42747701  0.32331263  0.31939874  1
  Si0+  Si118  1  0.42668154  0.32400216  0.65033577  1
  Si0+  Si119  1  0.06834059  0.67980114  0.98677387  1
  O2-  O120  1  0.25239267  -0.00152011  0.06584731  1
  O2-  O121  1  0.25291477  0.00766163  0.39383078  1
  O2-  O122  1  0.24728182  0.00422084  0.73060360  1
  O2-  O123  1  0.25447400  0.49307190  0.06046530  1
  O2-  O124  1  0.25094439  0.49705915  0.40066999  1
  O2-  O125  1  0.25065327  0.49586272  0.72236442  1
  O2-  O126  1  0.74124769  0.00134606  0.06280214  1
  O2-  O127  1  0.74481583  0.00231088  0.39120438  1
  O2-  O128  1  0.74941806  -0.00950591  0.72554741  1
  O2-  O129  1  0.74865921  0.50410453  0.06689378  1
  O2-  O130  1  0.75400563  0.50065026  0.39277044  1
  O2-  O131  1  0.75189059  0.50734843  0.72404123  1
  O2-  O132  1  0.01121494  0.25183729  0.27437027  1
  O2-  O133  1  0.00431732  0.24345519  0.60488114  1
  O2-  O134  1  -0.00022358  0.25624002  0.93984770  1
  O2-  O135  1  -0.00031722  0.75371577  0.27435147  1
  O2-  O136  1  -0.00441539  0.75635880  0.60506266  1
  O2-  O137  1  -0.00112251  0.75181381  0.94375489  1
  O2-  O138  1  0.48947174  0.24858623  0.27612642  1
  O2-  O139  1  0.49649765  0.25012339  0.60980665  1
  O2-  O140  1  0.49874410  0.24891970  0.93263294  1
  O2-  O141  1  0.49879623  0.74529621  0.27731735  1
  O2-  O142  1  0.50803435  0.74685514  0.60219687  1
  O2-  O143  1  0.49657971  0.74528109  0.93559453  1
  O2-  O144  1  0.06675314  0.17639858  0.10084949  1
  O2-  O145  1  0.06535549  0.17276867  0.42502564  1
  O2-  O146  1  0.07310834  0.17757497  0.75516522  1
  O2-  O147  1  0.06704937  0.68111098  0.09192068  1
  O2-  O148  1  0.06951713  0.68247132  0.42068666  1
  O2-  O149  1  0.06843782  0.67750776  0.76479383  1
  O2-  O150  1  0.57193546  0.18271935  0.09610411  1
  O2-  O151  1  0.57196869  0.18108824  0.43428367  1
  O2-  O152  1  0.57231527  0.18297253  0.75726139  1
  O2-  O153  1  0.57416370  0.68277612  0.09933447  1
  O2-  O154  1  0.57570792  0.68207025  0.42539606  1
  O2-  O155  1  0.57180474  0.67520386  0.75344384  1
  O2-  O156  1  0.17663705  0.42981037  0.23707979  1
  O2-  O157  1  0.17707459  0.43181597  0.57407360  1
  O2-  O158  1  0.17379287  0.43107350  0.89733923  1
  O2-  O159  1  0.17824746  0.93096393  0.23674960  1
  O2-  O160  1  0.18394925  0.92831990  0.56841617  1
  O2-  O161  1  0.17825326  0.92771204  0.90190594  1
  O2-  O162  1  0.68216204  0.43088680  0.24557860  1
  O2-  O163  1  0.68119719  0.42834203  0.56671366  1
  O2-  O164  1  0.68339507  0.42840027  0.90395528  1
  O2-  O165  1  0.68223020  0.92244277  0.24335804  1
  O2-  O166  1  0.67722697  0.92813677  0.57596061  1
  O2-  O167  1  0.68472500  0.92623170  0.91002092  1
  O2-  O168  1  0.42864399  0.31990760  0.10012352  1
  O2-  O169  1  0.43192740  0.32467427  0.42566153  1
  O2-  O170  1  0.42580435  0.32822989  0.75448039  1
  O2-  O171  1  0.42635260  0.81760209  0.09861676  1
  O2-  O172  1  0.43165197  0.82010439  0.42253776  1
  O2-  O173  1  0.43089604  0.81792273  0.76231192  1
  O2-  O174  1  0.93133150  0.32291464  0.08925546  1
  O2-  O175  1  0.92583515  0.31791425  0.43027242  1
  O2-  O176  1  0.93125752  0.31830523  0.76742865  1
  O2-  O177  1  0.92777050  0.82215129  0.09128925  1
  O2-  O178  1  0.92378821  0.81942043  0.42338098  1
  O2-  O179  1  0.92087127  0.82194419  0.75422393  1
  O2-  O180  1  0.32899931  0.06763304  0.24379375  1
  O2-  O181  1  0.32355489  0.07145293  0.56710378  1
  O2-  O182  1  0.32120774  0.06956131  0.90209447  1
  O2-  O183  1  0.32288164  0.57052792  0.23735746  1
  O2-  O184  1  0.32039986  0.56725690  0.57587129  1
  O2-  O185  1  0.31412394  0.57331184  0.89774486  1
  O2-  O186  1  0.81864445  0.06959278  0.24437949  1
  O2-  O187  1  0.81502359  0.07180278  0.56611006  1
  O2-  O188  1  0.82124837  0.06929162  0.90314668  1
  O2-  O189  1  0.81729115  0.58018685  0.24557496  1
  O2-  O190  1  0.82277466  0.57142186  0.57440526  1
  O2-  O191  1  0.82392290  0.57249726  0.90046337  1
  O2-  O192  1  0.03690192  0.08517945  0.27257369  1
  O2-  O193  1  0.04735375  0.08024425  0.60645652  1
  O2-  O194  1  0.03347879  0.08344753  0.93328766  1
  O2-  O195  1  0.04296439  0.59107653  0.26806429  1
  O2-  O196  1  0.03727793  0.58637361  0.59169418  1
  O2-  O197  1  0.03855727  0.58862642  0.93889989  1
  O2-  O198  1  0.54758225  0.08023632  0.26632792  1
  O2-  O199  1  0.54657792  0.08900991  0.60458743  1
  O2-  O200  1  0.55214929  0.07886575  0.93067985  1
  O2-  O201  1  0.55038338  0.58427820  0.27651301  1
  O2-  O202  1  0.54271393  0.58290743  0.60146180  1
  O2-  O203  1  0.55384545  0.57682864  0.93566397  1
  O2-  O204  1  0.16964074  0.19202843  0.27912925  1
  O2-  O205  1  0.16680896  0.20028510  0.60265318  1
  O2-  O206  1  0.16719590  0.20334165  0.93170414  1
  O2-  O207  1  0.16369882  0.71163808  0.27096708  1
  O2-  O208  1  0.16530059  0.71027607  0.59390900  1
  O2-  O209  1  0.15930343  0.70680209  0.93813705  1
  O2-  O210  1  0.66404871  0.21419013  0.26606887  1
  O2-  O211  1  0.66044668  0.21387115  0.60429287  1
  O2-  O212  1  0.67267827  0.21108273  0.93292396  1
  O2-  O213  1  0.66369263  0.71052610  0.27258217  1
  O2-  O214  1  0.66848936  0.69592853  0.60330096  1
  O2-  O215  1  0.66971834  0.71145095  0.93010127  1
  O2-  O216  1  0.08252098  0.46046559  0.06710275  1
  O2-  O217  1  0.07808727  0.46196014  0.40130001  1
  O2-  O218  1  0.08548107  0.46157894  0.72453690  1
  O2-  O219  1  0.08115733  0.95874158  0.06878564  1
  O2-  O220  1  0.08075759  0.95850868  0.40411602  1
  O2-  O221  1  0.07850926  0.94324880  0.73083551  1
  O2-  O222  1  0.58049432  0.45487584  0.07211513  1
  O2-  O223  1  0.59178623  0.45618240  0.39940148  1
  O2-  O224  1  0.58176790  0.45779042  0.73359926  1
  O2-  O225  1  0.58288895  0.94676243  0.05835289  1
  O2-  O226  1  0.58499975  0.95182422  0.39319427  1
  O2-  O227  1  0.58500123  0.95404791  0.72776090  1
  O2-  O228  1  0.19947172  0.32671991  0.06442946  1
  O2-  O229  1  0.19847698  0.32725381  0.40419917  1
  O2-  O230  1  0.19904066  0.33514136  0.72273694  1
  O2-  O231  1  0.20505015  0.83038963  0.06887769  1
  O2-  O232  1  0.21149269  0.83554566  0.40281214  1
  O2-  O233  1  0.21406376  0.82803069  0.73115028  1
  O2-  O234  1  0.71128585  0.33366885  0.07314953  1
  O2-  O235  1  0.71358965  0.33749927  0.39591271  1
  O2-  O236  1  0.71277094  0.33564341  0.73612471  1
  O2-  O237  1  0.71066952  0.83788709  0.06443518  1
  O2-  O238  1  0.70997751  0.83839668  0.39964216  1
  O2-  O239  1  0.69807093  0.82971106  0.72524793  1
  O2-  O240  1  0.46063995  0.41513361  0.27445274  1
  O2-  O241  1  0.45816577  0.41427206  0.60079813  1
  O2-  O242  1  0.45674993  0.41924146  0.93317874  1
  O2-  O243  1  0.45800291  0.90855758  0.26856224  1
  O2-  O244  1  0.46352758  0.91676794  0.59407026  1
  O2-  O245  1  0.45581048  0.91622820  0.92998375  1
  O2-  O246  1  0.95418443  0.42210512  0.26509710  1
  O2-  O247  1  0.95832108  0.41317377  0.59709534  1
  O2-  O248  1  0.95294324  0.41853168  0.93887132  1
  O2-  O249  1  0.95281289  0.91573505  0.27382938  1
  O2-  O250  1  0.94878628  0.91828084  0.60316150  1
  O2-  O251  1  0.95581873  0.91481054  0.93933212  1
  O2-  O252  1  0.33005782  0.30604547  0.27879154  1
  O2-  O253  1  0.33485121  0.29834286  0.60062244  1
  O2-  O254  1  0.32872509  0.29540632  0.93286425  1
  O2-  O255  1  0.33603697  0.79076547  0.27281589  1
  O2-  O256  1  0.33741375  0.78610027  0.59333659  1
  O2-  O257  1  0.32711926  0.78867790  0.93143320  1
  O2-  O258  1  0.83709017  0.28748384  0.26101570  1
  O2-  O259  1  0.83308292  0.28410832  0.60062936  1
  O2-  O260  1  0.83666209  0.29470402  0.94009072  1
  O2-  O261  1  0.83597368  0.79266858  0.27020935  1
  O2-  O262  1  0.83209099  0.79749850  0.59993175  1
  O2-  O263  1  0.83799144  0.79664836  0.93565968  1
  O2-  O264  1  0.42427241  0.04309943  0.06525489  1
  O2-  O265  1  0.41844327  0.03929011  0.39552965  1
  O2-  O266  1  0.42121710  0.04274924  0.73182454  1
  O2-  O267  1  0.42113076  0.55007774  0.06267692  1
  O2-  O268  1  0.42189501  0.54378764  0.40532915  1
  O2-  O269  1  0.41197031  0.54363429  0.72781831  1
  O2-  O270  1  0.91283053  0.03583323  0.07352571  1
  O2-  O271  1  0.90745463  0.04212642  0.39883509  1
  O2-  O272  1  0.91691230  0.04332119  0.73411052  1
  O2-  O273  1  0.91708343  0.54523838  0.07148127  1
  O2-  O274  1  0.91489485  0.55136587  0.39382097  1
  O2-  O275  1  0.91713584  0.54354620  0.72441765  1
  O2-  O276  1  0.29472342  0.16793250  0.06866964  1
  O2-  O277  1  0.30845571  0.16699736  0.39331307  1
  O2-  O278  1  0.29994711  0.17437644  0.73104634  1
  O2-  O279  1  0.28571159  0.66488217  0.06807435  1
  O2-  O280  1  0.29050515  0.66693910  0.40427190  1
  O2-  O281  1  0.28911751  0.66053378  0.72453813  1
  O2-  O282  1  0.79279398  0.16822180  0.07172775  1
  O2-  O283  1  0.78867033  0.16446059  0.39428210  1
  O2-  O284  1  0.78497458  0.16347511  0.73579424  1
  O2-  O285  1  0.79507828  0.67359617  0.06680177  1
  O2-  O286  1  0.79043241  0.66524052  0.40049183  1
  O2-  O287  1  0.80384105  0.66766753  0.72462213  1
