# generated using pymatgen
data_Ca2Al2SiO7
_symmetry_space_group_name_H-M   'P 1'
_cell_length_a   15.46012057
_cell_length_b   15.46129661
_cell_length_c   15.28537987
_cell_angle_alpha   89.99765211
_cell_angle_beta   89.98913269
_cell_angle_gamma   89.99380518
_symmetry_Int_Tables_number   1
_chemical_formula_structural   Ca2Al2SiO7
_chemical_formula_sum   'Ca48 Al48 Si24 O168'
_cell_volume   3653.71790688
_cell_formula_units_Z   24
loop_
 _symmetry_equiv_pos_site_id
 _symmetry_equiv_pos_as_xyz
  1  'x, y, z'
loop_
 _atom_type_symbol
 _atom_type_oxidation_number
  Ca2+  2.0
  Al0+  0.0
  Si0+  0.0
  O2-  -2.0
loop_
 _atom_site_type_symbol
 _atom_site_label
 _atom_site_symmetry_multiplicity
 _atom_site_fract_x
 _atom_site_fract_y
 _atom_site_fract_z
 _atom_site_occupancy
  Ca2+  Ca0  1  0.16914426  0.08658209  0.17106506  1
  Ca2+  Ca1  1  0.18130762  0.08870387  0.50545055  1
  Ca2+  Ca2  1  0.17227580  0.08695360  0.83701368  1
  Ca2+  Ca3  1  0.16528487  0.57404626  0.16553266  1
  Ca2+  Ca4  1  0.16336941  0.57079414  0.50546712  1
  Ca2+  Ca5  1  0.16366009  0.57561678  0.83852936  1
  Ca2+  Ca6  1  0.67668164  0.08800307  0.17100393  1
  Ca2+  Ca7  1  0.67326998  0.09602681  0.50353521  1
  Ca2+  Ca8  1  0.67922805  0.09214669  0.83419765  1
  Ca2+  Ca9  1  0.67227042  0.57388281  0.17125511  1
  Ca2+  Ca10  1  0.67442192  0.58221042  0.50187814  1
  Ca2+  Ca11  1  0.66985956  0.57443282  0.84092678  1
  Ca2+  Ca12  1  0.07450510  0.33516632  0.16112978  1
  Ca2+  Ca13  1  0.07710782  0.33919466  0.49637948  1
  Ca2+  Ca14  1  0.07520951  0.33830261  0.83076005  1
  Ca2+  Ca15  1  0.08377965  0.82461492  0.15685600  1
  Ca2+  Ca16  1  0.08166739  0.82807356  0.50303991  1
  Ca2+  Ca17  1  0.08275380  0.81906482  0.82599055  1
  Ca2+  Ca18  1  0.58283558  0.33020501  0.16556590  1
  Ca2+  Ca19  1  0.56982031  0.32213588  0.49555192  1
  Ca2+  Ca20  1  0.57799437  0.33174286  0.82482641  1
  Ca2+  Ca21  1  0.57637547  0.83131588  0.16151130  1
  Ca2+  Ca22  1  0.58003118  0.83637642  0.50077113  1
  Ca2+  Ca23  1  0.57383215  0.83256332  0.82991762  1
  Ca2+  Ca24  1  0.31901773  0.41108455  0.17161044  1
  Ca2+  Ca25  1  0.32273994  0.40492883  0.50593886  1
  Ca2+  Ca26  1  0.32049788  0.41774696  0.84019191  1
  Ca2+  Ca27  1  0.33251804  0.92133775  0.17080709  1
  Ca2+  Ca28  1  0.33865805  0.92827064  0.50641559  1
  Ca2+  Ca29  1  0.34152070  0.92026027  0.83484719  1
  Ca2+  Ca30  1  0.83255736  0.41280831  0.17032989  1
  Ca2+  Ca31  1  0.84101037  0.41771760  0.50290588  1
  Ca2+  Ca32  1  0.82825427  0.40596118  0.83908763  1
  Ca2+  Ca33  1  0.83720560  0.93213443  0.17186883  1
  Ca2+  Ca34  1  0.83404389  0.92972317  0.50988774  1
  Ca2+  Ca35  1  0.84396073  0.92873993  0.83414951  1
  Ca2+  Ca36  1  0.41781003  0.16925881  0.16958435  1
  Ca2+  Ca37  1  0.42092353  0.16770959  0.49344006  1
  Ca2+  Ca38  1  0.42503445  0.17264982  0.81917738  1
  Ca2+  Ca39  1  0.40955808  0.67264851  0.15627547  1
  Ca2+  Ca40  1  0.41450256  0.67350821  0.49994526  1
  Ca2+  Ca41  1  0.40583075  0.67609536  0.83143889  1
  Ca2+  Ca42  1  0.91832683  0.17333291  0.15835077  1
  Ca2+  Ca43  1  0.91066243  0.17680148  0.49522811  1
  Ca2+  Ca44  1  0.91962558  0.17241561  0.83070229  1
  Ca2+  Ca45  1  0.92058626  0.66424464  0.16214182  1
  Ca2+  Ca46  1  0.92014495  0.66697014  0.49748267  1
  Ca2+  Ca47  1  0.92981941  0.66803615  0.82440052  1
  Al0+  Al48  1  0.00256752  0.00197138  0.00209125  1
  Al0+  Al49  1  -0.00089720  -0.00169190  0.33924761  1
  Al0+  Al50  1  0.00233387  -0.00099001  0.66752331  1
  Al0+  Al51  1  -0.00117492  0.50037535  -0.00461923  1
  Al0+  Al52  1  0.00002006  0.50012572  0.33587603  1
  Al0+  Al53  1  0.00097029  0.50011353  0.66387678  1
  Al0+  Al54  1  0.50194315  -0.00002923  -0.00284701  1
  Al0+  Al55  1  0.50039032  -0.00115129  0.33130626  1
  Al0+  Al56  1  0.50343291  -0.00126705  0.66427821  1
  Al0+  Al57  1  0.50119286  0.50131668  0.00848340  1
  Al0+  Al58  1  0.49866559  0.50124938  0.33035726  1
  Al0+  Al59  1  0.49977689  0.50103616  0.66254034  1
  Al0+  Al60  1  0.25060678  0.24981139  0.00188173  1
  Al0+  Al61  1  0.24930196  0.24848470  0.33792723  1
  Al0+  Al62  1  0.24834265  0.25022734  0.67636848  1
  Al0+  Al63  1  0.24885003  0.75209285  -0.00513498  1
  Al0+  Al64  1  0.24863436  0.74786222  0.33309697  1
  Al0+  Al65  1  0.25052351  0.74931001  0.65505914  1
  Al0+  Al66  1  0.74964640  0.24985229  0.00617136  1
  Al0+  Al67  1  0.74754038  0.25094563  0.33014716  1
  Al0+  Al68  1  0.75078824  0.25090453  0.66341939  1
  Al0+  Al69  1  0.74727560  0.75215201  -0.00077969  1
  Al0+  Al70  1  0.74995188  0.74975252  0.33569554  1
  Al0+  Al71  1  0.75062404  0.75128003  0.66580104  1
  Al0+  Al72  1  0.92820477  0.31958822  0.98502410  1
  Al0+  Al73  1  0.82008158  0.07256472  0.34825260  1
  Al0+  Al74  1  0.07400695  0.17770761  0.98514529  1
  Al0+  Al75  1  0.31879536  0.57322862  0.01340499  1
  Al0+  Al76  1  0.42569188  0.32227202  0.65450702  1
  Al0+  Al77  1  0.56986367  0.17807882  0.31505042  1
  Al0+  Al78  1  0.57159874  0.17991525  0.65277106  1
  Al0+  Al79  1  0.82181793  0.06919232  0.01428266  1
  Al0+  Al80  1  0.93040418  0.32114664  0.31957959  1
  Al0+  Al81  1  0.43073722  0.82047712  0.65113177  1
  Al0+  Al82  1  0.93045742  0.31860104  0.65236550  1
  Al0+  Al83  1  0.07086148  0.67789435  0.64770192  1
  Al0+  Al84  1  0.82172631  0.07236331  0.68140166  1
  Al0+  Al85  1  0.17700674  0.42792511  0.01665029  1
  Al0+  Al86  1  0.31964889  0.06774749  0.34603563  1
  Al0+  Al87  1  0.32290223  0.06945100  0.68194777  1
  Al0+  Al88  1  0.81985724  0.56963799  0.34697884  1
  Al0+  Al89  1  0.18049878  0.43013301  0.34771721  1
  Al0+  Al90  1  0.42988409  0.82064638  0.98645416  1
  Al0+  Al91  1  0.92844781  0.82268047  0.65126292  1
  Al0+  Al92  1  0.17836385  0.42950417  0.68244485  1
  Al0+  Al93  1  0.06854896  0.67969019  0.98680942  1
  Al0+  Al94  1  0.67894953  0.42858667  0.01407921  1
  Al0+  Al95  1  0.42528772  0.32154924  0.31660772  1
  Si0+  Si96  1  0.57000469  0.18019176  0.98506627  1
  Si0+  Si97  1  0.57286943  0.67632734  0.98387234  1
  Si0+  Si98  1  0.57333995  0.67908215  0.31748460  1
  Si0+  Si99  1  0.17700584  0.92336799  0.35093051  1
  Si0+  Si100  1  0.42905640  0.32291434  0.98683149  1
  Si0+  Si101  1  0.67595485  0.92823344  0.01713747  1
  Si0+  Si102  1  0.32310180  0.57459795  0.35088792  1
  Si0+  Si103  1  0.57433003  0.67650192  0.64921719  1
  Si0+  Si104  1  0.06920208  0.67979177  0.31646939  1
  Si0+  Si105  1  0.67500891  0.42794375  0.35252631  1
  Si0+  Si106  1  0.42919386  0.81870964  0.31757817  1
  Si0+  Si107  1  0.67954396  0.43109283  0.67898756  1
  Si0+  Si108  1  0.18048339  0.92604461  0.68352271  1
  Si0+  Si109  1  0.92759587  0.82165177  0.31790518  1
  Si0+  Si110  1  0.32318141  0.57332209  0.68090812  1
  Si0+  Si111  1  0.07135178  0.17536985  0.31998956  1
  Si0+  Si112  1  0.92623794  0.82433509  0.98597005  1
  Si0+  Si113  1  0.67861758  0.92748123  0.35012235  1
  Si0+  Si114  1  0.82110939  0.57240456  0.68184202  1
  Si0+  Si115  1  0.67929178  0.92568495  0.68572124  1
  Si0+  Si116  1  0.18089159  0.93017044  0.01343939  1
  Si0+  Si117  1  0.32466216  0.07115257  0.01467077  1
  Si0+  Si118  1  0.82130928  0.57478164  0.01373259  1
  Si0+  Si119  1  0.07334572  0.17639817  0.65078789  1
  O2-  O120  1  0.25033896  0.00270844  0.05602631  1
  O2-  O121  1  0.24421148  -0.00609959  0.39348185  1
  O2-  O122  1  0.24894216  -0.00604046  0.72973351  1
  O2-  O123  1  0.25118485  0.49886664  0.06597348  1
  O2-  O124  1  0.26007826  0.50082935  0.39401737  1
  O2-  O125  1  0.25708606  0.50277766  0.72507363  1
  O2-  O126  1  0.74904230  -0.00812760  0.06084428  1
  O2-  O127  1  0.74463847  -0.00199931  0.39444122  1
  O2-  O128  1  0.74893741  -0.00547695  0.72814021  1
  O2-  O129  1  0.75402200  0.50491521  0.05799734  1
  O2-  O130  1  0.74637046  0.49470281  0.39598774  1
  O2-  O131  1  0.74949340  0.50224478  0.72360538  1
  O2-  O132  1  0.00113894  0.24175311  0.27491456  1
  O2-  O133  1  0.00378053  0.24303665  0.60523337  1
  O2-  O134  1  0.00317815  0.25063802  0.93511202  1
  O2-  O135  1  0.00007626  0.75292657  0.27398977  1
  O2-  O136  1  -0.00249726  0.74951403  0.59864802  1
  O2-  O137  1  -0.01065119  0.75099024  0.94202407  1
  O2-  O138  1  0.49910226  0.25179737  0.26511802  1
  O2-  O139  1  0.49305973  0.24577877  0.60461445  1
  O2-  O140  1  0.49914315  0.25141474  0.94332905  1
  O2-  O141  1  0.49768966  0.74552068  0.27508592  1
  O2-  O142  1  0.50550262  0.74531427  0.60509238  1
  O2-  O143  1  0.50189831  0.74282814  0.94025649  1
  O2-  O144  1  0.07192244  0.17444747  0.09906223  1
  O2-  O145  1  0.07180384  0.17536351  0.42552800  1
  O2-  O146  1  0.07202864  0.17680545  0.75626338  1
  O2-  O147  1  0.06809132  0.68237734  0.10062291  1
  O2-  O148  1  0.06900276  0.68118585  0.42101544  1
  O2-  O149  1  0.07032310  0.67882622  0.76141098  1
  O2-  O150  1  0.56824124  0.17837656  0.08982925  1
  O2-  O151  1  0.56811951  0.17781135  0.42828321  1
  O2-  O152  1  0.57328009  0.18449118  0.76718125  1
  O2-  O153  1  0.57608359  0.67983286  0.08951271  1
  O2-  O154  1  0.57470758  0.68167590  0.42252612  1
  O2-  O155  1  0.57623899  0.67495152  0.75457064  1
  O2-  O156  1  0.17769723  0.43317555  0.23490732  1
  O2-  O157  1  0.17734358  0.43108555  0.56910880  1
  O2-  O158  1  0.17783725  0.42937107  0.90334560  1
  O2-  O159  1  0.17856631  0.91960307  0.24493325  1
  O2-  O160  1  0.18199476  0.92779212  0.57765410  1
  O2-  O161  1  0.18181378  0.92835058  0.90885643  1
  O2-  O162  1  0.67527687  0.43117598  0.24671773  1
  O2-  O163  1  0.68022051  0.43406965  0.57419501  1
  O2-  O164  1  0.67798647  0.42909710  0.90027489  1
  O2-  O165  1  0.68036994  0.92443460  0.24430927  1
  O2-  O166  1  0.67993476  0.92275474  0.58011613  1
  O2-  O167  1  0.67181548  0.92915799  0.91213605  1
  O2-  O168  1  0.42875883  0.31941496  0.09161513  1
  O2-  O169  1  0.42543257  0.31866594  0.42996152  1
  O2-  O170  1  0.43080257  0.32410058  0.76881763  1
  O2-  O171  1  0.43138147  0.82149453  0.10009317  1
  O2-  O172  1  0.43070912  0.81854496  0.42239465  1
  O2-  O173  1  0.43147609  0.81870608  0.76429751  1
  O2-  O174  1  0.92793355  0.31833689  0.09880367  1
  O2-  O175  1  0.93316254  0.32199616  0.43274738  1
  O2-  O176  1  0.92752580  0.31855072  0.76508194  1
  O2-  O177  1  0.92910134  0.82444123  0.09216955  1
  O2-  O178  1  0.92746142  0.82045071  0.42230958  1
  O2-  O179  1  0.93075932  0.82008456  0.76531485  1
  O2-  O180  1  0.31872118  0.06454971  0.23232158  1
  O2-  O181  1  0.32206056  0.06787788  0.56872321  1
  O2-  O182  1  0.32751761  0.06874343  0.90987925  1
  O2-  O183  1  0.31872815  0.58223501  0.24589961  1
  O2-  O184  1  0.32321937  0.57385369  0.57512899  1
  O2-  O185  1  0.31735054  0.57327080  0.89977838  1
  O2-  O186  1  0.82165167  0.06890156  0.23497677  1
  O2-  O187  1  0.81813962  0.07292541  0.56841914  1
  O2-  O188  1  0.82031802  0.06921823  0.90122382  1
  O2-  O189  1  0.81787465  0.57189138  0.23372889  1
  O2-  O190  1  0.81930506  0.57248309  0.57658488  1
  O2-  O191  1  0.81783661  0.57793918  0.90812049  1
  O2-  O192  1  0.04945507  0.07931915  0.27564299  1
  O2-  O193  1  0.05348944  0.08144576  0.60566476  1
  O2-  O194  1  0.04638870  0.07875188  0.93214980  1
  O2-  O195  1  0.03763269  0.58950580  0.26956375  1
  O2-  O196  1  0.03855887  0.58157532  0.59402181  1
  O2-  O197  1  0.04045167  0.58426675  0.93046812  1
  O2-  O198  1  0.54151991  0.07869190  0.26239370  1
  O2-  O199  1  0.55249944  0.07906193  0.60238396  1
  O2-  O200  1  0.54318181  0.08865491  0.93689022  1
  O2-  O201  1  0.55096714  0.58606901  0.27054040  1
  O2-  O202  1  0.54871054  0.58468216  0.59961489  1
  O2-  O203  1  0.55081710  0.58127793  0.93984636  1
  O2-  O204  1  0.16463915  0.20130833  0.27424037  1
  O2-  O205  1  0.16720704  0.20429939  0.60724563  1
  O2-  O206  1  0.17471595  0.20132245  0.93428116  1
  O2-  O207  1  0.16185195  0.70680468  0.26948840  1
  O2-  O208  1  0.16737702  0.70672166  0.59145692  1
  O2-  O209  1  0.16190933  0.71638911  0.93127393  1
  O2-  O210  1  0.66762974  0.20788710  0.26145701  1
  O2-  O211  1  0.66591782  0.21566075  0.59748818  1
  O2-  O212  1  0.66213774  0.20932824  0.94021275  1
  O2-  O213  1  0.66304617  0.71168825  0.26828496  1
  O2-  O214  1  0.66705400  0.70378813  0.60201080  1
  O2-  O215  1  0.66493236  0.70455805  0.93467752  1
  O2-  O216  1  0.07791365  0.45974002  0.06672720  1
  O2-  O217  1  0.08622364  0.46669043  0.40225262  1
  O2-  O218  1  0.08239465  0.46526620  0.73531567  1
  O2-  O219  1  0.08961518  0.95498925  0.06412995  1
  O2-  O220  1  0.08293197  0.94536742  0.39685808  1
  O2-  O221  1  0.08658894  0.94902294  0.72982280  1
  O2-  O222  1  0.58484118  0.45952700  0.07310284  1
  O2-  O223  1  0.58185402  0.45746306  0.39767899  1
  O2-  O224  1  0.58729022  0.45867231  0.72672896  1
  O2-  O225  1  0.58470186  0.95907198  0.06627672  1
  O2-  O226  1  0.58351221  0.94984469  0.39418133  1
  O2-  O227  1  0.58567758  0.95122971  0.73128655  1
  O2-  O228  1  0.20612957  0.32901816  0.06951291  1
  O2-  O229  1  0.20628351  0.33240801  0.40169769  1
  O2-  O230  1  0.20432650  0.33365962  0.73987214  1
  O2-  O231  1  0.21132907  0.84010472  0.06329477  1
  O2-  O232  1  0.20509488  0.83086010  0.39805381  1
  O2-  O233  1  0.20758849  0.83092432  0.72549482  1
  O2-  O234  1  0.70983617  0.33419033  0.07167034  1
  O2-  O235  1  0.69794227  0.33333595  0.39556319  1
  O2-  O236  1  0.70922496  0.34034477  0.72678163  1
  O2-  O237  1  0.69538978  0.83245368  0.06260380  1
  O2-  O238  1  0.70499006  0.83489660  0.39796710  1
  O2-  O239  1  0.70258703  0.83147681  0.73304656  1
  O2-  O240  1  0.44940999  0.42278353  0.26637378  1
  O2-  O241  1  0.45549511  0.41938744  0.59962794  1
  O2-  O242  1  0.45809280  0.41572885  0.94289968  1
  O2-  O243  1  0.45867881  0.90893872  0.26858472  1
  O2-  O244  1  0.46449320  0.91518764  0.59584774  1
  O2-  O245  1  0.46469247  0.91574322  0.93148035  1
  O2-  O246  1  0.96348774  0.41758200  0.26615971  1
  O2-  O247  1  0.96080559  0.41555207  0.59947062  1
  O2-  O248  1  0.94998249  0.41966557  0.93274826  1
  O2-  O249  1  0.95508182  0.91429713  0.27139348  1
  O2-  O250  1  0.95927710  0.92036254  0.59777573  1
  O2-  O251  1  0.95799274  0.91551398  0.94005196  1
  O2-  O252  1  0.32764647  0.28757699  0.26454710  1
  O2-  O253  1  0.32523141  0.29558616  0.60685982  1
  O2-  O254  1  0.33695880  0.29622347  0.94024207  1
  O2-  O255  1  0.33578039  0.79254533  0.27154655  1
  O2-  O256  1  0.33633880  0.79114854  0.59277232  1
  O2-  O257  1  0.33379006  0.79326030  0.93067552  1
  O2-  O258  1  0.83138900  0.29637820  0.26849028  1
  O2-  O259  1  0.83432626  0.29009699  0.59680492  1
  O2-  O260  1  0.82925706  0.28738672  0.93450235  1
  O2-  O261  1  0.83611020  0.79232834  0.27041578  1
  O2-  O262  1  0.82895675  0.79681034  0.59942175  1
  O2-  O263  1  0.82979079  0.80688217  0.94253408  1
  O2-  O264  1  0.41477596  0.03841521  0.06279926  1
  O2-  O265  1  0.41600098  0.03372866  0.39863010  1
  O2-  O266  1  0.42075852  0.03784468  0.73379574  1
  O2-  O267  1  0.41961524  0.55364999  0.06563151  1
  O2-  O268  1  0.42016416  0.55771503  0.39303956  1
  O2-  O269  1  0.41895991  0.55365601  0.72565878  1
  O2-  O270  1  0.91855935  0.03915191  0.06936622  1
  O2-  O271  1  0.91635830  0.04110828  0.40275918  1
  O2-  O272  1  0.91962300  0.04159611  0.73379482  1
  O2-  O273  1  0.91522840  0.55096206  0.05858639  1
  O2-  O274  1  0.91581764  0.54034899  0.40204096  1
  O2-  O275  1  0.91290763  0.54405887  0.72733043  1
  O2-  O276  1  0.29983890  0.16316388  0.06246720  1
  O2-  O277  1  0.29007291  0.16311057  0.40207103  1
  O2-  O278  1  0.29226848  0.16458004  0.73864299  1
  O2-  O279  1  0.28738424  0.67202320  0.06575433  1
  O2-  O280  1  0.29227046  0.66619289  0.39967658  1
  O2-  O281  1  0.29465131  0.66767309  0.72400635  1
  O2-  O282  1  0.78689762  0.16316459  0.06980219  1
  O2-  O283  1  0.78818902  0.16988034  0.39973787  1
  O2-  O284  1  0.78662599  0.16830862  0.73476812  1
  O2-  O285  1  0.79534588  0.66862918  0.06113277  1
  O2-  O286  1  0.78733970  0.66594452  0.40191462  1
  O2-  O287  1  0.79409229  0.66439832  0.72931633  1
