# generated using pymatgen
data_Ca2Al2SiO7
_symmetry_space_group_name_H-M   'P 1'
_cell_length_a   15.45591017
_cell_length_b   15.45535208
_cell_length_c   15.28162262
_cell_angle_alpha   89.99422516
_cell_angle_beta   89.99967344
_cell_angle_gamma   89.99141176
_symmetry_Int_Tables_number   1
_chemical_formula_structural   Ca2Al2SiO7
_chemical_formula_sum   'Ca48 Al48 Si24 O168'
_cell_volume   3650.42097574
_cell_formula_units_Z   24
loop_
 _symmetry_equiv_pos_site_id
 _symmetry_equiv_pos_as_xyz
  1  'x, y, z'
loop_
 _atom_type_symbol
 _atom_type_oxidation_number
  Ca2+  2.0
  Al0+  0.0
  Si0+  0.0
  O2-  -2.0
loop_
 _atom_site_type_symbol
 _atom_site_label
 _atom_site_symmetry_multiplicity
 _atom_site_fract_x
 _atom_site_fract_y
 _atom_site_fract_z
 _atom_site_occupancy
  Ca2+  Ca0  1  0.17313892  0.09125003  0.16557061  1
  Ca2+  Ca1  1  0.16414510  0.07458234  0.51075045  1
  Ca2+  Ca2  1  0.16722635  0.08267397  0.84015772  1
  Ca2+  Ca3  1  0.17558986  0.59193800  0.16793574  1
  Ca2+  Ca4  1  0.17183070  0.58714545  0.50426400  1
  Ca2+  Ca5  1  0.16944056  0.58556502  0.84027971  1
  Ca2+  Ca6  1  0.66967270  0.08192281  0.17871125  1
  Ca2+  Ca7  1  0.66695815  0.08534295  0.49787442  1
  Ca2+  Ca8  1  0.66201063  0.08661926  0.83624000  1
  Ca2+  Ca9  1  0.67388434  0.57222271  0.17972219  1
  Ca2+  Ca10  1  0.67638906  0.57653802  0.50916660  1
  Ca2+  Ca11  1  0.66480029  0.57922620  0.83109949  1
  Ca2+  Ca12  1  0.07487804  0.33120677  0.16439149  1
  Ca2+  Ca13  1  0.07678805  0.32681442  0.49648335  1
  Ca2+  Ca14  1  0.09063911  0.31985215  0.82938668  1
  Ca2+  Ca15  1  0.06810094  0.82843582  0.16045637  1
  Ca2+  Ca16  1  0.07960330  0.82932062  0.49681636  1
  Ca2+  Ca17  1  0.08229647  0.82535406  0.82946227  1
  Ca2+  Ca18  1  0.58660428  0.32294751  0.16242736  1
  Ca2+  Ca19  1  0.59231911  0.32908208  0.49873970  1
  Ca2+  Ca20  1  0.57324249  0.32780932  0.82579974  1
  Ca2+  Ca21  1  0.58043173  0.83697526  0.16902625  1
  Ca2+  Ca22  1  0.58254604  0.82854436  0.49192971  1
  Ca2+  Ca23  1  0.57963321  0.82510068  0.82652321  1
  Ca2+  Ca24  1  0.33668207  0.42572343  0.16757699  1
  Ca2+  Ca25  1  0.33797529  0.42083001  0.50269301  1
  Ca2+  Ca26  1  0.33910354  0.41783310  0.84075859  1
  Ca2+  Ca27  1  0.33434954  0.92207293  0.17191901  1
  Ca2+  Ca28  1  0.32856179  0.91520263  0.50502743  1
  Ca2+  Ca29  1  0.32462061  0.92351688  0.83896882  1
  Ca2+  Ca30  1  0.82944930  0.41939551  0.18141031  1
  Ca2+  Ca31  1  0.82595277  0.42017603  0.50318529  1
  Ca2+  Ca32  1  0.82876238  0.41985953  0.83143401  1
  Ca2+  Ca33  1  0.83042045  0.91923374  0.17680682  1
  Ca2+  Ca34  1  0.83319914  0.91852398  0.49713827  1
  Ca2+  Ca35  1  0.83277668  0.91563093  0.83679955  1
  Ca2+  Ca36  1  0.42957234  0.16961250  0.15601477  1
  Ca2+  Ca37  1  0.42861657  0.17365463  0.49616258  1
  Ca2+  Ca38  1  0.42095034  0.17456450  0.82826556  1
  Ca2+  Ca39  1  0.41049279  0.66873581  0.16695144  1
  Ca2+  Ca40  1  0.42184378  0.67008770  0.49450699  1
  Ca2+  Ca41  1  0.42099857  0.66277449  0.82748618  1
  Ca2+  Ca42  1  0.91579105  0.17011685  0.16577253  1
  Ca2+  Ca43  1  0.91738918  0.16918970  0.49296380  1
  Ca2+  Ca44  1  0.92865203  0.16592652  0.82988509  1
  Ca2+  Ca45  1  0.91228433  0.67644108  0.16095293  1
  Ca2+  Ca46  1  0.91865218  0.66274238  0.49413828  1
  Ca2+  Ca47  1  0.92447002  0.66900109  0.82722237  1
  Al0+  Al48  1  -0.00276097  -0.00010573  -0.00607867  1
  Al0+  Al49  1  0.00205647  -0.00292170  0.33162297  1
  Al0+  Al50  1  0.00000842  -0.00181722  0.66899322  1
  Al0+  Al51  1  -0.00099358  0.50132374  -0.00201199  1
  Al0+  Al52  1  0.00390507  0.49702628  0.33147420  1
  Al0+  Al53  1  0.00227695  0.50082197  0.66810480  1
  Al0+  Al54  1  0.49897663  -0.00149812  -0.00051155  1
  Al0+  Al55  1  0.49945588  -0.00014759  0.32982033  1
  Al0+  Al56  1  0.49924848  0.00228321  0.66542697  1
  Al0+  Al57  1  0.50027252  0.49979600  0.00427033  1
  Al0+  Al58  1  0.49873072  0.49974492  0.34167622  1
  Al0+  Al59  1  0.50118850  0.50149629  0.66225954  1
  Al0+  Al60  1  0.24932982  0.25128733  0.00026473  1
  Al0+  Al61  1  0.25221793  0.25053040  0.33391683  1
  Al0+  Al62  1  0.25089260  0.25044791  0.65625139  1
  Al0+  Al63  1  0.24830016  0.75105573  0.00201657  1
  Al0+  Al64  1  0.25142934  0.75067203  0.33331485  1
  Al0+  Al65  1  0.24699266  0.75118496  0.66902126  1
  Al0+  Al66  1  0.74992147  0.24881461  -0.00416961  1
  Al0+  Al67  1  0.75247958  0.24895762  0.33215528  1
  Al0+  Al68  1  0.75000389  0.25028130  0.67111020  1
  Al0+  Al69  1  0.74831455  0.75064679  -0.00353565  1
  Al0+  Al70  1  0.75006255  0.74967113  0.33557850  1
  Al0+  Al71  1  0.75036700  0.75146276  0.66780466  1
  Al0+  Al72  1  0.07136934  0.67937533  0.98496297  1
  Al0+  Al73  1  0.57175874  0.68082416  0.65290429  1
  Al0+  Al74  1  0.06977770  0.18158602  0.98807148  1
  Al0+  Al75  1  0.43059142  0.32239472  0.98754322  1
  Al0+  Al76  1  0.32007004  0.07163602  0.01361696  1
  Al0+  Al77  1  0.57318104  0.17804664  0.64933369  1
  Al0+  Al78  1  0.42875535  0.81995281  0.31964808  1
  Al0+  Al79  1  0.67685342  0.92943068  0.34863313  1
  Al0+  Al80  1  0.92595518  0.82090532  0.98261654  1
  Al0+  Al81  1  0.82411763  0.57197820  0.34656623  1
  Al0+  Al82  1  0.92821318  0.81916664  0.32078184  1
  Al0+  Al83  1  0.82331631  0.57293593  0.68432347  1
  Al0+  Al84  1  0.32098682  0.57129343  0.01321897  1
  Al0+  Al85  1  0.07046618  0.17687386  0.65257058  1
  Al0+  Al86  1  0.82349423  0.06979136  0.34751917  1
  Al0+  Al87  1  0.07097788  0.67862184  0.65158138  1
  Al0+  Al88  1  0.67822441  0.42879567  0.68531743  1
  Al0+  Al89  1  0.93085634  0.31952338  0.32150989  1
  Al0+  Al90  1  0.57006000  0.18154011  0.31892711  1
  Al0+  Al91  1  0.57184164  0.17627979  0.98412907  1
  Al0+  Al92  1  0.17827939  0.92904708  0.68206687  1
  Al0+  Al93  1  0.42926943  0.32273367  0.64896098  1
  Al0+  Al94  1  0.67953100  0.42698086  0.34816949  1
  Al0+  Al95  1  0.31851421  0.57159471  0.34941407  1
  Si0+  Si96  1  0.92603060  0.32410789  0.98194969  1
  Si0+  Si97  1  0.82073520  0.57170823  0.01451757  1
  Si0+  Si98  1  0.92931788  0.32128982  0.65210787  1
  Si0+  Si99  1  0.42598127  0.32414265  0.31433654  1
  Si0+  Si100  1  0.17991358  0.42736340  0.68088443  1
  Si0+  Si101  1  0.42764053  0.82145252  0.98521622  1
  Si0+  Si102  1  0.17616596  0.92916319  0.01892940  1
  Si0+  Si103  1  0.42712836  0.82183290  0.65284593  1
  Si0+  Si104  1  0.31965424  0.57084182  0.68084861  1
  Si0+  Si105  1  0.82121255  0.07066087  0.68320988  1
  Si0+  Si106  1  0.57136302  0.67683010  0.31712979  1
  Si0+  Si107  1  0.68050802  0.42910630  0.01516827  1
  Si0+  Si108  1  0.67704750  0.92966885  0.68215347  1
  Si0+  Si109  1  0.07313336  0.67735192  0.31711517  1
  Si0+  Si110  1  0.18098087  0.93029304  0.34698099  1
  Si0+  Si111  1  0.67830362  0.92747035  0.01391734  1
  Si0+  Si112  1  0.07419278  0.17544719  0.31696255  1
  Si0+  Si113  1  0.17544984  0.42723389  0.01694927  1
  Si0+  Si114  1  0.56955620  0.67925413  0.98760500  1
  Si0+  Si115  1  0.82067655  0.07053662  0.01363194  1
  Si0+  Si116  1  0.17876970  0.42513016  0.35189258  1
  Si0+  Si117  1  0.32205027  0.07227313  0.34835909  1
  Si0+  Si118  1  0.92764356  0.82167305  0.64852072  1
  Si0+  Si119  1  0.32107907  0.07325219  0.68220930  1
  O2-  O120  1  0.24444791  -0.00160201  0.06328362  1
  O2-  O121  1  0.24855601  0.00397217  0.39060714  1
  O2-  O122  1  0.25172689  0.00563255  0.72751521  1
  O2-  O123  1  0.24330053  0.49841438  0.05914654  1
  O2-  O124  1  0.24607751  0.49509420  0.39644072  1
  O2-  O125  1  0.25174385  0.49740950  0.72368864  1
  O2-  O126  1  0.74716550  0.00134504  0.05453586  1
  O2-  O127  1  0.75042330  -0.00041878  0.39915718  1
  O2-  O128  1  0.74678053  0.00205947  0.72478944  1
  O2-  O129  1  0.75462976  0.49685067  0.05765661  1
  O2-  O130  1  0.75002285  0.50199349  0.39602603  1
  O2-  O131  1  0.74998808  0.50203940  0.73512859  1
  O2-  O132  1  0.00482853  0.24393933  0.27416337  1
  O2-  O133  1  -0.00472763  0.25046054  0.60673614  1
  O2-  O134  1  -0.00220549  0.25783590  0.93910153  1
  O2-  O135  1  -0.00264885  0.73881463  0.27430675  1
  O2-  O136  1  -0.00709081  0.74943898  0.60499066  1
  O2-  O137  1  -0.00141276  0.74947059  0.93360666  1
  O2-  O138  1  0.49689650  0.25749653  0.27140388  1
  O2-  O139  1  0.50396969  0.25288565  0.60010425  1
  O2-  O140  1  0.49915567  0.24823900  0.93626799  1
  O2-  O141  1  0.50371829  0.74598526  0.27114822  1
  O2-  O142  1  0.49793865  0.75677348  0.60738288  1
  O2-  O143  1  0.49632462  0.74793952  0.94419358  1
  O2-  O144  1  0.06750869  0.18256457  0.10122551  1
  O2-  O145  1  0.07476865  0.17509029  0.42256573  1
  O2-  O146  1  0.07055587  0.17830918  0.76589997  1
  O2-  O147  1  0.07058610  0.68199458  0.09871358  1
  O2-  O148  1  0.07593687  0.68108188  0.42281858  1
  O2-  O149  1  0.07376141  0.68088165  0.76433750  1
  O2-  O150  1  0.57426751  0.17701900  0.09774337  1
  O2-  O151  1  0.56796078  0.18089871  0.43157354  1
  O2-  O152  1  0.56848802  0.17579118  0.76287662  1
  O2-  O153  1  0.57170552  0.68094251  0.09240826  1
  O2-  O154  1  0.56928747  0.67924971  0.42253360  1
  O2-  O155  1  0.56768067  0.68204786  0.76707688  1
  O2-  O156  1  0.17890148  0.42298026  0.24637234  1
  O2-  O157  1  0.17882447  0.42856649  0.57587809  1
  O2-  O158  1  0.17619654  0.42559704  0.91118294  1
  O2-  O159  1  0.18186758  0.93036097  0.24203720  1
  O2-  O160  1  0.18009786  0.92878860  0.56834074  1
  O2-  O161  1  0.17887170  0.92900629  0.91321722  1
  O2-  O162  1  0.68135430  0.42805914  0.23336469  1
  O2-  O163  1  0.68209558  0.42890521  0.57219824  1
  O2-  O164  1  0.67922366  0.43157086  0.91046952  1
  O2-  O165  1  0.67718864  0.93171741  0.23432937  1
  O2-  O166  1  0.67681492  0.92816021  0.57768110  1
  O2-  O167  1  0.67856685  0.92531561  0.90853028  1
  O2-  O168  1  0.43526253  0.32382604  0.10100780  1
  O2-  O169  1  0.42157058  0.32028682  0.41948740  1
  O2-  O170  1  0.42691488  0.32115267  0.76280962  1
  O2-  O171  1  0.42925111  0.82284384  0.09020345  1
  O2-  O172  1  0.42625469  0.81809111  0.43279549  1
  O2-  O173  1  0.42808917  0.82006789  0.75902415  1
  O2-  O174  1  0.92445906  0.32291562  0.08760238  1
  O2-  O175  1  0.93381113  0.31856744  0.43451557  1
  O2-  O176  1  0.93202915  0.31910930  0.75812291  1
  O2-  O177  1  0.92403792  0.81986854  0.09634425  1
  O2-  O178  1  0.93430793  0.82335388  0.43342256  1
  O2-  O179  1  0.92909622  0.82241324  0.75419240  1
  O2-  O180  1  0.32067579  0.07178219  0.24310393  1
  O2-  O181  1  0.32066664  0.06974025  0.57631176  1
  O2-  O182  1  0.31882102  0.06810647  0.90054776  1
  O2-  O183  1  0.31612296  0.57226288  0.23603516  1
  O2-  O184  1  0.31623020  0.57298218  0.57587881  1
  O2-  O185  1  0.32288708  0.57066579  0.89992732  1
  O2-  O186  1  0.82337964  0.06866530  0.23336589  1
  O2-  O187  1  0.82426762  0.06926789  0.57850113  1
  O2-  O188  1  0.82132436  0.06982151  0.90832773  1
  O2-  O189  1  0.82123703  0.57076176  0.23191903  1
  O2-  O190  1  0.82376223  0.57105009  0.57103130  1
  O2-  O191  1  0.81881883  0.57193648  0.90982347  1
  O2-  O192  1  0.05076470  0.08221590  0.26992022  1
  O2-  O193  1  0.03913818  0.07989864  0.60026764  1
  O2-  O194  1  0.03800543  0.08614470  0.93253710  1
  O2-  O195  1  0.05895449  0.58070841  0.27392888  1
  O2-  O196  1  0.04621336  0.58007257  0.59861478  1
  O2-  O197  1  0.04680057  0.57943927  0.93306489  1
  O2-  O198  1  0.53731769  0.08542150  0.26488468  1
  O2-  O199  1  0.54316271  0.07950723  0.59673086  1
  O2-  O200  1  0.54377724  0.07707328  0.93258255  1
  O2-  O201  1  0.54352160  0.58275044  0.27294510  1
  O2-  O202  1  0.54086456  0.58630872  0.59742638  1
  O2-  O203  1  0.54225463  0.58749635  0.94060072  1
  O2-  O204  1  0.16784451  0.20405572  0.27171248  1
  O2-  O205  1  0.16521904  0.20667074  0.59570024  1
  O2-  O206  1  0.16620541  0.21057878  0.93292890  1
  O2-  O207  1  0.16304911  0.71275445  0.26976051  1
  O2-  O208  1  0.16641535  0.71427256  0.59759603  1
  O2-  O209  1  0.17000520  0.70941881  0.93246750  1
  O2-  O210  1  0.66775210  0.20921808  0.26548786  1
  O2-  O211  1  0.67428202  0.20356772  0.60114146  1
  O2-  O212  1  0.67021110  0.20428920  0.93099400  1
  O2-  O213  1  0.66530373  0.70099273  0.27116816  1
  O2-  O214  1  0.66837308  0.71182934  0.60027004  1
  O2-  O215  1  0.65867174  0.70977391  0.93665757  1
  O2-  O216  1  0.08053507  0.45135247  0.06239042  1
  O2-  O217  1  0.08523374  0.44905767  0.39834923  1
  O2-  O218  1  0.08940949  0.45433728  0.73075419  1
  O2-  O219  1  0.08084247  0.95512061  0.06100170  1
  O2-  O220  1  0.08939076  0.95539269  0.39582075  1
  O2-  O221  1  0.08190243  0.95850946  0.73701909  1
  O2-  O222  1  0.59093598  0.45997249  0.06471214  1
  O2-  O223  1  0.58029261  0.45036131  0.40061158  1
  O2-  O224  1  0.57926216  0.46165185  0.73581323  1
  O2-  O225  1  0.58525721  0.95121742  0.06061769  1
  O2-  O226  1  0.57792833  0.95777824  0.40049629  1
  O2-  O227  1  0.58418788  0.95527271  0.73021729  1
  O2-  O228  1  0.20155927  0.33522821  0.06570686  1
  O2-  O229  1  0.20517908  0.33177078  0.39925411  1
  O2-  O230  1  0.20798244  0.33409585  0.72592034  1
  O2-  O231  1  0.20331657  0.83650609  0.06574022  1
  O2-  O232  1  0.21232834  0.84017993  0.39555724  1
  O2-  O233  1  0.21197274  0.83427237  0.73854655  1
  O2-  O234  1  0.70711804  0.33524414  0.05958394  1
  O2-  O235  1  0.71293352  0.33070557  0.40062828  1
  O2-  O236  1  0.70743950  0.33050668  0.73964128  1
  O2-  O237  1  0.70754298  0.83632527  0.06249268  1
  O2-  O238  1  0.70312233  0.83030436  0.40027419  1
  O2-  O239  1  0.70604494  0.83913838  0.73218371  1
  O2-  O240  1  0.44855658  0.42057299  0.27357645  1
  O2-  O241  1  0.45425647  0.42204952  0.59728754  1
  O2-  O242  1  0.46142472  0.42039494  0.93418301  1
  O2-  O243  1  0.45825027  0.91586105  0.26337707  1
  O2-  O244  1  0.44861520  0.91667179  0.60833475  1
  O2-  O245  1  0.45779711  0.91080338  0.93481205  1
  O2-  O246  1  0.96348754  0.41461093  0.26340188  1
  O2-  O247  1  0.95803743  0.41375723  0.60682675  1
  O2-  O248  1  0.94754728  0.41875231  0.93711728  1
  O2-  O249  1  0.96481164  0.91338686  0.26405641  1
  O2-  O250  1  0.95791828  0.91391514  0.60303705  1
  O2-  O251  1  0.95308936  0.91894320  0.92894608  1
  O2-  O252  1  0.33268271  0.29705102  0.26747399  1
  O2-  O253  1  0.33253955  0.29395107  0.59227572  1
  O2-  O254  1  0.33028857  0.29868925  0.93706036  1
  O2-  O255  1  0.33338666  0.78754749  0.26325543  1
  O2-  O256  1  0.33460603  0.79326075  0.60705532  1
  O2-  O257  1  0.33474480  0.79670532  0.93934332  1
  O2-  O258  1  0.83629533  0.28908884  0.26377164  1
  O2-  O259  1  0.83508605  0.29652713  0.60867758  1
  O2-  O260  1  0.83490470  0.29430747  0.93352956  1
  O2-  O261  1  0.82987116  0.79424812  0.26655226  1
  O2-  O262  1  0.83223331  0.80206897  0.60488196  1
  O2-  O263  1  0.82780823  0.79203241  0.92868395  1
  O2-  O264  1  0.41638965  0.03759077  0.06747880  1
  O2-  O265  1  0.41178326  0.04030270  0.39584077  1
  O2-  O266  1  0.41432723  0.04705233  0.72918407  1
  O2-  O267  1  0.41662380  0.54033467  0.07031073  1
  O2-  O268  1  0.41521552  0.54466590  0.40459258  1
  O2-  O269  1  0.41306705  0.54638329  0.72610471  1
  O2-  O270  1  0.91201568  0.04178880  0.06126475  1
  O2-  O271  1  0.92252255  0.04041118  0.39973403  1
  O2-  O272  1  0.91105053  0.03836096  0.73274245  1
  O2-  O273  1  0.91463257  0.54990101  0.06057568  1
  O2-  O274  1  0.92387297  0.54304054  0.39603359  1
  O2-  O275  1  0.92203305  0.54229260  0.73708210  1
  O2-  O276  1  0.28936458  0.16805759  0.06858948  1
  O2-  O277  1  0.29776674  0.16502531  0.39546116  1
  O2-  O278  1  0.29433398  0.16782421  0.72480490  1
  O2-  O279  1  0.29089471  0.66865191  0.06786364  1
  O2-  O280  1  0.28601848  0.66790731  0.40337812  1
  O2-  O281  1  0.29023932  0.66178584  0.72932893  1
  O2-  O282  1  0.79567913  0.16400444  0.06000528  1
  O2-  O283  1  0.79621022  0.16786248  0.40004975  1
  O2-  O284  1  0.79778142  0.16264497  0.73235781  1
  O2-  O285  1  0.78768358  0.66297985  0.06047688  1
  O2-  O286  1  0.79910282  0.67047139  0.39962279  1
  O2-  O287  1  0.79452053  0.67247123  0.73596117  1
