# generated using pymatgen
data_Ca2Al2SiO7
_symmetry_space_group_name_H-M   'P 1'
_cell_length_a   15.46332450
_cell_length_b   15.46161241
_cell_length_c   15.28736862
_cell_angle_alpha   90.00441916
_cell_angle_beta   90.00782787
_cell_angle_gamma   89.99827036
_symmetry_Int_Tables_number   1
_chemical_formula_structural   Ca2Al2SiO7
_chemical_formula_sum   'Ca48 Al48 Si24 O168'
_cell_volume   3655.02527231
_cell_formula_units_Z   24
loop_
 _symmetry_equiv_pos_site_id
 _symmetry_equiv_pos_as_xyz
  1  'x, y, z'
loop_
 _atom_type_symbol
 _atom_type_oxidation_number
  Ca2+  2.0
  Al0+  0.0
  Si0+  0.0
  O2-  -2.0
loop_
 _atom_site_type_symbol
 _atom_site_label
 _atom_site_symmetry_multiplicity
 _atom_site_fract_x
 _atom_site_fract_y
 _atom_site_fract_z
 _atom_site_occupancy
  Ca2+  Ca0  1  0.17116179  0.07755066  0.17056526  1
  Ca2+  Ca1  1  0.17658596  0.08386799  0.49815498  1
  Ca2+  Ca2  1  0.16717843  0.07812783  0.84460674  1
  Ca2+  Ca3  1  0.16901502  0.57455667  0.17927002  1
  Ca2+  Ca4  1  0.17586493  0.58548637  0.49761881  1
  Ca2+  Ca5  1  0.17523739  0.57820932  0.83839457  1
  Ca2+  Ca6  1  0.67069601  0.08586566  0.17267689  1
  Ca2+  Ca7  1  0.65708097  0.07726816  0.50548142  1
  Ca2+  Ca8  1  0.66779461  0.07856297  0.83598420  1
  Ca2+  Ca9  1  0.66317010  0.57925113  0.17397307  1
  Ca2+  Ca10  1  0.65426849  0.57170984  0.49900992  1
  Ca2+  Ca11  1  0.66148070  0.57212576  0.83849701  1
  Ca2+  Ca12  1  0.08887263  0.33121331  0.15920505  1
  Ca2+  Ca13  1  0.08291789  0.33701408  0.49232172  1
  Ca2+  Ca14  1  0.08715982  0.32918757  0.83498598  1
  Ca2+  Ca15  1  0.08394876  0.82864634  0.16682249  1
  Ca2+  Ca16  1  0.06992143  0.82605800  0.49146754  1
  Ca2+  Ca17  1  0.07844546  0.83640479  0.82865569  1
  Ca2+  Ca18  1  0.58077360  0.33843970  0.16686074  1
  Ca2+  Ca19  1  0.57865007  0.33044725  0.49322826  1
  Ca2+  Ca20  1  0.58331318  0.33103185  0.82344877  1
  Ca2+  Ca21  1  0.57053021  0.82024295  0.16376968  1
  Ca2+  Ca22  1  0.58227009  0.82560062  0.48797709  1
  Ca2+  Ca23  1  0.58306477  0.82916891  0.83147835  1
  Ca2+  Ca24  1  0.32404067  0.41875636  0.17783980  1
  Ca2+  Ca25  1  0.34307309  0.42687702  0.49961034  1
  Ca2+  Ca26  1  0.33726790  0.42240019  0.83539620  1
  Ca2+  Ca27  1  0.33549893  0.91539049  0.17280849  1
  Ca2+  Ca28  1  0.34530825  0.92449886  0.49892850  1
  Ca2+  Ca29  1  0.32789437  0.91794388  0.84344012  1
  Ca2+  Ca30  1  0.82001009  0.42310028  0.17586428  1
  Ca2+  Ca31  1  0.82156470  0.42463694  0.49870499  1
  Ca2+  Ca32  1  0.81933342  0.41277535  0.83861108  1
  Ca2+  Ca33  1  0.83742558  0.92287159  0.17062529  1
  Ca2+  Ca34  1  0.82873267  0.91141147  0.50543199  1
  Ca2+  Ca35  1  0.82891258  0.91858554  0.83537885  1
  Ca2+  Ca36  1  0.41789993  0.16948480  0.17120853  1
  Ca2+  Ca37  1  0.42584642  0.17630741  0.49109990  1
  Ca2+  Ca38  1  0.42374410  0.17783908  0.82274859  1
  Ca2+  Ca39  1  0.42245235  0.66462131  0.16406619  1
  Ca2+  Ca40  1  0.41680217  0.66940869  0.48960665  1
  Ca2+  Ca41  1  0.41781917  0.66864702  0.83387392  1
  Ca2+  Ca42  1  0.92243078  0.16743802  0.15789013  1
  Ca2+  Ca43  1  0.91892777  0.16999915  0.49602308  1
  Ca2+  Ca44  1  0.92125284  0.15981809  0.83614417  1
  Ca2+  Ca45  1  0.91765658  0.66496695  0.17023413  1
  Ca2+  Ca46  1  0.91584891  0.67372130  0.48764496  1
  Ca2+  Ca47  1  0.92008910  0.67283294  0.82592624  1
  Al0+  Al48  1  0.00172732  0.00057763  0.00386003  1
  Al0+  Al49  1  -0.00011722  0.00107625  0.33262322  1
  Al0+  Al50  1  0.00035813  -0.00074010  0.66067224  1
  Al0+  Al51  1  -0.00130445  0.49954970  -0.00108042  1
  Al0+  Al52  1  -0.00297486  0.50041855  0.33757348  1
  Al0+  Al53  1  0.00262048  0.49911971  0.66714917  1
  Al0+  Al54  1  0.50025615  0.00066059  -0.00400214  1
  Al0+  Al55  1  0.50118873  0.00139453  0.32897531  1
  Al0+  Al56  1  0.50031087  0.00030073  0.67249744  1
  Al0+  Al57  1  0.50024698  0.50022831  -0.00050223  1
  Al0+  Al58  1  0.49717955  0.49801476  0.33260615  1
  Al0+  Al59  1  0.49883612  0.50138947  0.67402828  1
  Al0+  Al60  1  0.25059277  0.24921787  -0.00309779  1
  Al0+  Al61  1  0.25042356  0.24665359  0.33830570  1
  Al0+  Al62  1  0.25034604  0.25057587  0.66294408  1
  Al0+  Al63  1  0.24924278  0.75093742  -0.00025423  1
  Al0+  Al64  1  0.24465498  0.75056696  0.33155237  1
  Al0+  Al65  1  0.25010375  0.74928820  0.67114818  1
  Al0+  Al66  1  0.75065598  0.25035918  0.00758689  1
  Al0+  Al67  1  0.75207440  0.24958818  0.33467149  1
  Al0+  Al68  1  0.75388158  0.24796702  0.66695252  1
  Al0+  Al69  1  0.74964907  0.74975212  -0.00507673  1
  Al0+  Al70  1  0.74987686  0.75307658  0.32527343  1
  Al0+  Al71  1  0.74993839  0.75058711  0.66821426  1
  Al0+  Al72  1  0.42687317  0.82258600  0.32127692  1
  Al0+  Al73  1  0.57337613  0.17967388  0.31676497  1
  Al0+  Al74  1  0.17758644  0.42690695  0.34885561  1
  Al0+  Al75  1  0.57126081  0.67776693  0.98152978  1
  Al0+  Al76  1  0.81938729  0.06812842  0.01348114  1
  Al0+  Al77  1  0.32011315  0.57154613  0.68292842  1
  Al0+  Al78  1  0.32229171  0.06782158  0.34711781  1
  Al0+  Al79  1  0.42772619  0.32035046  0.31713760  1
  Al0+  Al80  1  0.56954760  0.67683375  0.31996086  1
  Al0+  Al81  1  0.92744165  0.82313706  0.31528398  1
  Al0+  Al82  1  0.67858073  0.43004979  0.01460335  1
  Al0+  Al83  1  0.31997637  0.57259348  0.34666161  1
  Al0+  Al84  1  0.68131600  0.42911829  0.68030587  1
  Al0+  Al85  1  0.06881541  0.67723928  0.31798436  1
  Al0+  Al86  1  0.07096397  0.17972639  0.98717848  1
  Al0+  Al87  1  0.17947731  0.42854373  0.01156266  1
  Al0+  Al88  1  0.42765316  0.82177117  0.98299547  1
  Al0+  Al89  1  0.42979156  0.32352115  0.65093132  1
  Al0+  Al90  1  0.57315324  0.17778969  0.65321392  1
  Al0+  Al91  1  0.81855613  0.57444896  0.34729085  1
  Al0+  Al92  1  0.67837164  0.92800693  0.68027855  1
  Al0+  Al93  1  0.67701588  0.42847786  0.34926769  1
  Al0+  Al94  1  0.17983841  0.92854792  0.01432863  1
  Al0+  Al95  1  0.92885940  0.81934934  0.65353655  1
  Si0+  Si96  1  0.07362544  0.67748199  0.65099332  1
  Si0+  Si97  1  0.67627090  0.92627657  0.01811922  1
  Si0+  Si98  1  0.93089615  0.82229932  0.98403581  1
  Si0+  Si99  1  0.07057009  0.67682728  0.98367563  1
  Si0+  Si100  1  0.57472246  0.17986839  0.98471966  1
  Si0+  Si101  1  0.92942450  0.32082430  0.31873562  1
  Si0+  Si102  1  0.32365340  0.07252627  0.01529125  1
  Si0+  Si103  1  0.82451673  0.57195535  0.68326885  1
  Si0+  Si104  1  0.17517491  0.92852638  0.35229063  1
  Si0+  Si105  1  0.17919632  0.93161306  0.68003444  1
  Si0+  Si106  1  0.82373634  0.07171627  0.34999732  1
  Si0+  Si107  1  0.68071904  0.93228899  0.34521359  1
  Si0+  Si108  1  0.56980855  0.68058476  0.65328547  1
  Si0+  Si109  1  0.92982745  0.32184403  0.65168006  1
  Si0+  Si110  1  0.42693848  0.82114877  0.65374700  1
  Si0+  Si111  1  0.17622712  0.42583002  0.68530364  1
  Si0+  Si112  1  0.32033488  0.57142255  0.01721434  1
  Si0+  Si113  1  0.82567779  0.07079690  0.68302651  1
  Si0+  Si114  1  0.82286002  0.57445171  0.01459337  1
  Si0+  Si115  1  0.42939970  0.31937219  0.98500415  1
  Si0+  Si116  1  0.92703554  0.32172647  0.98335258  1
  Si0+  Si117  1  0.07120774  0.17951711  0.31856065  1
  Si0+  Si118  1  0.07137488  0.17815029  0.65041772  1
  Si0+  Si119  1  0.32063199  0.07227322  0.68306486  1
  O2-  O120  1  0.25930078  -0.00073490  0.05844539  1
  O2-  O121  1  0.25043675  -0.00955785  0.39625138  1
  O2-  O122  1  0.24945939  0.00159178  0.72535953  1
  O2-  O123  1  0.25037474  0.50415646  0.06029198  1
  O2-  O124  1  0.25037685  0.49825953  0.39829178  1
  O2-  O125  1  0.24641388  0.49384724  0.72759550  1
  O2-  O126  1  0.74449149  -0.00468289  0.06257987  1
  O2-  O127  1  0.75202985  0.00173820  0.39092421  1
  O2-  O128  1  0.75323268  0.00469807  0.72485844  1
  O2-  O129  1  0.75166166  0.50794851  0.05712587  1
  O2-  O130  1  0.74338673  0.50662554  0.39862522  1
  O2-  O131  1  0.75733902  0.50251554  0.72853766  1
  O2-  O132  1  0.00423886  0.25386653  0.27657874  1
  O2-  O133  1  0.00307328  0.25229505  0.60969325  1
  O2-  O134  1  -0.00260415  0.25468044  0.93808933  1
  O2-  O135  1  -0.00172081  0.74997238  0.26596990  1
  O2-  O136  1  -0.00023648  0.74101396  0.60820064  1
  O2-  O137  1  -0.00039870  0.74865045  0.94138187  1
  O2-  O138  1  0.50362753  0.25300553  0.26564257  1
  O2-  O139  1  0.50382556  0.25204025  0.60346013  1
  O2-  O140  1  0.50306931  0.25043579  0.94310787  1
  O2-  O141  1  0.49153367  0.74400338  0.27182205  1
  O2-  O142  1  0.50048290  0.75344809  0.61161978  1
  O2-  O143  1  0.50067174  0.75169084  0.93123017  1
  O2-  O144  1  0.07007822  0.18060728  0.09996490  1
  O2-  O145  1  0.06770122  0.17718809  0.42427001  1
  O2-  O146  1  0.07059125  0.17508638  0.75553384  1
  O2-  O147  1  0.06940075  0.67491805  0.08787588  1
  O2-  O148  1  0.06774635  0.68013345  0.43206026  1
  O2-  O149  1  0.07345623  0.67981467  0.75727841  1
  O2-  O150  1  0.57519027  0.17930484  0.08922669  1
  O2-  O151  1  0.57194520  0.17721038  0.43027472  1
  O2-  O152  1  0.57081369  0.17835839  0.76764794  1
  O2-  O153  1  0.56952835  0.67677949  0.09449675  1
  O2-  O154  1  0.57091309  0.68087380  0.43435449  1
  O2-  O155  1  0.56927483  0.68139876  0.75832699  1
  O2-  O156  1  0.17815945  0.42623909  0.23483902  1
  O2-  O157  1  0.17134408  0.42596601  0.58065178  1
  O2-  O158  1  0.18201116  0.42959773  0.89818926  1
  O2-  O159  1  0.17112046  0.93395609  0.24690679  1
  O2-  O160  1  0.17930428  0.93369435  0.57550421  1
  O2-  O161  1  0.17743789  0.93217254  0.90014997  1
  O2-  O162  1  0.68142917  0.42670490  0.23583762  1
  O2-  O163  1  0.68122779  0.42998122  0.56809710  1
  O2-  O164  1  0.68050500  0.42747964  0.90087383  1
  O2-  O165  1  0.68255398  0.93580404  0.24035573  1
  O2-  O166  1  0.67832779  0.92679901  0.56714395  1
  O2-  O167  1  0.67861988  0.92819546  0.91198087  1
  O2-  O168  1  0.42661574  0.31758289  0.08939178  1
  O2-  O169  1  0.42838664  0.31872064  0.43052984  1
  O2-  O170  1  0.42968680  0.32061394  0.76563785  1
  O2-  O171  1  0.42787228  0.82038458  0.09592235  1
  O2-  O172  1  0.43422656  0.82500168  0.43566642  1
  O2-  O173  1  0.42494180  0.81979578  0.75863331  1
  O2-  O174  1  0.92752589  0.32051335  0.08863510  1
  O2-  O175  1  0.92900995  0.31659738  0.42442590  1
  O2-  O176  1  0.92960403  0.32117368  0.75680388  1
  O2-  O177  1  0.93202670  0.82318573  0.08837294  1
  O2-  O178  1  0.92917850  0.82531983  0.42922950  1
  O2-  O179  1  0.93291140  0.82123011  0.76726667  1
  O2-  O180  1  0.31870461  0.06830198  0.23402425  1
  O2-  O181  1  0.32045867  0.07088289  0.57824823  1
  O2-  O182  1  0.32017776  0.07382076  0.90908295  1
  O2-  O183  1  0.31769818  0.57078609  0.23303925  1
  O2-  O184  1  0.31880884  0.57687721  0.57079360  1
  O2-  O185  1  0.31913933  0.56993941  0.91099294  1
  O2-  O186  1  0.82623901  0.07162101  0.24492725  1
  O2-  O187  1  0.83078314  0.06986044  0.57776269  1
  O2-  O188  1  0.81938089  0.06608543  0.90001113  1
  O2-  O189  1  0.81946577  0.56908590  0.23348612  1
  O2-  O190  1  0.82520214  0.57142626  0.57845374  1
  O2-  O191  1  0.82559209  0.57276999  0.90857608  1
  O2-  O192  1  0.03888004  0.08981437  0.27042325  1
  O2-  O193  1  0.04078248  0.08878664  0.59992229  1
  O2-  O194  1  0.03705926  0.08375179  0.93232852  1
  O2-  O195  1  0.03832615  0.57874264  0.26582769  1
  O2-  O196  1  0.05511237  0.58133687  0.60818701  1
  O2-  O197  1  0.04220853  0.58588969  0.93331885  1
  O2-  O198  1  0.54232456  0.08326583  0.26172013  1
  O2-  O199  1  0.54043823  0.07913399  0.60279266  1
  O2-  O200  1  0.54900066  0.08741099  0.93696689  1
  O2-  O201  1  0.54590008  0.57770749  0.26767565  1
  O2-  O202  1  0.53914426  0.58908065  0.60863081  1
  O2-  O203  1  0.53943081  0.57962730  0.92823618  1
  O2-  O204  1  0.16423718  0.20149921  0.27265972  1
  O2-  O205  1  0.16361080  0.20299065  0.60277569  1
  O2-  O206  1  0.16679283  0.20926012  0.92964396  1
  O2-  O207  1  0.16609010  0.70516623  0.26278036  1
  O2-  O208  1  0.16484021  0.71012972  0.60502366  1
  O2-  O209  1  0.16208201  0.70531212  0.93608592  1
  O2-  O210  1  0.67440188  0.20388702  0.26675598  1
  O2-  O211  1  0.67527691  0.19711850  0.60454061  1
  O2-  O212  1  0.66670870  0.20872143  0.93821699  1
  O2-  O213  1  0.66464678  0.71063454  0.26427042  1
  O2-  O214  1  0.66253019  0.70591688  0.60750287  1
  O2-  O215  1  0.67085909  0.70417193  0.92790653  1
  O2-  O216  1  0.07999769  0.45397315  0.06201956  1
  O2-  O217  1  0.07908372  0.45498840  0.40172147  1
  O2-  O218  1  0.08318933  0.45176290  0.73412839  1
  O2-  O219  1  0.08640217  0.96390976  0.07001745  1
  O2-  O220  1  0.08514508  0.96429788  0.40081895  1
  O2-  O221  1  0.08717469  0.96110348  0.72703746  1
  O2-  O222  1  0.58102445  0.45865684  0.06676416  1
  O2-  O223  1  0.57727806  0.45199740  0.40062452  1
  O2-  O224  1  0.58608606  0.46120644  0.73617079  1
  O2-  O225  1  0.58186555  0.95232975  0.06104464  1
  O2-  O226  1  0.58978588  0.96067785  0.39362888  1
  O2-  O227  1  0.58303381  0.95825605  0.73841741  1
  O2-  O228  1  0.21039344  0.33127383  0.06352132  1
  O2-  O229  1  0.20104872  0.32701968  0.40092592  1
  O2-  O230  1  0.20055247  0.33041424  0.72923057  1
  O2-  O231  1  0.20499025  0.83047785  0.06741295  1
  O2-  O232  1  0.19017614  0.83234115  0.39522744  1
  O2-  O233  1  0.20505009  0.83968519  0.72825426  1
  O2-  O234  1  0.71133581  0.33548319  0.07012094  1
  O2-  O235  1  0.71419443  0.33208924  0.40190314  1
  O2-  O236  1  0.71414355  0.33166038  0.73338237  1
  O2-  O237  1  0.70271594  0.83186210  0.06056246  1
  O2-  O238  1  0.70760661  0.84005748  0.39169988  1
  O2-  O239  1  0.71170011  0.83310830  0.73725239  1
  O2-  O240  1  0.45001823  0.41947210  0.26414202  1
  O2-  O241  1  0.45762775  0.42364727  0.60274523  1
  O2-  O242  1  0.45555071  0.41193438  0.93844110  1
  O2-  O243  1  0.46170945  0.91692231  0.26484852  1
  O2-  O244  1  0.45236646  0.91521729  0.61077070  1
  O2-  O245  1  0.45360369  0.92198359  0.92987297  1
  O2-  O246  1  0.95161345  0.41378774  0.27301381  1
  O2-  O247  1  0.95661827  0.41407916  0.60449904  1
  O2-  O248  1  0.95012818  0.41539808  0.93559036  1
  O2-  O249  1  0.95984264  0.92177391  0.26404887  1
  O2-  O250  1  0.96182404  0.91443544  0.59774444  1
  O2-  O251  1  0.96304544  0.91263139  0.93634892  1
  O2-  O252  1  0.32995272  0.28463760  0.26619153  1
  O2-  O253  1  0.33071481  0.29525811  0.59987341  1
  O2-  O254  1  0.33976313  0.28904435  0.93408530  1
  O2-  O255  1  0.32395295  0.80689914  0.27441155  1
  O2-  O256  1  0.33539464  0.79271762  0.60653192  1
  O2-  O257  1  0.32815321  0.79351636  0.92997925  1
  O2-  O258  1  0.84039595  0.28813609  0.26956707  1
  O2-  O259  1  0.84051642  0.29105475  0.60179216  1
  O2-  O260  1  0.83452260  0.29088382  0.93733754  1
  O2-  O261  1  0.82994736  0.79997943  0.25926278  1
  O2-  O262  1  0.83110745  0.79191599  0.60053938  1
  O2-  O263  1  0.83804158  0.79793485  0.93634730  1
  O2-  O264  1  0.41940167  0.05256308  0.05869335  1
  O2-  O265  1  0.41948166  0.03829038  0.40143998  1
  O2-  O266  1  0.41125813  0.04516312  0.73286054  1
  O2-  O267  1  0.41382529  0.54410941  0.06056416  1
  O2-  O268  1  0.41837821  0.54584337  0.40043211  1
  O2-  O269  1  0.41488114  0.54120372  0.74105281  1
  O2-  O270  1  0.91552178  0.03771596  0.06825906  1
  O2-  O271  1  0.91495863  0.04352855  0.39897162  1
  O2-  O272  1  0.91802490  0.03984338  0.73038439  1
  O2-  O273  1  0.91549478  0.54678798  0.06115206  1
  O2-  O274  1  0.91398991  0.54144563  0.40353225  1
  O2-  O275  1  0.91953522  0.54818171  0.72904414  1
  O2-  O276  1  0.29229367  0.16378165  0.06155926  1
  O2-  O277  1  0.28711365  0.16088072  0.40515065  1
  O2-  O278  1  0.29137475  0.16443430  0.72932750  1
  O2-  O279  1  0.29653046  0.66591148  0.05996151  1
  O2-  O280  1  0.28965914  0.67133796  0.39990648  1
  O2-  O281  1  0.28595869  0.66667523  0.74020757  1
  O2-  O282  1  0.79265079  0.16482710  0.06902482  1
  O2-  O283  1  0.79879014  0.16362235  0.39811197  1
  O2-  O284  1  0.80592460  0.16528262  0.72960744  1
  O2-  O285  1  0.80099595  0.66963421  0.05848939  1
  O2-  O286  1  0.79735441  0.67679807  0.39479267  1
  O2-  O287  1  0.79834293  0.66535153  0.72968760  1
