# generated using pymatgen
data_Ca2Al2SiO7
_symmetry_space_group_name_H-M   'P 1'
_cell_length_a   15.45716297
_cell_length_b   15.45700438
_cell_length_c   15.28340496
_cell_angle_alpha   90.00733883
_cell_angle_beta   89.99857930
_cell_angle_gamma   89.98981670
_symmetry_Int_Tables_number   1
_chemical_formula_structural   Ca2Al2SiO7
_chemical_formula_sum   'Ca48 Al48 Si24 O168'
_cell_volume   3651.53296720
_cell_formula_units_Z   24
loop_
 _symmetry_equiv_pos_site_id
 _symmetry_equiv_pos_as_xyz
  1  'x, y, z'
loop_
 _atom_type_symbol
 _atom_type_oxidation_number
  Ca2+  2.0
  Al0+  0.0
  Si0+  0.0
  O2-  -2.0
loop_
 _atom_site_type_symbol
 _atom_site_label
 _atom_site_symmetry_multiplicity
 _atom_site_fract_x
 _atom_site_fract_y
 _atom_site_fract_z
 _atom_site_occupancy
  Ca2+  Ca0  1  0.16623044  0.07478612  0.17289644  1
  Ca2+  Ca1  1  0.16808207  0.07437426  0.51008857  1
  Ca2+  Ca2  1  0.16473180  0.08037233  0.82938665  1
  Ca2+  Ca3  1  0.16760600  0.58437189  0.17190589  1
  Ca2+  Ca4  1  0.17151851  0.59003382  0.49887767  1
  Ca2+  Ca5  1  0.16337520  0.57676413  0.84267731  1
  Ca2+  Ca6  1  0.67046399  0.08759390  0.16452582  1
  Ca2+  Ca7  1  0.67386837  0.07291578  0.51220940  1
  Ca2+  Ca8  1  0.67761715  0.08142694  0.83910782  1
  Ca2+  Ca9  1  0.67026781  0.58260581  0.16824774  1
  Ca2+  Ca10  1  0.66324755  0.58478136  0.50434955  1
  Ca2+  Ca11  1  0.67219644  0.58018295  0.84076345  1
  Ca2+  Ca12  1  0.07912057  0.33819775  0.16264114  1
  Ca2+  Ca13  1  0.07274974  0.32595928  0.49945699  1
  Ca2+  Ca14  1  0.07802319  0.32903885  0.82466299  1
  Ca2+  Ca15  1  0.08002598  0.82559962  0.16360761  1
  Ca2+  Ca16  1  0.07724399  0.84026133  0.49448987  1
  Ca2+  Ca17  1  0.07416990  0.83232324  0.82946958  1
  Ca2+  Ca18  1  0.57251337  0.33399287  0.15752154  1
  Ca2+  Ca19  1  0.57700157  0.32821581  0.49250999  1
  Ca2+  Ca20  1  0.58557624  0.33065897  0.83632252  1
  Ca2+  Ca21  1  0.58368569  0.82651524  0.16538621  1
  Ca2+  Ca22  1  0.58561391  0.82511004  0.50067249  1
  Ca2+  Ca23  1  0.58212680  0.82912387  0.82092329  1
  Ca2+  Ca24  1  0.33042944  0.41651160  0.17147808  1
  Ca2+  Ca25  1  0.33772708  0.42177776  0.49925696  1
  Ca2+  Ca26  1  0.32584082  0.41562939  0.84195172  1
  Ca2+  Ca27  1  0.32519319  0.91704264  0.17545000  1
  Ca2+  Ca28  1  0.32142777  0.91689791  0.51136174  1
  Ca2+  Ca29  1  0.33246252  0.91807137  0.83054981  1
  Ca2+  Ca30  1  0.83059960  0.42145969  0.16842911  1
  Ca2+  Ca31  1  0.83807557  0.41571601  0.50426473  1
  Ca2+  Ca32  1  0.83111793  0.42343491  0.84468239  1
  Ca2+  Ca33  1  0.84365015  0.91965765  0.16708197  1
  Ca2+  Ca34  1  0.83359612  0.91660378  0.51096480  1
  Ca2+  Ca35  1  0.83876466  0.92249691  0.83477782  1
  Ca2+  Ca36  1  0.42152314  0.17783534  0.15654928  1
  Ca2+  Ca37  1  0.41295889  0.16859535  0.49729538  1
  Ca2+  Ca38  1  0.41860293  0.16862888  0.83082517  1
  Ca2+  Ca39  1  0.41951165  0.65989662  0.16830716  1
  Ca2+  Ca40  1  0.42519772  0.66869905  0.49644499  1
  Ca2+  Ca41  1  0.42489718  0.67334792  0.82398929  1
  Ca2+  Ca42  1  0.91410040  0.17078574  0.16320806  1
  Ca2+  Ca43  1  0.91581955  0.17046867  0.50139664  1
  Ca2+  Ca44  1  0.91707367  0.16849626  0.82456916  1
  Ca2+  Ca45  1  0.92450993  0.67617168  0.15839470  1
  Ca2+  Ca46  1  0.92423216  0.68212638  0.49227964  1
  Ca2+  Ca47  1  0.91652315  0.67274487  0.83134669  1
  Al0+  Al48  1  -0.00033416  0.00005962  0.00209206  1
  Al0+  Al49  1  -0.00030073  0.00232476  0.33485434  1
  Al0+  Al50  1  0.00171163  0.00056207  0.66740516  1
  Al0+  Al51  1  0.00082763  0.50089149  0.00547879  1
  Al0+  Al52  1  -0.00053859  0.49950490  0.32896807  1
  Al0+  Al53  1  -0.00001353  0.50014296  0.66253010  1
  Al0+  Al54  1  0.50106823  0.00131402  -0.00131543  1
  Al0+  Al55  1  0.50259369  -0.00090940  0.33414948  1
  Al0+  Al56  1  0.49844096  -0.00029278  0.66909943  1
  Al0+  Al57  1  0.49822088  0.50032721  -0.00216977  1
  Al0+  Al58  1  0.49973875  0.49841908  0.33005052  1
  Al0+  Al59  1  0.50032129  0.49934533  0.66550570  1
  Al0+  Al60  1  0.24975873  0.25044030  0.00178979  1
  Al0+  Al61  1  0.24910875  0.25076256  0.33062054  1
  Al0+  Al62  1  0.24884870  0.25035174  0.66484530  1
  Al0+  Al63  1  0.24907606  0.74912724  -0.00360975  1
  Al0+  Al64  1  0.25074947  0.74953628  0.33997022  1
  Al0+  Al65  1  0.25186895  0.74938649  0.67005704  1
  Al0+  Al66  1  0.74844295  0.24895360  0.00516121  1
  Al0+  Al67  1  0.75032649  0.25021033  0.33110801  1
  Al0+  Al68  1  0.74720198  0.25091114  0.66569177  1
  Al0+  Al69  1  0.74954739  0.75228563  0.00053406  1
  Al0+  Al70  1  0.75025794  0.75008136  0.32541382  1
  Al0+  Al71  1  0.75162189  0.74738469  0.66264823  1
  Al0+  Al72  1  0.82053003  0.07208705  0.68132281  1
  Al0+  Al73  1  0.92579538  0.32238231  0.65422284  1
  Al0+  Al74  1  0.42805336  0.82305991  0.65103373  1
  Al0+  Al75  1  0.17974545  0.93023447  0.34686595  1
  Al0+  Al76  1  0.57026581  0.67869394  0.31756156  1
  Al0+  Al77  1  0.57147401  0.67787727  0.65215057  1
  Al0+  Al78  1  0.68015347  0.92557907  0.68097689  1
  Al0+  Al79  1  0.17929312  0.42788224  0.01358985  1
  Al0+  Al80  1  0.32112123  0.07365808  0.68252407  1
  Al0+  Al81  1  0.07139054  0.67751981  0.98354049  1
  Al0+  Al82  1  0.32141192  0.56822899  0.34817481  1
  Al0+  Al83  1  0.42901235  0.31900650  0.31980280  1
  Al0+  Al84  1  0.57185509  0.17894862  0.98295741  1
  Al0+  Al85  1  0.17812581  0.92671525  0.68489420  1
  Al0+  Al86  1  0.07381354  0.68002368  0.31931299  1
  Al0+  Al87  1  0.82157175  0.06974143  0.01543071  1
  Al0+  Al88  1  0.67784029  0.42941007  0.01613897  1
  Al0+  Al89  1  0.92897274  0.82233439  0.98261582  1
  Al0+  Al90  1  0.82111887  0.57383079  0.01656205  1
  Al0+  Al91  1  0.07134236  0.17912715  0.65192092  1
  Al0+  Al92  1  0.92816813  0.32056108  0.31706860  1
  Al0+  Al93  1  0.93158680  0.82005848  0.65393269  1
  Al0+  Al94  1  0.42753215  0.32204285  0.98228164  1
  Al0+  Al95  1  0.92913774  0.82389531  0.31716621  1
  Si0+  Si96  1  0.57258508  0.17591633  0.31743868  1
  Si0+  Si97  1  0.42857240  0.82233326  0.31798542  1
  Si0+  Si98  1  0.18031972  0.92908114  0.01524759  1
  Si0+  Si99  1  0.07346540  0.67566587  0.65035000  1
  Si0+  Si100  1  0.57067145  0.17884807  0.65160275  1
  Si0+  Si101  1  0.68012127  0.42963044  0.34914081  1
  Si0+  Si102  1  0.32350843  0.07309888  0.34746191  1
  Si0+  Si103  1  0.17905411  0.43116382  0.67921609  1
  Si0+  Si104  1  0.32237454  0.07050550  0.01595788  1
  Si0+  Si105  1  0.92914881  0.32031906  0.98774912  1
  Si0+  Si106  1  0.42785405  0.82229046  0.98657536  1
  Si0+  Si107  1  0.67893367  0.92660527  0.34848452  1
  Si0+  Si108  1  0.17531038  0.42608508  0.35282980  1
  Si0+  Si109  1  0.67534163  0.92845175  0.01838973  1
  Si0+  Si110  1  0.67638742  0.42874819  0.68048498  1
  Si0+  Si111  1  0.82177730  0.56876206  0.67870105  1
  Si0+  Si112  1  0.42808571  0.32075943  0.65120840  1
  Si0+  Si113  1  0.57029309  0.67988119  0.98536756  1
  Si0+  Si114  1  0.82111715  0.57156805  0.34888494  1
  Si0+  Si115  1  0.81924057  0.07205685  0.34949008  1
  Si0+  Si116  1  0.07104865  0.17913786  0.31541605  1
  Si0+  Si117  1  0.07111892  0.17836175  0.98658978  1
  Si0+  Si118  1  0.32332749  0.56947585  0.68234932  1
  Si0+  Si119  1  0.32098664  0.57357104  0.01562511  1
  O2-  O120  1  0.25263235  -0.00132883  0.05871084  1
  O2-  O121  1  0.25665029  0.00386357  0.39196811  1
  O2-  O122  1  0.25127688  -0.00046587  0.73328646  1
  O2-  O123  1  0.25343195  0.50370506  0.05920750  1
  O2-  O124  1  0.24423544  0.49552007  0.39625112  1
  O2-  O125  1  0.24862313  0.50239158  0.72372436  1
  O2-  O126  1  0.74661014  -0.00515367  0.06258614  1
  O2-  O127  1  0.75033646  -0.00202084  0.38946806  1
  O2-  O128  1  0.75095448  -0.00200146  0.73219761  1
  O2-  O129  1  0.74890842  0.50164863  0.06739604  1
  O2-  O130  1  0.75085668  0.49996640  0.39318436  1
  O2-  O131  1  0.75118890  0.49668355  0.72052965  1
  O2-  O132  1  0.00508305  0.24911699  0.26922091  1
  O2-  O133  1  -0.00545260  0.24748966  0.60394955  1
  O2-  O134  1  0.00060082  0.25033147  0.94523099  1
  O2-  O135  1  0.00147281  0.75127888  0.26920559  1
  O2-  O136  1  0.01058063  0.74974194  0.60725696  1
  O2-  O137  1  -0.00189427  0.74735842  0.93312974  1
  O2-  O138  1  0.49968206  0.24032498  0.27442021  1
  O2-  O139  1  0.49727765  0.24781544  0.60917801  1
  O2-  O140  1  0.50036991  0.25125611  0.93194649  1
  O2-  O141  1  0.49581948  0.75394653  0.27078260  1
  O2-  O142  1  0.50133468  0.75170337  0.60194352  1
  O2-  O143  1  0.50010892  0.75223814  0.94498567  1
  O2-  O144  1  0.07069831  0.17744625  0.09198856  1
  O2-  O145  1  0.07015660  0.17928238  0.42057983  1
  O2-  O146  1  0.07327320  0.18467588  0.76601776  1
  O2-  O147  1  0.07583227  0.68153767  0.09672813  1
  O2-  O148  1  0.07111055  0.68118251  0.43323175  1
  O2-  O149  1  0.06886403  0.66934403  0.75556827  1
  O2-  O150  1  0.56732980  0.17777254  0.09704720  1
  O2-  O151  1  0.57396381  0.17718102  0.42335573  1
  O2-  O152  1  0.57342816  0.18278006  0.75595524  1
  O2-  O153  1  0.56853547  0.67980232  0.09068898  1
  O2-  O154  1  0.57045987  0.67901823  0.43016739  1
  O2-  O155  1  0.56890963  0.67431497  0.76602007  1
  O2-  O156  1  0.17722585  0.42462214  0.24730669  1
  O2-  O157  1  0.17988336  0.43222056  0.57433667  1
  O2-  O158  1  0.17979227  0.42730275  0.89979947  1
  O2-  O159  1  0.18199731  0.93209954  0.23284858  1
  O2-  O160  1  0.17885741  0.92821639  0.57109802  1
  O2-  O161  1  0.18110938  0.93045113  0.91083772  1
  O2-  O162  1  0.68056695  0.42998119  0.24462199  1
  O2-  O163  1  0.67278516  0.42917100  0.57506105  1
  O2-  O164  1  0.68060717  0.43130512  0.90183491  1
  O2-  O165  1  0.67461716  0.92831250  0.24356368  1
  O2-  O166  1  0.68267837  0.92742046  0.56656833  1
  O2-  O167  1  0.67191891  0.92891423  0.91337018  1
  O2-  O168  1  0.42714238  0.31941489  0.09600504  1
  O2-  O169  1  0.43234577  0.31856493  0.43359943  1
  O2-  O170  1  0.42842321  0.32325741  0.75574191  1
  O2-  O171  1  0.42711625  0.82204314  0.09207954  1
  O2-  O172  1  0.43133295  0.82334137  0.42280759  1
  O2-  O173  1  0.42891654  0.81800505  0.76546645  1
  O2-  O174  1  0.93066242  0.31822326  0.09301136  1
  O2-  O175  1  0.92636807  0.31743649  0.42995310  1
  O2-  O176  1  0.92876109  0.32664644  0.76797683  1
  O2-  O177  1  0.93462359  0.82401160  0.09608821  1
  O2-  O178  1  0.92789979  0.82365537  0.43095615  1
  O2-  O179  1  0.92999963  0.81635395  0.76655873  1
  O2-  O180  1  0.32286657  0.07147255  0.24142388  1
  O2-  O181  1  0.31858622  0.07590054  0.56850165  1
  O2-  O182  1  0.32236119  0.07035519  0.91149558  1
  O2-  O183  1  0.32255317  0.56549545  0.23509175  1
  O2-  O184  1  0.32607446  0.56626532  0.57737558  1
  O2-  O185  1  0.32076816  0.57394495  0.90978607  1
  O2-  O186  1  0.81803071  0.07379997  0.24432525  1
  O2-  O187  1  0.81611295  0.07383727  0.56712741  1
  O2-  O188  1  0.82268290  0.07075250  0.90297051  1
  O2-  O189  1  0.81844852  0.57001977  0.24425425  1
  O2-  O190  1  0.82186383  0.56747833  0.57339145  1
  O2-  O191  1  0.81921744  0.57140821  0.90207338  1
  O2-  O192  1  0.04223386  0.08704733  0.26821664  1
  O2-  O193  1  0.04724296  0.08034491  0.59949558  1
  O2-  O194  1  0.04248647  0.08742415  0.93919762  1
  O2-  O195  1  0.04779833  0.58047739  0.26820301  1
  O2-  O196  1  0.04389468  0.58521398  0.59987953  1
  O2-  O197  1  0.04405653  0.57725748  0.93319464  1
  O2-  O198  1  0.55255786  0.08080469  0.27169693  1
  O2-  O199  1  0.54506004  0.08656254  0.60456159  1
  O2-  O200  1  0.54314713  0.08033410  0.93075348  1
  O2-  O201  1  0.53801378  0.58301304  0.26354154  1
  O2-  O202  1  0.53908108  0.58028069  0.59798602  1
  O2-  O203  1  0.54225128  0.58884676  0.93702502  1
  O2-  O204  1  0.16578213  0.20084312  0.26943830  1
  O2-  O205  1  0.16706953  0.21326861  0.59603455  1
  O2-  O206  1  0.16302763  0.20535474  0.94011416  1
  O2-  O207  1  0.17354814  0.70715614  0.26827024  1
  O2-  O208  1  0.17042123  0.69485146  0.60992080  1
  O2-  O209  1  0.16983707  0.70589353  0.92937673  1
  O2-  O210  1  0.66388073  0.20631342  0.27035620  1
  O2-  O211  1  0.65974004  0.20995039  0.60023481  1
  O2-  O212  1  0.67091952  0.20846493  0.93199922  1
  O2-  O213  1  0.66509995  0.71011667  0.26123802  1
  O2-  O214  1  0.66969650  0.70259849  0.59751416  1
  O2-  O215  1  0.66221504  0.70656401  0.93853303  1
  O2-  O216  1  0.08383798  0.45684518  0.06998808  1
  O2-  O217  1  0.08059049  0.45058708  0.39713649  1
  O2-  O218  1  0.08672267  0.45820849  0.72682346  1
  O2-  O219  1  0.09032619  0.96019436  0.06377339  1
  O2-  O220  1  0.08386941  0.96448563  0.40042740  1
  O2-  O221  1  0.08113516  0.95793563  0.73838849  1
  O2-  O222  1  0.57792574  0.45841904  0.06630592  1
  O2-  O223  1  0.58823681  0.45754733  0.39633118  1
  O2-  O224  1  0.58645481  0.45929438  0.73039863  1
  O2-  O225  1  0.58271790  0.95654592  0.06721580  1
  O2-  O226  1  0.58724338  0.95397102  0.39766764  1
  O2-  O227  1  0.58021361  0.95130329  0.73091625  1
  O2-  O228  1  0.20967920  0.33187978  0.07029245  1
  O2-  O229  1  0.20281675  0.33218665  0.39809569  1
  O2-  O230  1  0.20798724  0.34007390  0.72667575  1
  O2-  O231  1  0.20927208  0.83675775  0.06138707  1
  O2-  O232  1  0.20856684  0.83459591  0.40252154  1
  O2-  O233  1  0.20650996  0.82775139  0.73807001  1
  O2-  O234  1  0.70440451  0.33137476  0.06985885  1
  O2-  O235  1  0.70754936  0.33671630  0.39605218  1
  O2-  O236  1  0.70001955  0.33634671  0.72765095  1
  O2-  O237  1  0.69817568  0.83417643  0.06406654  1
  O2-  O238  1  0.70672709  0.83391683  0.39365254  1
  O2-  O239  1  0.70699804  0.82568228  0.73176687  1
  O2-  O240  1  0.46400137  0.41270055  0.26450968  1
  O2-  O241  1  0.46009912  0.41096954  0.60287953  1
  O2-  O242  1  0.45289935  0.42167963  0.93000622  1
  O2-  O243  1  0.45471826  0.91616016  0.27071139  1
  O2-  O244  1  0.45095140  0.92314540  0.59945639  1
  O2-  O245  1  0.45403254  0.91433889  0.93990935  1
  O2-  O246  1  0.95577045  0.41756461  0.26329288  1
  O2-  O247  1  0.95932837  0.41796835  0.59718890  1
  O2-  O248  1  0.95586542  0.41301244  0.94252036  1
  O2-  O249  1  0.95755148  0.92333555  0.26650316  1
  O2-  O250  1  0.95751783  0.91811544  0.60136458  1
  O2-  O251  1  0.96228638  0.92036742  0.93157632  1
  O2-  O252  1  0.33079334  0.29402983  0.26604484  1
  O2-  O253  1  0.33647869  0.29583780  0.60250707  1
  O2-  O254  1  0.32895277  0.29040431  0.93113892  1
  O2-  O255  1  0.33486778  0.79650761  0.27320773  1
  O2-  O256  1  0.32983689  0.79121822  0.59954384  1
  O2-  O257  1  0.33749957  0.79372331  0.93745946  1
  O2-  O258  1  0.83219518  0.28750031  0.26291569  1
  O2-  O259  1  0.82632047  0.29841810  0.60042072  1
  O2-  O260  1  0.83685812  0.29283454  0.94254419  1
  O2-  O261  1  0.83150383  0.79619473  0.26290125  1
  O2-  O262  1  0.83728692  0.78538579  0.59781651  1
  O2-  O263  1  0.82759474  0.79889181  0.93386342  1
  O2-  O264  1  0.41428109  0.04344139  0.06404171  1
  O2-  O265  1  0.41892480  0.05102613  0.39212333  1
  O2-  O266  1  0.42004411  0.04828004  0.73586190  1
  O2-  O267  1  0.41492079  0.54883767  0.06098752  1
  O2-  O268  1  0.41743064  0.53298810  0.40222408  1
  O2-  O269  1  0.41319581  0.53696849  0.73133989  1
  O2-  O270  1  0.91812802  0.03972249  0.07173530  1
  O2-  O271  1  0.91220122  0.04816496  0.39565558  1
  O2-  O272  1  0.92044815  0.04858949  0.73167429  1
  O2-  O273  1  0.91868437  0.54493892  0.06993362  1
  O2-  O274  1  0.91338856  0.54341079  0.39525340  1
  O2-  O275  1  0.91354070  0.54137542  0.72692066  1
  O2-  O276  1  0.29251433  0.16147532  0.06398973  1
  O2-  O277  1  0.29773195  0.16718027  0.39254865  1
  O2-  O278  1  0.29088632  0.17241147  0.73544514  1
  O2-  O279  1  0.29552132  0.66706802  0.06287034  1
  O2-  O280  1  0.29470856  0.66510577  0.40408549  1
  O2-  O281  1  0.30118698  0.66217811  0.72976242  1
  O2-  O282  1  0.78921904  0.16500330  0.07169554  1
  O2-  O283  1  0.78816347  0.16311711  0.39703793  1
  O2-  O284  1  0.78923647  0.17093664  0.73318408  1
  O2-  O285  1  0.79123761  0.67220525  0.06888547  1
  O2-  O286  1  0.79149442  0.66426607  0.39374096  1
  O2-  O287  1  0.79281917  0.65913765  0.72702761  1
