# generated using pymatgen
data_Ca2Al2SiO7
_symmetry_space_group_name_H-M   'P 1'
_cell_length_a   15.45674524
_cell_length_b   15.45716186
_cell_length_c   15.28354661
_cell_angle_alpha   89.99392200
_cell_angle_beta   89.98864644
_cell_angle_gamma   89.98664120
_symmetry_Int_Tables_number   1
_chemical_formula_structural   Ca2Al2SiO7
_chemical_formula_sum   'Ca48 Al48 Si24 O168'
_cell_volume   3651.50522545
_cell_formula_units_Z   24
loop_
 _symmetry_equiv_pos_site_id
 _symmetry_equiv_pos_as_xyz
  1  'x, y, z'
loop_
 _atom_type_symbol
 _atom_type_oxidation_number
  Ca2+  2.0
  Al0+  0.0
  Si0+  0.0
  O2-  -2.0
loop_
 _atom_site_type_symbol
 _atom_site_label
 _atom_site_symmetry_multiplicity
 _atom_site_fract_x
 _atom_site_fract_y
 _atom_site_fract_z
 _atom_site_occupancy
  Ca2+  Ca0  1  0.16620289  0.08405398  0.16898442  1
  Ca2+  Ca1  1  0.17369729  0.09609739  0.50375773  1
  Ca2+  Ca2  1  0.16363834  0.08241362  0.83713872  1
  Ca2+  Ca3  1  0.17514438  0.58143745  0.16655357  1
  Ca2+  Ca4  1  0.16510832  0.58145618  0.50741101  1
  Ca2+  Ca5  1  0.17009752  0.58275130  0.83925620  1
  Ca2+  Ca6  1  0.67565017  0.08658126  0.16669260  1
  Ca2+  Ca7  1  0.67092986  0.08233631  0.51146565  1
  Ca2+  Ca8  1  0.67880169  0.09529350  0.83361568  1
  Ca2+  Ca9  1  0.66530683  0.57260873  0.17086559  1
  Ca2+  Ca10  1  0.67735133  0.57596817  0.50171049  1
  Ca2+  Ca11  1  0.67153506  0.57720441  0.84028950  1
  Ca2+  Ca12  1  0.07725119  0.32059955  0.15928633  1
  Ca2+  Ca13  1  0.07740174  0.32413658  0.50133805  1
  Ca2+  Ca14  1  0.07297310  0.32388639  0.82799355  1
  Ca2+  Ca15  1  0.08063173  0.83591300  0.16305973  1
  Ca2+  Ca16  1  0.07088626  0.83014981  0.50081779  1
  Ca2+  Ca17  1  0.08285479  0.82919202  0.82771852  1
  Ca2+  Ca18  1  0.57771230  0.34240189  0.16142478  1
  Ca2+  Ca19  1  0.57616961  0.33154505  0.49977763  1
  Ca2+  Ca20  1  0.57641867  0.33316789  0.83092688  1
  Ca2+  Ca21  1  0.57537323  0.82392729  0.15662449  1
  Ca2+  Ca22  1  0.58484000  0.83224068  0.49662445  1
  Ca2+  Ca23  1  0.58067996  0.82923634  0.83440183  1
  Ca2+  Ca24  1  0.34200444  0.41851185  0.16851248  1
  Ca2+  Ca25  1  0.33397779  0.41010430  0.50341340  1
  Ca2+  Ca26  1  0.33711782  0.41758981  0.83973266  1
  Ca2+  Ca27  1  0.32706103  0.92008961  0.17008876  1
  Ca2+  Ca28  1  0.33243674  0.93436245  0.50762563  1
  Ca2+  Ca29  1  0.32709266  0.92290893  0.84209119  1
  Ca2+  Ca30  1  0.82088893  0.41597676  0.17223749  1
  Ca2+  Ca31  1  0.83628491  0.42383045  0.50821596  1
  Ca2+  Ca32  1  0.83363143  0.41511369  0.84021201  1
  Ca2+  Ca33  1  0.83681583  0.92101329  0.16832842  1
  Ca2+  Ca34  1  0.83715357  0.91768274  0.50707059  1
  Ca2+  Ca35  1  0.84296267  0.92963513  0.83431492  1
  Ca2+  Ca36  1  0.41431232  0.17683220  0.16346968  1
  Ca2+  Ca37  1  0.41397773  0.17348199  0.49580709  1
  Ca2+  Ca38  1  0.41983501  0.17664274  0.82221452  1
  Ca2+  Ca39  1  0.42229091  0.66841800  0.15133097  1
  Ca2+  Ca40  1  0.41930056  0.66974253  0.49691503  1
  Ca2+  Ca41  1  0.41901927  0.66721596  0.83763841  1
  Ca2+  Ca42  1  0.92490531  0.16783721  0.15560032  1
  Ca2+  Ca43  1  0.92639993  0.16202731  0.49861719  1
  Ca2+  Ca44  1  0.92002670  0.17126875  0.82779370  1
  Ca2+  Ca45  1  0.90890760  0.67132130  0.16711665  1
  Ca2+  Ca46  1  0.90927193  0.67236050  0.49805499  1
  Ca2+  Ca47  1  0.92206020  0.67158978  0.81889114  1
  Al0+  Al48  1  0.00175573  -0.00098524  0.00575224  1
  Al0+  Al49  1  0.00071667  -0.00312228  0.32598331  1
  Al0+  Al50  1  0.00079640  -0.00207063  0.66288753  1
  Al0+  Al51  1  0.00082103  0.50051719  0.00078836  1
  Al0+  Al52  1  0.00206540  0.50094093  0.33514539  1
  Al0+  Al53  1  0.00217529  0.49953846  0.66562319  1
  Al0+  Al54  1  0.50069834  -0.00005641  -0.00273491  1
  Al0+  Al55  1  0.49986677  0.00122977  0.33590571  1
  Al0+  Al56  1  0.49948521  -0.00012661  0.67010832  1
  Al0+  Al57  1  0.50175641  0.50083090  -0.00145276  1
  Al0+  Al58  1  0.50090176  0.50010931  0.33670950  1
  Al0+  Al59  1  0.50006616  0.50137205  0.66240840  1
  Al0+  Al60  1  0.24904474  0.24934930  -0.00736715  1
  Al0+  Al61  1  0.25061592  0.25094451  0.32708246  1
  Al0+  Al62  1  0.24944409  0.25229446  0.66680013  1
  Al0+  Al63  1  0.24975212  0.75131648  0.00619643  1
  Al0+  Al64  1  0.24737502  0.75103513  0.33589378  1
  Al0+  Al65  1  0.25092272  0.75019356  0.66193453  1
  Al0+  Al66  1  0.75001385  0.25175538  0.00825387  1
  Al0+  Al67  1  0.74837911  0.24895159  0.33980264  1
  Al0+  Al68  1  0.74708476  0.25062984  0.66289284  1
  Al0+  Al69  1  0.74959292  0.75121125  -0.00488453  1
  Al0+  Al70  1  0.74951506  0.75003556  0.33092472  1
  Al0+  Al71  1  0.74858919  0.74828790  0.66832846  1
  Al0+  Al72  1  0.92675261  0.32177785  0.98774680  1
  Al0+  Al73  1  0.32035139  0.07365532  0.68210117  1
  Al0+  Al74  1  0.68082212  0.43084931  0.01271224  1
  Al0+  Al75  1  0.92900001  0.81789321  0.31681276  1
  Al0+  Al76  1  0.43028002  0.32029800  0.98652897  1
  Al0+  Al77  1  0.82191585  0.56965645  0.68191928  1
  Al0+  Al78  1  0.42910401  0.32209946  0.65093411  1
  Al0+  Al79  1  0.57059256  0.17711134  0.65203821  1
  Al0+  Al80  1  0.67672365  0.42696533  0.35259725  1
  Al0+  Al81  1  0.06953592  0.18052751  0.31783949  1
  Al0+  Al82  1  0.57174974  0.67840477  0.98384991  1
  Al0+  Al83  1  0.06986156  0.17637278  0.98336041  1
  Al0+  Al84  1  0.92777538  0.81961862  0.65304293  1
  Al0+  Al85  1  0.18054692  0.92998338  0.01465024  1
  Al0+  Al86  1  0.06988431  0.17775179  0.65188181  1
  Al0+  Al87  1  0.82124600  0.07032737  0.67826237  1
  Al0+  Al88  1  0.43212630  0.31986646  0.31779236  1
  Al0+  Al89  1  0.81974981  0.06951396  0.01402562  1
  Al0+  Al90  1  0.31945765  0.56788080  0.01234350  1
  Al0+  Al91  1  0.82092921  0.57078132  0.34794744  1
  Al0+  Al92  1  0.42626821  0.82252219  0.98570676  1
  Al0+  Al93  1  0.31869840  0.07100398  0.34586716  1
  Al0+  Al94  1  0.92630027  0.32154123  0.65194993  1
  Al0+  Al95  1  0.07332896  0.67782527  0.65233321  1
  Si0+  Si96  1  0.57393851  0.17479611  0.31578977  1
  Si0+  Si97  1  0.32413913  0.07437732  0.01569820  1
  Si0+  Si98  1  0.92929918  0.82046565  0.98518442  1
  Si0+  Si99  1  0.32250112  0.57304672  0.68104037  1
  Si0+  Si100  1  0.32118725  0.57276900  0.34895754  1
  Si0+  Si101  1  0.82292660  0.06894229  0.34787684  1
  Si0+  Si102  1  0.42876995  0.82140351  0.65067013  1
  Si0+  Si103  1  0.18094049  0.42921188  0.34751670  1
  Si0+  Si104  1  0.07162654  0.67923517  0.98795734  1
  Si0+  Si105  1  0.17609534  0.92697426  0.35363425  1
  Si0+  Si106  1  0.42755243  0.82307451  0.32050303  1
  Si0+  Si107  1  0.67697409  0.92553250  0.01689219  1
  Si0+  Si108  1  0.07463772  0.67593466  0.31359830  1
  Si0+  Si109  1  0.92624279  0.32373170  0.31796535  1
  Si0+  Si110  1  0.18010821  0.42987670  0.68253315  1
  Si0+  Si111  1  0.17661233  0.42579966  0.01681943  1
  Si0+  Si112  1  0.67909699  0.92956547  0.34659655  1
  Si0+  Si113  1  0.82494755  0.57506531  0.01532159  1
  Si0+  Si114  1  0.67623567  0.92589271  0.68498008  1
  Si0+  Si115  1  0.57362319  0.17702064  0.98556403  1
  Si0+  Si116  1  0.18039568  0.92733238  0.68202047  1
  Si0+  Si117  1  0.56814042  0.68110099  0.31927143  1
  Si0+  Si118  1  0.57055184  0.67952525  0.64941369  1
  Si0+  Si119  1  0.67685715  0.42953315  0.68430831  1
  O2-  O120  1  0.25616560  0.00485471  0.06009378  1
  O2-  O121  1  0.24459271  -0.00346240  0.39576633  1
  O2-  O122  1  0.24564361  -0.00161691  0.72743025  1
  O2-  O123  1  0.24836654  0.49133783  0.06221173  1
  O2-  O124  1  0.24966480  0.50292423  0.39094100  1
  O2-  O125  1  0.25154964  0.50242057  0.72251141  1
  O2-  O126  1  0.74402389  -0.00479673  0.06186563  1
  O2-  O127  1  0.74836559  0.00132831  0.38948967  1
  O2-  O128  1  0.74535252  -0.00429584  0.72605240  1
  O2-  O129  1  0.75773218  0.50477411  0.05830595  1
  O2-  O130  1  0.75584259  0.49330158  0.39965209  1
  O2-  O131  1  0.75023143  0.49282828  0.72928279  1
  O2-  O132  1  -0.00951410  0.25165003  0.27260060  1
  O2-  O133  1  -0.00596795  0.24566179  0.60135042  1
  O2-  O134  1  -0.00206880  0.24989425  0.93685095  1
  O2-  O135  1  0.00347388  0.74235800  0.27013964  1
  O2-  O136  1  -0.00340040  0.74455984  0.60242699  1
  O2-  O137  1  -0.00413365  0.74453376  0.94528612  1
  O2-  O138  1  0.50901106  0.24692583  0.27159807  1
  O2-  O139  1  0.49708760  0.24665065  0.60069872  1
  O2-  O140  1  0.50038032  0.24074852  0.94179350  1
  O2-  O141  1  0.49368139  0.74863109  0.27701348  1
  O2-  O142  1  0.50156045  0.75280275  0.60689875  1
  O2-  O143  1  0.50019016  0.75239729  0.93537797  1
  O2-  O144  1  0.06885185  0.17757062  0.09751355  1
  O2-  O145  1  0.06968734  0.18238973  0.43072624  1
  O2-  O146  1  0.06943667  0.17895492  0.76490728  1
  O2-  O147  1  0.07234690  0.68018256  0.09315509  1
  O2-  O148  1  0.07953612  0.67736224  0.41858893  1
  O2-  O149  1  0.07648614  0.68133225  0.76640327  1
  O2-  O150  1  0.57340700  0.17667890  0.09147456  1
  O2-  O151  1  0.57123963  0.16957844  0.42071755  1
  O2-  O152  1  0.57057857  0.17986888  0.76582686  1
  O2-  O153  1  0.56981059  0.67945704  0.09820740  1
  O2-  O154  1  0.56719623  0.68437159  0.42477476  1
  O2-  O155  1  0.56870706  0.67851671  0.75403913  1
  O2-  O156  1  0.18229689  0.43116438  0.24243071  1
  O2-  O157  1  0.18169282  0.43001995  0.57687842  1
  O2-  O158  1  0.17496742  0.43036069  0.91147547  1
  O2-  O159  1  0.17870955  0.92424706  0.24801118  1
  O2-  O160  1  0.18439869  0.92419395  0.57658768  1
  O2-  O161  1  0.18023997  0.92782893  0.90159451  1
  O2-  O162  1  0.67378524  0.43203206  0.23892801  1
  O2-  O163  1  0.67405622  0.43483895  0.57894040  1
  O2-  O164  1  0.68020969  0.43188483  0.89978504  1
  O2-  O165  1  0.67813785  0.92907259  0.24171535  1
  O2-  O166  1  0.67521688  0.92442457  0.57864050  1
  O2-  O167  1  0.67852350  0.92294451  0.91185445  1
  O2-  O168  1  0.43236897  0.32112390  0.09986351  1
  O2-  O169  1  0.43005603  0.31892102  0.43038728  1
  O2-  O170  1  0.43187458  0.32547803  0.76437820  1
  O2-  O171  1  0.42743080  0.81968260  0.10019715  1
  O2-  O172  1  0.43104297  0.82213739  0.42593339  1
  O2-  O173  1  0.42685702  0.81879189  0.75524209  1
  O2-  O174  1  0.92770052  0.32020010  0.10191308  1
  O2-  O175  1  0.92992608  0.32397479  0.42333090  1
  O2-  O176  1  0.92914401  0.32204575  0.76537894  1
  O2-  O177  1  0.92902957  0.81948366  0.09058769  1
  O2-  O178  1  0.92807819  0.81841486  0.42939566  1
  O2-  O179  1  0.93134094  0.82029761  0.76691142  1
  O2-  O180  1  0.31945509  0.06813141  0.23284593  1
  O2-  O181  1  0.31970178  0.07220913  0.56843765  1
  O2-  O182  1  0.32380803  0.07295755  0.91035634  1
  O2-  O183  1  0.32205338  0.57418817  0.24398467  1
  O2-  O184  1  0.32275113  0.57435990  0.57543615  1
  O2-  O185  1  0.31671734  0.56884235  0.89906559  1
  O2-  O186  1  0.82193058  0.06725116  0.24259434  1
  O2-  O187  1  0.82071961  0.06556599  0.56466491  1
  O2-  O188  1  0.81999455  0.06904516  0.90106057  1
  O2-  O189  1  0.81571221  0.57284816  0.23420520  1
  O2-  O190  1  0.81776729  0.57188262  0.56891858  1
  O2-  O191  1  0.82540637  0.57614221  0.90990010  1
  O2-  O192  1  0.04298519  0.08218448  0.26541195  1
  O2-  O193  1  0.04756807  0.07851615  0.59794353  1
  O2-  O194  1  0.04020516  0.07721199  0.93372179  1
  O2-  O195  1  0.05339036  0.58087859  0.26843627  1
  O2-  O196  1  0.05104908  0.57846689  0.60034254  1
  O2-  O197  1  0.05097673  0.58567707  0.94095741  1
  O2-  O198  1  0.54595758  0.08195664  0.26797916  1
  O2-  O199  1  0.54684763  0.07589917  0.60163629  1
  O2-  O200  1  0.55686569  0.08141988  0.94006872  1
  O2-  O201  1  0.54124117  0.58876879  0.27371491  1
  O2-  O202  1  0.53885623  0.59056956  0.59904198  1
  O2-  O203  1  0.53937805  0.58317330  0.92861554  1
  O2-  O204  1  0.16389830  0.21527793  0.26230972  1
  O2-  O205  1  0.16620202  0.21407899  0.59950373  1
  O2-  O206  1  0.16824813  0.20228030  0.93055346  1
  O2-  O207  1  0.16786301  0.70560977  0.26680929  1
  O2-  O208  1  0.17016923  0.70855251  0.59574941  1
  O2-  O209  1  0.16145129  0.71187788  0.94068995  1
  O2-  O210  1  0.67014257  0.19667663  0.27272253  1
  O2-  O211  1  0.66723961  0.20513881  0.59595406  1
  O2-  O212  1  0.66546807  0.20917468  0.94102084  1
  O2-  O213  1  0.65768637  0.71234668  0.27075099  1
  O2-  O214  1  0.66180651  0.70716028  0.60140736  1
  O2-  O215  1  0.66956082  0.70710378  0.92931107  1
  O2-  O216  1  0.08511323  0.45546484  0.06614692  1
  O2-  O217  1  0.08900410  0.45453044  0.39626270  1
  O2-  O218  1  0.08946477  0.45783437  0.73156602  1
  O2-  O219  1  0.08556303  0.95982928  0.07271653  1
  O2-  O220  1  0.08114915  0.95200851  0.39600370  1
  O2-  O221  1  0.08541875  0.94909110  0.72621930  1
  O2-  O222  1  0.58601426  0.46625912  0.06795682  1
  O2-  O223  1  0.58136601  0.46425978  0.40708246  1
  O2-  O224  1  0.58477707  0.46336390  0.72983676  1
  O2-  O225  1  0.58185467  0.94835105  0.06239544  1
  O2-  O226  1  0.58721369  0.95458788  0.39635421  1
  O2-  O227  1  0.58247833  0.94906575  0.73173206  1
  O2-  O228  1  0.19998816  0.33054635  0.05988268  1
  O2-  O229  1  0.21320570  0.33924794  0.39464309  1
  O2-  O230  1  0.20888002  0.33995607  0.73208853  1
  O2-  O231  1  0.21106976  0.83509258  0.07345726  1
  O2-  O232  1  0.20128057  0.83309824  0.40025775  1
  O2-  O233  1  0.21032391  0.83435887  0.72852066  1
  O2-  O234  1  0.70756927  0.33591301  0.07262883  1
  O2-  O235  1  0.69533954  0.32534332  0.40284760  1
  O2-  O236  1  0.69466095  0.33320219  0.72643872  1
  O2-  O237  1  0.70473439  0.83245263  0.06435942  1
  O2-  O238  1  0.70771991  0.83825935  0.39481240  1
  O2-  O239  1  0.70072299  0.83217073  0.73094316  1
  O2-  O240  1  0.46064694  0.41961706  0.26757791  1
  O2-  O241  1  0.45839165  0.42039594  0.59658219  1
  O2-  O242  1  0.46387934  0.41554149  0.93274567  1
  O2-  O243  1  0.45849987  0.91323736  0.27251530  1
  O2-  O244  1  0.45584835  0.91350321  0.60385257  1
  O2-  O245  1  0.45279865  0.92111102  0.93219875  1
  O2-  O246  1  0.95455154  0.41702087  0.27248855  1
  O2-  O247  1  0.96204339  0.41747372  0.59843212  1
  O2-  O248  1  0.95462500  0.42145270  0.93639188  1
  O2-  O249  1  0.96113853  0.91275336  0.26017511  1
  O2-  O250  1  0.95969568  0.91492743  0.59645770  1
  O2-  O251  1  0.96349257  0.91033966  0.93988085  1
  O2-  O252  1  0.33647681  0.28905999  0.26212793  1
  O2-  O253  1  0.32974904  0.29649767  0.59961124  1
  O2-  O254  1  0.33227041  0.29664513  0.93258125  1
  O2-  O255  1  0.33311973  0.79920020  0.27697438  1
  O2-  O256  1  0.33967352  0.79096660  0.59955319  1
  O2-  O257  1  0.32893571  0.78976320  0.93389857  1
  O2-  O258  1  0.82942899  0.30117134  0.27716848  1
  O2-  O259  1  0.82625861  0.30179669  0.60041183  1
  O2-  O260  1  0.82757974  0.29411931  0.93725850  1
  O2-  O261  1  0.83180380  0.78825588  0.26180680  1
  O2-  O262  1  0.82759032  0.79388877  0.60141269  1
  O2-  O263  1  0.83627335  0.80025094  0.93768939  1
  O2-  O264  1  0.41904270  0.05077590  0.06106516  1
  O2-  O265  1  0.41556404  0.03954643  0.40062949  1
  O2-  O266  1  0.41662804  0.04103157  0.73545060  1
  O2-  O267  1  0.41668020  0.53976754  0.06633858  1
  O2-  O268  1  0.41236836  0.54579278  0.39757231  1
  O2-  O269  1  0.41476953  0.54545286  0.72736947  1
  O2-  O270  1  0.91410445  0.03472423  0.07007255  1
  O2-  O271  1  0.91390302  0.03568925  0.39288102  1
  O2-  O272  1  0.91779769  0.03709287  0.73175070  1
  O2-  O273  1  0.91944974  0.55397800  0.06225880  1
  O2-  O274  1  0.92339444  0.55201268  0.39741057  1
  O2-  O275  1  0.92133132  0.54440402  0.73295041  1
  O2-  O276  1  0.29644875  0.16812919  0.06080692  1
  O2-  O277  1  0.28673915  0.16839360  0.39753063  1
  O2-  O278  1  0.29119322  0.17083304  0.73478436  1
  O2-  O279  1  0.28671269  0.66278970  0.06927779  1
  O2-  O280  1  0.29439176  0.66530415  0.39709593  1
  O2-  O281  1  0.29497605  0.66540030  0.72753685  1
  O2-  O282  1  0.78891392  0.16427170  0.07197882  1
  O2-  O283  1  0.80075460  0.16192981  0.39481249  1
  O2-  O284  1  0.78945742  0.16778477  0.73080872  1
  O2-  O285  1  0.79701010  0.66914690  0.06007643  1
  O2-  O286  1  0.78469316  0.66802678  0.40018112  1
  O2-  O287  1  0.78849087  0.66600735  0.73559006  1
