# generated using pymatgen
data_Ca2Al2SiO7
_symmetry_space_group_name_H-M   'P 1'
_cell_length_a   15.45979133
_cell_length_b   15.45887852
_cell_length_c   15.28498554
_cell_angle_alpha   89.99839380
_cell_angle_beta   89.99964525
_cell_angle_gamma   90.00724979
_symmetry_Int_Tables_number   1
_chemical_formula_structural   Ca2Al2SiO7
_chemical_formula_sum   'Ca48 Al48 Si24 O168'
_cell_volume   3652.97450168
_cell_formula_units_Z   24
loop_
 _symmetry_equiv_pos_site_id
 _symmetry_equiv_pos_as_xyz
  1  'x, y, z'
loop_
 _atom_type_symbol
 _atom_type_oxidation_number
  Ca2+  2.0
  Al0+  0.0
  Si0+  0.0
  O2-  -2.0
loop_
 _atom_site_type_symbol
 _atom_site_label
 _atom_site_symmetry_multiplicity
 _atom_site_fract_x
 _atom_site_fract_y
 _atom_site_fract_z
 _atom_site_occupancy
  Ca2+  Ca0  1  0.17104823  0.07822250  0.17132407  1
  Ca2+  Ca1  1  0.16815147  0.07649926  0.49859292  1
  Ca2+  Ca2  1  0.16593295  0.07431499  0.84278867  1
  Ca2+  Ca3  1  0.16843478  0.57746582  0.17635993  1
  Ca2+  Ca4  1  0.17707745  0.57131630  0.50529189  1
  Ca2+  Ca5  1  0.16817171  0.57978820  0.83452228  1
  Ca2+  Ca6  1  0.67582567  0.08910756  0.17469563  1
  Ca2+  Ca7  1  0.67379347  0.09264395  0.50406798  1
  Ca2+  Ca8  1  0.67287073  0.08999348  0.83302423  1
  Ca2+  Ca9  1  0.65996637  0.58015241  0.16382245  1
  Ca2+  Ca10  1  0.67294400  0.58167687  0.50667099  1
  Ca2+  Ca11  1  0.67093869  0.58352723  0.84274951  1
  Ca2+  Ca12  1  0.09784164  0.31795421  0.16667487  1
  Ca2+  Ca13  1  0.08769091  0.33078979  0.49225894  1
  Ca2+  Ca14  1  0.08879051  0.32585799  0.82997372  1
  Ca2+  Ca15  1  0.08348902  0.83319864  0.15781535  1
  Ca2+  Ca16  1  0.08299739  0.84162601  0.49816717  1
  Ca2+  Ca17  1  0.07930227  0.83645586  0.83106244  1
  Ca2+  Ca18  1  0.57194385  0.32996085  0.16281264  1
  Ca2+  Ca19  1  0.57756855  0.32317352  0.49290719  1
  Ca2+  Ca20  1  0.57904730  0.33185626  0.83164046  1
  Ca2+  Ca21  1  0.57327315  0.82965085  0.16429646  1
  Ca2+  Ca22  1  0.57282414  0.82964035  0.49284647  1
  Ca2+  Ca23  1  0.58288155  0.82810132  0.83140790  1
  Ca2+  Ca24  1  0.33435721  0.42009680  0.17513335  1
  Ca2+  Ca25  1  0.32878021  0.41838101  0.49987287  1
  Ca2+  Ca26  1  0.33352674  0.41796847  0.83481304  1
  Ca2+  Ca27  1  0.32312071  0.92317058  0.17598832  1
  Ca2+  Ca28  1  0.32480431  0.91685382  0.50077608  1
  Ca2+  Ca29  1  0.32176211  0.92502638  0.84169862  1
  Ca2+  Ca30  1  0.82361720  0.41247298  0.16873948  1
  Ca2+  Ca31  1  0.83282206  0.42352010  0.50795035  1
  Ca2+  Ca32  1  0.82596775  0.42308363  0.83821093  1
  Ca2+  Ca33  1  0.83405382  0.91902950  0.17044666  1
  Ca2+  Ca34  1  0.83484317  0.92816027  0.50545648  1
  Ca2+  Ca35  1  0.83947696  0.91654843  0.83379724  1
  Ca2+  Ca36  1  0.40293170  0.17679116  0.16431257  1
  Ca2+  Ca37  1  0.42665605  0.16632955  0.48682920  1
  Ca2+  Ca38  1  0.41624823  0.17110338  0.83024826  1
  Ca2+  Ca39  1  0.41176065  0.67317333  0.16460227  1
  Ca2+  Ca40  1  0.40521103  0.66930038  0.49474761  1
  Ca2+  Ca41  1  0.42152202  0.66121282  0.83046572  1
  Ca2+  Ca42  1  0.92988384  0.16062446  0.16593588  1
  Ca2+  Ca43  1  0.92013441  0.16257864  0.49332609  1
  Ca2+  Ca44  1  0.92237230  0.16308114  0.83012494  1
  Ca2+  Ca45  1  0.92794008  0.67525870  0.15424731  1
  Ca2+  Ca46  1  0.91605269  0.67185663  0.49915901  1
  Ca2+  Ca47  1  0.92063513  0.67685108  0.82827474  1
  Al0+  Al48  1  -0.00014308  0.00085038  -0.00378208  1
  Al0+  Al49  1  -0.00263543  0.00106299  0.33613967  1
  Al0+  Al50  1  -0.00126468  -0.00011358  0.66953284  1
  Al0+  Al51  1  -0.00068065  0.50077241  -0.00205795  1
  Al0+  Al52  1  -0.00182703  0.50063112  0.33564072  1
  Al0+  Al53  1  -0.00024321  0.50060985  0.67495805  1
  Al0+  Al54  1  0.50205707  0.00256898  0.00343588  1
  Al0+  Al55  1  0.50207103  -0.00373775  0.32656578  1
  Al0+  Al56  1  0.50147656  -0.00159062  0.66212918  1
  Al0+  Al57  1  0.50019988  0.49869499  -0.00375556  1
  Al0+  Al58  1  0.50233226  0.49911802  0.33602437  1
  Al0+  Al59  1  0.49979844  0.49839831  0.66659332  1
  Al0+  Al60  1  0.25033154  0.25143377  -0.00878358  1
  Al0+  Al61  1  0.25043566  0.24800715  0.33389372  1
  Al0+  Al62  1  0.25069344  0.24992675  0.66670200  1
  Al0+  Al63  1  0.24945068  0.75017920  -0.00227281  1
  Al0+  Al64  1  0.24832338  0.74937883  0.33541431  1
  Al0+  Al65  1  0.24951741  0.74826922  0.67538130  1
  Al0+  Al66  1  0.74885109  0.25165231  0.00538771  1
  Al0+  Al67  1  0.75048966  0.25137470  0.33449126  1
  Al0+  Al68  1  0.75173036  0.24992131  0.66788838  1
  Al0+  Al69  1  0.75006330  0.75118593  -0.00501943  1
  Al0+  Al70  1  0.74981918  0.75086599  0.33262474  1
  Al0+  Al71  1  0.75083709  0.75165134  0.66465823  1
  Al0+  Al72  1  0.56739458  0.68065295  0.98707469  1
  Al0+  Al73  1  0.06934998  0.18180544  0.98525810  1
  Al0+  Al74  1  0.57373460  0.17719444  0.31642884  1
  Al0+  Al75  1  0.06962422  0.17904739  0.32184259  1
  Al0+  Al76  1  0.57138953  0.17933341  0.65336381  1
  Al0+  Al77  1  0.17786419  0.42691208  0.34591807  1
  Al0+  Al78  1  0.42631422  0.81890081  0.32003529  1
  Al0+  Al79  1  0.17833596  0.92906681  0.01577488  1
  Al0+  Al80  1  0.17758893  0.92884130  0.34835551  1
  Al0+  Al81  1  0.92999775  0.82171327  0.98431395  1
  Al0+  Al82  1  0.17883311  0.42623070  0.68404147  1
  Al0+  Al83  1  0.32367613  0.07079168  0.34792849  1
  Al0+  Al84  1  0.17924252  0.93109302  0.68191268  1
  Al0+  Al85  1  0.93065782  0.82090087  0.64915774  1
  Al0+  Al86  1  0.81828021  0.07032598  0.34652410  1
  Al0+  Al87  1  0.32203145  0.57001390  0.68442481  1
  Al0+  Al88  1  0.67821807  0.43026282  0.01480663  1
  Al0+  Al89  1  0.42977432  0.31988586  0.98418702  1
  Al0+  Al90  1  0.42951689  0.31997421  0.31861588  1
  Al0+  Al91  1  0.32182900  0.07394791  0.01411517  1
  Al0+  Al92  1  0.32255798  0.57086018  0.34604965  1
  Al0+  Al93  1  0.81990538  0.57410678  0.68166282  1
  Al0+  Al94  1  0.81955807  0.07106525  0.68175484  1
  Al0+  Al95  1  0.07436095  0.67617434  0.98349320  1
  Si0+  Si96  1  0.57128110  0.67782329  0.65181556  1
  Si0+  Si97  1  0.92980093  0.32222453  0.65363037  1
  Si0+  Si98  1  0.07053873  0.17912946  0.65130056  1
  Si0+  Si99  1  0.06904733  0.67802941  0.32107053  1
  Si0+  Si100  1  0.82103089  0.57312918  0.34717821  1
  Si0+  Si101  1  0.42762210  0.32197164  0.64734129  1
  Si0+  Si102  1  0.42780048  0.81894669  0.65327808  1
  Si0+  Si103  1  0.92780653  0.32596135  0.31732291  1
  Si0+  Si104  1  0.67980830  0.42847746  0.68297989  1
  Si0+  Si105  1  0.67632459  0.92807298  0.68307897  1
  Si0+  Si106  1  0.07267110  0.67669053  0.64824620  1
  Si0+  Si107  1  0.42768377  0.82532842  0.98257980  1
  Si0+  Si108  1  0.81976663  0.07095278  0.01516623  1
  Si0+  Si109  1  0.32576418  0.07079462  0.68125745  1
  Si0+  Si110  1  0.17756377  0.42959937  0.01428902  1
  Si0+  Si111  1  0.68011370  0.42982875  0.35011999  1
  Si0+  Si112  1  0.57481925  0.67764604  0.31774699  1
  Si0+  Si113  1  0.82108822  0.57359125  0.01777237  1
  Si0+  Si114  1  0.32164917  0.56968024  0.01401177  1
  Si0+  Si115  1  0.92870991  0.82076290  0.31920534  1
  Si0+  Si116  1  0.92373574  0.32193075  0.98360741  1
  Si0+  Si117  1  0.67861083  0.92647723  0.01528213  1
  Si0+  Si118  1  0.57592183  0.17750690  0.98320114  1
  Si0+  Si119  1  0.67829334  0.92451035  0.35005142  1
  O2-  O120  1  0.25324971  -0.00136467  0.06409270  1
  O2-  O121  1  0.25178171  -0.00113594  0.39846637  1
  O2-  O122  1  0.25434483  0.00608103  0.72670420  1
  O2-  O123  1  0.24471912  0.50475588  0.05561877  1
  O2-  O124  1  0.25249529  0.49649663  0.39499103  1
  O2-  O125  1  0.25115897  0.49742897  0.73487306  1
  O2-  O126  1  0.74834852  -0.00034681  0.05638434  1
  O2-  O127  1  0.74047488  -0.00081598  0.39391611  1
  O2-  O128  1  0.74370696  -0.00250349  0.72829166  1
  O2-  O129  1  0.75416050  0.50372891  0.06329464  1
  O2-  O130  1  0.75113739  0.50176624  0.39080660  1
  O2-  O131  1  0.74337405  0.50132867  0.72804366  1
  O2-  O132  1  -0.00113962  0.25878234  0.27498076  1
  O2-  O133  1  0.00354293  0.25490429  0.61043180  1
  O2-  O134  1  -0.00555682  0.25656537  0.93798670  1
  O2-  O135  1  0.00021020  0.75071514  0.27799870  1
  O2-  O136  1  0.00564732  0.74639435  0.60168921  1
  O2-  O137  1  0.00314889  0.75018869  0.93534784  1
  O2-  O138  1  0.49682342  0.24391136  0.26646776  1
  O2-  O139  1  0.49432341  0.25035996  0.60534352  1
  O2-  O140  1  0.50280771  0.24181734  0.94005047  1
  O2-  O141  1  0.50143007  0.74232118  0.27577301  1
  O2-  O142  1  0.49689134  0.74522149  0.61035822  1
  O2-  O143  1  0.49486246  0.75553194  0.93693866  1
  O2-  O144  1  0.06846701  0.18131559  0.09839067  1
  O2-  O145  1  0.06520873  0.17801262  0.43518115  1
  O2-  O146  1  0.06826896  0.17925480  0.75646511  1
  O2-  O147  1  0.07135094  0.67348499  0.09792530  1
  O2-  O148  1  0.06537525  0.67540759  0.42587950  1
  O2-  O149  1  0.07015754  0.67740191  0.75356839  1
  O2-  O150  1  0.58276119  0.18061140  0.08798866  1
  O2-  O151  1  0.57622167  0.18338830  0.43033093  1
  O2-  O152  1  0.57124838  0.18205408  0.76662378  1
  O2-  O153  1  0.56559079  0.68173963  0.10025086  1
  O2-  O154  1  0.58151274  0.68074735  0.42339206  1
  O2-  O155  1  0.57227823  0.67930545  0.75683303  1
  O2-  O156  1  0.17575246  0.43098248  0.23199904  1
  O2-  O157  1  0.17865507  0.42604236  0.57059818  1
  O2-  O158  1  0.17918479  0.42888552  0.90937296  1
  O2-  O159  1  0.17587953  0.92793837  0.23525066  1
  O2-  O160  1  0.18006716  0.93268587  0.56886866  1
  O2-  O161  1  0.17825511  0.93236035  0.90196595  1
  O2-  O162  1  0.68016823  0.43045704  0.24508714  1
  O2-  O163  1  0.68291938  0.42935349  0.57700100  1
  O2-  O164  1  0.68085633  0.43153231  0.90158498  1
  O2-  O165  1  0.68459290  0.91736955  0.24463149  1
  O2-  O166  1  0.67576400  0.92675941  0.57763990  1
  O2-  O167  1  0.67773773  0.92569124  0.91021012  1
  O2-  O168  1  0.42963651  0.32298887  0.09680755  1
  O2-  O169  1  0.43433647  0.32227854  0.43218505  1
  O2-  O170  1  0.42945870  0.32305185  0.75305867  1
  O2-  O171  1  0.42908916  0.82271888  0.08812666  1
  O2-  O172  1  0.42787502  0.81655725  0.43378336  1
  O2-  O173  1  0.43205558  0.82072367  0.75817831  1
  O2-  O174  1  0.92068661  0.31916842  0.08910626  1
  O2-  O175  1  0.92616853  0.32808854  0.42324197  1
  O2-  O176  1  0.92698522  0.31937624  0.75855140  1
  O2-  O177  1  0.92827655  0.81990433  0.09873043  1
  O2-  O178  1  0.92646111  0.81903106  0.42423805  1
  O2-  O179  1  0.93065208  0.81997162  0.76164764  1
  O2-  O180  1  0.31889268  0.07064846  0.23473168  1
  O2-  O181  1  0.32767656  0.06791491  0.57593764  1
  O2-  O182  1  0.32080620  0.07201099  0.89971989  1
  O2-  O183  1  0.31992802  0.57201891  0.23197189  1
  O2-  O184  1  0.32162453  0.56977991  0.57111731  1
  O2-  O185  1  0.32416955  0.56591643  0.90914754  1
  O2-  O186  1  0.82072933  0.06654300  0.23311288  1
  O2-  O187  1  0.81912153  0.07138815  0.56877304  1
  O2-  O188  1  0.81794144  0.07292173  0.91006226  1
  O2-  O189  1  0.82079126  0.57396799  0.24247738  1
  O2-  O190  1  0.81776775  0.57159202  0.56761942  1
  O2-  O191  1  0.81803822  0.57283289  0.91228762  1
  O2-  O192  1  0.03167733  0.08489534  0.26681667  1
  O2-  O193  1  0.03681942  0.08938377  0.60456021  1
  O2-  O194  1  0.03578983  0.08690581  0.93020609  1
  O2-  O195  1  0.03839837  0.58764746  0.27150530  1
  O2-  O196  1  0.04369316  0.58251983  0.60460134  1
  O2-  O197  1  0.04378940  0.57823379  0.92977593  1
  O2-  O198  1  0.56000998  0.07433899  0.26839373  1
  O2-  O199  1  0.54698904  0.08076493  0.59941892  1
  O2-  O200  1  0.55700265  0.08145121  0.93926844  1
  O2-  O201  1  0.55445291  0.58217834  0.27472232  1
  O2-  O202  1  0.54877442  0.58405324  0.60525477  1
  O2-  O203  1  0.53754891  0.58512970  0.93093733  1
  O2-  O204  1  0.16637829  0.20605234  0.26682524  1
  O2-  O205  1  0.16447031  0.20217026  0.60573539  1
  O2-  O206  1  0.16344778  0.21335004  0.92754451  1
  O2-  O207  1  0.16088830  0.70338588  0.27363302  1
  O2-  O208  1  0.16831312  0.70113800  0.60634676  1
  O2-  O209  1  0.17341516  0.70097663  0.93032646  1
  O2-  O210  1  0.67096348  0.21301479  0.26428850  1
  O2-  O211  1  0.66806283  0.21371402  0.60055803  1
  O2-  O212  1  0.66745264  0.20963801  0.93541284  1
  O2-  O213  1  0.66596853  0.70771917  0.26793171  1
  O2-  O214  1  0.66137147  0.70868805  0.60268257  1
  O2-  O215  1  0.66410852  0.71055211  0.93257668  1
  O2-  O216  1  0.08357599  0.45130113  0.06022901  1
  O2-  O217  1  0.07938756  0.45716394  0.39962567  1
  O2-  O218  1  0.08047040  0.45300728  0.73779619  1
  O2-  O219  1  0.07903260  0.95939332  0.06598503  1
  O2-  O220  1  0.08013811  0.96032679  0.40175866  1
  O2-  O221  1  0.08354460  0.96371380  0.73543065  1
  O2-  O222  1  0.58289052  0.46487749  0.06859348  1
  O2-  O223  1  0.59021995  0.45749611  0.40069866  1
  O2-  O224  1  0.58441268  0.44907166  0.72615712  1
  O2-  O225  1  0.58671571  0.95121630  0.06393370  1
  O2-  O226  1  0.58197737  0.94178947  0.39215717  1
  O2-  O227  1  0.58257830  0.95168325  0.73008054  1
  O2-  O228  1  0.21066859  0.33860416  0.05909480  1
  O2-  O229  1  0.20237864  0.32838370  0.39887199  1
  O2-  O230  1  0.20726737  0.32693071  0.73648434  1
  O2-  O231  1  0.20346869  0.82806567  0.06553160  1
  O2-  O232  1  0.20388843  0.83019565  0.40165465  1
  O2-  O233  1  0.20769585  0.83427854  0.73554684  1
  O2-  O234  1  0.70937849  0.33484902  0.07155588  1
  O2-  O235  1  0.71033695  0.33964794  0.39884709  1
  O2-  O236  1  0.71115303  0.33776474  0.73064012  1
  O2-  O237  1  0.70891406  0.83584539  0.06381466  1
  O2-  O238  1  0.70976642  0.83384524  0.40028159  1
  O2-  O239  1  0.70410481  0.83514014  0.72922864  1
  O2-  O240  1  0.46271457  0.41865123  0.26703259  1
  O2-  O241  1  0.45631336  0.41489242  0.60106715  1
  O2-  O242  1  0.46582758  0.41371730  0.92808043  1
  O2-  O243  1  0.45905089  0.91231718  0.26154288  1
  O2-  O244  1  0.45775591  0.90876830  0.60315723  1
  O2-  O245  1  0.45669363  0.91863734  0.93756997  1
  O2-  O246  1  0.94803316  0.42040714  0.27016634  1
  O2-  O247  1  0.95315391  0.41630946  0.60802046  1
  O2-  O248  1  0.94537653  0.41734574  0.94009420  1
  O2-  O249  1  0.95481727  0.91279326  0.27247542  1
  O2-  O250  1  0.96154934  0.91881598  0.59713562  1
  O2-  O251  1  0.95541255  0.92012032  0.93055419  1
  O2-  O252  1  0.32936760  0.29668879  0.26673303  1
  O2-  O253  1  0.33269172  0.29932373  0.60322373  1
  O2-  O254  1  0.33497220  0.29128933  0.92574598  1
  O2-  O255  1  0.33042828  0.78711232  0.26467755  1
  O2-  O256  1  0.33515108  0.79101011  0.60788227  1
  O2-  O257  1  0.33389170  0.80132252  0.93723932  1
  O2-  O258  1  0.83523556  0.29735434  0.27131594  1
  O2-  O259  1  0.83938074  0.29239037  0.60406307  1
  O2-  O260  1  0.83115401  0.29379103  0.93630576  1
  O2-  O261  1  0.83750760  0.79152637  0.27086229  1
  O2-  O262  1  0.83286897  0.79056653  0.59570881  1
  O2-  O263  1  0.83196550  0.79302412  0.93017357  1
  O2-  O264  1  0.42360271  0.05441586  0.06414655  1
  O2-  O265  1  0.42447960  0.04193254  0.39609344  1
  O2-  O266  1  0.41833139  0.04233707  0.72823924  1
  O2-  O267  1  0.41132795  0.53703280  0.06173656  1
  O2-  O268  1  0.42280938  0.54833520  0.39895154  1
  O2-  O269  1  0.42234369  0.54203250  0.73538095  1
  O2-  O270  1  0.91138288  0.04191480  0.06140152  1
  O2-  O271  1  0.91180660  0.03585099  0.40337380  1
  O2-  O272  1  0.91458064  0.03865258  0.73663256  1
  O2-  O273  1  0.91579239  0.54932279  0.06228293  1
  O2-  O274  1  0.91158960  0.54643972  0.39741962  1
  O2-  O275  1  0.91470883  0.54310486  0.73713449  1
  O2-  O276  1  0.28785179  0.17244676  0.06310902  1
  O2-  O277  1  0.29674895  0.16877437  0.40176842  1
  O2-  O278  1  0.30364258  0.16634994  0.72390091  1
  O2-  O279  1  0.30080161  0.66480051  0.05754226  1
  O2-  O280  1  0.28954334  0.66654522  0.40101636  1
  O2-  O281  1  0.29616789  0.66770885  0.73970123  1
  O2-  O282  1  0.79244083  0.16209763  0.06390453  1
  O2-  O283  1  0.79268426  0.16891554  0.40004713  1
  O2-  O284  1  0.78968148  0.16762510  0.73698545  1
  O2-  O285  1  0.79273779  0.66688451  0.06293365  1
  O2-  O286  1  0.79173969  0.66428921  0.39576810  1
  O2-  O287  1  0.78829507  0.67048648  0.73458290  1
