# generated using pymatgen
data_Ca2Al2SiO7
_symmetry_space_group_name_H-M   'P 1'
_cell_length_a   15.45527440
_cell_length_b   15.45590282
_cell_length_c   15.28189974
_cell_angle_alpha   90.00984152
_cell_angle_beta   89.99225431
_cell_angle_gamma   90.00478286
_symmetry_Int_Tables_number   1
_chemical_formula_structural   Ca2Al2SiO7
_chemical_formula_sum   'Ca48 Al48 Si24 O168'
_cell_volume   3650.46705124
_cell_formula_units_Z   24
loop_
 _symmetry_equiv_pos_site_id
 _symmetry_equiv_pos_as_xyz
  1  'x, y, z'
loop_
 _atom_type_symbol
 _atom_type_oxidation_number
  Ca2+  2.0
  Al0+  0.0
  Si0+  0.0
  O2-  -2.0
loop_
 _atom_site_type_symbol
 _atom_site_label
 _atom_site_symmetry_multiplicity
 _atom_site_fract_x
 _atom_site_fract_y
 _atom_site_fract_z
 _atom_site_occupancy
  Ca2+  Ca0  1  0.17332918  0.08369687  0.17644589  1
  Ca2+  Ca1  1  0.16508982  0.08400867  0.49690080  1
  Ca2+  Ca2  1  0.17360847  0.08170245  0.83953870  1
  Ca2+  Ca3  1  0.16501307  0.57376341  0.17013331  1
  Ca2+  Ca4  1  0.15883522  0.57339051  0.50222814  1
  Ca2+  Ca5  1  0.17310475  0.57180364  0.83965764  1
  Ca2+  Ca6  1  0.67268159  0.07773684  0.17120132  1
  Ca2+  Ca7  1  0.67547004  0.08533679  0.50005984  1
  Ca2+  Ca8  1  0.66681806  0.07402833  0.83869738  1
  Ca2+  Ca9  1  0.67639028  0.57625912  0.16957458  1
  Ca2+  Ca10  1  0.67205073  0.57425519  0.50858052  1
  Ca2+  Ca11  1  0.67352188  0.58364247  0.83209031  1
  Ca2+  Ca12  1  0.07977638  0.33461726  0.16506455  1
  Ca2+  Ca13  1  0.07328708  0.33719462  0.49203076  1
  Ca2+  Ca14  1  0.07754416  0.34281045  0.83137463  1
  Ca2+  Ca15  1  0.08271191  0.83025399  0.16508764  1
  Ca2+  Ca16  1  0.08292191  0.82614784  0.49167716  1
  Ca2+  Ca17  1  0.07080617  0.83040059  0.82759199  1
  Ca2+  Ca18  1  0.57792883  0.33347026  0.16165259  1
  Ca2+  Ca19  1  0.57912160  0.34489246  0.49736666  1
  Ca2+  Ca20  1  0.57025475  0.34167146  0.82758530  1
  Ca2+  Ca21  1  0.58515953  0.83370415  0.15987795  1
  Ca2+  Ca22  1  0.57969790  0.82661363  0.50238032  1
  Ca2+  Ca23  1  0.58008933  0.82687025  0.82388933  1
  Ca2+  Ca24  1  0.32208274  0.41461982  0.16680463  1
  Ca2+  Ca25  1  0.31884076  0.41035525  0.50658224  1
  Ca2+  Ca26  1  0.32578973  0.41348307  0.84116035  1
  Ca2+  Ca27  1  0.32827900  0.93041586  0.17590693  1
  Ca2+  Ca28  1  0.32945132  0.91846049  0.50090104  1
  Ca2+  Ca29  1  0.33765142  0.92160415  0.83953075  1
  Ca2+  Ca30  1  0.83496492  0.41506495  0.17215781  1
  Ca2+  Ca31  1  0.82718451  0.41587132  0.50981097  1
  Ca2+  Ca32  1  0.83811513  0.42767304  0.83610111  1
  Ca2+  Ca33  1  0.83314272  0.91951860  0.16803176  1
  Ca2+  Ca34  1  0.84433331  0.92548790  0.50292304  1
  Ca2+  Ca35  1  0.82926977  0.91040077  0.84151201  1
  Ca2+  Ca36  1  0.41023885  0.16937052  0.16029621  1
  Ca2+  Ca37  1  0.41637843  0.17101027  0.49813660  1
  Ca2+  Ca38  1  0.41336645  0.17623929  0.83238293  1
  Ca2+  Ca39  1  0.41735570  0.66424351  0.16030563  1
  Ca2+  Ca40  1  0.42099467  0.66620476  0.49997011  1
  Ca2+  Ca41  1  0.42274150  0.66708893  0.82356832  1
  Ca2+  Ca42  1  0.91817073  0.17547055  0.16630005  1
  Ca2+  Ca43  1  0.92030757  0.17758191  0.48912642  1
  Ca2+  Ca44  1  0.91710519  0.18263501  0.82836816  1
  Ca2+  Ca45  1  0.92404997  0.66593614  0.16008132  1
  Ca2+  Ca46  1  0.91792110  0.66917714  0.49815122  1
  Ca2+  Ca47  1  0.90628272  0.67299403  0.82914156  1
  Al0+  Al48  1  -0.00067490  -0.00031999  -0.00521374  1
  Al0+  Al49  1  0.00039618  0.00095310  0.33653962  1
  Al0+  Al50  1  0.00169995  0.00027689  0.66640744  1
  Al0+  Al51  1  0.00087191  0.50011782  0.00338218  1
  Al0+  Al52  1  -0.00022249  0.50384450  0.32900204  1
  Al0+  Al53  1  -0.00061180  0.50048545  0.67171364  1
  Al0+  Al54  1  0.50139937  -0.00071600  0.00811653  1
  Al0+  Al55  1  0.50026083  0.00055384  0.33793017  1
  Al0+  Al56  1  0.50018700  0.00071955  0.66224750  1
  Al0+  Al57  1  0.50058265  0.49963068  -0.00148907  1
  Al0+  Al58  1  0.50139276  0.50147702  0.33347947  1
  Al0+  Al59  1  0.49946900  0.49990120  0.65978137  1
  Al0+  Al60  1  0.25015167  0.24859439  0.00317718  1
  Al0+  Al61  1  0.24947676  0.25129376  0.33864233  1
  Al0+  Al62  1  0.25100262  0.24783630  0.66790844  1
  Al0+  Al63  1  0.25050698  0.74962964  0.00063135  1
  Al0+  Al64  1  0.25125196  0.75124034  0.33098383  1
  Al0+  Al65  1  0.24860464  0.75117324  0.66444591  1
  Al0+  Al66  1  0.75056088  0.24842622  -0.00680202  1
  Al0+  Al67  1  0.74680776  0.24901309  0.33658949  1
  Al0+  Al68  1  0.74877979  0.24919621  0.66979717  1
  Al0+  Al69  1  0.74975611  0.74849444  0.00674025  1
  Al0+  Al70  1  0.74766894  0.74941540  0.33252729  1
  Al0+  Al71  1  0.74953498  0.75133818  0.65817367  1
  Al0+  Al72  1  0.81989924  0.57006331  0.01498266  1
  Al0+  Al73  1  0.82022811  0.06949177  0.34593870  1
  Al0+  Al74  1  0.57110727  0.67827929  0.64992771  1
  Al0+  Al75  1  0.42672707  0.82321116  0.65130664  1
  Al0+  Al76  1  0.68078595  0.92858789  0.01241932  1
  Al0+  Al77  1  0.17930995  0.42897777  0.01687295  1
  Al0+  Al78  1  0.92985212  0.32195736  0.65374549  1
  Al0+  Al79  1  0.42957694  0.31955785  0.98797868  1
  Al0+  Al80  1  0.07174071  0.17944659  0.31843000  1
  Al0+  Al81  1  0.32420780  0.57233990  0.01331676  1
  Al0+  Al82  1  0.82011496  0.57203264  0.68081702  1
  Al0+  Al83  1  0.31977142  0.06882224  0.01287421  1
  Al0+  Al84  1  0.32197914  0.07303319  0.35224633  1
  Al0+  Al85  1  0.92891137  0.32207982  0.98495564  1
  Al0+  Al86  1  0.67624064  0.42692515  0.68376663  1
  Al0+  Al87  1  0.17861005  0.43166584  0.34803116  1
  Al0+  Al88  1  0.17946673  0.42770551  0.68076469  1
  Al0+  Al89  1  0.42882317  0.32005161  0.65214438  1
  Al0+  Al90  1  0.92622362  0.32176382  0.31913236  1
  Al0+  Al91  1  0.67953271  0.42927043  0.34561717  1
  Al0+  Al92  1  0.92937180  0.81906690  0.98773983  1
  Al0+  Al93  1  0.07189044  0.68020558  0.31835997  1
  Al0+  Al94  1  0.92858343  0.82204246  0.65196684  1
  Al0+  Al95  1  0.17901640  0.92797521  0.34877558  1
  Si0+  Si96  1  0.67988686  0.93131560  0.67936977  1
  Si0+  Si97  1  0.57039491  0.67889165  0.31453213  1
  Si0+  Si98  1  0.07254326  0.17765579  0.65065395  1
  Si0+  Si99  1  0.17509296  0.92722444  0.01478044  1
  Si0+  Si100  1  0.07169976  0.67856833  0.65154146  1
  Si0+  Si101  1  0.92680167  0.82278487  0.31630595  1
  Si0+  Si102  1  0.42933179  0.32123863  0.31864364  1
  Si0+  Si103  1  0.67792523  0.42588076  0.01473166  1
  Si0+  Si104  1  0.57032218  0.17729290  0.31791802  1
  Si0+  Si105  1  0.57241237  0.17537353  0.98386035  1
  Si0+  Si106  1  0.07257357  0.17756873  0.98293668  1
  Si0+  Si107  1  0.32198231  0.06861640  0.68328869  1
  Si0+  Si108  1  0.82383802  0.07113896  0.68351157  1
  Si0+  Si109  1  0.17820324  0.92736953  0.68355250  1
  Si0+  Si110  1  0.57213614  0.17649894  0.64939503  1
  Si0+  Si111  1  0.67748746  0.92584161  0.35295531  1
  Si0+  Si112  1  0.57072889  0.67950037  0.98628343  1
  Si0+  Si113  1  0.32107578  0.57319806  0.68030175  1
  Si0+  Si114  1  0.82199688  0.57305622  0.34951501  1
  Si0+  Si115  1  0.43077943  0.82209853  0.31601802  1
  Si0+  Si116  1  0.42962500  0.82247492  0.98823075  1
  Si0+  Si117  1  0.07387378  0.67755076  0.98155257  1
  Si0+  Si118  1  0.82322660  0.07354587  0.01469439  1
  Si0+  Si119  1  0.32340135  0.57266705  0.35027637  1
  O2-  O120  1  0.24460995  -0.00531201  0.05878923  1
  O2-  O121  1  0.24887428  0.00131470  0.40097875  1
  O2-  O122  1  0.25171912  -0.00364418  0.72528475  1
  O2-  O123  1  0.25150846  0.50252698  0.06475081  1
  O2-  O124  1  0.25349383  0.50639181  0.39538265  1
  O2-  O125  1  0.25636929  0.50174812  0.72545028  1
  O2-  O126  1  0.75534781  0.00358465  0.05829287  1
  O2-  O127  1  0.74949431  -0.00860938  0.39572331  1
  O2-  O128  1  0.75291922  -0.00119674  0.72428916  1
  O2-  O129  1  0.75062681  0.48930934  0.06022543  1
  O2-  O130  1  0.75769101  0.50000301  0.39218336  1
  O2-  O131  1  0.75005817  0.49806310  0.73214628  1
  O2-  O132  1  0.00025030  0.25178833  0.26824143  1
  O2-  O133  1  0.00471176  0.24739619  0.60764839  1
  O2-  O134  1  0.00455549  0.24705219  0.93908734  1
  O2-  O135  1  -0.00424921  0.75465265  0.27236743  1
  O2-  O136  1  0.00285231  0.74705046  0.60688101  1
  O2-  O137  1  0.00402251  0.74585287  0.93804744  1
  O2-  O138  1  0.49810001  0.24745333  0.27631928  1
  O2-  O139  1  0.50865314  0.25027611  0.60555189  1
  O2-  O140  1  0.50575363  0.24604453  0.94029392  1
  O2-  O141  1  0.50114934  0.75135459  0.27174564  1
  O2-  O142  1  0.49540582  0.74821841  0.60117811  1
  O2-  O143  1  0.49565504  0.74745377  0.94528003  1
  O2-  O144  1  0.07196350  0.17485924  0.08805995  1
  O2-  O145  1  0.06898006  0.18101617  0.43223801  1
  O2-  O146  1  0.07139903  0.17437050  0.75648471  1
  O2-  O147  1  0.07400050  0.68015821  0.08719213  1
  O2-  O148  1  0.06966460  0.68007217  0.43174725  1
  O2-  O149  1  0.07492584  0.68232082  0.75700681  1
  O2-  O150  1  0.57315988  0.17489085  0.08959138  1
  O2-  O151  1  0.57080392  0.17631264  0.42290050  1
  O2-  O152  1  0.56775471  0.16891694  0.75471845  1
  O2-  O153  1  0.57058652  0.68114918  0.09171916  1
  O2-  O154  1  0.56977929  0.67920432  0.41909538  1
  O2-  O155  1  0.57132886  0.68243751  0.76426603  1
  O2-  O156  1  0.18092422  0.43112896  0.23533380  1
  O2-  O157  1  0.17848770  0.42899801  0.56759520  1
  O2-  O158  1  0.18153581  0.42946911  0.90298437  1
  O2-  O159  1  0.18291153  0.92752187  0.23483232  1
  O2-  O160  1  0.17672351  0.92781507  0.57901758  1
  O2-  O161  1  0.17608857  0.92833996  0.90870216  1
  O2-  O162  1  0.67603352  0.43197234  0.23216238  1
  O2-  O163  1  0.67884474  0.42860131  0.56993519  1
  O2-  O164  1  0.67493718  0.42963188  0.90968327  1
  O2-  O165  1  0.67601737  0.92672972  0.24715257  1
  O2-  O166  1  0.67912697  0.93493666  0.57447901  1
  O2-  O167  1  0.67928285  0.92877162  0.89886926  1
  O2-  O168  1  0.43121400  0.31794575  0.10140076  1
  O2-  O169  1  0.43148437  0.32149975  0.42376712  1
  O2-  O170  1  0.42675820  0.31637691  0.76542125  1
  O2-  O171  1  0.43285702  0.82384758  0.09332451  1
  O2-  O172  1  0.43229298  0.82086215  0.42091828  1
  O2-  O173  1  0.43046388  0.82528900  0.76561742  1
  O2-  O174  1  0.92580229  0.31851056  0.09762330  1
  O2-  O175  1  0.92597154  0.32075097  0.43292237  1
  O2-  O176  1  0.93204623  0.32112620  0.76704366  1
  O2-  O177  1  0.93082314  0.81953540  0.10065037  1
  O2-  O178  1  0.92636347  0.82050257  0.42201206  1
  O2-  O179  1  0.92836627  0.82247362  0.76537233  1
  O2-  O180  1  0.32404270  0.07028991  0.23848746  1
  O2-  O181  1  0.32183827  0.06893908  0.57869712  1
  O2-  O182  1  0.32060348  0.06657147  0.89919326  1
  O2-  O183  1  0.32571890  0.57019430  0.24474833  1
  O2-  O184  1  0.31769376  0.57450873  0.57468165  1
  O2-  O185  1  0.32458993  0.57305701  0.89953297  1
  O2-  O186  1  0.81636724  0.06845858  0.23262383  1
  O2-  O187  1  0.82343632  0.07069270  0.57837943  1
  O2-  O188  1  0.82126219  0.07288168  0.90885126  1
  O2-  O189  1  0.81835681  0.57604645  0.24375084  1
  O2-  O190  1  0.82045073  0.57184112  0.56715865  1
  O2-  O191  1  0.81532200  0.57454773  0.90236545  1
  O2-  O192  1  0.04455062  0.07961585  0.26714830  1
  O2-  O193  1  0.04631011  0.08446797  0.60402429  1
  O2-  O194  1  0.04769587  0.08435521  0.93406508  1
  O2-  O195  1  0.04010962  0.58608649  0.26050489  1
  O2-  O196  1  0.04472356  0.58526123  0.60661854  1
  O2-  O197  1  0.04911356  0.58341146  0.93786035  1
  O2-  O198  1  0.54466575  0.08406599  0.27105529  1
  O2-  O199  1  0.54151599  0.08652341  0.59830912  1
  O2-  O200  1  0.54314471  0.08184052  0.93858683  1
  O2-  O201  1  0.54082903  0.58800813  0.26586318  1
  O2-  O202  1  0.54418974  0.58120832  0.59404041  1
  O2-  O203  1  0.54707454  0.58736966  0.93800752  1
  O2-  O204  1  0.17192970  0.20707803  0.26812955  1
  O2-  O205  1  0.16715550  0.19994785  0.60622607  1
  O2-  O206  1  0.16653661  0.20240827  0.93696730  1
  O2-  O207  1  0.16895163  0.71035855  0.26394207  1
  O2-  O208  1  0.16406207  0.70460264  0.60302021  1
  O2-  O209  1  0.16761758  0.70367390  0.93477829  1
  O2-  O210  1  0.66068616  0.20598218  0.26872403  1
  O2-  O211  1  0.66821168  0.19599366  0.60628290  1
  O2-  O212  1  0.66611818  0.19540201  0.93557586  1
  O2-  O213  1  0.66269865  0.70643020  0.26686683  1
  O2-  O214  1  0.66536096  0.71253021  0.59251354  1
  O2-  O215  1  0.66065165  0.71292077  0.93976895  1
  O2-  O216  1  0.08170641  0.45742154  0.07031871  1
  O2-  O217  1  0.08126614  0.46505146  0.39949066  1
  O2-  O218  1  0.08497184  0.46116979  0.73634191  1
  O2-  O219  1  0.08133885  0.95284719  0.06009002  1
  O2-  O220  1  0.07977292  0.95187300  0.40168309  1
  O2-  O221  1  0.08769825  0.95868535  0.73264581  1
  O2-  O222  1  0.58628527  0.45565322  0.06260857  1
  O2-  O223  1  0.58458079  0.46567431  0.40025696  1
  O2-  O224  1  0.57652753  0.45851657  0.73282930  1
  O2-  O225  1  0.58669663  0.95963846  0.07149983  1
  O2-  O226  1  0.58574517  0.95512014  0.39994524  1
  O2-  O227  1  0.58830501  0.96140999  0.72721433  1
  O2-  O228  1  0.20930013  0.33101674  0.06900817  1
  O2-  O229  1  0.20950217  0.33620518  0.40319350  1
  O2-  O230  1  0.21016902  0.33043881  0.73398159  1
  O2-  O231  1  0.19904565  0.83311518  0.05962938  1
  O2-  O232  1  0.21188936  0.83047491  0.40208690  1
  O2-  O233  1  0.20341463  0.83506055  0.73148528  1
  O2-  O234  1  0.69824491  0.32901717  0.05652903  1
  O2-  O235  1  0.70113156  0.33130434  0.40006484  1
  O2-  O236  1  0.69723475  0.32580404  0.73486436  1
  O2-  O237  1  0.71112446  0.83463037  0.07113698  1
  O2-  O238  1  0.69884267  0.83042204  0.39692350  1
  O2-  O239  1  0.70511297  0.83814510  0.72420527  1
  O2-  O240  1  0.46038656  0.41250309  0.27177287  1
  O2-  O241  1  0.45284007  0.41703376  0.59640304  1
  O2-  O242  1  0.45943418  0.41629452  0.93292683  1
  O2-  O243  1  0.46056379  0.91466429  0.27057511  1
  O2-  O244  1  0.45986460  0.91911704  0.59604594  1
  O2-  O245  1  0.46232973  0.91286872  0.94051499  1
  O2-  O246  1  0.95167173  0.42142639  0.26811992  1
  O2-  O247  1  0.95909006  0.41953970  0.60164986  1
  O2-  O248  1  0.96051830  0.41955836  0.93310453  1
  O2-  O249  1  0.95128828  0.91691424  0.27182214  1
  O2-  O250  1  0.96236250  0.91850649  0.59939449  1
  O2-  O251  1  0.95568993  0.91648864  0.93130727  1
  O2-  O252  1  0.33686633  0.29472705  0.27316838  1
  O2-  O253  1  0.33412300  0.28258005  0.59798308  1
  O2-  O254  1  0.33378499  0.28551068  0.93404025  1
  O2-  O255  1  0.33924724  0.79598848  0.26796008  1
  O2-  O256  1  0.32728062  0.79837420  0.59892591  1
  O2-  O257  1  0.33553392  0.80223387  0.94152413  1
  O2-  O258  1  0.82753133  0.28963590  0.26760311  1
  O2-  O259  1  0.83150655  0.28993099  0.60389944  1
  O2-  O260  1  0.83290214  0.29085055  0.92847209  1
  O2-  O261  1  0.83150462  0.79799550  0.27200572  1
  O2-  O262  1  0.83295899  0.79644667  0.59486445  1
  O2-  O263  1  0.83143995  0.78658837  0.93624074  1
  O2-  O264  1  0.41525996  0.03881274  0.06939426  1
  O2-  O265  1  0.42032237  0.04244104  0.40486862  1
  O2-  O266  1  0.41446057  0.04074228  0.72975193  1
  O2-  O267  1  0.42274262  0.54441950  0.06712294  1
  O2-  O268  1  0.41672850  0.54598189  0.39639987  1
  O2-  O269  1  0.41690644  0.55172705  0.72221252  1
  O2-  O270  1  0.91709626  0.04755463  0.05926944  1
  O2-  O271  1  0.91608019  0.04195204  0.40262021  1
  O2-  O272  1  0.91580002  0.04390935  0.73063559  1
  O2-  O273  1  0.91804595  0.54501333  0.06734158  1
  O2-  O274  1  0.91740255  0.55457394  0.39282336  1
  O2-  O275  1  0.91819259  0.54708904  0.73626555  1
  O2-  O276  1  0.29013008  0.16416071  0.06830225  1
  O2-  O277  1  0.29547199  0.17121147  0.40545687  1
  O2-  O278  1  0.29208409  0.15910228  0.73208120  1
  O2-  O279  1  0.29984322  0.67265571  0.06591671  1
  O2-  O280  1  0.30161530  0.66806804  0.39322466  1
  O2-  O281  1  0.29479661  0.66687636  0.72742708  1
  O2-  O282  1  0.79520461  0.16624680  0.06096347  1
  O2-  O283  1  0.78403001  0.16305727  0.40261326  1
  O2-  O284  1  0.79396859  0.16133097  0.73254672  1
  O2-  O285  1  0.78405454  0.66267963  0.07328096  1
  O2-  O286  1  0.79086938  0.66547250  0.39585610  1
  O2-  O287  1  0.78800984  0.67209924  0.73032764  1
