# generated using pymatgen
data_Ca2Al2SiO7
_symmetry_space_group_name_H-M   'P 1'
_cell_length_a   15.45931553
_cell_length_b   15.45893395
_cell_length_c   15.28384926
_cell_angle_alpha   90.00164671
_cell_angle_beta   90.00263283
_cell_angle_gamma   90.01655245
_symmetry_Int_Tables_number   1
_chemical_formula_structural   Ca2Al2SiO7
_chemical_formula_sum   'Ca48 Al48 Si24 O168'
_cell_volume   3652.60349262
_cell_formula_units_Z   24
loop_
 _symmetry_equiv_pos_site_id
 _symmetry_equiv_pos_as_xyz
  1  'x, y, z'
loop_
 _atom_type_symbol
 _atom_type_oxidation_number
  Ca2+  2.0
  Al0+  0.0
  Si0+  0.0
  O2-  -2.0
loop_
 _atom_site_type_symbol
 _atom_site_label
 _atom_site_symmetry_multiplicity
 _atom_site_fract_x
 _atom_site_fract_y
 _atom_site_fract_z
 _atom_site_occupancy
  Ca2+  Ca0  1  0.17367445  0.07380061  0.17060239  1
  Ca2+  Ca1  1  0.17453749  0.07825010  0.50213040  1
  Ca2+  Ca2  1  0.17755668  0.07831568  0.84082069  1
  Ca2+  Ca3  1  0.16778570  0.58406897  0.16887918  1
  Ca2+  Ca4  1  0.15397204  0.58035587  0.50490195  1
  Ca2+  Ca5  1  0.16608056  0.57597806  0.83808601  1
  Ca2+  Ca6  1  0.67011826  0.07368573  0.17148636  1
  Ca2+  Ca7  1  0.67818641  0.08590575  0.50612487  1
  Ca2+  Ca8  1  0.67031651  0.08009742  0.83458381  1
  Ca2+  Ca9  1  0.67069162  0.57367982  0.17588253  1
  Ca2+  Ca10  1  0.66861952  0.58600035  0.49839374  1
  Ca2+  Ca11  1  0.66486238  0.58078318  0.83978317  1
  Ca2+  Ca12  1  0.07826942  0.33503457  0.16295975  1
  Ca2+  Ca13  1  0.07777543  0.33245886  0.49308942  1
  Ca2+  Ca14  1  0.08899467  0.33550009  0.82960906  1
  Ca2+  Ca15  1  0.07647857  0.84049258  0.16344018  1
  Ca2+  Ca16  1  0.07668657  0.82877597  0.49043254  1
  Ca2+  Ca17  1  0.07622094  0.83425129  0.82781994  1
  Ca2+  Ca18  1  0.58074544  0.33560767  0.15922558  1
  Ca2+  Ca19  1  0.58645487  0.32708418  0.49492795  1
  Ca2+  Ca20  1  0.57601274  0.33027905  0.83100872  1
  Ca2+  Ca21  1  0.58981184  0.82666227  0.16258044  1
  Ca2+  Ca22  1  0.58329100  0.82244793  0.49597817  1
  Ca2+  Ca23  1  0.58348981  0.83016380  0.82760842  1
  Ca2+  Ca24  1  0.33212408  0.41905746  0.16286050  1
  Ca2+  Ca25  1  0.32334709  0.41926669  0.50590754  1
  Ca2+  Ca26  1  0.32464403  0.42111924  0.84289760  1
  Ca2+  Ca27  1  0.32360121  0.92403679  0.17403328  1
  Ca2+  Ca28  1  0.32973453  0.92303693  0.50156798  1
  Ca2+  Ca29  1  0.33083318  0.92681469  0.84297645  1
  Ca2+  Ca30  1  0.82331139  0.41928253  0.17897651  1
  Ca2+  Ca31  1  0.83472530  0.42287751  0.49676963  1
  Ca2+  Ca32  1  0.82419080  0.42221483  0.84013017  1
  Ca2+  Ca33  1  0.83469826  0.91574912  0.17072520  1
  Ca2+  Ca34  1  0.84313071  0.92281230  0.50233268  1
  Ca2+  Ca35  1  0.83303602  0.91545051  0.83678316  1
  Ca2+  Ca36  1  0.41045376  0.17056776  0.15895511  1
  Ca2+  Ca37  1  0.41856040  0.16068350  0.49846841  1
  Ca2+  Ca38  1  0.41621620  0.16763410  0.82786011  1
  Ca2+  Ca39  1  0.42185357  0.66138426  0.16281380  1
  Ca2+  Ca40  1  0.42888664  0.66172177  0.49524330  1
  Ca2+  Ca41  1  0.42094451  0.66381380  0.83045563  1
  Ca2+  Ca42  1  0.91125948  0.17023658  0.16758601  1
  Ca2+  Ca43  1  0.91033984  0.17044681  0.49128598  1
  Ca2+  Ca44  1  0.91779294  0.16740138  0.82776730  1
  Ca2+  Ca45  1  0.91897430  0.67416635  0.16657482  1
  Ca2+  Ca46  1  0.92401433  0.67631562  0.49076890  1
  Ca2+  Ca47  1  0.92208546  0.67994178  0.82593601  1
  Al0+  Al48  1  0.00015834  0.00251286  -0.00303367  1
  Al0+  Al49  1  0.00173510  0.00047733  0.33681291  1
  Al0+  Al50  1  0.00089735  0.00338295  0.66808745  1
  Al0+  Al51  1  -0.00056018  0.50132779  0.00110757  1
  Al0+  Al52  1  -0.00247491  0.49992315  0.32765101  1
  Al0+  Al53  1  -0.00330769  0.50018479  0.67050851  1
  Al0+  Al54  1  0.50374156  -0.00100777  0.00737332  1
  Al0+  Al55  1  0.50068403  -0.00043038  0.33649705  1
  Al0+  Al56  1  0.50190536  0.00086689  0.66513461  1
  Al0+  Al57  1  0.49979678  0.49720042  0.00086616  1
  Al0+  Al58  1  0.49916479  0.49706695  0.33384476  1
  Al0+  Al59  1  0.49824593  0.49841167  0.66197090  1
  Al0+  Al60  1  0.24931795  0.25238325  0.00177605  1
  Al0+  Al61  1  0.25096715  0.25070689  0.33643598  1
  Al0+  Al62  1  0.24921956  0.25089908  0.67292394  1
  Al0+  Al63  1  0.25121011  0.74926722  0.00507475  1
  Al0+  Al64  1  0.25158828  0.74913964  0.33534863  1
  Al0+  Al65  1  0.25039320  0.74882317  0.66378809  1
  Al0+  Al66  1  0.74952807  0.25019099  0.00083099  1
  Al0+  Al67  1  0.74753340  0.24835577  0.33444634  1
  Al0+  Al68  1  0.74858066  0.24963665  0.66898756  1
  Al0+  Al69  1  0.75192028  0.75080575  -0.00216369  1
  Al0+  Al70  1  0.75036670  0.74754714  0.32856283  1
  Al0+  Al71  1  0.74997093  0.75052324  0.65886584  1
  Al0+  Al72  1  0.93047292  0.82401531  0.65002840  1
  Al0+  Al73  1  0.81924029  0.06875413  0.34547308  1
  Al0+  Al74  1  0.07089573  0.67733340  0.65351156  1
  Al0+  Al75  1  0.82151243  0.57118052  0.34894715  1
  Al0+  Al76  1  0.42911101  0.31952376  0.98538010  1
  Al0+  Al77  1  0.57080329  0.17950721  0.65292423  1
  Al0+  Al78  1  0.32284096  0.07148034  0.01458203  1
  Al0+  Al79  1  0.82198348  0.07217298  0.68167960  1
  Al0+  Al80  1  0.17648480  0.42962993  0.01743758  1
  Al0+  Al81  1  0.32185299  0.57111679  0.01480221  1
  Al0+  Al82  1  0.68090139  0.92752364  0.01230078  1
  Al0+  Al83  1  0.67998364  0.42902553  0.01196928  1
  Al0+  Al84  1  0.67692513  0.42830358  0.35075156  1
  Al0+  Al85  1  0.56985285  0.67794189  0.31701810  1
  Al0+  Al86  1  0.17909880  0.92717951  0.35047032  1
  Al0+  Al87  1  0.93032490  0.82198432  0.98410099  1
  Al0+  Al88  1  0.32211186  0.07307906  0.35021569  1
  Al0+  Al89  1  0.92784805  0.31878743  0.31987070  1
  Al0+  Al90  1  0.56960901  0.67714276  0.65338773  1
  Al0+  Al91  1  0.93069465  0.82355162  0.31620544  1
  Al0+  Al92  1  0.17692829  0.43150284  0.67919727  1
  Al0+  Al93  1  0.32233385  0.06915319  0.68193426  1
  Al0+  Al94  1  0.17725940  0.92869998  0.01347625  1
  Al0+  Al95  1  0.07329612  0.67779351  0.31588307  1
  Si0+  Si96  1  0.67768844  0.92511226  0.35102667  1
  Si0+  Si97  1  0.07400931  0.67731071  0.98256006  1
  Si0+  Si98  1  0.67994466  0.92679937  0.68137321  1
  Si0+  Si99  1  0.57009932  0.67931516  0.98581863  1
  Si0+  Si100  1  0.42956772  0.82287978  0.31576937  1
  Si0+  Si101  1  0.92666008  0.32253972  0.98413126  1
  Si0+  Si102  1  0.17830435  0.43044307  0.34736865  1
  Si0+  Si103  1  0.42765230  0.31933528  0.31813144  1
  Si0+  Si104  1  0.82236577  0.07274104  0.01594372  1
  Si0+  Si105  1  0.32443253  0.57196186  0.68159504  1
  Si0+  Si106  1  0.17870421  0.92699605  0.68324758  1
  Si0+  Si107  1  0.07425217  0.17959800  0.31707325  1
  Si0+  Si108  1  0.92721753  0.32039107  0.65354408  1
  Si0+  Si109  1  0.57069016  0.17787603  0.31747701  1
  Si0+  Si110  1  0.42917008  0.82247164  0.98734936  1
  Si0+  Si111  1  0.67736686  0.42897795  0.68196440  1
  Si0+  Si112  1  0.42796669  0.82363741  0.65109896  1
  Si0+  Si113  1  0.42640659  0.32015527  0.64870749  1
  Si0+  Si114  1  0.07258353  0.18169788  0.65273187  1
  Si0+  Si115  1  0.32210695  0.57027074  0.34920027  1
  Si0+  Si116  1  0.81845720  0.57218294  0.68209673  1
  Si0+  Si117  1  0.06969530  0.18178787  0.98439483  1
  Si0+  Si118  1  0.82122100  0.57281104  0.01550090  1
  Si0+  Si119  1  0.57354843  0.17554322  0.98355011  1
  O2-  O120  1  0.25278981  -0.00267561  0.06296137  1
  O2-  O121  1  0.25147154  -0.00017402  0.39955942  1
  O2-  O122  1  0.25063186  -0.00802505  0.72838385  1
  O2-  O123  1  0.24702844  0.50299850  0.06675240  1
  O2-  O124  1  0.24515782  0.50498042  0.39045786  1
  O2-  O125  1  0.25042525  0.50824125  0.72414295  1
  O2-  O126  1  0.75484210  0.00266207  0.05871614  1
  O2-  O127  1  0.74878769  -0.00854341  0.39483029  1
  O2-  O128  1  0.75008213  -0.00599991  0.72628181  1
  O2-  O129  1  0.75668454  0.50017664  0.05909450  1
  O2-  O130  1  0.74818624  0.50074720  0.40089422  1
  O2-  O131  1  0.74422107  0.50386694  0.72460204  1
  O2-  O132  1  0.00286113  0.24509470  0.27173079  1
  O2-  O133  1  -0.00084922  0.25051498  0.61116344  1
  O2-  O134  1  -0.00064162  0.25399801  0.94097423  1
  O2-  O135  1  0.00444976  0.75296604  0.26611790  1
  O2-  O136  1  0.00463836  0.75337500  0.60221709  1
  O2-  O137  1  0.00781014  0.74898753  0.93899047  1
  O2-  O138  1  0.49689932  0.24626725  0.27650135  1
  O2-  O139  1  0.49485585  0.25183711  0.60380142  1
  O2-  O140  1  0.50150795  0.24144111  0.93978727  1
  O2-  O141  1  0.49772690  0.75455565  0.26945166  1
  O2-  O142  1  0.49307444  0.75069026  0.60772516  1
  O2-  O143  1  0.49928748  0.75060889  0.94352222  1
  O2-  O144  1  0.06722642  0.18136453  0.08923082  1
  O2-  O145  1  0.07614061  0.18426426  0.42307123  1
  O2-  O146  1  0.07260023  0.18341905  0.75818232  1
  O2-  O147  1  0.07131572  0.67474161  0.08755764  1
  O2-  O148  1  0.06981487  0.67656290  0.42956481  1
  O2-  O149  1  0.06780838  0.67639544  0.76723693  1
  O2-  O150  1  0.57642369  0.17732203  0.08907239  1
  O2-  O151  1  0.57180007  0.17974930  0.42279787  1
  O2-  O152  1  0.57147968  0.18226683  0.76604552  1
  O2-  O153  1  0.57011451  0.67960729  0.09057224  1
  O2-  O154  1  0.56653410  0.67834226  0.43040515  1
  O2-  O155  1  0.56876193  0.67671541  0.76716518  1
  O2-  O156  1  0.18137674  0.42739932  0.24277977  1
  O2-  O157  1  0.17736247  0.42974358  0.56568768  1
  O2-  O158  1  0.17701067  0.43101105  0.90353467  1
  O2-  O159  1  0.18009972  0.93041877  0.23686561  1
  O2-  O160  1  0.17924131  0.92989466  0.57809970  1
  O2-  O161  1  0.17849958  0.93180003  0.89932695  1
  O2-  O162  1  0.67722236  0.42865769  0.23696264  1
  O2-  O163  1  0.67925253  0.42714595  0.57748642  1
  O2-  O164  1  0.68027056  0.43136537  0.89805381  1
  O2-  O165  1  0.67585221  0.92865201  0.24519594  1
  O2-  O166  1  0.67863651  0.92753949  0.57608428  1
  O2-  O167  1  0.68031571  0.92671772  0.89902625  1
  O2-  O168  1  0.43204585  0.31990020  0.09872654  1
  O2-  O169  1  0.42612844  0.31998456  0.42337882  1
  O2-  O170  1  0.42821247  0.32127818  0.75422143  1
  O2-  O171  1  0.43142253  0.82227534  0.09200526  1
  O2-  O172  1  0.43209469  0.82189894  0.42174851  1
  O2-  O173  1  0.43027955  0.82478496  0.75708838  1
  O2-  O174  1  0.92466976  0.31978410  0.08881838  1
  O2-  O175  1  0.93063957  0.31821378  0.43362688  1
  O2-  O176  1  0.92659223  0.31991355  0.75912332  1
  O2-  O177  1  0.92828486  0.82096841  0.09638764  1
  O2-  O178  1  0.93183953  0.82369055  0.42966186  1
  O2-  O179  1  0.92947888  0.82169132  0.76419601  1
  O2-  O180  1  0.32027329  0.07447422  0.23692849  1
  O2-  O181  1  0.31978264  0.06914580  0.56927463  1
  O2-  O182  1  0.32199173  0.07001774  0.90054654  1
  O2-  O183  1  0.32561254  0.56647472  0.24450747  1
  O2-  O184  1  0.32927064  0.56733919  0.57615627  1
  O2-  O185  1  0.32353158  0.56949426  0.90084484  1
  O2-  O186  1  0.81484891  0.07103452  0.23232454  1
  O2-  O187  1  0.81949478  0.07593238  0.56895565  1
  O2-  O188  1  0.82105023  0.07493902  0.91012917  1
  O2-  O189  1  0.81978223  0.56820705  0.23508426  1
  O2-  O190  1  0.82005892  0.56939467  0.57769039  1
  O2-  O191  1  0.81801852  0.57209776  0.90902497  1
  O2-  O192  1  0.05106177  0.08516292  0.27350193  1
  O2-  O193  1  0.04793848  0.08938527  0.60594177  1
  O2-  O194  1  0.04092407  0.09180508  0.93343175  1
  O2-  O195  1  0.04288816  0.58030928  0.26204691  1
  O2-  O196  1  0.03622928  0.57969847  0.60156600  1
  O2-  O197  1  0.04471768  0.58421113  0.93548220  1
  O2-  O198  1  0.54658624  0.08410634  0.27198364  1
  O2-  O199  1  0.54413601  0.08242459  0.59795870  1
  O2-  O200  1  0.55210770  0.07996946  0.93940965  1
  O2-  O201  1  0.53552717  0.58083091  0.26560836  1
  O2-  O202  1  0.53947341  0.58107775  0.59727120  1
  O2-  O203  1  0.54110597  0.58786971  0.93819402  1
  O2-  O204  1  0.16630292  0.20982196  0.27024845  1
  O2-  O205  1  0.16307041  0.21254278  0.60463635  1
  O2-  O206  1  0.16128544  0.21001955  0.93653836  1
  O2-  O207  1  0.17569704  0.69940399  0.26814369  1
  O2-  O208  1  0.17323530  0.69411660  0.60326500  1
  O2-  O209  1  0.17005061  0.69811805  0.93911237  1
  O2-  O210  1  0.66036118  0.20789712  0.26789778  1
  O2-  O211  1  0.66647300  0.21427697  0.59883578  1
  O2-  O212  1  0.66611363  0.20499347  0.93596597  1
  O2-  O213  1  0.66653327  0.70507889  0.26231745  1
  O2-  O214  1  0.66450958  0.70835420  0.59732604  1
  O2-  O215  1  0.66163352  0.70714210  0.93749009  1
  O2-  O216  1  0.07632015  0.45457078  0.06847644  1
  O2-  O217  1  0.08482036  0.45426237  0.39265513  1
  O2-  O218  1  0.07983688  0.45812711  0.73553488  1
  O2-  O219  1  0.08055961  0.96375932  0.06557114  1
  O2-  O220  1  0.08226698  0.95780011  0.40453187  1
  O2-  O221  1  0.08689039  0.95795991  0.72985404  1
  O2-  O222  1  0.58504946  0.46048784  0.06636231  1
  O2-  O223  1  0.57796997  0.45508146  0.40349886  1
  O2-  O224  1  0.58337496  0.45403271  0.72667464  1
  O2-  O225  1  0.58658102  0.95562944  0.07163602  1
  O2-  O226  1  0.58515989  0.95231435  0.39814022  1
  O2-  O227  1  0.58700822  0.95419104  0.72813078  1
  O2-  O228  1  0.20534842  0.33194375  0.06997570  1
  O2-  O229  1  0.20986603  0.34061753  0.39700259  1
  O2-  O230  1  0.20947293  0.33661237  0.73550305  1
  O2-  O231  1  0.20037507  0.82951556  0.06517398  1
  O2-  O232  1  0.20886649  0.82884246  0.40364835  1
  O2-  O233  1  0.19945555  0.83097242  0.72675209  1
  O2-  O234  1  0.70790246  0.33176965  0.06577572  1
  O2-  O235  1  0.70690238  0.33000882  0.40214815  1
  O2-  O236  1  0.70931221  0.33967401  0.73159341  1
  O2-  O237  1  0.71193429  0.83144146  0.06677128  1
  O2-  O238  1  0.69933063  0.82971166  0.39334885  1
  O2-  O239  1  0.70383564  0.83225259  0.72719846  1
  O2-  O240  1  0.45717934  0.40995520  0.26997742  1
  O2-  O241  1  0.45141313  0.41314497  0.60118911  1
  O2-  O242  1  0.46400376  0.41467369  0.92959688  1
  O2-  O243  1  0.45471546  0.91726789  0.27078293  1
  O2-  O244  1  0.45819297  0.91446024  0.60227873  1
  O2-  O245  1  0.46004567  0.91382767  0.93977118  1
  O2-  O246  1  0.95731418  0.41391436  0.26370948  1
  O2-  O247  1  0.95398397  0.41265107  0.60737681  1
  O2-  O248  1  0.95111658  0.41601055  0.93752076  1
  O2-  O249  1  0.95786522  0.92371625  0.26484689  1
  O2-  O250  1  0.95707939  0.92465715  0.60092288  1
  O2-  O251  1  0.95749899  0.92045382  0.93065194  1
  O2-  O252  1  0.33556244  0.29304597  0.27013331  1
  O2-  O253  1  0.33214766  0.29391425  0.60426600  1
  O2-  O254  1  0.33060325  0.29359657  0.93209189  1
  O2-  O255  1  0.33569581  0.79708382  0.27174687  1
  O2-  O256  1  0.33338557  0.80285331  0.60535115  1
  O2-  O257  1  0.33707640  0.79635035  0.93918758  1
  O2-  O258  1  0.83145204  0.28556402  0.26604761  1
  O2-  O259  1  0.83630013  0.29149347  0.60612655  1
  O2-  O260  1  0.83560208  0.29278452  0.93483476  1
  O2-  O261  1  0.83145524  0.79483733  0.26488212  1
  O2-  O262  1  0.83230432  0.79585145  0.59751082  1
  O2-  O263  1  0.83444249  0.78759538  0.92869337  1
  O2-  O264  1  0.42194757  0.04751289  0.06701803  1
  O2-  O265  1  0.42137093  0.04473802  0.40218673  1
  O2-  O266  1  0.42095130  0.04177884  0.73384147  1
  O2-  O267  1  0.41819891  0.53710626  0.06870215  1
  O2-  O268  1  0.41011800  0.53434095  0.39905767  1
  O2-  O269  1  0.41582232  0.54072377  0.73012914  1
  O2-  O270  1  0.91628005  0.04962469  0.06064884  1
  O2-  O271  1  0.91804087  0.04724000  0.39900671  1
  O2-  O272  1  0.92025985  0.04736632  0.73578502  1
  O2-  O273  1  0.91581334  0.55176066  0.05931363  1
  O2-  O274  1  0.91908864  0.53793044  0.40149069  1
  O2-  O275  1  0.90708291  0.54016038  0.73337439  1
  O2-  O276  1  0.29145821  0.16911998  0.06546327  1
  O2-  O277  1  0.29279650  0.17127506  0.40431097  1
  O2-  O278  1  0.28915381  0.16533340  0.73542945  1
  O2-  O279  1  0.30102439  0.67027340  0.06898230  1
  O2-  O280  1  0.30400443  0.66405409  0.39595239  1
  O2-  O281  1  0.30681502  0.66841348  0.72491369  1
  O2-  O282  1  0.79555215  0.16572265  0.06232893  1
  O2-  O283  1  0.78413421  0.16342350  0.40098259  1
  O2-  O284  1  0.78722946  0.16731963  0.73762360  1
  O2-  O285  1  0.79133485  0.66424160  0.06152560  1
  O2-  O286  1  0.79250313  0.66984170  0.40057274  1
  O2-  O287  1  0.79123667  0.66505027  0.72768413  1
