# generated using pymatgen
data_Ca2Al2SiO7
_symmetry_space_group_name_H-M   'P 1'
_cell_length_a   15.46087861
_cell_length_b   15.46158024
_cell_length_c   15.28678192
_cell_angle_alpha   90.00043696
_cell_angle_beta   89.99665544
_cell_angle_gamma   89.97385230
_symmetry_Int_Tables_number   1
_chemical_formula_structural   Ca2Al2SiO7
_chemical_formula_sum   'Ca48 Al48 Si24 O168'
_cell_volume   3654.29894874
_cell_formula_units_Z   24
loop_
 _symmetry_equiv_pos_site_id
 _symmetry_equiv_pos_as_xyz
  1  'x, y, z'
loop_
 _atom_type_symbol
 _atom_type_oxidation_number
  Ca2+  2.0
  Al0+  0.0
  Si0+  0.0
  O2-  -2.0
loop_
 _atom_site_type_symbol
 _atom_site_label
 _atom_site_symmetry_multiplicity
 _atom_site_fract_x
 _atom_site_fract_y
 _atom_site_fract_z
 _atom_site_occupancy
  Ca2+  Ca0  1  0.17327124  0.08400693  0.16673755  1
  Ca2+  Ca1  1  0.16643165  0.08412845  0.50229230  1
  Ca2+  Ca2  1  0.16223176  0.07542382  0.84145175  1
  Ca2+  Ca3  1  0.16588604  0.58137670  0.17471688  1
  Ca2+  Ca4  1  0.15932613  0.57638733  0.50411050  1
  Ca2+  Ca5  1  0.16193752  0.57114427  0.83631851  1
  Ca2+  Ca6  1  0.66998576  0.08379149  0.17203711  1
  Ca2+  Ca7  1  0.67316380  0.07462107  0.50318737  1
  Ca2+  Ca8  1  0.68027713  0.09066315  0.84048373  1
  Ca2+  Ca9  1  0.66744901  0.58837928  0.17554143  1
  Ca2+  Ca10  1  0.67166423  0.58620193  0.49718152  1
  Ca2+  Ca11  1  0.66579697  0.58281437  0.83984075  1
  Ca2+  Ca12  1  0.07931564  0.31921689  0.16694015  1
  Ca2+  Ca13  1  0.07896482  0.32500060  0.49518049  1
  Ca2+  Ca14  1  0.08174948  0.31807703  0.82495492  1
  Ca2+  Ca15  1  0.08215389  0.83381933  0.16587558  1
  Ca2+  Ca16  1  0.07361186  0.83527110  0.49533069  1
  Ca2+  Ca17  1  0.08140504  0.84142030  0.82569201  1
  Ca2+  Ca18  1  0.57058112  0.32899577  0.15969185  1
  Ca2+  Ca19  1  0.57496364  0.32995074  0.49384392  1
  Ca2+  Ca20  1  0.57870013  0.32722565  0.83743127  1
  Ca2+  Ca21  1  0.57778073  0.83227865  0.16567286  1
  Ca2+  Ca22  1  0.58051799  0.83062840  0.48627494  1
  Ca2+  Ca23  1  0.57701501  0.83564296  0.83618612  1
  Ca2+  Ca24  1  0.33651547  0.41215175  0.17244666  1
  Ca2+  Ca25  1  0.32638056  0.41738606  0.50426711  1
  Ca2+  Ca26  1  0.32909660  0.41312366  0.83729646  1
  Ca2+  Ca27  1  0.33903203  0.92512088  0.17177537  1
  Ca2+  Ca28  1  0.32865806  0.92137365  0.50223917  1
  Ca2+  Ca29  1  0.31965193  0.92030517  0.84483045  1
  Ca2+  Ca30  1  0.83337387  0.42262124  0.17747804  1
  Ca2+  Ca31  1  0.84694812  0.42092973  0.50095950  1
  Ca2+  Ca32  1  0.83510190  0.41472137  0.83661786  1
  Ca2+  Ca33  1  0.82730042  0.91982081  0.17261145  1
  Ca2+  Ca34  1  0.83345421  0.91537329  0.50331673  1
  Ca2+  Ca35  1  0.84012521  0.93007890  0.83612591  1
  Ca2+  Ca36  1  0.41348781  0.17113505  0.15928400  1
  Ca2+  Ca37  1  0.41201338  0.17136085  0.48954027  1
  Ca2+  Ca38  1  0.41698873  0.16146684  0.83883453  1
  Ca2+  Ca39  1  0.42648970  0.67933860  0.16079062  1
  Ca2+  Ca40  1  0.42305825  0.67583732  0.48788955  1
  Ca2+  Ca41  1  0.41940050  0.67142222  0.83626260  1
  Ca2+  Ca42  1  0.92670328  0.15960622  0.16210098  1
  Ca2+  Ca43  1  0.92850382  0.16891628  0.49655564  1
  Ca2+  Ca44  1  0.92426303  0.16274276  0.82409601  1
  Ca2+  Ca45  1  0.91548245  0.67126439  0.17299900  1
  Ca2+  Ca46  1  0.92012312  0.67621514  0.48893685  1
  Ca2+  Ca47  1  0.91849523  0.67844964  0.82716798  1
  Al0+  Al48  1  -0.00100494  -0.00078806  0.00593413  1
  Al0+  Al49  1  0.00113623  -0.00044524  0.32600191  1
  Al0+  Al50  1  0.00003369  -0.00022953  0.66353538  1
  Al0+  Al51  1  -0.00089583  0.50083270  0.00226096  1
  Al0+  Al52  1  -0.00037151  0.49960478  0.33129909  1
  Al0+  Al53  1  0.00041116  0.50014055  0.67342022  1
  Al0+  Al54  1  0.50025864  -0.00035198  -0.00690870  1
  Al0+  Al55  1  0.50092711  0.00148986  0.34137026  1
  Al0+  Al56  1  0.50109219  -0.00089332  0.66663529  1
  Al0+  Al57  1  0.49950645  0.49980131  -0.00753045  1
  Al0+  Al58  1  0.49993352  0.49975743  0.32936990  1
  Al0+  Al59  1  0.50198116  0.49972662  0.66733704  1
  Al0+  Al60  1  0.24609273  0.24904355  -0.00488903  1
  Al0+  Al61  1  0.24939229  0.25006649  0.33080110  1
  Al0+  Al62  1  0.25156545  0.25104512  0.66815064  1
  Al0+  Al63  1  0.24842555  0.74578656  -0.00094814  1
  Al0+  Al64  1  0.25021787  0.75113716  0.32821745  1
  Al0+  Al65  1  0.25291163  0.74997983  0.67013978  1
  Al0+  Al66  1  0.74896083  0.25352232  0.00485249  1
  Al0+  Al67  1  0.74990040  0.25167685  0.33485117  1
  Al0+  Al68  1  0.74857902  0.25178699  0.66592458  1
  Al0+  Al69  1  0.75192163  0.75010793  -0.00480301  1
  Al0+  Al70  1  0.75111714  0.74918448  0.33549326  1
  Al0+  Al71  1  0.74852181  0.74903850  0.66550563  1
  Al0+  Al72  1  0.57250186  0.68052647  0.98349593  1
  Al0+  Al73  1  0.82061649  0.56876031  0.34827143  1
  Al0+  Al74  1  0.92789444  0.32135353  0.31821592  1
  Al0+  Al75  1  0.42854689  0.82521482  0.32004022  1
  Al0+  Al76  1  0.42927652  0.31998197  0.32201318  1
  Al0+  Al77  1  0.81859576  0.06981664  0.67757640  1
  Al0+  Al78  1  0.31954489  0.07153362  0.34687916  1
  Al0+  Al79  1  0.57114182  0.67952712  0.31986163  1
  Al0+  Al80  1  0.17888054  0.42926999  0.68117994  1
  Al0+  Al81  1  0.92719089  0.32256149  0.65292264  1
  Al0+  Al82  1  0.57358185  0.17786366  0.98603303  1
  Al0+  Al83  1  0.18054215  0.93036891  0.67747821  1
  Al0+  Al84  1  0.92812980  0.82154338  0.31703697  1
  Al0+  Al85  1  0.68099704  0.93046645  0.34599554  1
  Al0+  Al86  1  0.32097249  0.06997102  0.01423995  1
  Al0+  Al87  1  0.81956262  0.07317267  0.01453113  1
  Al0+  Al88  1  0.07181483  0.67835759  0.31978403  1
  Al0+  Al89  1  0.07262900  0.17790708  0.65105553  1
  Al0+  Al90  1  0.42628484  0.82247414  0.98319396  1
  Al0+  Al91  1  0.92941570  0.82068539  0.65364148  1
  Al0+  Al92  1  0.17747820  0.92523925  0.01729163  1
  Al0+  Al93  1  0.07136492  0.17816554  0.31627340  1
  Al0+  Al94  1  0.06690004  0.17803096  0.98464266  1
  Al0+  Al95  1  0.42676344  0.31991884  0.98289377  1
  Si0+  Si96  1  0.18041123  0.43053892  0.34740606  1
  Si0+  Si97  1  0.56992997  0.67776534  0.64987285  1
  Si0+  Si98  1  0.67533410  0.42755005  0.35133022  1
  Si0+  Si99  1  0.82495615  0.07385428  0.35064710  1
  Si0+  Si100  1  0.32484878  0.57081807  0.68409228  1
  Si0+  Si101  1  0.93126083  0.81923406  0.98445045  1
  Si0+  Si102  1  0.17747430  0.92621783  0.35022701  1
  Si0+  Si103  1  0.82020736  0.57164554  0.68323633  1
  Si0+  Si104  1  0.32465777  0.07315347  0.68355426  1
  Si0+  Si105  1  0.57168882  0.17851490  0.65093552  1
  Si0+  Si106  1  0.67667163  0.92548312  0.68527587  1
  Si0+  Si107  1  0.42903524  0.82087915  0.65072827  1
  Si0+  Si108  1  0.17827384  0.42904022  0.01689736  1
  Si0+  Si109  1  0.32259222  0.57248140  0.34635991  1
  Si0+  Si110  1  0.67930289  0.92692708  0.01397600  1
  Si0+  Si111  1  0.67688657  0.42987380  0.68355507  1
  Si0+  Si112  1  0.07106333  0.67527608  0.98364834  1
  Si0+  Si113  1  0.43052502  0.32115339  0.65130206  1
  Si0+  Si114  1  0.67746411  0.43152611  0.01612239  1
  Si0+  Si115  1  0.92799204  0.32438513  0.98481713  1
  Si0+  Si116  1  0.07352508  0.67772697  0.65358052  1
  Si0+  Si117  1  0.82049213  0.57232600  0.01537008  1
  Si0+  Si118  1  0.57243728  0.17759371  0.32031224  1
  Si0+  Si119  1  0.32195080  0.56828172  0.01592145  1
  O2-  O120  1  0.25421682  -0.00649245  0.06527235  1
  O2-  O121  1  0.24576700  -0.00414732  0.39384975  1
  O2-  O122  1  0.25380227  0.00592816  0.72526798  1
  O2-  O123  1  0.25168808  0.49727990  0.05953808  1
  O2-  O124  1  0.24941701  0.50423022  0.38988687  1
  O2-  O125  1  0.25327733  0.50501095  0.72840162  1
  O2-  O126  1  0.74025568  0.00199519  0.05882066  1
  O2-  O127  1  0.75716023  0.00360219  0.39389170  1
  O2-  O128  1  0.74532874  -0.00545217  0.72790661  1
  O2-  O129  1  0.74802475  0.50313753  0.05725569  1
  O2-  O130  1  0.74733038  0.49258826  0.39644103  1
  O2-  O131  1  0.75149663  0.49807164  0.72533744  1
  O2-  O132  1  -0.00734877  0.24416990  0.26728840  1
  O2-  O133  1  0.00056121  0.25189153  0.60376220  1
  O2-  O134  1  -0.00964771  0.25168994  0.93913989  1
  O2-  O135  1  0.00318772  0.75211407  0.26750883  1
  O2-  O136  1  0.00571544  0.74631666  0.60918397  1
  O2-  O137  1  0.00592771  0.75159455  0.94185843  1
  O2-  O138  1  0.50476284  0.24664839  0.27601291  1
  O2-  O139  1  0.49618996  0.24534989  0.60917733  1
  O2-  O140  1  0.49732085  0.24537885  0.93422067  1
  O2-  O141  1  0.49972188  0.75197351  0.27124540  1
  O2-  O142  1  0.50134245  0.75097536  0.60860152  1
  O2-  O143  1  0.50072539  0.75204358  0.93250605  1
  O2-  O144  1  0.06798909  0.18085083  0.09720211  1
  O2-  O145  1  0.07359528  0.18125642  0.42990274  1
  O2-  O146  1  0.07028886  0.17733008  0.76469355  1
  O2-  O147  1  0.06783573  0.66975091  0.08799457  1
  O2-  O148  1  0.06999786  0.67691147  0.43384325  1
  O2-  O149  1  0.07079074  0.67696200  0.75955616  1
  O2-  O150  1  0.57646824  0.18341254  0.09938257  1
  O2-  O151  1  0.57052788  0.17975332  0.42660620  1
  O2-  O152  1  0.57312845  0.18079604  0.75567915  1
  O2-  O153  1  0.57312339  0.68039585  0.09630881  1
  O2-  O154  1  0.56819570  0.67866591  0.43427690  1
  O2-  O155  1  0.56946092  0.67583793  0.75476004  1
  O2-  O156  1  0.18226730  0.43095394  0.24211296  1
  O2-  O157  1  0.18117375  0.43151897  0.56781201  1
  O2-  O158  1  0.17679324  0.43273983  0.91169695  1
  O2-  O159  1  0.17868022  0.92501059  0.24512054  1
  O2-  O160  1  0.18359779  0.92749312  0.56468561  1
  O2-  O161  1  0.17536899  0.92810206  0.90300378  1
  O2-  O162  1  0.67315933  0.42950111  0.24591365  1
  O2-  O163  1  0.66930941  0.43295148  0.57929291  1
  O2-  O164  1  0.67917853  0.43150678  0.91041856  1
  O2-  O165  1  0.68028381  0.93277620  0.23278839  1
  O2-  O166  1  0.67469616  0.92511967  0.57980248  1
  O2-  O167  1  0.68579704  0.92365981  0.90820784  1
  O2-  O168  1  0.42964147  0.32262571  0.09631444  1
  O2-  O169  1  0.42938773  0.32073263  0.43588287  1
  O2-  O170  1  0.43273205  0.32413510  0.75585342  1
  O2-  O171  1  0.42832482  0.82039050  0.09629424  1
  O2-  O172  1  0.42946860  0.82161586  0.43456957  1
  O2-  O173  1  0.42920867  0.81926969  0.75542690  1
  O2-  O174  1  0.93179012  0.32897474  0.08983709  1
  O2-  O175  1  0.93348592  0.32293244  0.43166462  1
  O2-  O176  1  0.92673873  0.32154467  0.76681490  1
  O2-  O177  1  0.92760858  0.81557946  0.08888714  1
  O2-  O178  1  0.92911540  0.81976034  0.43098543  1
  O2-  O179  1  0.92959719  0.81911935  0.76723788  1
  O2-  O180  1  0.32066673  0.07339937  0.23446106  1
  O2-  O181  1  0.32728558  0.07216404  0.57784826  1
  O2-  O182  1  0.31679057  0.06975072  0.90019319  1
  O2-  O183  1  0.32317150  0.56923104  0.24139871  1
  O2-  O184  1  0.32784297  0.56915892  0.57844766  1
  O2-  O185  1  0.32015126  0.56728588  0.91039063  1
  O2-  O186  1  0.82138643  0.07432052  0.24499846  1
  O2-  O187  1  0.81529635  0.06792512  0.56478000  1
  O2-  O188  1  0.82137540  0.07123837  0.90094067  1
  O2-  O189  1  0.81884215  0.56785575  0.23484781  1
  O2-  O190  1  0.81932261  0.57285738  0.57864530  1
  O2-  O191  1  0.82151591  0.57101730  0.90979104  1
  O2-  O192  1  0.04968053  0.07914037  0.26307222  1
  O2-  O193  1  0.04228741  0.08148792  0.59635364  1
  O2-  O194  1  0.03555697  0.08003828  0.93393006  1
  O2-  O195  1  0.04148404  0.58160168  0.26501088  1
  O2-  O196  1  0.04654935  0.58401020  0.60943871  1
  O2-  O197  1  0.03578046  0.58621093  0.93377400  1
  O2-  O198  1  0.54735012  0.08442395  0.27587033  1
  O2-  O199  1  0.54870080  0.08431519  0.60546211  1
  O2-  O200  1  0.55355505  0.07898813  0.93043400  1
  O2-  O201  1  0.54301435  0.58192512  0.26637005  1
  O2-  O202  1  0.54070403  0.58626625  0.60262851  1
  O2-  O203  1  0.54206421  0.58320838  0.92858968  1
  O2-  O204  1  0.16595476  0.21586514  0.26260738  1
  O2-  O205  1  0.17265844  0.20662996  0.60104133  1
  O2-  O206  1  0.16136521  0.21136043  0.92910349  1
  O2-  O207  1  0.17074651  0.70122974  0.26555107  1
  O2-  O208  1  0.16927994  0.69864725  0.61012851  1
  O2-  O209  1  0.16476538  0.69319066  0.93659821  1
  O2-  O210  1  0.66673858  0.20067013  0.27549490  1
  O2-  O211  1  0.66013713  0.21154241  0.60112252  1
  O2-  O212  1  0.66996005  0.21570744  0.93197597  1
  O2-  O213  1  0.66961141  0.70615940  0.26912359  1
  O2-  O214  1  0.66274464  0.70314675  0.60375283  1
  O2-  O215  1  0.67119858  0.70748564  0.92851637  1
  O2-  O216  1  0.08774278  0.46185788  0.06421246  1
  O2-  O217  1  0.08893293  0.45816964  0.39500509  1
  O2-  O218  1  0.08410611  0.46046524  0.73996207  1
  O2-  O219  1  0.08088038  0.95642287  0.07106726  1
  O2-  O220  1  0.08256319  0.95251131  0.39396263  1
  O2-  O221  1  0.08319595  0.95891394  0.73104492  1
  O2-  O222  1  0.58454686  0.45948894  0.06070745  1
  O2-  O223  1  0.58291134  0.45746878  0.39932973  1
  O2-  O224  1  0.58776651  0.46246126  0.73472402  1
  O2-  O225  1  0.58207892  0.94358755  0.05413689  1
  O2-  O226  1  0.58695380  0.96189732  0.40616401  1
  O2-  O227  1  0.58285670  0.95189957  0.73103796  1
  O2-  O228  1  0.20342753  0.33635507  0.06207782  1
  O2-  O229  1  0.21206363  0.34067053  0.39566465  1
  O2-  O230  1  0.21222774  0.33376205  0.73609564  1
  O2-  O231  1  0.19741287  0.82205754  0.06411335  1
  O2-  O232  1  0.20256556  0.83206772  0.39657593  1
  O2-  O233  1  0.21035505  0.83319689  0.73322636  1
  O2-  O234  1  0.70395594  0.34138479  0.06653829  1
  O2-  O235  1  0.69563863  0.33252024  0.39761867  1
  O2-  O236  1  0.70197461  0.33753826  0.73103610  1
  O2-  O237  1  0.71334356  0.83577892  0.06073493  1
  O2-  O238  1  0.71023275  0.83384737  0.40148512  1
  O2-  O239  1  0.70066544  0.83089962  0.73018032  1
  O2-  O240  1  0.45873680  0.41555247  0.26634394  1
  O2-  O241  1  0.46354093  0.41175597  0.60384885  1
  O2-  O242  1  0.45925228  0.41630343  0.92739923  1
  O2-  O243  1  0.46081671  0.92308720  0.27004137  1
  O2-  O244  1  0.45572718  0.91368049  0.60461381  1
  O2-  O245  1  0.45237343  0.91967604  0.92676511  1
  O2-  O246  1  0.96052395  0.41736523  0.26388312  1
  O2-  O247  1  0.95666609  0.42304524  0.60452581  1
  O2-  O248  1  0.95723801  0.41706718  0.93722639  1
  O2-  O249  1  0.95119282  0.91997609  0.26328782  1
  O2-  O250  1  0.95932199  0.91533939  0.59755536  1
  O2-  O251  1  0.95733736  0.91201619  0.93907582  1
  O2-  O252  1  0.33414220  0.29053071  0.26662936  1
  O2-  O253  1  0.33732422  0.29864174  0.60479916  1
  O2-  O254  1  0.32778998  0.29519760  0.93025414  1
  O2-  O255  1  0.33101022  0.79904365  0.26668818  1
  O2-  O256  1  0.33785136  0.79138643  0.60308023  1
  O2-  O257  1  0.32899961  0.78688763  0.93029434  1
  O2-  O258  1  0.82499253  0.30395638  0.27006487  1
  O2-  O259  1  0.82690964  0.30009819  0.60095675  1
  O2-  O260  1  0.83114409  0.30635882  0.94355102  1
  O2-  O261  1  0.83219600  0.78702796  0.26420956  1
  O2-  O262  1  0.83204368  0.78870890  0.60153396  1
  O2-  O263  1  0.84233108  0.78738189  0.93351288  1
  O2-  O264  1  0.42395238  0.04893832  0.06191875  1
  O2-  O265  1  0.41576236  0.04428706  0.40469863  1
  O2-  O266  1  0.41835710  0.04550596  0.72927398  1
  O2-  O267  1  0.41477367  0.54060918  0.06074307  1
  O2-  O268  1  0.41295442  0.54155404  0.39567629  1
  O2-  O269  1  0.41672740  0.54047274  0.73180181  1
  O2-  O270  1  0.91232288  0.03588937  0.07023056  1
  O2-  O271  1  0.91989170  0.04819331  0.39327365  1
  O2-  O272  1  0.91513338  0.03816298  0.73112478  1
  O2-  O273  1  0.91160710  0.54315349  0.06330752  1
  O2-  O274  1  0.91793009  0.53823072  0.40245104  1
  O2-  O275  1  0.91207454  0.54807102  0.73308594  1
  O2-  O276  1  0.28828802  0.16921575  0.06409028  1
  O2-  O277  1  0.28705829  0.16832893  0.40164315  1
  O2-  O278  1  0.30456810  0.16844844  0.72763701  1
  O2-  O279  1  0.29367579  0.65958668  0.06297057  1
  O2-  O280  1  0.29834412  0.66564920  0.39321800  1
  O2-  O281  1  0.30295923  0.66515462  0.73005847  1
  O2-  O282  1  0.79382163  0.17119768  0.06861695  1
  O2-  O283  1  0.79879327  0.16755465  0.39689547  1
  O2-  O284  1  0.78649400  0.16687690  0.73126522  1
  O2-  O285  1  0.79386846  0.66484169  0.06126170  1
  O2-  O286  1  0.78908035  0.66415982  0.40437032  1
  O2-  O287  1  0.78808358  0.66211183  0.73206104  1
