# generated using pymatgen
data_Ca2Al2SiO7
_symmetry_space_group_name_H-M   'P 1'
_cell_length_a   15.46779052
_cell_length_b   15.46555652
_cell_length_c   15.28897240
_cell_angle_alpha   90.01233872
_cell_angle_beta   90.00415639
_cell_angle_gamma   90.00750202
_symmetry_Int_Tables_number   1
_chemical_formula_structural   Ca2Al2SiO7
_chemical_formula_sum   'Ca48 Al48 Si24 O168'
_cell_volume   3657.39709637
_cell_formula_units_Z   24
loop_
 _symmetry_equiv_pos_site_id
 _symmetry_equiv_pos_as_xyz
  1  'x, y, z'
loop_
 _atom_type_symbol
 _atom_type_oxidation_number
  Ca2+  2.0
  Al0+  0.0
  Si0+  0.0
  O2-  -2.0
loop_
 _atom_site_type_symbol
 _atom_site_label
 _atom_site_symmetry_multiplicity
 _atom_site_fract_x
 _atom_site_fract_y
 _atom_site_fract_z
 _atom_site_occupancy
  Ca2+  Ca0  1  0.15582723  0.07286927  0.16591585  1
  Ca2+  Ca1  1  0.16338349  0.07553013  0.50149322  1
  Ca2+  Ca2  1  0.16406052  0.08084565  0.84221273  1
  Ca2+  Ca3  1  0.16844071  0.57267681  0.17886935  1
  Ca2+  Ca4  1  0.16510042  0.58460890  0.50083955  1
  Ca2+  Ca5  1  0.16248094  0.57743203  0.83571258  1
  Ca2+  Ca6  1  0.67199128  0.07147514  0.17623072  1
  Ca2+  Ca7  1  0.67347538  0.07629654  0.50815546  1
  Ca2+  Ca8  1  0.66940875  0.07870777  0.83193525  1
  Ca2+  Ca9  1  0.67670852  0.58051337  0.17333355  1
  Ca2+  Ca10  1  0.68035749  0.58108132  0.51034973  1
  Ca2+  Ca11  1  0.67029603  0.58455440  0.82798784  1
  Ca2+  Ca12  1  0.08329579  0.33256850  0.16347240  1
  Ca2+  Ca13  1  0.07026130  0.33539035  0.49350347  1
  Ca2+  Ca14  1  0.08172577  0.32844526  0.83016990  1
  Ca2+  Ca15  1  0.08198609  0.83063808  0.16006176  1
  Ca2+  Ca16  1  0.07737272  0.82368865  0.49606884  1
  Ca2+  Ca17  1  0.07173830  0.83239004  0.82623184  1
  Ca2+  Ca18  1  0.57523163  0.33134110  0.15919502  1
  Ca2+  Ca19  1  0.58939493  0.33078627  0.50118396  1
  Ca2+  Ca20  1  0.57388561  0.33249570  0.81889489  1
  Ca2+  Ca21  1  0.58885226  0.83515595  0.16333806  1
  Ca2+  Ca22  1  0.59335381  0.83154408  0.49940711  1
  Ca2+  Ca23  1  0.58856255  0.83206867  0.82564661  1
  Ca2+  Ca24  1  0.32273522  0.41704870  0.17134441  1
  Ca2+  Ca25  1  0.32750094  0.41676360  0.50182211  1
  Ca2+  Ca26  1  0.33216781  0.41358765  0.83974973  1
  Ca2+  Ca27  1  0.31894704  0.91636442  0.17356463  1
  Ca2+  Ca28  1  0.32489426  0.91171218  0.49981672  1
  Ca2+  Ca29  1  0.32483664  0.91869360  0.83890114  1
  Ca2+  Ca30  1  0.83797195  0.42265743  0.17688975  1
  Ca2+  Ca31  1  0.83761092  0.42364158  0.50916738  1
  Ca2+  Ca32  1  0.83554460  0.41978247  0.82678370  1
  Ca2+  Ca33  1  0.82902498  0.92007294  0.17201820  1
  Ca2+  Ca34  1  0.82986538  0.92668101  0.50977439  1
  Ca2+  Ca35  1  0.82864129  0.91332824  0.83485715  1
  Ca2+  Ca36  1  0.41631212  0.17287820  0.15925629  1
  Ca2+  Ca37  1  0.42367384  0.16985789  0.50269704  1
  Ca2+  Ca38  1  0.42100759  0.17864669  0.82454472  1
  Ca2+  Ca39  1  0.41579986  0.66408579  0.16785248  1
  Ca2+  Ca40  1  0.42418657  0.66180448  0.49739396  1
  Ca2+  Ca41  1  0.42535155  0.66938578  0.82470626  1
  Ca2+  Ca42  1  0.91874966  0.16938747  0.16671235  1
  Ca2+  Ca43  1  0.89819327  0.17814921  0.49878287  1
  Ca2+  Ca44  1  0.92096386  0.16752691  0.82607845  1
  Ca2+  Ca45  1  0.92163306  0.67048458  0.16584820  1
  Ca2+  Ca46  1  0.92255074  0.66235926  0.49579234  1
  Ca2+  Ca47  1  0.91852093  0.67812259  0.82271782  1
  Al0+  Al48  1  -0.00106169  0.00095497  -0.00355819  1
  Al0+  Al49  1  -0.00114713  0.00166268  0.34266962  1
  Al0+  Al50  1  0.00027408  -0.00158632  0.66678957  1
  Al0+  Al51  1  0.00081836  0.50048617  0.00414767  1
  Al0+  Al52  1  0.00086840  0.49947955  0.33096669  1
  Al0+  Al53  1  0.00226696  0.49846874  0.66674208  1
  Al0+  Al54  1  0.50061249  -0.00061693  0.00361226  1
  Al0+  Al55  1  0.49879378  -0.00135647  0.33458748  1
  Al0+  Al56  1  0.49665416  0.00222379  0.66686698  1
  Al0+  Al57  1  0.50157913  0.50097070  -0.00308353  1
  Al0+  Al58  1  0.49888682  0.50003833  0.33233488  1
  Al0+  Al59  1  0.49740193  0.50278014  0.66164665  1
  Al0+  Al60  1  0.24979820  0.25124403  -0.00368885  1
  Al0+  Al61  1  0.24983256  0.24893525  0.33604843  1
  Al0+  Al62  1  0.25025424  0.24968776  0.66211708  1
  Al0+  Al63  1  0.25215861  0.74906392  0.00223666  1
  Al0+  Al64  1  0.25152324  0.74916559  0.33610195  1
  Al0+  Al65  1  0.25016349  0.74863111  0.66602794  1
  Al0+  Al66  1  0.74997478  0.25128324  0.00020632  1
  Al0+  Al67  1  0.74790112  0.24867327  0.32573122  1
  Al0+  Al68  1  0.74899458  0.24910546  0.66927509  1
  Al0+  Al69  1  0.75104107  0.75014827  0.00113831  1
  Al0+  Al70  1  0.75036670  0.74769533  0.33707470  1
  Al0+  Al71  1  0.75020278  0.75102983  0.66546821  1
  Al0+  Al72  1  0.82438907  0.57100721  0.68289370  1
  Al0+  Al73  1  0.67733958  0.42997458  0.68046948  1
  Al0+  Al74  1  0.82156514  0.56840254  0.34566601  1
  Al0+  Al75  1  0.17978895  0.42934423  0.01296362  1
  Al0+  Al76  1  0.82037294  0.07278791  0.34823831  1
  Al0+  Al77  1  0.68004394  0.92910288  0.01481399  1
  Al0+  Al78  1  0.32195162  0.57070200  0.34982029  1
  Al0+  Al79  1  0.92786413  0.82207790  0.64947080  1
  Al0+  Al80  1  0.67819263  0.92798529  0.34904473  1
  Al0+  Al81  1  0.07145074  0.67834774  0.65232506  1
  Al0+  Al82  1  0.07221628  0.68054856  0.31770591  1
  Al0+  Al83  1  0.92970256  0.81978468  0.98805753  1
  Al0+  Al84  1  0.57076953  0.68144763  0.65267411  1
  Al0+  Al85  1  0.06821409  0.18095994  0.98790288  1
  Al0+  Al86  1  0.67748452  0.92946019  0.68255633  1
  Al0+  Al87  1  0.57073924  0.17887900  0.65126143  1
  Al0+  Al88  1  0.43080506  0.32054009  0.98689202  1
  Al0+  Al89  1  0.92900565  0.31990660  0.31938273  1
  Al0+  Al90  1  0.17895735  0.42738395  0.35045325  1
  Al0+  Al91  1  0.17794210  0.92867545  0.34765948  1
  Al0+  Al92  1  0.82232468  0.07188045  0.68493836  1
  Al0+  Al93  1  0.42714853  0.32340610  0.64836756  1
  Al0+  Al94  1  0.93049334  0.31820098  0.65529370  1
  Al0+  Al95  1  0.17789902  0.92893403  0.01172951  1
  Si0+  Si96  1  0.82006438  0.57048484  0.01503338  1
  Si0+  Si97  1  0.42806458  0.32085271  0.31648757  1
  Si0+  Si98  1  0.42645039  0.82316336  0.65037135  1
  Si0+  Si99  1  0.32109768  0.07189246  0.01523075  1
  Si0+  Si100  1  0.31856308  0.07273546  0.68247357  1
  Si0+  Si101  1  0.67664043  0.42730789  0.34586093  1
  Si0+  Si102  1  0.07306604  0.17626222  0.64928390  1
  Si0+  Si103  1  0.82263981  0.07450946  0.01726343  1
  Si0+  Si104  1  0.57284006  0.17620756  0.98398487  1
  Si0+  Si105  1  0.92816265  0.82296985  0.31747399  1
  Si0+  Si106  1  0.57207843  0.67844941  0.31670762  1
  Si0+  Si107  1  0.92616732  0.32602032  0.98266558  1
  Si0+  Si108  1  0.32316437  0.07157148  0.35040500  1
  Si0+  Si109  1  0.07406935  0.67717033  0.98511552  1
  Si0+  Si110  1  0.32034753  0.57188621  0.68325245  1
  Si0+  Si111  1  0.18081388  0.92762154  0.68248268  1
  Si0+  Si112  1  0.42968200  0.82125490  0.31705323  1
  Si0+  Si113  1  0.07482416  0.17663064  0.31695974  1
  Si0+  Si114  1  0.67734711  0.42940865  0.01418753  1
  Si0+  Si115  1  0.56884987  0.17732812  0.31582048  1
  Si0+  Si116  1  0.42753695  0.82210859  0.98641969  1
  Si0+  Si117  1  0.18040836  0.42749196  0.68252832  1
  Si0+  Si118  1  0.57116259  0.68095065  0.98591038  1
  Si0+  Si119  1  0.32528388  0.57185669  0.01595013  1
  O2-  O120  1  0.25344175  0.00255620  0.06003177  1
  O2-  O121  1  0.25179864  0.00517937  0.39370432  1
  O2-  O122  1  0.24786446  0.00203388  0.72538381  1
  O2-  O123  1  0.25366583  0.50579615  0.05845231  1
  O2-  O124  1  0.24929591  0.50069133  0.40107417  1
  O2-  O125  1  0.25149949  0.49880208  0.72499584  1
  O2-  O126  1  0.75162727  0.00718624  0.06024405  1
  O2-  O127  1  0.75172003  -0.00214409  0.39769794  1
  O2-  O128  1  0.75116100  -0.00140076  0.73456481  1
  O2-  O129  1  0.75305926  0.49481944  0.05694678  1
  O2-  O130  1  0.74825478  0.49179932  0.38976629  1
  O2-  O131  1  0.75003899  0.50045578  0.73293119  1
  O2-  O132  1  0.00528037  0.24551281  0.27427644  1
  O2-  O133  1  0.00077512  0.24064156  0.60593792  1
  O2-  O134  1  -0.00657313  0.25513301  0.94069807  1
  O2-  O135  1  -0.00078515  0.75744612  0.27095788  1
  O2-  O136  1  -0.00361470  0.74597482  0.60121736  1
  O2-  O137  1  0.00808265  0.74810619  0.94185779  1
  O2-  O138  1  0.49824597  0.24917461  0.27358909  1
  O2-  O139  1  0.50367657  0.25550716  0.59957731  1
  O2-  O140  1  0.50620416  0.24688699  0.94040543  1
  O2-  O141  1  0.50225553  0.75127291  0.27445839  1
  O2-  O142  1  0.50019950  0.76052020  0.60616935  1
  O2-  O143  1  0.50000201  0.75270966  0.94476539  1
  O2-  O144  1  0.06672057  0.18001660  0.10099105  1
  O2-  O145  1  0.08029194  0.17758042  0.42192984  1
  O2-  O146  1  0.07650681  0.17908678  0.75526460  1
  O2-  O147  1  0.07294690  0.67667815  0.09066924  1
  O2-  O148  1  0.07147496  0.68130307  0.43021263  1
  O2-  O149  1  0.07451288  0.68187863  0.76665478  1
  O2-  O150  1  0.57035074  0.17738987  0.09011551  1
  O2-  O151  1  0.56840531  0.17771627  0.42023717  1
  O2-  O152  1  0.56489982  0.17777331  0.76524604  1
  O2-  O153  1  0.57069639  0.67970008  0.09128222  1
  O2-  O154  1  0.57094234  0.67681392  0.42104635  1
  O2-  O155  1  0.56625719  0.68090548  0.76669178  1
  O2-  O156  1  0.18242760  0.42673052  0.23634110  1
  O2-  O157  1  0.18118918  0.42639132  0.57796053  1
  O2-  O158  1  0.18045920  0.43074415  0.89963586  1
  O2-  O159  1  0.17932553  0.92974603  0.23401334  1
  O2-  O160  1  0.18449942  0.92708744  0.57744908  1
  O2-  O161  1  0.18134571  0.92977142  0.89869733  1
  O2-  O162  1  0.67498744  0.43075746  0.23928150  1
  O2-  O163  1  0.67922077  0.43227668  0.56668347  1
  O2-  O164  1  0.67325262  0.43160301  0.91006588  1
  O2-  O165  1  0.67823838  0.93003083  0.23466675  1
  O2-  O166  1  0.67646785  0.93254420  0.56949853  1
  O2-  O167  1  0.67874629  0.92696508  0.90274228  1
  O2-  O168  1  0.43230985  0.31930961  0.10053759  1
  O2-  O169  1  0.42903951  0.32097382  0.42086523  1
  O2-  O170  1  0.42483485  0.31982112  0.76243010  1
  O2-  O171  1  0.42547163  0.82104825  0.09136279  1
  O2-  O172  1  0.42915009  0.82234143  0.42178739  1
  O2-  O173  1  0.42247262  0.81966267  0.75649096  1
  O2-  O174  1  0.92586034  0.32733018  0.08823472  1
  O2-  O175  1  0.92739727  0.31909131  0.43210566  1
  O2-  O176  1  0.93626256  0.31941595  0.76874055  1
  O2-  O177  1  0.92932769  0.81739465  0.10146629  1
  O2-  O178  1  0.92898237  0.82053548  0.42236117  1
  O2-  O179  1  0.93206731  0.82220238  0.76380285  1
  O2-  O180  1  0.32616537  0.06980572  0.24455873  1
  O2-  O181  1  0.31700364  0.07248868  0.57739589  1
  O2-  O182  1  0.32099453  0.07000089  0.90962906  1
  O2-  O183  1  0.32371144  0.56727658  0.23554560  1
  O2-  O184  1  0.31920578  0.57472598  0.57879393  1
  O2-  O185  1  0.32811906  0.57264358  0.91046153  1
  O2-  O186  1  0.81848498  0.07229589  0.23383157  1
  O2-  O187  1  0.81996075  0.07179289  0.57170759  1
  O2-  O188  1  0.82230203  0.07603668  0.91229589  1
  O2-  O189  1  0.81805256  0.56945260  0.23143772  1
  O2-  O190  1  0.82497074  0.56771899  0.56951766  1
  O2-  O191  1  0.81888746  0.57205060  0.91054293  1
  O2-  O192  1  0.04644235  0.08232756  0.27282271  1
  O2-  O193  1  0.05376456  0.08049536  0.60660841  1
  O2-  O194  1  0.04009974  0.08504042  0.93108730  1
  O2-  O195  1  0.03992891  0.58436869  0.26329492  1
  O2-  O196  1  0.04895954  0.57826290  0.60164857  1
  O2-  O197  1  0.04565437  0.58402676  0.93957170  1
  O2-  O198  1  0.53828218  0.08577365  0.26835599  1
  O2-  O199  1  0.53388371  0.08329447  0.59691905  1
  O2-  O200  1  0.54594095  0.08251305  0.93927054  1
  O2-  O201  1  0.54176603  0.58744909  0.26712973  1
  O2-  O202  1  0.53518243  0.58820138  0.59641118  1
  O2-  O203  1  0.54288715  0.59014398  0.93708278  1
  O2-  O204  1  0.16855411  0.20113934  0.26911584  1
  O2-  O205  1  0.16482566  0.20426518  0.60150998  1
  O2-  O206  1  0.16480217  0.21033590  0.93236452  1
  O2-  O207  1  0.17074735  0.70928914  0.26543392  1
  O2-  O208  1  0.16900723  0.71043120  0.59940835  1
  O2-  O209  1  0.16999118  0.69787338  0.94124531  1
  O2-  O210  1  0.65866534  0.20449777  0.26404852  1
  O2-  O211  1  0.67000326  0.20340168  0.59977585  1
  O2-  O212  1  0.66771081  0.19968582  0.94048300  1
  O2-  O213  1  0.66406876  0.70494627  0.26788211  1
  O2-  O214  1  0.66788831  0.70673994  0.59856876  1
  O2-  O215  1  0.66228888  0.70912609  0.93876589  1
  O2-  O216  1  0.08302984  0.45771730  0.06863825  1
  O2-  O217  1  0.08021577  0.45568122  0.40001173  1
  O2-  O218  1  0.09012635  0.45567060  0.73203928  1
  O2-  O219  1  0.08204185  0.96170585  0.06567032  1
  O2-  O220  1  0.08341399  0.95778116  0.40489099  1
  O2-  O221  1  0.08833649  0.95277631  0.72854551  1
  O2-  O222  1  0.58785982  0.46238859  0.06435866  1
  O2-  O223  1  0.58427140  0.45417498  0.39182176  1
  O2-  O224  1  0.57770109  0.46131926  0.73108049  1
  O2-  O225  1  0.58149092  0.95564545  0.06918606  1
  O2-  O226  1  0.57896213  0.95590282  0.39937834  1
  O2-  O227  1  0.57661191  0.95744950  0.73337683  1
  O2-  O228  1  0.21259786  0.33313589  0.06658861  1
  O2-  O229  1  0.20810942  0.32909215  0.40278321  1
  O2-  O230  1  0.20936030  0.33508766  0.72888127  1
  O2-  O231  1  0.20938302  0.83216042  0.06583106  1
  O2-  O232  1  0.21449114  0.83488575  0.40189918  1
  O2-  O233  1  0.21351900  0.83769366  0.73081767  1
  O2-  O234  1  0.69865519  0.33528030  0.06109378  1
  O2-  O235  1  0.69715718  0.33135950  0.38664662  1
  O2-  O236  1  0.70213419  0.33137558  0.73407625  1
  O2-  O237  1  0.71229686  0.83256222  0.06924088  1
  O2-  O238  1  0.70141604  0.82771379  0.39787882  1
  O2-  O239  1  0.70296334  0.82958987  0.73372810  1
  O2-  O240  1  0.45695116  0.41227166  0.26801643  1
  O2-  O241  1  0.44744081  0.42358046  0.59788712  1
  O2-  O242  1  0.46058101  0.41771997  0.93323463  1
  O2-  O243  1  0.45514515  0.91346257  0.26820895  1
  O2-  O244  1  0.44273311  0.91911558  0.60679948  1
  O2-  O245  1  0.45236641  0.91524793  0.94006207  1
  O2-  O246  1  0.96030101  0.41543259  0.26337726  1
  O2-  O247  1  0.96484219  0.41325583  0.60121219  1
  O2-  O248  1  0.95459363  0.41917325  0.93745588  1
  O2-  O249  1  0.95129497  0.91921649  0.27535327  1
  O2-  O250  1  0.96159445  0.91902622  0.59687244  1
  O2-  O251  1  0.95698714  0.91646591  0.93365522  1
  O2-  O252  1  0.33607818  0.29146602  0.26962515  1
  O2-  O253  1  0.33156020  0.28734403  0.59418257  1
  O2-  O254  1  0.33524213  0.28998730  0.93169661  1
  O2-  O255  1  0.33906610  0.79104077  0.26827783  1
  O2-  O256  1  0.33620385  0.79021146  0.60207858  1
  O2-  O257  1  0.33702318  0.79307886  0.93608927  1
  O2-  O258  1  0.83244350  0.29077257  0.26156813  1
  O2-  O259  1  0.83207882  0.29312338  0.60314484  1
  O2-  O260  1  0.83076123  0.30379646  0.93861751  1
  O2-  O261  1  0.83492303  0.79301720  0.27168289  1
  O2-  O262  1  0.82782181  0.80082494  0.59962349  1
  O2-  O263  1  0.83470740  0.78446267  0.93357461  1
  O2-  O264  1  0.41466645  0.04786963  0.06257175  1
  O2-  O265  1  0.41416784  0.04193266  0.39877574  1
  O2-  O266  1  0.40921432  0.04554256  0.73174564  1
  O2-  O267  1  0.41820094  0.54426551  0.06319795  1
  O2-  O268  1  0.42065776  0.54090141  0.40135263  1
  O2-  O269  1  0.41229080  0.54617031  0.73098035  1
  O2-  O270  1  0.91505134  0.04575154  0.06325582  1
  O2-  O271  1  0.91948258  0.05390664  0.40224944  1
  O2-  O272  1  0.92300585  0.04445426  0.73531396  1
  O2-  O273  1  0.91275370  0.54643021  0.06289839  1
  O2-  O274  1  0.91792772  0.53938072  0.39792531  1
  O2-  O275  1  0.92186624  0.53947248  0.73719144  1
  O2-  O276  1  0.29488103  0.16524646  0.06069870  1
  O2-  O277  1  0.30076708  0.16547268  0.39609658  1
  O2-  O278  1  0.28997561  0.16440800  0.73029496  1
  O2-  O279  1  0.30376222  0.66641933  0.06224010  1
  O2-  O280  1  0.29916844  0.67011190  0.40157001  1
  O2-  O281  1  0.29152740  0.66306428  0.73293666  1
  O2-  O282  1  0.80001968  0.16979445  0.06307290  1
  O2-  O283  1  0.78498077  0.17067030  0.39750447  1
  O2-  O284  1  0.79423623  0.16981690  0.73875343  1
  O2-  O285  1  0.78665610  0.65936649  0.06462541  1
  O2-  O286  1  0.78971157  0.66324060  0.40020659  1
  O2-  O287  1  0.79440143  0.66969987  0.73374892  1
