# generated using pymatgen
data_Ca2Al2SiO7
_symmetry_space_group_name_H-M   'P 1'
_cell_length_a   15.46850093
_cell_length_b   15.47050800
_cell_length_c   15.29345571
_cell_angle_alpha   89.98325177
_cell_angle_beta   90.01152740
_cell_angle_gamma   90.00340199
_symmetry_Int_Tables_number   1
_chemical_formula_structural   Ca2Al2SiO7
_chemical_formula_sum   'Ca48 Al48 Si24 O168'
_cell_volume   3659.80885882
_cell_formula_units_Z   24
loop_
 _symmetry_equiv_pos_site_id
 _symmetry_equiv_pos_as_xyz
  1  'x, y, z'
loop_
 _atom_type_symbol
 _atom_type_oxidation_number
  Ca2+  2.0
  Al0+  0.0
  Si0+  0.0
  O2-  -2.0
loop_
 _atom_site_type_symbol
 _atom_site_label
 _atom_site_symmetry_multiplicity
 _atom_site_fract_x
 _atom_site_fract_y
 _atom_site_fract_z
 _atom_site_occupancy
  Ca2+  Ca0  1  0.16495676  0.08039404  0.17297122  1
  Ca2+  Ca1  1  0.16241279  0.08466526  0.50539735  1
  Ca2+  Ca2  1  0.16646301  0.08347481  0.83282395  1
  Ca2+  Ca3  1  0.17464914  0.57557477  0.17399782  1
  Ca2+  Ca4  1  0.16853598  0.57536402  0.50061196  1
  Ca2+  Ca5  1  0.17567400  0.57204306  0.84355978  1
  Ca2+  Ca6  1  0.66998192  0.08400205  0.17410948  1
  Ca2+  Ca7  1  0.68109089  0.08318322  0.50528379  1
  Ca2+  Ca8  1  0.66917479  0.08674788  0.83847262  1
  Ca2+  Ca9  1  0.66899019  0.57933901  0.17471556  1
  Ca2+  Ca10  1  0.66074804  0.58011268  0.50207069  1
  Ca2+  Ca11  1  0.66392179  0.57647941  0.84087446  1
  Ca2+  Ca12  1  0.08033970  0.33904085  0.16239590  1
  Ca2+  Ca13  1  0.09042201  0.32584059  0.49287410  1
  Ca2+  Ca14  1  0.07898965  0.33823720  0.82806892  1
  Ca2+  Ca15  1  0.08184178  0.82313255  0.16889722  1
  Ca2+  Ca16  1  0.08174866  0.82317375  0.49254678  1
  Ca2+  Ca17  1  0.08141078  0.82974480  0.83064299  1
  Ca2+  Ca18  1  0.59532907  0.32982722  0.16058155  1
  Ca2+  Ca19  1  0.58111779  0.34361784  0.49991396  1
  Ca2+  Ca20  1  0.58439090  0.33614749  0.82849172  1
  Ca2+  Ca21  1  0.57549961  0.81900119  0.16081718  1
  Ca2+  Ca22  1  0.57582678  0.82151577  0.49426722  1
  Ca2+  Ca23  1  0.57429586  0.81832709  0.82873639  1
  Ca2+  Ca24  1  0.32894710  0.43004929  0.17158626  1
  Ca2+  Ca25  1  0.32699538  0.42041942  0.50403716  1
  Ca2+  Ca26  1  0.32419420  0.41389482  0.83767104  1
  Ca2+  Ca27  1  0.34327854  0.91549734  0.17036454  1
  Ca2+  Ca28  1  0.33856102  0.91351929  0.50236176  1
  Ca2+  Ca29  1  0.34143140  0.91315768  0.83671184  1
  Ca2+  Ca30  1  0.82489869  0.42292559  0.16632248  1
  Ca2+  Ca31  1  0.82054349  0.42160144  0.49969652  1
  Ca2+  Ca32  1  0.82408641  0.41993332  0.84189881  1
  Ca2+  Ca33  1  0.83136438  0.92581029  0.17453726  1
  Ca2+  Ca34  1  0.83998489  0.92918683  0.50385386  1
  Ca2+  Ca35  1  0.83317128  0.92567433  0.83491671  1
  Ca2+  Ca36  1  0.42536169  0.17266586  0.15978798  1
  Ca2+  Ca37  1  0.41382557  0.17868412  0.49810846  1
  Ca2+  Ca38  1  0.42473589  0.17502910  0.82975293  1
  Ca2+  Ca39  1  0.42181589  0.66434889  0.16231799  1
  Ca2+  Ca40  1  0.42458566  0.66926304  0.49140484  1
  Ca2+  Ca41  1  0.42507501  0.66308656  0.82959174  1
  Ca2+  Ca42  1  0.91854716  0.17585765  0.16337104  1
  Ca2+  Ca43  1  0.92377528  0.16465431  0.49395960  1
  Ca2+  Ca44  1  0.92036441  0.17683549  0.82717432  1
  Ca2+  Ca45  1  0.92097857  0.64789890  0.16547105  1
  Ca2+  Ca46  1  0.92186253  0.66152095  0.49013497  1
  Ca2+  Ca47  1  0.91443703  0.66263517  0.83332435  1
  Al0+  Al48  1  0.00139499  -0.00054208  0.00040985  1
  Al0+  Al49  1  0.00221577  0.00060105  0.33241944  1
  Al0+  Al50  1  0.00156066  0.00090635  0.67011107  1
  Al0+  Al51  1  -0.00131939  0.49788997  -0.00129468  1
  Al0+  Al52  1  -0.00226860  0.49677047  0.33622802  1
  Al0+  Al53  1  -0.00129877  0.49915159  0.66844855  1
  Al0+  Al54  1  0.50162604  0.00048001  -0.00709161  1
  Al0+  Al55  1  0.50030019  0.00207750  0.33322256  1
  Al0+  Al56  1  0.50169794  0.00019079  0.66439748  1
  Al0+  Al57  1  0.49757429  0.49680040  0.00328214  1
  Al0+  Al58  1  0.49678942  0.50061738  0.33579624  1
  Al0+  Al59  1  0.49949781  0.49933012  0.66291677  1
  Al0+  Al60  1  0.25036526  0.24437010  0.00426208  1
  Al0+  Al61  1  0.25080570  0.24695430  0.32902855  1
  Al0+  Al62  1  0.25044488  0.24824030  0.66467239  1
  Al0+  Al63  1  0.24725406  0.75177469  0.00021115  1
  Al0+  Al64  1  0.24704448  0.75165541  0.32991995  1
  Al0+  Al65  1  0.24847515  0.75091971  0.66527810  1
  Al0+  Al66  1  0.75472735  0.25044488  -0.00601631  1
  Al0+  Al67  1  0.75166146  0.24984756  0.34268140  1
  Al0+  Al68  1  0.75266959  0.25163675  0.67354069  1
  Al0+  Al69  1  0.75104879  0.75269979  -0.00084280  1
  Al0+  Al70  1  0.74840639  0.75244239  0.33348502  1
  Al0+  Al71  1  0.75041794  0.75334566  0.66237990  1
  Al0+  Al72  1  0.42730722  0.82171311  0.65063150  1
  Al0+  Al73  1  0.31898292  0.57409303  0.35015516  1
  Al0+  Al74  1  0.06911062  0.18085498  0.65347570  1
  Al0+  Al75  1  0.57100010  0.67684157  0.31607548  1
  Al0+  Al76  1  0.57165370  0.67790928  0.65039771  1
  Al0+  Al77  1  0.57198191  0.67517826  0.98546696  1
  Al0+  Al78  1  0.82199878  0.06946848  0.34637947  1
  Al0+  Al79  1  0.17926108  0.42696531  0.68031304  1
  Al0+  Al80  1  0.32079852  0.57273840  0.01420598  1
  Al0+  Al81  1  0.93281734  0.32118843  0.98490197  1
  Al0+  Al82  1  0.67822993  0.43247133  0.68188876  1
  Al0+  Al83  1  0.17945591  0.42635607  0.34810093  1
  Al0+  Al84  1  0.67742229  0.42914708  0.34897523  1
  Al0+  Al85  1  0.57282989  0.18114594  0.98740117  1
  Al0+  Al86  1  0.07171403  0.17880946  0.31770668  1
  Al0+  Al87  1  0.67820448  0.42765035  0.01289013  1
  Al0+  Al88  1  0.82271412  0.07034941  0.68351030  1
  Al0+  Al89  1  0.42767677  0.82003058  0.98436598  1
  Al0+  Al90  1  0.81915309  0.57407918  0.01328343  1
  Al0+  Al91  1  0.06727831  0.67617744  0.31984234  1
  Al0+  Al92  1  0.42849988  0.82273383  0.31749744  1
  Al0+  Al93  1  0.82024539  0.57331447  0.34830378  1
  Al0+  Al94  1  0.17827992  0.42590429  0.01472060  1
  Al0+  Al95  1  0.42975631  0.31907830  0.65363523  1
  Si0+  Si96  1  0.32300819  0.06739891  0.01493100  1
  Si0+  Si97  1  0.07294508  0.17481184  0.98251131  1
  Si0+  Si98  1  0.18021349  0.92832505  0.68223140  1
  Si0+  Si99  1  0.82241029  0.57553708  0.68247314  1
  Si0+  Si100  1  0.82253248  0.07053816  0.01516446  1
  Si0+  Si101  1  0.92815091  0.82338599  0.31792424  1
  Si0+  Si102  1  0.57208773  0.18188884  0.32204666  1
  Si0+  Si103  1  0.42498771  0.31998679  0.98507777  1
  Si0+  Si104  1  0.93078354  0.82257268  0.65301932  1
  Si0+  Si105  1  0.32269276  0.07080695  0.68146594  1
  Si0+  Si106  1  0.67794477  0.92903277  0.68508904  1
  Si0+  Si107  1  0.57552904  0.17835404  0.64929063  1
  Si0+  Si108  1  0.32265072  0.07010735  0.34868078  1
  Si0+  Si109  1  0.92633074  0.31957246  0.31692595  1
  Si0+  Si110  1  0.92707980  0.32358870  0.64701380  1
  Si0+  Si111  1  0.67908717  0.93143120  0.01441994  1
  Si0+  Si112  1  0.31935897  0.57281622  0.68226466  1
  Si0+  Si113  1  0.67598705  0.92982460  0.35059214  1
  Si0+  Si114  1  0.92910163  0.82555915  0.98457715  1
  Si0+  Si115  1  0.17888928  0.93035592  0.34902048  1
  Si0+  Si116  1  0.42786675  0.32049401  0.31761374  1
  Si0+  Si117  1  0.06921673  0.67800782  0.65355545  1
  Si0+  Si118  1  0.06845416  0.67962281  0.98509692  1
  Si0+  Si119  1  0.17648669  0.92945416  0.01664359  1
  O2-  O120  1  0.25216591  -0.00388246  0.05734194  1
  O2-  O121  1  0.25244124  -0.00143306  0.39098074  1
  O2-  O122  1  0.25549165  -0.00464365  0.72344028  1
  O2-  O123  1  0.25002452  0.49840113  0.06299685  1
  O2-  O124  1  0.24831419  0.50011273  0.39976863  1
  O2-  O125  1  0.25238593  0.50272397  0.72713101  1
  O2-  O126  1  0.75000507  0.00222375  0.05833427  1
  O2-  O127  1  0.74985209  -0.00669675  0.39479041  1
  O2-  O128  1  0.74451729  -0.00042645  0.73087795  1
  O2-  O129  1  0.74151393  0.50770389  0.06218304  1
  O2-  O130  1  0.74372263  0.50698018  0.39871403  1
  O2-  O131  1  0.75135663  0.50989763  0.72625421  1
  O2-  O132  1  -0.00056629  0.25509409  0.27211571  1
  O2-  O133  1  -0.00262553  0.25606094  0.60352580  1
  O2-  O134  1  0.01102875  0.24886815  0.93886279  1
  O2-  O135  1  -0.01284679  0.74675292  0.27287486  1
  O2-  O136  1  -0.00480027  0.74608258  0.61122032  1
  O2-  O137  1  -0.00465047  0.74958127  0.94311289  1
  O2-  O138  1  0.50571684  0.25552106  0.27735669  1
  O2-  O139  1  0.50741016  0.24717423  0.60504611  1
  O2-  O140  1  0.50056688  0.25818913  0.94135803  1
  O2-  O141  1  0.49672311  0.74792786  0.26776328  1
  O2-  O142  1  0.49759655  0.74890662  0.60163844  1
  O2-  O143  1  0.49503939  0.74336341  0.93599997  1
  O2-  O144  1  0.06901254  0.16874629  0.08763489  1
  O2-  O145  1  0.07043408  0.17625264  0.43082102  1
  O2-  O146  1  0.06810820  0.17868940  0.76650582  1
  O2-  O147  1  0.06796791  0.68183537  0.08989871  1
  O2-  O148  1  0.06765996  0.68079945  0.43358545  1
  O2-  O149  1  0.06970752  0.68103483  0.75886659  1
  O2-  O150  1  0.57151085  0.17825249  0.10110487  1
  O2-  O151  1  0.56935519  0.17950431  0.42679511  1
  O2-  O152  1  0.57277760  0.17744111  0.75505604  1
  O2-  O153  1  0.57507582  0.67971657  0.09833433  1
  O2-  O154  1  0.57049451  0.67972433  0.42949427  1
  O2-  O155  1  0.57235057  0.67830334  0.76402183  1
  O2-  O156  1  0.18248493  0.42689668  0.23472598  1
  O2-  O157  1  0.18030079  0.42731494  0.56771487  1
  O2-  O158  1  0.17979917  0.42747047  0.90056769  1
  O2-  O159  1  0.17488386  0.93302788  0.24396790  1
  O2-  O160  1  0.17602665  0.92891895  0.57748610  1
  O2-  O161  1  0.17084895  0.93178856  0.91150239  1
  O2-  O162  1  0.68250790  0.42249182  0.23596322  1
  O2-  O163  1  0.68035756  0.43135268  0.56919243  1
  O2-  O164  1  0.68231834  0.42637354  0.89944673  1
  O2-  O165  1  0.67550742  0.93510044  0.24469567  1
  O2-  O166  1  0.68075387  0.93084194  0.57960783  1
  O2-  O167  1  0.68204359  0.93364412  0.90946074  1
  O2-  O168  1  0.42061342  0.31355853  0.09041017  1
  O2-  O169  1  0.42440550  0.31568976  0.42267362  1
  O2-  O170  1  0.42821190  0.31514386  0.76672551  1
  O2-  O171  1  0.43206222  0.82454547  0.09716376  1
  O2-  O172  1  0.43205405  0.82547877  0.43073234  1
  O2-  O173  1  0.42797703  0.82013013  0.76389894  1
  O2-  O174  1  0.93079739  0.31690506  0.09787474  1
  O2-  O175  1  0.92448946  0.31571434  0.42240965  1
  O2-  O176  1  0.92884805  0.32253769  0.75272848  1
  O2-  O177  1  0.93329197  0.83606762  0.08852131  1
  O2-  O178  1  0.93565858  0.82831666  0.42360959  1
  O2-  O179  1  0.93370183  0.82429156  0.75840185  1
  O2-  O180  1  0.32386870  0.06971683  0.24344279  1
  O2-  O181  1  0.32045985  0.07208412  0.57636768  1
  O2-  O182  1  0.32161945  0.06859193  0.90979304  1
  O2-  O183  1  0.31798112  0.57258238  0.23671416  1
  O2-  O184  1  0.31490357  0.57443884  0.57704461  1
  O2-  O185  1  0.31743169  0.57329791  0.90008294  1
  O2-  O186  1  0.81918862  0.06969329  0.23280087  1
  O2-  O187  1  0.82490125  0.06643474  0.57043420  1
  O2-  O188  1  0.82412049  0.06698755  0.91023207  1
  O2-  O189  1  0.82090732  0.56820342  0.23520646  1
  O2-  O190  1  0.82597806  0.57439189  0.57734438  1
  O2-  O191  1  0.82093330  0.57224027  0.89936758  1
  O2-  O192  1  0.03923062  0.08253717  0.26345416  1
  O2-  O193  1  0.03789144  0.08290240  0.60116820  1
  O2-  O194  1  0.04155760  0.08339814  0.93415908  1
  O2-  O195  1  0.03966971  0.57853244  0.26657716  1
  O2-  O196  1  0.04369325  0.58587390  0.60629928  1
  O2-  O197  1  0.04165381  0.58845874  0.93665863  1
  O2-  O198  1  0.54131514  0.09178741  0.27263315  1
  O2-  O199  1  0.55079178  0.08457619  0.60378749  1
  O2-  O200  1  0.53878476  0.08730900  0.92969904  1
  O2-  O201  1  0.54321773  0.57709443  0.26598594  1
  O2-  O202  1  0.54367655  0.58020407  0.59755768  1
  O2-  O203  1  0.54553507  0.57463371  0.93515998  1
  O2-  O204  1  0.16969340  0.20297610  0.26294688  1
  O2-  O205  1  0.16686772  0.20615889  0.59974518  1
  O2-  O206  1  0.17010882  0.19159152  0.94065332  1
  O2-  O207  1  0.16008819  0.71499058  0.26423069  1
  O2-  O208  1  0.15868202  0.71031802  0.60510775  1
  O2-  O209  1  0.15788396  0.71176356  0.93573720  1
  O2-  O210  1  0.66576623  0.20589624  0.27635104  1
  O2-  O211  1  0.67077261  0.20310829  0.60697120  1
  O2-  O212  1  0.66983347  0.20622878  0.93211176  1
  O2-  O213  1  0.67040611  0.70750251  0.26530295  1
  O2-  O214  1  0.67020174  0.70909279  0.59784333  1
  O2-  O215  1  0.66967126  0.71031137  0.93283689  1
  O2-  O216  1  0.08017352  0.45632878  0.06519337  1
  O2-  O217  1  0.07929545  0.44911842  0.39906535  1
  O2-  O218  1  0.08148693  0.45735890  0.73265231  1
  O2-  O219  1  0.08762414  0.96285949  0.06703950  1
  O2-  O220  1  0.08922946  0.96154840  0.39892894  1
  O2-  O221  1  0.09120745  0.96069855  0.73307422  1
  O2-  O222  1  0.57562410  0.43920941  0.06186830  1
  O2-  O223  1  0.57660688  0.45080573  0.39902170  1
  O2-  O224  1  0.57923345  0.45819685  0.73395348  1
  O2-  O225  1  0.58784459  0.96193664  0.06054559  1
  O2-  O226  1  0.58578574  0.96299259  0.39879858  1
  O2-  O227  1  0.58370136  0.95345776  0.73042798  1
  O2-  O228  1  0.20124119  0.32463667  0.06444786  1
  O2-  O229  1  0.21160087  0.32693226  0.39790962  1
  O2-  O230  1  0.21154069  0.33026689  0.73351544  1
  O2-  O231  1  0.19733740  0.83636362  0.06345369  1
  O2-  O232  1  0.20229834  0.83817019  0.39688468  1
  O2-  O233  1  0.20310098  0.83586255  0.73159550  1
  O2-  O234  1  0.71694808  0.33079711  0.06441121  1
  O2-  O235  1  0.71034292  0.33327122  0.40598695  1
  O2-  O236  1  0.70966191  0.33558742  0.73536388  1
  O2-  O237  1  0.70817007  0.84086148  0.06258836  1
  O2-  O238  1  0.69616064  0.83515960  0.39515767  1
  O2-  O239  1  0.70775046  0.83638402  0.73088168  1
  O2-  O240  1  0.44802951  0.41437106  0.27318849  1
  O2-  O241  1  0.45595700  0.41550091  0.59835690  1
  O2-  O242  1  0.44074908  0.41561407  0.94127321  1
  O2-  O243  1  0.46005438  0.92212278  0.26576714  1
  O2-  O244  1  0.45475454  0.92177571  0.59967829  1
  O2-  O245  1  0.46098795  0.91681729  0.92962386  1
  O2-  O246  1  0.94816963  0.41384770  0.27195918  1
  O2-  O247  1  0.95013970  0.41840005  0.60291649  1
  O2-  O248  1  0.96101011  0.41699616  0.92739732  1
  O2-  O249  1  0.96404833  0.91240365  0.26819667  1
  O2-  O250  1  0.96669153  0.91128774  0.60494035  1
  O2-  O251  1  0.96456988  0.91359078  0.93256186  1
  O2-  O252  1  0.34126501  0.28333165  0.26677090  1
  O2-  O253  1  0.33617790  0.28213819  0.59749031  1
  O2-  O254  1  0.33474186  0.28403007  0.93683246  1
  O2-  O255  1  0.32644889  0.80403746  0.26860578  1
  O2-  O256  1  0.32577824  0.79930362  0.60043868  1
  O2-  O257  1  0.32421994  0.80323093  0.93596483  1
  O2-  O258  1  0.83496759  0.28571233  0.27086202  1
  O2-  O259  1  0.83393088  0.29419911  0.60310400  1
  O2-  O260  1  0.83991527  0.28527909  0.92687744  1
  O2-  O261  1  0.83051154  0.81235872  0.27678728  1
  O2-  O262  1  0.83746354  0.80497981  0.60532797  1
  O2-  O263  1  0.83653258  0.80422309  0.93625808  1
  O2-  O264  1  0.41537399  0.03996868  0.06176480  1
  O2-  O265  1  0.41415487  0.04483750  0.39817159  1
  O2-  O266  1  0.41625973  0.04747928  0.72812856  1
  O2-  O267  1  0.41831584  0.54488424  0.06844901  1
  O2-  O268  1  0.41667148  0.54500921  0.40293187  1
  O2-  O269  1  0.41390768  0.54744062  0.72465530  1
  O2-  O270  1  0.91350027  0.03920448  0.06231900  1
  O2-  O271  1  0.91859330  0.03680856  0.39993206  1
  O2-  O272  1  0.91705111  0.03338922  0.73877923  1
  O2-  O273  1  0.91577217  0.53771235  0.06443394  1
  O2-  O274  1  0.91669528  0.54032151  0.40315364  1
  O2-  O275  1  0.91525898  0.54803621  0.73010375  1
  O2-  O276  1  0.29603165  0.15747232  0.06606455  1
  O2-  O277  1  0.29252293  0.16081093  0.39606026  1
  O2-  O278  1  0.28949883  0.15920954  0.73150132  1
  O2-  O279  1  0.28926815  0.67109823  0.06568396  1
  O2-  O280  1  0.28813921  0.67295407  0.40057914  1
  O2-  O281  1  0.29103229  0.66585268  0.72868061  1
  O2-  O282  1  0.79656077  0.16291469  0.06021146  1
  O2-  O283  1  0.79030846  0.16267072  0.40482495  1
  O2-  O284  1  0.79580040  0.16750216  0.73716583  1
  O2-  O285  1  0.80589265  0.67731251  0.06271670  1
  O2-  O286  1  0.80341849  0.67669645  0.39688924  1
  O2-  O287  1  0.80292825  0.67234972  0.72507587  1
