# generated using pymatgen
data_Ca2Al2SiO7
_symmetry_space_group_name_H-M   'P 1'
_cell_length_a   15.46795919
_cell_length_b   15.46760752
_cell_length_c   15.29044065
_cell_angle_alpha   89.99614809
_cell_angle_beta   89.99275002
_cell_angle_gamma   89.99743218
_symmetry_Int_Tables_number   1
_chemical_formula_structural   Ca2Al2SiO7
_chemical_formula_sum   'Ca48 Al48 Si24 O168'
_cell_volume   3658.27338718
_cell_formula_units_Z   24
loop_
 _symmetry_equiv_pos_site_id
 _symmetry_equiv_pos_as_xyz
  1  'x, y, z'
loop_
 _atom_type_symbol
 _atom_type_oxidation_number
  Ca2+  2.0
  Al0+  0.0
  Si0+  0.0
  O2-  -2.0
loop_
 _atom_site_type_symbol
 _atom_site_label
 _atom_site_symmetry_multiplicity
 _atom_site_fract_x
 _atom_site_fract_y
 _atom_site_fract_z
 _atom_site_occupancy
  Ca2+  Ca0  1  0.17681257  0.09002773  0.16764161  1
  Ca2+  Ca1  1  0.17901463  0.07425911  0.50847847  1
  Ca2+  Ca2  1  0.17549074  0.08018288  0.83663969  1
  Ca2+  Ca3  1  0.17127155  0.59335574  0.16387630  1
  Ca2+  Ca4  1  0.16895687  0.58140740  0.50597130  1
  Ca2+  Ca5  1  0.17460570  0.58693286  0.84326836  1
  Ca2+  Ca6  1  0.67235258  0.07678722  0.17379544  1
  Ca2+  Ca7  1  0.66454879  0.07075400  0.50444640  1
  Ca2+  Ca8  1  0.67318853  0.07595848  0.83581689  1
  Ca2+  Ca9  1  0.65704494  0.58036257  0.16726272  1
  Ca2+  Ca10  1  0.66735746  0.58505471  0.50981580  1
  Ca2+  Ca11  1  0.65747009  0.57561606  0.83711998  1
  Ca2+  Ca12  1  0.07385502  0.32639871  0.15412436  1
  Ca2+  Ca13  1  0.07976141  0.32975350  0.49580627  1
  Ca2+  Ca14  1  0.07884262  0.32600280  0.83353758  1
  Ca2+  Ca15  1  0.07048812  0.83452334  0.15835315  1
  Ca2+  Ca16  1  0.07684934  0.83993292  0.49933102  1
  Ca2+  Ca17  1  0.08047193  0.83689898  0.83337357  1
  Ca2+  Ca18  1  0.58787839  0.32506077  0.16181032  1
  Ca2+  Ca19  1  0.58232201  0.32668880  0.50133113  1
  Ca2+  Ca20  1  0.58277050  0.33519950  0.82622924  1
  Ca2+  Ca21  1  0.58373495  0.82580267  0.16705812  1
  Ca2+  Ca22  1  0.58376405  0.83241874  0.49242965  1
  Ca2+  Ca23  1  0.58150797  0.82292938  0.82436851  1
  Ca2+  Ca24  1  0.33308002  0.42524984  0.16585892  1
  Ca2+  Ca25  1  0.33580136  0.41642115  0.50608476  1
  Ca2+  Ca26  1  0.33770359  0.42294073  0.84085089  1
  Ca2+  Ca27  1  0.33762707  0.92606107  0.17350090  1
  Ca2+  Ca28  1  0.33819369  0.92199986  0.50814898  1
  Ca2+  Ca29  1  0.33463988  0.92190818  0.83604412  1
  Ca2+  Ca30  1  0.82880396  0.41385795  0.16367064  1
  Ca2+  Ca31  1  0.82324531  0.42681456  0.51200222  1
  Ca2+  Ca32  1  0.82232246  0.42071151  0.83718516  1
  Ca2+  Ca33  1  0.83323602  0.91420521  0.16954604  1
  Ca2+  Ca34  1  0.82126520  0.91593184  0.50596638  1
  Ca2+  Ca35  1  0.83113682  0.92229814  0.83578098  1
  Ca2+  Ca36  1  0.42222310  0.15845843  0.16576709  1
  Ca2+  Ca37  1  0.41672844  0.16638238  0.49559338  1
  Ca2+  Ca38  1  0.40892825  0.17315269  0.82631299  1
  Ca2+  Ca39  1  0.42360106  0.67174726  0.16098826  1
  Ca2+  Ca40  1  0.43028805  0.68236487  0.49778859  1
  Ca2+  Ca41  1  0.42468961  0.66840238  0.82582274  1
  Ca2+  Ca42  1  0.92112220  0.16945048  0.14902385  1
  Ca2+  Ca43  1  0.91400479  0.16179791  0.49975879  1
  Ca2+  Ca44  1  0.91254069  0.16394039  0.83286950  1
  Ca2+  Ca45  1  0.91967993  0.68061940  0.15802256  1
  Ca2+  Ca46  1  0.91280990  0.67257827  0.49518548  1
  Ca2+  Ca47  1  0.92008012  0.66645702  0.83264462  1
  Al0+  Al48  1  0.00105600  0.00098630  -0.00498729  1
  Al0+  Al49  1  0.00272889  0.00149032  0.32839566  1
  Al0+  Al50  1  0.00303610  -0.00022234  0.67124539  1
  Al0+  Al51  1  -0.00211091  0.49939555  -0.00674583  1
  Al0+  Al52  1  -0.00011848  0.49899052  0.33329350  1
  Al0+  Al53  1  -0.00069194  0.49826793  0.66829881  1
  Al0+  Al54  1  0.50123915  -0.00082940  0.00389305  1
  Al0+  Al55  1  0.50201177  0.00199065  0.33312671  1
  Al0+  Al56  1  0.50047033  0.00199521  0.67412764  1
  Al0+  Al57  1  0.49882202  0.49873948  0.00806329  1
  Al0+  Al58  1  0.49823575  0.49837072  0.33348685  1
  Al0+  Al59  1  0.49862355  0.49937340  0.65968930  1
  Al0+  Al60  1  0.24941722  0.25055975  0.00198212  1
  Al0+  Al61  1  0.24891286  0.25189477  0.33702254  1
  Al0+  Al62  1  0.24787581  0.24934214  0.66296218  1
  Al0+  Al63  1  0.24963293  0.75211347  0.00384476  1
  Al0+  Al64  1  0.25059898  0.75042989  0.33333092  1
  Al0+  Al65  1  0.24947100  0.74875736  0.66496074  1
  Al0+  Al66  1  0.74887844  0.24925905  0.00339818  1
  Al0+  Al67  1  0.74973298  0.25195004  0.33106664  1
  Al0+  Al68  1  0.75030729  0.25269465  0.67027147  1
  Al0+  Al69  1  0.74881858  0.74803335  -0.00864548  1
  Al0+  Al70  1  0.75155242  0.74912661  0.32810893  1
  Al0+  Al71  1  0.75434830  0.74968184  0.67126865  1
  Al0+  Al72  1  0.92486514  0.32037542  0.98182139  1
  Al0+  Al73  1  0.93065731  0.82112623  0.32160376  1
  Al0+  Al74  1  0.82017334  0.06809396  0.01373316  1
  Al0+  Al75  1  0.68292889  0.92892236  0.34451884  1
  Al0+  Al76  1  0.18046435  0.92618688  0.68265401  1
  Al0+  Al77  1  0.56739410  0.67673624  0.98566979  1
  Al0+  Al78  1  0.92777884  0.82213259  0.98104972  1
  Al0+  Al79  1  0.82128375  0.07091197  0.67986574  1
  Al0+  Al80  1  0.57360651  0.68018298  0.65223332  1
  Al0+  Al81  1  0.67671811  0.92667593  0.68220455  1
  Al0+  Al82  1  0.67668400  0.43253629  0.68068515  1
  Al0+  Al83  1  0.57161367  0.67761771  0.31780255  1
  Al0+  Al84  1  0.32084229  0.07070622  0.34805828  1
  Al0+  Al85  1  0.57101139  0.18063922  0.32008154  1
  Al0+  Al86  1  0.42849517  0.82348622  0.31793900  1
  Al0+  Al87  1  0.42730750  0.31975928  0.65397994  1
  Al0+  Al88  1  0.07260557  0.68011149  0.98498134  1
  Al0+  Al89  1  0.07320154  0.17956242  0.98252514  1
  Al0+  Al90  1  0.32134287  0.07224398  0.01569914  1
  Al0+  Al91  1  0.82377405  0.57277395  0.68235971  1
  Al0+  Al92  1  0.32016189  0.57256587  0.01376148  1
  Al0+  Al93  1  0.32212507  0.07213934  0.68158078  1
  Al0+  Al94  1  0.67867683  0.42980596  0.01598740  1
  Al0+  Al95  1  0.42870142  0.82314218  0.65404792  1
  Si0+  Si96  1  0.67847922  0.92478215  0.01809985  1
  Si0+  Si97  1  0.17864092  0.43113513  0.34875409  1
  Si0+  Si98  1  0.57078327  0.17727726  0.98545725  1
  Si0+  Si99  1  0.57450268  0.17900354  0.65235149  1
  Si0+  Si100  1  0.42857529  0.82387616  0.98458559  1
  Si0+  Si101  1  0.07121503  0.18125831  0.31893040  1
  Si0+  Si102  1  0.07086584  0.67625280  0.65099629  1
  Si0+  Si103  1  0.82488682  0.07442660  0.34700799  1
  Si0+  Si104  1  0.17691296  0.42690019  0.68144108  1
  Si0+  Si105  1  0.43025183  0.31917559  0.98859119  1
  Si0+  Si106  1  0.67780603  0.42689964  0.34949914  1
  Si0+  Si107  1  0.42511074  0.32145900  0.31464376  1
  Si0+  Si108  1  0.17660239  0.92750815  0.34909657  1
  Si0+  Si109  1  0.07006976  0.17848249  0.64849322  1
  Si0+  Si110  1  0.82085731  0.56860788  0.34568964  1
  Si0+  Si111  1  0.92955920  0.32195395  0.31883320  1
  Si0+  Si112  1  0.07197632  0.67480762  0.31854933  1
  Si0+  Si113  1  0.32191373  0.57241133  0.35141567  1
  Si0+  Si114  1  0.17845535  0.92901100  0.01885841  1
  Si0+  Si115  1  0.82266514  0.57232382  0.01784060  1
  Si0+  Si116  1  0.17666569  0.42887690  0.01578814  1
  Si0+  Si117  1  0.93197189  0.82262517  0.65127278  1
  Si0+  Si118  1  0.31797518  0.56789815  0.67904855  1
  Si0+  Si119  1  0.92886041  0.32092030  0.64923575  1
  O2-  O120  1  0.24736638  -0.00263731  0.06342084  1
  O2-  O121  1  0.24973423  -0.00839299  0.39271002  1
  O2-  O122  1  0.25575027  -0.00480530  0.73145617  1
  O2-  O123  1  0.24055056  0.50180765  0.06078168  1
  O2-  O124  1  0.24867276  0.50211676  0.39254614  1
  O2-  O125  1  0.24891391  0.49602727  0.72339983  1
  O2-  O126  1  0.74948261  -0.00863934  0.06246003  1
  O2-  O127  1  0.75810808  0.00442808  0.39050380  1
  O2-  O128  1  0.74868462  0.00021474  0.73005493  1
  O2-  O129  1  0.75323375  0.50485374  0.06360055  1
  O2-  O130  1  0.74596693  0.50182836  0.38891383  1
  O2-  O131  1  0.74510014  0.50745626  0.73091633  1
  O2-  O132  1  -0.00493482  0.24633483  0.27664156  1
  O2-  O133  1  -0.00341542  0.24726877  0.60526214  1
  O2-  O134  1  -0.00286477  0.24780595  0.93271720  1
  O2-  O135  1  0.00784452  0.74790875  0.27634135  1
  O2-  O136  1  -0.00004945  0.74746869  0.60923513  1
  O2-  O137  1  0.00074507  0.74973449  0.93223962  1
  O2-  O138  1  0.49496646  0.25406299  0.27130094  1
  O2-  O139  1  0.50040458  0.24295479  0.60839367  1
  O2-  O140  1  0.49708696  0.24591575  0.94465367  1
  O2-  O141  1  0.49808613  0.74864418  0.26853113  1
  O2-  O142  1  0.50861022  0.75958216  0.60339076  1
  O2-  O143  1  0.49427439  0.75296299  0.94030599  1
  O2-  O144  1  0.07370433  0.18430098  0.09714657  1
  O2-  O145  1  0.07107207  0.18377622  0.42412427  1
  O2-  O146  1  0.07259502  0.18213967  0.75280165  1
  O2-  O147  1  0.07106052  0.68269070  0.09927727  1
  O2-  O148  1  0.06879955  0.66895001  0.42416838  1
  O2-  O149  1  0.07213641  0.67321907  0.75536529  1
  O2-  O150  1  0.57052500  0.17849019  0.09089950  1
  O2-  O151  1  0.57273063  0.18355600  0.43299403  1
  O2-  O152  1  0.57667347  0.18303420  0.75793085  1
  O2-  O153  1  0.56517602  0.67715883  0.09882057  1
  O2-  O154  1  0.57261364  0.67765956  0.43103994  1
  O2-  O155  1  0.56547458  0.67525921  0.76546765  1
  O2-  O156  1  0.17747337  0.43041999  0.24418484  1
  O2-  O157  1  0.17505604  0.42907381  0.57564137  1
  O2-  O158  1  0.18186299  0.42623862  0.91026510  1
  O2-  O159  1  0.17258867  0.93051722  0.24399336  1
  O2-  O160  1  0.17682407  0.93000694  0.56854121  1
  O2-  O161  1  0.18171985  0.92768154  0.91354310  1
  O2-  O162  1  0.68026717  0.42395766  0.24455951  1
  O2-  O163  1  0.68038414  0.43050989  0.56637836  1
  O2-  O164  1  0.67528898  0.43049990  0.90352476  1
  O2-  O165  1  0.68556203  0.92918393  0.23160386  1
  O2-  O166  1  0.67943015  0.92740659  0.56789152  1
  O2-  O167  1  0.67579492  0.92810641  0.91289669  1
  O2-  O168  1  0.43108178  0.31948298  0.09383011  1
  O2-  O169  1  0.42403815  0.32164424  0.42021390  1
  O2-  O170  1  0.42555391  0.32161178  0.76726806  1
  O2-  O171  1  0.43053994  0.82467515  0.09029031  1
  O2-  O172  1  0.42912611  0.82234601  0.43127294  1
  O2-  O173  1  0.42423918  0.81560930  0.76740216  1
  O2-  O174  1  0.92780816  0.31891694  0.09681604  1
  O2-  O175  1  0.93223845  0.32464022  0.42398496  1
  O2-  O176  1  0.93129054  0.32245967  0.75347425  1
  O2-  O177  1  0.92948294  0.82056158  0.09548128  1
  O2-  O178  1  0.93093660  0.81942830  0.43499098  1
  O2-  O179  1  0.93511213  0.82464371  0.75564455  1
  O2-  O180  1  0.31676512  0.07335529  0.23496031  1
  O2-  O181  1  0.31764738  0.07517079  0.56777247  1
  O2-  O182  1  0.32063992  0.07376272  0.90329600  1
  O2-  O183  1  0.32077977  0.57088793  0.24636352  1
  O2-  O184  1  0.31356663  0.56583269  0.57373070  1
  O2-  O185  1  0.32158592  0.56791932  0.90046538  1
  O2-  O186  1  0.82477287  0.07594627  0.24168987  1
  O2-  O187  1  0.82164012  0.06850656  0.56534723  1
  O2-  O188  1  0.81514986  0.06932599  0.90117073  1
  O2-  O189  1  0.82579211  0.56461286  0.24118553  1
  O2-  O190  1  0.82814810  0.56809822  0.56766301  1
  O2-  O191  1  0.82270004  0.56996091  0.91276863  1
  O2-  O192  1  0.05177706  0.08837446  0.27085893  1
  O2-  O193  1  0.04321055  0.08610094  0.60165842  1
  O2-  O194  1  0.05041257  0.08060901  0.93108958  1
  O2-  O195  1  0.04363501  0.58289050  0.27002409  1
  O2-  O196  1  0.04326605  0.58387884  0.60266515  1
  O2-  O197  1  0.04910548  0.58013996  0.93314446  1
  O2-  O198  1  0.54204776  0.08525234  0.26398966  1
  O2-  O199  1  0.55360361  0.08330391  0.60959623  1
  O2-  O200  1  0.54614178  0.08419414  0.93992509  1
  O2-  O201  1  0.54209119  0.57758768  0.26772599  1
  O2-  O202  1  0.53844597  0.58461888  0.59658023  1
  O2-  O203  1  0.53256732  0.57949023  0.93558986  1
  O2-  O204  1  0.16079228  0.21626273  0.27174570  1
  O2-  O205  1  0.15900182  0.21079287  0.59759562  1
  O2-  O206  1  0.17000605  0.21444516  0.92989353  1
  O2-  O207  1  0.16769238  0.69563997  0.27591929  1
  O2-  O208  1  0.16169829  0.70340983  0.60093113  1
  O2-  O209  1  0.17242617  0.70752755  0.93392594  1
  O2-  O210  1  0.66717913  0.21339513  0.26429655  1
  O2-  O211  1  0.66541842  0.21077938  0.60332731  1
  O2-  O212  1  0.66063645  0.20893195  0.93875755  1
  O2-  O213  1  0.66965162  0.70433067  0.26372212  1
  O2-  O214  1  0.67684545  0.69927688  0.60503652  1
  O2-  O215  1  0.66467249  0.70162440  0.93187177  1
  O2-  O216  1  0.08057284  0.44928774  0.05884541  1
  O2-  O217  1  0.08669739  0.45810835  0.39814241  1
  O2-  O218  1  0.08637067  0.45470620  0.72947247  1
  O2-  O219  1  0.08424373  0.95543827  0.06262893  1
  O2-  O220  1  0.08493123  0.95939755  0.39724809  1
  O2-  O221  1  0.08519818  0.96004969  0.73723594  1
  O2-  O222  1  0.58349705  0.45936230  0.07403504  1
  O2-  O223  1  0.58336016  0.44892320  0.39396936  1
  O2-  O224  1  0.57595274  0.45654638  0.73105993  1
  O2-  O225  1  0.58634758  0.95346796  0.06573019  1
  O2-  O226  1  0.58730819  0.96203770  0.39830936  1
  O2-  O227  1  0.57973335  0.95285802  0.73835426  1
  O2-  O228  1  0.20782029  0.33857592  0.06577021  1
  O2-  O229  1  0.20611583  0.34031782  0.39895152  1
  O2-  O230  1  0.20269962  0.33464222  0.72674379  1
  O2-  O231  1  0.20142073  0.83572342  0.06703520  1
  O2-  O232  1  0.19452777  0.83113060  0.39323967  1
  O2-  O233  1  0.20249799  0.82538192  0.73313251  1
  O2-  O234  1  0.71113505  0.33390394  0.07132992  1
  O2-  O235  1  0.71027967  0.33724377  0.39861365  1
  O2-  O236  1  0.70822567  0.33568188  0.73399504  1
  O2-  O237  1  0.70313360  0.82948107  0.06063465  1
  O2-  O238  1  0.71478346  0.83190382  0.39772865  1
  O2-  O239  1  0.70664755  0.82955189  0.73522510  1
  O2-  O240  1  0.44950656  0.41576487  0.27001505  1
  O2-  O241  1  0.45805661  0.41403573  0.59486408  1
  O2-  O242  1  0.46021710  0.41037850  0.94220562  1
  O2-  O243  1  0.45820129  0.92112042  0.26552745  1
  O2-  O244  1  0.44792226  0.92641748  0.60772667  1
  O2-  O245  1  0.45637219  0.91685066  0.93833220  1
  O2-  O246  1  0.96309214  0.41108508  0.26953459  1
  O2-  O247  1  0.96213606  0.41093842  0.60000304  1
  O2-  O248  1  0.95207800  0.41843667  0.92931968  1
  O2-  O249  1  0.95970036  0.91796317  0.26603432  1
  O2-  O250  1  0.96465741  0.91273190  0.60264585  1
  O2-  O251  1  0.95766876  0.91971909  0.92897200  1
  O2-  O252  1  0.33060410  0.29694899  0.26989317  1
  O2-  O253  1  0.32997516  0.29263386  0.59730839  1
  O2-  O254  1  0.33734209  0.29585470  0.94174349  1
  O2-  O255  1  0.32801738  0.79705279  0.26660218  1
  O2-  O256  1  0.33265160  0.78711522  0.59856459  1
  O2-  O257  1  0.33306781  0.80163185  0.94281323  1
  O2-  O258  1  0.83620354  0.30055691  0.27254337  1
  O2-  O259  1  0.83616810  0.29601440  0.60174177  1
  O2-  O260  1  0.82639212  0.29043725  0.93132479  1
  O2-  O261  1  0.83780159  0.78703285  0.26381814  1
  O2-  O262  1  0.83939633  0.79712464  0.60461399  1
  O2-  O263  1  0.82992610  0.79460987  0.92825361  1
  O2-  O264  1  0.41870169  0.04138295  0.06931677  1
  O2-  O265  1  0.41932628  0.04589625  0.39971034  1
  O2-  O266  1  0.42190803  0.05614151  0.73509423  1
  O2-  O267  1  0.41121426  0.53406760  0.07299700  1
  O2-  O268  1  0.41205920  0.54025721  0.39919303  1
  O2-  O269  1  0.40987691  0.53956751  0.72419390  1
  O2-  O270  1  0.92022767  0.04351918  0.06442564  1
  O2-  O271  1  0.92033369  0.05165862  0.39093723  1
  O2-  O272  1  0.91955082  0.04354142  0.73219731  1
  O2-  O273  1  0.91677889  0.54560279  0.06334378  1
  O2-  O274  1  0.91143981  0.53758970  0.39532387  1
  O2-  O275  1  0.91927346  0.53596308  0.73617849  1
  O2-  O276  1  0.28990700  0.16900042  0.07028390  1
  O2-  O277  1  0.28643351  0.16737488  0.40114253  1
  O2-  O278  1  0.28505488  0.16942569  0.73273707  1
  O2-  O279  1  0.29188286  0.66896299  0.07034729  1
  O2-  O280  1  0.29502217  0.66437766  0.39883816  1
  O2-  O281  1  0.28859821  0.65829868  0.72662621  1
  O2-  O282  1  0.78786542  0.16401243  0.06875368  1
  O2-  O283  1  0.79908771  0.16868165  0.39263644  1
  O2-  O284  1  0.79673938  0.17060989  0.73103723  1
  O2-  O285  1  0.79705683  0.66727055  0.06087035  1
  O2-  O286  1  0.79644215  0.66143844  0.39196354  1
  O2-  O287  1  0.80949409  0.67342636  0.73314289  1
