# generated using pymatgen
data_Ca2Al2SiO7
_symmetry_space_group_name_H-M   'P 1'
_cell_length_a   15.46576106
_cell_length_b   15.46417007
_cell_length_c   15.28835849
_cell_angle_alpha   90.00036232
_cell_angle_beta   90.01328020
_cell_angle_gamma   89.99669522
_symmetry_Int_Tables_number   1
_chemical_formula_structural   Ca2Al2SiO7
_chemical_formula_sum   'Ca48 Al48 Si24 O168'
_cell_volume   3656.44258996
_cell_formula_units_Z   24
loop_
 _symmetry_equiv_pos_site_id
 _symmetry_equiv_pos_as_xyz
  1  'x, y, z'
loop_
 _atom_type_symbol
 _atom_type_oxidation_number
  Ca2+  2.0
  Al0+  0.0
  Si0+  0.0
  O2-  -2.0
loop_
 _atom_site_type_symbol
 _atom_site_label
 _atom_site_symmetry_multiplicity
 _atom_site_fract_x
 _atom_site_fract_y
 _atom_site_fract_z
 _atom_site_occupancy
  Ca2+  Ca0  1  0.16225573  0.08240248  0.16427363  1
  Ca2+  Ca1  1  0.16548591  0.08262890  0.50865617  1
  Ca2+  Ca2  1  0.16015211  0.08167273  0.84219945  1
  Ca2+  Ca3  1  0.16830670  0.58248623  0.16153821  1
  Ca2+  Ca4  1  0.17494341  0.57437374  0.51279261  1
  Ca2+  Ca5  1  0.17738492  0.57239583  0.84205374  1
  Ca2+  Ca6  1  0.65885002  0.08124067  0.16916167  1
  Ca2+  Ca7  1  0.66917204  0.08140995  0.51164260  1
  Ca2+  Ca8  1  0.65754093  0.07771452  0.83877959  1
  Ca2+  Ca9  1  0.66159933  0.57131641  0.17113999  1
  Ca2+  Ca10  1  0.67336183  0.58445868  0.50024811  1
  Ca2+  Ca11  1  0.67164892  0.57871861  0.84149404  1
  Ca2+  Ca12  1  0.07491101  0.33315860  0.15205775  1
  Ca2+  Ca13  1  0.08627753  0.33128654  0.50330665  1
  Ca2+  Ca14  1  0.08729437  0.32926899  0.82978620  1
  Ca2+  Ca15  1  0.07656299  0.82827323  0.15741186  1
  Ca2+  Ca16  1  0.07128639  0.82905444  0.49238625  1
  Ca2+  Ca17  1  0.08866932  0.82696730  0.83462717  1
  Ca2+  Ca18  1  0.58719688  0.32781198  0.15477381  1
  Ca2+  Ca19  1  0.58582713  0.32762085  0.49699163  1
  Ca2+  Ca20  1  0.57433219  0.33320393  0.83056149  1
  Ca2+  Ca21  1  0.58849239  0.81914773  0.15960775  1
  Ca2+  Ca22  1  0.58674206  0.82843386  0.49631945  1
  Ca2+  Ca23  1  0.59279155  0.82987978  0.83304229  1
  Ca2+  Ca24  1  0.33406608  0.41595774  0.16086187  1
  Ca2+  Ca25  1  0.33074614  0.41907841  0.51095730  1
  Ca2+  Ca26  1  0.33005581  0.41556971  0.84009924  1
  Ca2+  Ca27  1  0.32621770  0.91512533  0.16411225  1
  Ca2+  Ca28  1  0.33253621  0.91988126  0.50501374  1
  Ca2+  Ca29  1  0.32775953  0.92271830  0.84347735  1
  Ca2+  Ca30  1  0.82352727  0.41749528  0.17029783  1
  Ca2+  Ca31  1  0.82738637  0.42747636  0.50242527  1
  Ca2+  Ca32  1  0.83028715  0.41715835  0.83901521  1
  Ca2+  Ca33  1  0.82993865  0.91580575  0.16663128  1
  Ca2+  Ca34  1  0.82717958  0.92048946  0.50966925  1
  Ca2+  Ca35  1  0.82303079  0.92714026  0.83481601  1
  Ca2+  Ca36  1  0.42854995  0.17589073  0.15832618  1
  Ca2+  Ca37  1  0.42844986  0.17290303  0.49948973  1
  Ca2+  Ca38  1  0.42367827  0.17878037  0.82981390  1
  Ca2+  Ca39  1  0.42646360  0.66128312  0.15847888  1
  Ca2+  Ca40  1  0.42180453  0.66470343  0.49675687  1
  Ca2+  Ca41  1  0.41937813  0.65804690  0.83395195  1
  Ca2+  Ca42  1  0.92088952  0.17721846  0.15573713  1
  Ca2+  Ca43  1  0.91894957  0.16266203  0.50193461  1
  Ca2+  Ca44  1  0.92300142  0.17104067  0.83250899  1
  Ca2+  Ca45  1  0.91480831  0.67023507  0.16159701  1
  Ca2+  Ca46  1  0.90732726  0.67017825  0.49296896  1
  Ca2+  Ca47  1  0.92372663  0.66041099  0.82981314  1
  Al0+  Al48  1  -0.00191252  -0.00005694  0.00219243  1
  Al0+  Al49  1  -0.00095334  -0.00242504  0.32924529  1
  Al0+  Al50  1  -0.00256055  -0.00135449  0.66625184  1
  Al0+  Al51  1  0.00118619  0.50327821  -0.00437845  1
  Al0+  Al52  1  0.00131697  0.49934291  0.33790884  1
  Al0+  Al53  1  0.00189186  0.49855587  0.67091538  1
  Al0+  Al54  1  0.49881806  -0.00198271  0.00519630  1
  Al0+  Al55  1  0.49687470  0.00078121  0.33069024  1
  Al0+  Al56  1  0.49819482  -0.00232348  0.66661626  1
  Al0+  Al57  1  0.50224426  0.50118396  -0.00075201  1
  Al0+  Al58  1  0.49732940  0.49852347  0.33537868  1
  Al0+  Al59  1  0.50133977  0.50199185  0.66275578  1
  Al0+  Al60  1  0.25085322  0.24988695  -0.00018953  1
  Al0+  Al61  1  0.25189080  0.24785679  0.33435724  1
  Al0+  Al62  1  0.25022144  0.24827223  0.66031411  1
  Al0+  Al63  1  0.24927653  0.75153423  0.00572128  1
  Al0+  Al64  1  0.24783533  0.75046257  0.33578908  1
  Al0+  Al65  1  0.25076161  0.74907813  0.66671233  1
  Al0+  Al66  1  0.75249278  0.24919317  -0.00522208  1
  Al0+  Al67  1  0.75145777  0.24853171  0.33470739  1
  Al0+  Al68  1  0.75403042  0.25093174  0.66570436  1
  Al0+  Al69  1  0.74983666  0.75372779  -0.00162283  1
  Al0+  Al70  1  0.74897318  0.75109632  0.32661378  1
  Al0+  Al71  1  0.75096296  0.75095797  0.67405860  1
  Al0+  Al72  1  0.06864239  0.17806143  0.65238530  1
  Al0+  Al73  1  0.82040577  0.57201530  0.34555717  1
  Al0+  Al74  1  0.67703455  0.93108093  0.68133278  1
  Al0+  Al75  1  0.67769095  0.93021778  0.01735972  1
  Al0+  Al76  1  0.32208022  0.57068238  0.01685964  1
  Al0+  Al77  1  0.17728908  0.93022902  0.01434938  1
  Al0+  Al78  1  0.18171654  0.42602644  0.68222639  1
  Al0+  Al79  1  0.56836032  0.67937587  0.32019891  1
  Al0+  Al80  1  0.57258290  0.17760936  0.65224233  1
  Al0+  Al81  1  0.07085942  0.17934913  0.98705963  1
  Al0+  Al82  1  0.92826137  0.82014087  0.31863516  1
  Al0+  Al83  1  0.07179816  0.68099598  0.98556620  1
  Al0+  Al84  1  0.57230136  0.17617145  0.98549587  1
  Al0+  Al85  1  0.68161316  0.42924294  0.01046048  1
  Al0+  Al86  1  0.82061560  0.57165043  0.68089618  1
  Al0+  Al87  1  0.57251418  0.17988511  0.31969862  1
  Al0+  Al88  1  0.82273065  0.07328123  0.68227543  1
  Al0+  Al89  1  0.17824330  0.42755399  0.01587815  1
  Al0+  Al90  1  0.43082786  0.32262343  0.98578774  1
  Al0+  Al91  1  0.92827918  0.32436325  0.98464837  1
  Al0+  Al92  1  0.67694579  0.42625428  0.34886261  1
  Al0+  Al93  1  0.32359553  0.57257169  0.68161939  1
  Al0+  Al94  1  0.57133803  0.68021981  0.98504947  1
  Al0+  Al95  1  0.43013343  0.32271732  0.64988810  1
  Si0+  Si96  1  0.42660506  0.32109995  0.31617563  1
  Si0+  Si97  1  0.82308823  0.57430454  0.01509099  1
  Si0+  Si98  1  0.17774532  0.92892133  0.67979294  1
  Si0+  Si99  1  0.07201037  0.17832643  0.31906635  1
  Si0+  Si100  1  0.42712221  0.82103514  0.98452905  1
  Si0+  Si101  1  0.42447607  0.82274247  0.31622164  1
  Si0+  Si102  1  0.32223553  0.07272431  0.01872131  1
  Si0+  Si103  1  0.42634941  0.82076268  0.65177941  1
  Si0+  Si104  1  0.92856122  0.32560726  0.64629233  1
  Si0+  Si105  1  0.07237785  0.67818967  0.65123168  1
  Si0+  Si106  1  0.31969961  0.07024610  0.35070403  1
  Si0+  Si107  1  0.31966596  0.57181293  0.34903240  1
  Si0+  Si108  1  0.92998253  0.81771136  0.65245129  1
  Si0+  Si109  1  0.32021202  0.06914908  0.68053215  1
  Si0+  Si110  1  0.93123590  0.32138714  0.32064584  1
  Si0+  Si111  1  0.17916394  0.42669693  0.34875760  1
  Si0+  Si112  1  0.67785241  0.93002485  0.34657152  1
  Si0+  Si113  1  0.07298057  0.67679717  0.31795575  1
  Si0+  Si114  1  0.57339264  0.68133997  0.65193007  1
  Si0+  Si115  1  0.82240040  0.06979269  0.34769152  1
  Si0+  Si116  1  0.67868695  0.42805052  0.68247976  1
  Si0+  Si117  1  0.82127278  0.07159361  0.01867073  1
  Si0+  Si118  1  0.17734423  0.92948802  0.35028368  1
  Si0+  Si119  1  0.92746075  0.82275381  0.97950483  1
  O2-  O120  1  0.24956496  0.00677833  0.06232505  1
  O2-  O121  1  0.24810517  -0.00048058  0.39405654  1
  O2-  O122  1  0.24675929  0.00068926  0.72269255  1
  O2-  O123  1  0.25024998  0.49863532  0.06799262  1
  O2-  O124  1  0.24915614  0.49956339  0.38980840  1
  O2-  O125  1  0.25587198  0.49654682  0.73005341  1
  O2-  O126  1  0.74882463  0.00774478  0.06492863  1
  O2-  O127  1  0.74737277  0.00216339  0.38934140  1
  O2-  O128  1  0.74144998  0.01059724  0.73016902  1
  O2-  O129  1  0.75675153  0.50345117  0.05860042  1
  O2-  O130  1  0.74711574  0.50185479  0.39687107  1
  O2-  O131  1  0.74814914  0.49566750  0.72678802  1
  O2-  O132  1  0.00338434  0.25123110  0.27823504  1
  O2-  O133  1  -0.00448239  0.25335841  0.60330821  1
  O2-  O134  1  0.00464485  0.25553045  0.93626101  1
  O2-  O135  1  0.00087947  0.74218562  0.27458661  1
  O2-  O136  1  -0.00156975  0.74527452  0.60729819  1
  O2-  O137  1  -0.00462739  0.75297187  0.93618899  1
  O2-  O138  1  0.50227000  0.25920527  0.27421774  1
  O2-  O139  1  0.50514687  0.25308326  0.60008320  1
  O2-  O140  1  0.50291879  0.25045146  0.93652754  1
  O2-  O141  1  0.49209172  0.75314183  0.27340865  1
  O2-  O142  1  0.49905021  0.75050364  0.61089768  1
  O2-  O143  1  0.49590607  0.75440168  0.93805387  1
  O2-  O144  1  0.06639344  0.17836825  0.10164026  1
  O2-  O145  1  0.07135456  0.17641466  0.42418028  1
  O2-  O146  1  0.06812973  0.17479341  0.76433144  1
  O2-  O147  1  0.06975152  0.68344463  0.09924697  1
  O2-  O148  1  0.07634804  0.68074014  0.42382893  1
  O2-  O149  1  0.07390517  0.68265472  0.75567831  1
  O2-  O150  1  0.56972478  0.17760858  0.09973751  1
  O2-  O151  1  0.56999240  0.17601438  0.43249106  1
  O2-  O152  1  0.56601006  0.17528188  0.76478289  1
  O2-  O153  1  0.57066296  0.68038157  0.09843275  1
  O2-  O154  1  0.56806232  0.68382159  0.43400466  1
  O2-  O155  1  0.57497896  0.68271636  0.75652260  1
  O2-  O156  1  0.17729395  0.42501144  0.24439729  1
  O2-  O157  1  0.18144384  0.42968861  0.56717950  1
  O2-  O158  1  0.17987294  0.42757068  0.90300378  1
  O2-  O159  1  0.17753478  0.92982657  0.24577672  1
  O2-  O160  1  0.17911035  0.92900592  0.57399468  1
  O2-  O161  1  0.18049850  0.93052871  0.90074938  1
  O2-  O162  1  0.67995105  0.42495373  0.23538418  1
  O2-  O163  1  0.67966374  0.43033648  0.57651778  1
  O2-  O164  1  0.68139535  0.43237235  0.89741473  1
  O2-  O165  1  0.67933008  0.93083443  0.24185558  1
  O2-  O166  1  0.68024760  0.92645761  0.56676308  1
  O2-  O167  1  0.67974555  0.92960435  0.90461716  1
  O2-  O168  1  0.43241401  0.32042891  0.10000320  1
  O2-  O169  1  0.42138786  0.31716092  0.42142613  1
  O2-  O170  1  0.42921545  0.32101930  0.76279164  1
  O2-  O171  1  0.42784377  0.81973411  0.09048497  1
  O2-  O172  1  0.42330331  0.82350447  0.42225869  1
  O2-  O173  1  0.42082032  0.82314379  0.75589260  1
  O2-  O174  1  0.92781703  0.32142579  0.09957028  1
  O2-  O175  1  0.93290089  0.32093237  0.42552635  1
  O2-  O176  1  0.92974404  0.32854438  0.75111184  1
  O2-  O177  1  0.92831510  0.82181363  0.08570711  1
  O2-  O178  1  0.93058469  0.82277496  0.43226916  1
  O2-  O179  1  0.93284774  0.81778692  0.75675121  1
  O2-  O180  1  0.31759549  0.07035551  0.24621124  1
  O2-  O181  1  0.31962941  0.06479214  0.57474620  1
  O2-  O182  1  0.32408685  0.06904321  0.91309066  1
  O2-  O183  1  0.31942035  0.57444351  0.24472565  1
  O2-  O184  1  0.31888474  0.57580119  0.56699904  1
  O2-  O185  1  0.32019174  0.57148117  0.90383149  1
  O2-  O186  1  0.82544113  0.06914412  0.24306718  1
  O2-  O187  1  0.82582175  0.06507376  0.56773571  1
  O2-  O188  1  0.82497339  0.06725953  0.91369773  1
  O2-  O189  1  0.82334305  0.56918820  0.23264114  1
  O2-  O190  1  0.81701686  0.57485929  0.56751106  1
  O2-  O191  1  0.82051275  0.57479140  0.90929590  1
  O2-  O192  1  0.04332266  0.08677045  0.27204352  1
  O2-  O193  1  0.03674653  0.08083622  0.59667479  1
  O2-  O194  1  0.03897791  0.08112081  0.93554435  1
  O2-  O195  1  0.05236729  0.58103515  0.27514275  1
  O2-  O196  1  0.04828660  0.58469348  0.60581637  1
  O2-  O197  1  0.04468403  0.58548513  0.92899651  1
  O2-  O198  1  0.53572735  0.08433958  0.26615174  1
  O2-  O199  1  0.53933557  0.07904647  0.59935388  1
  O2-  O200  1  0.53959928  0.07725690  0.93670805  1
  O2-  O201  1  0.53775263  0.58138572  0.26891383  1
  O2-  O202  1  0.54901514  0.59002580  0.60205868  1
  O2-  O203  1  0.54188469  0.58475494  0.93017519  1
  O2-  O204  1  0.16545103  0.20274680  0.27388074  1
  O2-  O205  1  0.16522766  0.20560776  0.59512942  1
  O2-  O206  1  0.17180957  0.19812707  0.93706528  1
  O2-  O207  1  0.16471195  0.70763289  0.27095087  1
  O2-  O208  1  0.16255409  0.71005959  0.60168500  1
  O2-  O209  1  0.16728332  0.71761933  0.93350860  1
  O2-  O210  1  0.67193456  0.20312744  0.26776006  1
  O2-  O211  1  0.67417018  0.20086848  0.60225066  1
  O2-  O212  1  0.67225980  0.19696231  0.93514601  1
  O2-  O213  1  0.66292591  0.71141825  0.26435274  1
  O2-  O214  1  0.66394946  0.71464514  0.60458678  1
  O2-  O215  1  0.66704533  0.71437578  0.93123535  1
  O2-  O216  1  0.07950281  0.46031550  0.06735603  1
  O2-  O217  1  0.08812251  0.45265838  0.39895081  1
  O2-  O218  1  0.08373639  0.45466394  0.73352771  1
  O2-  O219  1  0.08064105  0.95899387  0.06989062  1
  O2-  O220  1  0.08534105  0.95842197  0.39733575  1
  O2-  O221  1  0.08594787  0.95438405  0.72637486  1
  O2-  O222  1  0.58679008  0.46164130  0.06637622  1
  O2-  O223  1  0.57698595  0.45173219  0.40052078  1
  O2-  O224  1  0.58531776  0.45616899  0.72606721  1
  O2-  O225  1  0.57979473  0.95419631  0.07249621  1
  O2-  O226  1  0.58360011  0.95389743  0.39175429  1
  O2-  O227  1  0.57564914  0.94914136  0.73240755  1
  O2-  O228  1  0.20429713  0.32807878  0.06921521  1
  O2-  O229  1  0.20884094  0.33475097  0.39604230  1
  O2-  O230  1  0.20666354  0.32529444  0.73033633  1
  O2-  O231  1  0.21091282  0.83693188  0.07286007  1
  O2-  O232  1  0.20392999  0.83738488  0.39893946  1
  O2-  O233  1  0.20744927  0.83765376  0.72605887  1
  O2-  O234  1  0.71181827  0.33149512  0.06336221  1
  O2-  O235  1  0.71052812  0.32929056  0.40277135  1
  O2-  O236  1  0.70269006  0.33393261  0.72662698  1
  O2-  O237  1  0.71408597  0.83457843  0.07087666  1
  O2-  O238  1  0.70752054  0.83858212  0.39305897  1
  O2-  O239  1  0.71388528  0.83680647  0.73654994  1
  O2-  O240  1  0.44255818  0.41782547  0.27450911  1
  O2-  O241  1  0.45553986  0.42247160  0.59614168  1
  O2-  O242  1  0.45931355  0.41989090  0.93246904  1
  O2-  O243  1  0.44833255  0.91624344  0.27007215  1
  O2-  O244  1  0.45341098  0.91143453  0.60084153  1
  O2-  O245  1  0.45074812  0.91558480  0.94036797  1
  O2-  O246  1  0.95881038  0.41337539  0.27371676  1
  O2-  O247  1  0.95918734  0.41782355  0.59839818  1
  O2-  O248  1  0.95003678  0.42414456  0.93344614  1
  O2-  O249  1  0.96341162  0.91439703  0.26212375  1
  O2-  O250  1  0.95994624  0.90801236  0.60266131  1
  O2-  O251  1  0.95609524  0.91567456  0.93540944  1
  O2-  O252  1  0.33585197  0.28696623  0.26811701  1
  O2-  O253  1  0.33348155  0.28978215  0.59477527  1
  O2-  O254  1  0.33230642  0.29322113  0.93462119  1
  O2-  O255  1  0.32947373  0.79820344  0.27218360  1
  O2-  O256  1  0.33575155  0.79227787  0.59986819  1
  O2-  O257  1  0.33289090  0.79772652  0.93958456  1
  O2-  O258  1  0.84030647  0.29148049  0.27337114  1
  O2-  O259  1  0.83483292  0.30258157  0.59907023  1
  O2-  O260  1  0.83385066  0.29117453  0.92768407  1
  O2-  O261  1  0.83265231  0.79351390  0.26182671  1
  O2-  O262  1  0.83729690  0.79042056  0.60564168  1
  O2-  O263  1  0.83389592  0.79935339  0.93386760  1
  O2-  O264  1  0.41214991  0.04107554  0.06915389  1
  O2-  O265  1  0.41064299  0.03963613  0.39891656  1
  O2-  O266  1  0.40925339  0.03735223  0.72921807  1
  O2-  O267  1  0.42050560  0.54159736  0.06934938  1
  O2-  O268  1  0.41095691  0.54546796  0.39806678  1
  O2-  O269  1  0.42541932  0.55217036  0.72893707  1
  O2-  O270  1  0.91220787  0.04038488  0.06815197  1
  O2-  O271  1  0.91350672  0.03760251  0.39522956  1
  O2-  O272  1  0.91653894  0.03292569  0.73646839  1
  O2-  O273  1  0.91833258  0.55439230  0.05913438  1
  O2-  O274  1  0.91939209  0.54490886  0.40067841  1
  O2-  O275  1  0.91863431  0.54399438  0.73230773  1
  O2-  O276  1  0.29909548  0.16596981  0.06577053  1
  O2-  O277  1  0.29169435  0.16133504  0.39986367  1
  O2-  O278  1  0.29444904  0.16171358  0.72450877  1
  O2-  O279  1  0.29244605  0.66883808  0.07063976  1
  O2-  O280  1  0.29172873  0.66410278  0.39738718  1
  O2-  O281  1  0.29193702  0.67022775  0.73400374  1
  O2-  O282  1  0.80137842  0.16717987  0.06229662  1
  O2-  O283  1  0.79946211  0.16199349  0.39612411  1
  O2-  O284  1  0.81018526  0.17638819  0.72897005  1
  O2-  O285  1  0.79612153  0.66821737  0.05945717  1
  O2-  O286  1  0.79093786  0.67198151  0.39674385  1
  O2-  O287  1  0.79048203  0.66644656  0.73737924  1
