# generated using pymatgen
data_Ca2Al2SiO7
_symmetry_space_group_name_H-M   'P 1'
_cell_length_a   15.46572936
_cell_length_b   15.46494580
_cell_length_c   15.28879172
_cell_angle_alpha   90.00457198
_cell_angle_beta   89.99977962
_cell_angle_gamma   90.02682792
_symmetry_Int_Tables_number   1
_chemical_formula_structural   Ca2Al2SiO7
_chemical_formula_sum   'Ca48 Al48 Si24 O168'
_cell_volume   3656.72182313
_cell_formula_units_Z   24
loop_
 _symmetry_equiv_pos_site_id
 _symmetry_equiv_pos_as_xyz
  1  'x, y, z'
loop_
 _atom_type_symbol
 _atom_type_oxidation_number
  Ca2+  2.0
  Al0+  0.0
  Si0+  0.0
  O2-  -2.0
loop_
 _atom_site_type_symbol
 _atom_site_label
 _atom_site_symmetry_multiplicity
 _atom_site_fract_x
 _atom_site_fract_y
 _atom_site_fract_z
 _atom_site_occupancy
  Ca2+  Ca0  1  0.17956874  0.08588194  0.17188551  1
  Ca2+  Ca1  1  0.17939836  0.09336186  0.50100056  1
  Ca2+  Ca2  1  0.18287715  0.08116782  0.83866130  1
  Ca2+  Ca3  1  0.17301047  0.57919643  0.17266460  1
  Ca2+  Ca4  1  0.16654650  0.57457101  0.50548852  1
  Ca2+  Ca5  1  0.17761452  0.57615626  0.83185256  1
  Ca2+  Ca6  1  0.67028873  0.07993734  0.18013145  1
  Ca2+  Ca7  1  0.66862965  0.08223228  0.50588075  1
  Ca2+  Ca8  1  0.66542885  0.08760943  0.82661290  1
  Ca2+  Ca9  1  0.66133442  0.56872381  0.17026871  1
  Ca2+  Ca10  1  0.66356320  0.56887942  0.50428204  1
  Ca2+  Ca11  1  0.65850879  0.56818681  0.83394916  1
  Ca2+  Ca12  1  0.08924830  0.32815566  0.16981789  1
  Ca2+  Ca13  1  0.07940727  0.33549638  0.49337873  1
  Ca2+  Ca14  1  0.07429237  0.33819401  0.82381546  1
  Ca2+  Ca15  1  0.08990162  0.82958106  0.16163126  1
  Ca2+  Ca16  1  0.08332911  0.82548165  0.49219819  1
  Ca2+  Ca17  1  0.08977281  0.83482415  0.83063495  1
  Ca2+  Ca18  1  0.58385735  0.32807272  0.16124590  1
  Ca2+  Ca19  1  0.58467033  0.32347952  0.49780541  1
  Ca2+  Ca20  1  0.57451433  0.33209131  0.82433681  1
  Ca2+  Ca21  1  0.57861407  0.83393758  0.16191537  1
  Ca2+  Ca22  1  0.58048198  0.84346900  0.49919687  1
  Ca2+  Ca23  1  0.57217214  0.83319035  0.82376162  1
  Ca2+  Ca24  1  0.33584046  0.42075466  0.17069717  1
  Ca2+  Ca25  1  0.32104528  0.41743984  0.51152220  1
  Ca2+  Ca26  1  0.34381331  0.42404439  0.83679314  1
  Ca2+  Ca27  1  0.33584049  0.92649843  0.16583568  1
  Ca2+  Ca28  1  0.33854578  0.92977559  0.50566380  1
  Ca2+  Ca29  1  0.34042360  0.92748566  0.83752444  1
  Ca2+  Ca30  1  0.81998323  0.41287024  0.17090660  1
  Ca2+  Ca31  1  0.82286853  0.40693106  0.50482100  1
  Ca2+  Ca32  1  0.81929720  0.40525808  0.83111516  1
  Ca2+  Ca33  1  0.82461044  0.92330696  0.17809500  1
  Ca2+  Ca34  1  0.82288799  0.92822723  0.50560915  1
  Ca2+  Ca35  1  0.82709427  0.92193430  0.83204557  1
  Ca2+  Ca36  1  0.41870760  0.16929189  0.16349242  1
  Ca2+  Ca37  1  0.42571343  0.16356498  0.49755307  1
  Ca2+  Ca38  1  0.41718626  0.17448661  0.82415008  1
  Ca2+  Ca39  1  0.41451388  0.67323711  0.15729873  1
  Ca2+  Ca40  1  0.41063445  0.67272255  0.50295983  1
  Ca2+  Ca41  1  0.40345362  0.67660840  0.82947077  1
  Ca2+  Ca42  1  0.92236947  0.16029608  0.16876936  1
  Ca2+  Ca43  1  0.91847286  0.16545123  0.49655476  1
  Ca2+  Ca44  1  0.92009579  0.16930371  0.82274770  1
  Ca2+  Ca45  1  0.92440120  0.66508650  0.16576759  1
  Ca2+  Ca46  1  0.92254015  0.66732548  0.49191404  1
  Ca2+  Ca47  1  0.91954737  0.66813344  0.82668549  1
  Al0+  Al48  1  0.00016899  -0.00212558  0.00144941  1
  Al0+  Al49  1  0.00042640  0.00011132  0.33144076  1
  Al0+  Al50  1  -0.00169429  -0.00139216  0.66807426  1
  Al0+  Al51  1  -0.00024028  0.50025708  -0.00162347  1
  Al0+  Al52  1  -0.00002444  0.50109560  0.32790761  1
  Al0+  Al53  1  -0.00052794  0.50002496  0.66522612  1
  Al0+  Al54  1  0.50227499  -0.00049649  -0.00020924  1
  Al0+  Al55  1  0.49928519  0.00163889  0.33389522  1
  Al0+  Al56  1  0.49922473  -0.00066744  0.66726379  1
  Al0+  Al57  1  0.50109401  0.49871158  0.00706261  1
  Al0+  Al58  1  0.49913275  0.50314690  0.33880736  1
  Al0+  Al59  1  0.49831447  0.50292834  0.66938281  1
  Al0+  Al60  1  0.25028983  0.25014615  -0.00164349  1
  Al0+  Al61  1  0.24912391  0.25252732  0.33663734  1
  Al0+  Al62  1  0.24689551  0.24966166  0.67369855  1
  Al0+  Al63  1  0.24995333  0.74826885  0.00190704  1
  Al0+  Al64  1  0.25008895  0.75141584  0.32709776  1
  Al0+  Al65  1  0.24944392  0.74836897  0.66262837  1
  Al0+  Al66  1  0.75185319  0.24879354  0.00442846  1
  Al0+  Al67  1  0.74975053  0.24958909  0.33502213  1
  Al0+  Al68  1  0.75129583  0.24929781  0.66728435  1
  Al0+  Al69  1  0.75265655  0.74873646  -0.00102300  1
  Al0+  Al70  1  0.74799333  0.74926339  0.33402387  1
  Al0+  Al71  1  0.74966405  0.75004308  0.66850937  1
  Al0+  Al72  1  0.56894591  0.18067254  0.65177766  1
  Al0+  Al73  1  0.42552616  0.32476155  0.65169988  1
  Al0+  Al74  1  0.93019850  0.32049911  0.65268625  1
  Al0+  Al75  1  0.82350043  0.07132235  0.34869106  1
  Al0+  Al76  1  0.17985988  0.43139389  0.34576055  1
  Al0+  Al77  1  0.31985619  0.07154631  0.34749585  1
  Al0+  Al78  1  0.67767647  0.92816174  0.68393889  1
  Al0+  Al79  1  0.07097400  0.67912068  0.31729858  1
  Al0+  Al80  1  0.07259910  0.17930381  0.31960283  1
  Al0+  Al81  1  0.31998919  0.56892203  0.01503073  1
  Al0+  Al82  1  0.67799303  0.42875078  0.34859780  1
  Al0+  Al83  1  0.67733304  0.92787173  0.34785651  1
  Al0+  Al84  1  0.42882746  0.82001899  0.65175691  1
  Al0+  Al85  1  0.43013436  0.32079734  0.98839569  1
  Al0+  Al86  1  0.57066835  0.18026162  0.31914912  1
  Al0+  Al87  1  0.17913897  0.92952447  0.01472075  1
  Al0+  Al88  1  0.43026548  0.81985844  0.98609295  1
  Al0+  Al89  1  0.32089218  0.07117275  0.67999256  1
  Al0+  Al90  1  0.68065134  0.42909502  0.01421858  1
  Al0+  Al91  1  0.17657419  0.42771384  0.68233050  1
  Al0+  Al92  1  0.67894616  0.42875753  0.67941126  1
  Al0+  Al93  1  0.32386294  0.07339772  0.01617126  1
  Al0+  Al94  1  0.82163830  0.07098264  0.68342463  1
  Al0+  Al95  1  0.31993207  0.57112147  0.68136289  1
  Si0+  Si96  1  0.07067177  0.67853363  0.98211017  1
  Si0+  Si97  1  0.17794762  0.92635680  0.67921967  1
  Si0+  Si98  1  0.57382951  0.67728277  0.98418287  1
  Si0+  Si99  1  0.82422068  0.57348729  0.01708934  1
  Si0+  Si100  1  0.57105854  0.67706241  0.31762882  1
  Si0+  Si101  1  0.68061825  0.92661391  0.01451839  1
  Si0+  Si102  1  0.92714317  0.82102359  0.31615518  1
  Si0+  Si103  1  0.07110955  0.17486907  0.65137127  1
  Si0+  Si104  1  0.82173930  0.57124461  0.34805110  1
  Si0+  Si105  1  0.92924221  0.31979325  0.98584654  1
  Si0+  Si106  1  0.32184812  0.57593124  0.35066842  1
  Si0+  Si107  1  0.82254134  0.57255734  0.68185385  1
  Si0+  Si108  1  0.06888865  0.68053830  0.65102660  1
  Si0+  Si109  1  0.43012354  0.82152669  0.31690496  1
  Si0+  Si110  1  0.82158067  0.06973855  0.01596997  1
  Si0+  Si111  1  0.17878050  0.92668567  0.34886330  1
  Si0+  Si112  1  0.92762688  0.32203962  0.31434011  1
  Si0+  Si113  1  0.57454820  0.67830884  0.64895959  1
  Si0+  Si114  1  0.92872972  0.82123320  0.98322019  1
  Si0+  Si115  1  0.17409761  0.42830189  0.01724929  1
  Si0+  Si116  1  0.07061401  0.17734211  0.98502340  1
  Si0+  Si117  1  0.92652972  0.82185235  0.65038125  1
  Si0+  Si118  1  0.57525222  0.17767246  0.98413946  1
  Si0+  Si119  1  0.42819557  0.32394325  0.31901708  1
  O2-  O120  1  0.25040463  0.00156885  0.06521540  1
  O2-  O121  1  0.24347161  -0.00237860  0.39391012  1
  O2-  O122  1  0.24476410  -0.00408627  0.72370191  1
  O2-  O123  1  0.24722290  0.49218428  0.06124345  1
  O2-  O124  1  0.25374689  0.50623230  0.39274399  1
  O2-  O125  1  0.25576647  0.49202131  0.73199528  1
  O2-  O126  1  0.74912008  -0.00023253  0.05683596  1
  O2-  O127  1  0.74934114  0.00044337  0.39602736  1
  O2-  O128  1  0.74845637  0.00093444  0.73484353  1
  O2-  O129  1  0.75478141  0.50556088  0.06030296  1
  O2-  O130  1  0.75473995  0.50262697  0.39346329  1
  O2-  O131  1  0.75313061  0.50499988  0.72613502  1
  O2-  O132  1  -0.00388329  0.25223669  0.27091007  1
  O2-  O133  1  0.00567065  0.24662923  0.60705837  1
  O2-  O134  1  0.00231849  0.25134678  0.94336576  1
  O2-  O135  1  -0.00263414  0.75490351  0.26953467  1
  O2-  O136  1  -0.00226791  0.75120905  0.60853941  1
  O2-  O137  1  0.00032225  0.75083831  0.94025167  1
  O2-  O138  1  0.49855111  0.25778157  0.27296398  1
  O2-  O139  1  0.49681593  0.25258950  0.60078221  1
  O2-  O140  1  0.50291223  0.24363577  0.94259867  1
  O2-  O141  1  0.50107317  0.74930532  0.27583834  1
  O2-  O142  1  0.50638652  0.74783908  0.60492878  1
  O2-  O143  1  0.50558480  0.74536333  0.93909209  1
  O2-  O144  1  0.06891479  0.17761330  0.09030354  1
  O2-  O145  1  0.07321245  0.18226643  0.43218089  1
  O2-  O146  1  0.06705068  0.17242870  0.75735173  1
  O2-  O147  1  0.06804568  0.67773302  0.08715620  1
  O2-  O148  1  0.06881622  0.68065948  0.43059675  1
  O2-  O149  1  0.06780618  0.68205460  0.75643368  1
  O2-  O150  1  0.57886010  0.17895703  0.08991768  1
  O2-  O151  1  0.57063733  0.17894186  0.43146794  1
  O2-  O152  1  0.56854824  0.18234598  0.76599533  1
  O2-  O153  1  0.57446934  0.68005673  0.09028223  1
  O2-  O154  1  0.57131625  0.67382250  0.42214559  1
  O2-  O155  1  0.57734661  0.67919907  0.75457961  1
  O2-  O156  1  0.18263231  0.43204339  0.23221541  1
  O2-  O157  1  0.17220338  0.43387348  0.56883252  1
  O2-  O158  1  0.16699301  0.43285214  0.91246767  1
  O2-  O159  1  0.18225499  0.92471165  0.24341142  1
  O2-  O160  1  0.17760152  0.92452413  0.57362569  1
  O2-  O161  1  0.17647451  0.93246020  0.90101411  1
  O2-  O162  1  0.67896109  0.43056676  0.23511822  1
  O2-  O163  1  0.68135755  0.43007672  0.56649791  1
  O2-  O164  1  0.68276641  0.42856061  0.90143905  1
  O2-  O165  1  0.67926693  0.92709448  0.23321321  1
  O2-  O166  1  0.68149527  0.92723389  0.57081901  1
  O2-  O167  1  0.68306913  0.92367994  0.91003812  1
  O2-  O168  1  0.43269520  0.32182439  0.10190892  1
  O2-  O169  1  0.42837681  0.32307477  0.42406509  1
  O2-  O170  1  0.43066137  0.32362241  0.76573510  1
  O2-  O171  1  0.43348907  0.81915138  0.09972555  1
  O2-  O172  1  0.42830794  0.82004387  0.42182172  1
  O2-  O173  1  0.42749212  0.81796317  0.76490742  1
  O2-  O174  1  0.92756955  0.31925401  0.09076775  1
  O2-  O175  1  0.92889233  0.32505631  0.41958869  1
  O2-  O176  1  0.93059808  0.31986906  0.76672561  1
  O2-  O177  1  0.92651135  0.81984133  0.08808718  1
  O2-  O178  1  0.92816325  0.81755390  0.42163289  1
  O2-  O179  1  0.92731494  0.82052043  0.75592348  1
  O2-  O180  1  0.32082463  0.06990312  0.23445592  1
  O2-  O181  1  0.32022348  0.06969237  0.56674463  1
  O2-  O182  1  0.32273857  0.07242694  0.90281723  1
  O2-  O183  1  0.32233348  0.57602336  0.24474768  1
  O2-  O184  1  0.31299847  0.57618701  0.56791017  1
  O2-  O185  1  0.31724538  0.57047132  0.90261739  1
  O2-  O186  1  0.82222473  0.06793459  0.23395617  1
  O2-  O187  1  0.82530600  0.06794508  0.57069953  1
  O2-  O188  1  0.82333285  0.07019401  0.91134314  1
  O2-  O189  1  0.82044529  0.57113733  0.24214225  1
  O2-  O190  1  0.82363424  0.57379962  0.57632403  1
  O2-  O191  1  0.82691739  0.57524904  0.91183480  1
  O2-  O192  1  0.04432222  0.08162669  0.26441707  1
  O2-  O193  1  0.04344533  0.08214137  0.60398796  1
  O2-  O194  1  0.03859540  0.08660324  0.93827006  1
  O2-  O195  1  0.03833601  0.58455156  0.25957587  1
  O2-  O196  1  0.03930735  0.58985755  0.60299556  1
  O2-  O197  1  0.04004037  0.58765643  0.93400539  1
  O2-  O198  1  0.53848950  0.08380909  0.26435299  1
  O2-  O199  1  0.54145952  0.08138239  0.60076662  1
  O2-  O200  1  0.55464464  0.08246236  0.93997447  1
  O2-  O201  1  0.54070007  0.58637680  0.26814617  1
  O2-  O202  1  0.54634158  0.58572087  0.60269208  1
  O2-  O203  1  0.54818063  0.58266595  0.94191206  1
  O2-  O204  1  0.16756053  0.21508122  0.26381491  1
  O2-  O205  1  0.16617319  0.19761616  0.60888839  1
  O2-  O206  1  0.16328040  0.20105539  0.93815678  1
  O2-  O207  1  0.16725551  0.70984002  0.26157085  1
  O2-  O208  1  0.15874192  0.70908059  0.60115274  1
  O2-  O209  1  0.16202925  0.70651893  0.93520294  1
  O2-  O210  1  0.66854694  0.20895250  0.26515815  1
  O2-  O211  1  0.66854646  0.20812711  0.60124082  1
  O2-  O212  1  0.66861548  0.20640636  0.93844429  1
  O2-  O213  1  0.66336988  0.70264050  0.26908259  1
  O2-  O214  1  0.66889236  0.70153997  0.60253707  1
  O2-  O215  1  0.66859053  0.70048452  0.93885646  1
  O2-  O216  1  0.08232045  0.45846081  0.06557661  1
  O2-  O217  1  0.08152598  0.46246539  0.39585126  1
  O2-  O218  1  0.08081961  0.46592844  0.73635489  1
  O2-  O219  1  0.07911878  0.95368785  0.06782307  1
  O2-  O220  1  0.08272372  0.94581943  0.39123273  1
  O2-  O221  1  0.08350190  0.94809716  0.72548002  1
  O2-  O222  1  0.58663417  0.46015821  0.07226583  1
  O2-  O223  1  0.58299173  0.46308402  0.40260160  1
  O2-  O224  1  0.58350131  0.46160315  0.73412149  1
  O2-  O225  1  0.58859110  0.95191962  0.06171544  1
  O2-  O226  1  0.57950253  0.95632759  0.39926607  1
  O2-  O227  1  0.57946617  0.95550773  0.73620744  1
  O2-  O228  1  0.19550982  0.33220137  0.05862143  1
  O2-  O229  1  0.20781154  0.33609537  0.40183463  1
  O2-  O230  1  0.19107269  0.32708332  0.73460453  1
  O2-  O231  1  0.20604001  0.83037560  0.06635088  1
  O2-  O232  1  0.20673474  0.83338720  0.39479495  1
  O2-  O233  1  0.20406335  0.83328294  0.72561741  1
  O2-  O234  1  0.71514465  0.33373654  0.06943141  1
  O2-  O235  1  0.70964288  0.33303642  0.40129637  1
  O2-  O236  1  0.71288958  0.33448545  0.73484597  1
  O2-  O237  1  0.71067085  0.83504420  0.06229325  1
  O2-  O238  1  0.70371046  0.82842097  0.39967184  1
  O2-  O239  1  0.70862451  0.82979685  0.73676308  1
  O2-  O240  1  0.45152270  0.42010359  0.27566665  1
  O2-  O241  1  0.44976126  0.42572445  0.60198202  1
  O2-  O242  1  0.46424944  0.41770778  0.93644454  1
  O2-  O243  1  0.45942806  0.91230014  0.26888665  1
  O2-  O244  1  0.45922644  0.91616031  0.59770389  1
  O2-  O245  1  0.46172307  0.91682153  0.93306872  1
  O2-  O246  1  0.95339552  0.41496556  0.26610180  1
  O2-  O247  1  0.95832539  0.41801817  0.59845466  1
  O2-  O248  1  0.95421650  0.41292134  0.93905002  1
  O2-  O249  1  0.94987494  0.91514304  0.27021826  1
  O2-  O250  1  0.95484394  0.91297866  0.60265856  1
  O2-  O251  1  0.95595751  0.91303725  0.93532570  1
  O2-  O252  1  0.33530624  0.29694999  0.27243219  1
  O2-  O253  1  0.32346572  0.29848862  0.60565993  1
  O2-  O254  1  0.33125416  0.29708250  0.93490970  1
  O2-  O255  1  0.33902289  0.79397054  0.26758279  1
  O2-  O256  1  0.33347928  0.78639442  0.59586624  1
  O2-  O257  1  0.33301928  0.78750203  0.93449292  1
  O2-  O258  1  0.83441414  0.29518279  0.26821749  1
  O2-  O259  1  0.83455424  0.28908144  0.59877545  1
  O2-  O260  1  0.83835471  0.28844651  0.93843028  1
  O2-  O261  1  0.83392571  0.79264462  0.26925606  1
  O2-  O262  1  0.83554473  0.79273059  0.60276701  1
  O2-  O263  1  0.83798219  0.79162875  0.93385018  1
  O2-  O264  1  0.42293062  0.04343459  0.06769086  1
  O2-  O265  1  0.41467044  0.03724331  0.40097144  1
  O2-  O266  1  0.41529249  0.03778151  0.73491681  1
  O2-  O267  1  0.41679515  0.54202929  0.07085885  1
  O2-  O268  1  0.41552983  0.55457154  0.39725649  1
  O2-  O269  1  0.42063151  0.55484585  0.73416231  1
  O2-  O270  1  0.91229135  0.03923439  0.06382453  1
  O2-  O271  1  0.92214764  0.04245525  0.40052367  1
  O2-  O272  1  0.91889952  0.03808354  0.73827426  1
  O2-  O273  1  0.91725986  0.54576501  0.06377259  1
  O2-  O274  1  0.91640474  0.54798149  0.39206797  1
  O2-  O275  1  0.91533353  0.54680841  0.72911315  1
  O2-  O276  1  0.29322351  0.17192160  0.06847237  1
  O2-  O277  1  0.28883513  0.16754486  0.40085619  1
  O2-  O278  1  0.29006707  0.16570710  0.73751591  1
  O2-  O279  1  0.28630867  0.66397395  0.07008929  1
  O2-  O280  1  0.29387213  0.66978655  0.39425908  1
  O2-  O281  1  0.28092241  0.66686664  0.73468329  1
  O2-  O282  1  0.79637728  0.16136590  0.06469583  1
  O2-  O283  1  0.79866726  0.17056299  0.39888141  1
  O2-  O284  1  0.79465688  0.16913406  0.73709812  1
  O2-  O285  1  0.80090892  0.66752680  0.06405313  1
  O2-  O286  1  0.79708533  0.66478417  0.39413597  1
  O2-  O287  1  0.79948838  0.66613097  0.72942038  1
