# generated using pymatgen
data_Ca2Al2SiO7
_symmetry_space_group_name_H-M   'P 1'
_cell_length_a   15.46882412
_cell_length_b   15.46694183
_cell_length_c   15.29100024
_cell_angle_alpha   90.00257709
_cell_angle_beta   90.00767896
_cell_angle_gamma   90.00101460
_symmetry_Int_Tables_number   1
_chemical_formula_structural   Ca2Al2SiO7
_chemical_formula_sum   'Ca48 Al48 Si24 O168'
_cell_volume   3658.45438543
_cell_formula_units_Z   24
loop_
 _symmetry_equiv_pos_site_id
 _symmetry_equiv_pos_as_xyz
  1  'x, y, z'
loop_
 _atom_type_symbol
 _atom_type_oxidation_number
  Ca2+  2.0
  Al0+  0.0
  Si0+  0.0
  O2-  -2.0
loop_
 _atom_site_type_symbol
 _atom_site_label
 _atom_site_symmetry_multiplicity
 _atom_site_fract_x
 _atom_site_fract_y
 _atom_site_fract_z
 _atom_site_occupancy
  Ca2+  Ca0  1  0.17343728  0.08288121  0.16719979  1
  Ca2+  Ca1  1  0.16705979  0.08700164  0.50050852  1
  Ca2+  Ca2  1  0.17641070  0.07399658  0.84626214  1
  Ca2+  Ca3  1  0.17480412  0.58612734  0.17184738  1
  Ca2+  Ca4  1  0.17574771  0.57937608  0.50401155  1
  Ca2+  Ca5  1  0.16568490  0.57800792  0.83862180  1
  Ca2+  Ca6  1  0.66925081  0.07399525  0.17490710  1
  Ca2+  Ca7  1  0.66265028  0.08387378  0.49874909  1
  Ca2+  Ca8  1  0.66925765  0.08014398  0.84236405  1
  Ca2+  Ca9  1  0.65234346  0.57315153  0.17031426  1
  Ca2+  Ca10  1  0.65856231  0.57942384  0.50025017  1
  Ca2+  Ca11  1  0.66835291  0.58294063  0.84489906  1
  Ca2+  Ca12  1  0.07580483  0.32830554  0.16582295  1
  Ca2+  Ca13  1  0.07331433  0.33414343  0.49322796  1
  Ca2+  Ca14  1  0.07511208  0.33391191  0.82471517  1
  Ca2+  Ca15  1  0.08182665  0.82954296  0.15672361  1
  Ca2+  Ca16  1  0.07961157  0.83393111  0.49402554  1
  Ca2+  Ca17  1  0.08831943  0.82922313  0.83794758  1
  Ca2+  Ca18  1  0.58752494  0.33083169  0.16283821  1
  Ca2+  Ca19  1  0.59188859  0.32211941  0.49263199  1
  Ca2+  Ca20  1  0.58037416  0.33063871  0.83419408  1
  Ca2+  Ca21  1  0.58169901  0.82893021  0.15874744  1
  Ca2+  Ca22  1  0.57490382  0.82357373  0.49021341  1
  Ca2+  Ca23  1  0.57937735  0.83222438  0.82880065  1
  Ca2+  Ca24  1  0.34013023  0.42494880  0.17375546  1
  Ca2+  Ca25  1  0.32988024  0.42381819  0.50341372  1
  Ca2+  Ca26  1  0.32774176  0.41232723  0.84074228  1
  Ca2+  Ca27  1  0.33128060  0.90711370  0.16703278  1
  Ca2+  Ca28  1  0.34051472  0.91327292  0.50078387  1
  Ca2+  Ca29  1  0.33650712  0.91799892  0.84317593  1
  Ca2+  Ca30  1  0.82309238  0.42091462  0.16876074  1
  Ca2+  Ca31  1  0.83154824  0.40940313  0.49783727  1
  Ca2+  Ca32  1  0.82551106  0.42000789  0.84128343  1
  Ca2+  Ca33  1  0.81944052  0.92213823  0.17010401  1
  Ca2+  Ca34  1  0.82486115  0.92182500  0.49732656  1
  Ca2+  Ca35  1  0.82445030  0.92623940  0.84649776  1
  Ca2+  Ca36  1  0.42092535  0.17205351  0.16062279  1
  Ca2+  Ca37  1  0.42998018  0.16733453  0.49571972  1
  Ca2+  Ca38  1  0.41956100  0.16761654  0.83363314  1
  Ca2+  Ca39  1  0.42516256  0.67404589  0.16368352  1
  Ca2+  Ca40  1  0.42165606  0.67308383  0.49273982  1
  Ca2+  Ca41  1  0.43141731  0.67831145  0.83121685  1
  Ca2+  Ca42  1  0.91232627  0.16274985  0.16748967  1
  Ca2+  Ca43  1  0.91964594  0.17704920  0.48604437  1
  Ca2+  Ca44  1  0.91195761  0.17291981  0.82784482  1
  Ca2+  Ca45  1  0.92477767  0.65920919  0.15756221  1
  Ca2+  Ca46  1  0.91991633  0.66712579  0.49677758  1
  Ca2+  Ca47  1  0.91894953  0.66085257  0.83715727  1
  Al0+  Al48  1  0.00263214  -0.00079360  0.00518464  1
  Al0+  Al49  1  0.00088742  -0.00019638  0.33371152  1
  Al0+  Al50  1  0.00034196  -0.00005867  0.66823003  1
  Al0+  Al51  1  -0.00053034  0.49779982  -0.00148082  1
  Al0+  Al52  1  -0.00090043  0.49836895  0.32959568  1
  Al0+  Al53  1  -0.00007924  0.50006704  0.66549394  1
  Al0+  Al54  1  0.50019962  0.00238178  0.00368374  1
  Al0+  Al55  1  0.49681658  0.00043490  0.33017893  1
  Al0+  Al56  1  0.49985340  0.00037244  0.66058996  1
  Al0+  Al57  1  0.49744995  0.49892836  -0.00663472  1
  Al0+  Al58  1  0.49895612  0.50148936  0.34417894  1
  Al0+  Al59  1  0.49917593  0.50026249  0.66721974  1
  Al0+  Al60  1  0.24784865  0.24861582  -0.00027974  1
  Al0+  Al61  1  0.24727229  0.24905745  0.33229664  1
  Al0+  Al62  1  0.24942289  0.24898789  0.67181308  1
  Al0+  Al63  1  0.24991177  0.74772865  -0.00636834  1
  Al0+  Al64  1  0.25018187  0.74935764  0.33761299  1
  Al0+  Al65  1  0.24936866  0.74974471  0.66487830  1
  Al0+  Al66  1  0.75101841  0.25288383  0.00518986  1
  Al0+  Al67  1  0.75105504  0.25195596  0.33097043  1
  Al0+  Al68  1  0.75117159  0.25178650  0.66019346  1
  Al0+  Al69  1  0.75577149  0.75024190  0.00306240  1
  Al0+  Al70  1  0.75039276  0.74890482  0.33486541  1
  Al0+  Al71  1  0.75101513  0.75023915  0.66386385  1
  Al0+  Al72  1  0.67497880  0.92759522  0.35060695  1
  Al0+  Al73  1  0.07175032  0.17685127  0.31598396  1
  Al0+  Al74  1  0.92838483  0.32183386  0.31296374  1
  Al0+  Al75  1  0.82276843  0.57084804  0.01374547  1
  Al0+  Al76  1  0.67987834  0.43099630  0.34886886  1
  Al0+  Al77  1  0.93072517  0.32115896  0.65252482  1
  Al0+  Al78  1  0.67763547  0.92809251  0.01325777  1
  Al0+  Al79  1  0.57051840  0.17991367  0.31828069  1
  Al0+  Al80  1  0.32207595  0.07279690  0.01626865  1
  Al0+  Al81  1  0.43087904  0.82281503  0.98509902  1
  Al0+  Al82  1  0.32003169  0.57136646  0.34799440  1
  Al0+  Al83  1  0.42694059  0.32074397  0.98780246  1
  Al0+  Al84  1  0.57463668  0.67881304  0.98624491  1
  Al0+  Al85  1  0.42872755  0.82065995  0.65068440  1
  Al0+  Al86  1  0.57181661  0.67752336  0.31793827  1
  Al0+  Al87  1  0.57426380  0.67772669  0.65064073  1
  Al0+  Al88  1  0.07077457  0.67730031  0.98589480  1
  Al0+  Al89  1  0.67584051  0.43253361  0.01388501  1
  Al0+  Al90  1  0.56998589  0.18198234  0.65441836  1
  Al0+  Al91  1  0.82042586  0.07003354  0.35009430  1
  Al0+  Al92  1  0.18264249  0.92607304  0.01559968  1
  Al0+  Al93  1  0.42736794  0.82053085  0.31660231  1
  Al0+  Al94  1  0.82204659  0.07368768  0.01376953  1
  Al0+  Al95  1  0.17952758  0.43036133  0.68053733  1
  Si0+  Si96  1  0.31860848  0.56820701  0.01262993  1
  Si0+  Si97  1  0.07229895  0.17654876  0.65216840  1
  Si0+  Si98  1  0.17680982  0.42738891  0.34885464  1
  Si0+  Si99  1  0.92908260  0.82112437  0.31901444  1
  Si0+  Si100  1  0.93032364  0.82409497  0.98305873  1
  Si0+  Si101  1  0.67993773  0.93031807  0.67967608  1
  Si0+  Si102  1  0.17691234  0.42730335  0.01569787  1
  Si0+  Si103  1  0.06940637  0.67962748  0.65092000  1
  Si0+  Si104  1  0.67934978  0.42759380  0.68109629  1
  Si0+  Si105  1  0.32192488  0.57333097  0.68738528  1
  Si0+  Si106  1  0.07008846  0.67970410  0.32075578  1
  Si0+  Si107  1  0.57380249  0.18024100  0.98540426  1
  Si0+  Si108  1  0.82087202  0.57232155  0.68082954  1
  Si0+  Si109  1  0.17648696  0.92790741  0.68179621  1
  Si0+  Si110  1  0.82634612  0.57194523  0.35151118  1
  Si0+  Si111  1  0.18026303  0.92886993  0.34957209  1
  Si0+  Si112  1  0.07106086  0.17721290  0.98300356  1
  Si0+  Si113  1  0.92985391  0.31909602  0.98319340  1
  Si0+  Si114  1  0.31998931  0.07429558  0.35041226  1
  Si0+  Si115  1  0.32173853  0.06897960  0.68074745  1
  Si0+  Si116  1  0.82100055  0.07232104  0.67948589  1
  Si0+  Si117  1  0.92924107  0.82389006  0.65169515  1
  Si0+  Si118  1  0.42721136  0.32210005  0.32139549  1
  Si0+  Si119  1  0.42414666  0.32200111  0.65071137  1
  O2-  O120  1  0.25578609  -0.00438762  0.06701781  1
  O2-  O121  1  0.25050598  0.00052738  0.39196537  1
  O2-  O122  1  0.25012536  -0.00279222  0.72135132  1
  O2-  O123  1  0.24983511  0.49576238  0.05749098  1
  O2-  O124  1  0.24594853  0.49484042  0.39356462  1
  O2-  O125  1  0.25616429  0.50099766  0.73115308  1
  O2-  O126  1  0.74814692  0.00285780  0.06131130  1
  O2-  O127  1  0.74520666  0.00207342  0.40185048  1
  O2-  O128  1  0.75043441  0.00184982  0.72254615  1
  O2-  O129  1  0.74262344  0.50948752  0.06416724  1
  O2-  O130  1  0.75465581  0.50666278  0.39573081  1
  O2-  O131  1  0.74533168  0.50476165  0.72123272  1
  O2-  O132  1  -0.00201187  0.24621203  0.26504850  1
  O2-  O133  1  0.00565612  0.24600991  0.60738385  1
  O2-  O134  1  -0.00298396  0.24460714  0.93998989  1
  O2-  O135  1  -0.00357912  0.74626322  0.27777134  1
  O2-  O136  1  0.00093686  0.75311082  0.60902882  1
  O2-  O137  1  -0.00345124  0.75240527  0.93835839  1
  O2-  O138  1  0.49577648  0.25577373  0.27453223  1
  O2-  O139  1  0.49679152  0.25824817  0.60660767  1
  O2-  O140  1  0.50220415  0.24635076  0.94109267  1
  O2-  O141  1  0.50578593  0.75504940  0.26858194  1
  O2-  O142  1  0.49907652  0.74690768  0.60205450  1
  O2-  O143  1  0.50897633  0.75680994  0.93572696  1
  O2-  O144  1  0.07338620  0.18019574  0.08741740  1
  O2-  O145  1  0.07324767  0.17954006  0.43045405  1
  O2-  O146  1  0.06979995  0.17514987  0.75771784  1
  O2-  O147  1  0.07102601  0.67677131  0.09923698  1
  O2-  O148  1  0.06931319  0.68163236  0.42649177  1
  O2-  O149  1  0.06846548  0.67845648  0.75574789  1
  O2-  O150  1  0.57459792  0.18313337  0.09054085  1
  O2-  O151  1  0.56803211  0.18131701  0.43208397  1
  O2-  O152  1  0.57001341  0.18163011  0.76752462  1
  O2-  O153  1  0.56725881  0.67539005  0.09894750  1
  O2-  O154  1  0.56778232  0.67701826  0.43168354  1
  O2-  O155  1  0.57767002  0.68144862  0.76404624  1
  O2-  O156  1  0.17700392  0.42902345  0.24328377  1
  O2-  O157  1  0.17985562  0.43394683  0.56757320  1
  O2-  O158  1  0.17575732  0.42860623  0.91016028  1
  O2-  O159  1  0.18045995  0.92469666  0.24526601  1
  O2-  O160  1  0.17101077  0.92916549  0.57680841  1
  O2-  O161  1  0.18177526  0.92893557  0.90116896  1
  O2-  O162  1  0.67708635  0.43240334  0.23638010  1
  O2-  O163  1  0.68274060  0.42476378  0.57634779  1
  O2-  O164  1  0.67956963  0.42856234  0.89941793  1
  O2-  O165  1  0.67826137  0.92710170  0.23755905  1
  O2-  O166  1  0.68207215  0.93075681  0.57510418  1
  O2-  O167  1  0.67990172  0.93105426  0.89819233  1
  O2-  O168  1  0.42552601  0.32183290  0.10067666  1
  O2-  O169  1  0.42568674  0.31824147  0.42732471  1
  O2-  O170  1  0.42226093  0.31853316  0.75624405  1
  O2-  O171  1  0.42623431  0.81647792  0.09773797  1
  O2-  O172  1  0.42451421  0.81607329  0.43029564  1
  O2-  O173  1  0.43024653  0.82306376  0.76392168  1
  O2-  O174  1  0.93278007  0.32161439  0.08736385  1
  O2-  O175  1  0.93345004  0.32350915  0.42720653  1
  O2-  O176  1  0.92988016  0.31945668  0.76597194  1
  O2-  O177  1  0.93389481  0.82544497  0.08836055  1
  O2-  O178  1  0.93341465  0.82099252  0.42509395  1
  O2-  O179  1  0.92988732  0.82609428  0.75626486  1
  O2-  O180  1  0.31765247  0.07939562  0.24621138  1
  O2-  O181  1  0.31985826  0.07068500  0.57562381  1
  O2-  O182  1  0.31787397  0.07454619  0.90174738  1
  O2-  O183  1  0.31708408  0.57090743  0.23460774  1
  O2-  O184  1  0.31804250  0.57339716  0.58173291  1
  O2-  O185  1  0.31509246  0.56545772  0.90747464  1
  O2-  O186  1  0.82096680  0.06438322  0.23713724  1
  O2-  O187  1  0.82331935  0.07044373  0.57515868  1
  O2-  O188  1  0.82028742  0.07401459  0.89859327  1
  O2-  O189  1  0.83416546  0.56910458  0.24693206  1
  O2-  O190  1  0.82468272  0.57297962  0.57602909  1
  O2-  O191  1  0.82642099  0.56371300  0.89945452  1
  O2-  O192  1  0.04727283  0.07672353  0.26545399  1
  O2-  O193  1  0.04715194  0.08285149  0.60554293  1
  O2-  O194  1  0.04775318  0.08336702  0.93733861  1
  O2-  O195  1  0.04724630  0.58701534  0.27358233  1
  O2-  O196  1  0.03847412  0.58995105  0.60172906  1
  O2-  O197  1  0.03760272  0.58130190  0.93019500  1
  O2-  O198  1  0.53859323  0.08419904  0.26531600  1
  O2-  O199  1  0.53751372  0.08723915  0.59818998  1
  O2-  O200  1  0.55080575  0.08612686  0.93947656  1
  O2-  O201  1  0.53449455  0.57965012  0.26983164  1
  O2-  O202  1  0.54802432  0.57662923  0.60186417  1
  O2-  O203  1  0.53937957  0.58334206  0.93005443  1
  O2-  O204  1  0.16911461  0.20822765  0.26246934  1
  O2-  O205  1  0.16722976  0.20037920  0.60817766  1
  O2-  O206  1  0.16062965  0.20852969  0.93306956  1
  O2-  O207  1  0.16054755  0.71090164  0.27442734  1
  O2-  O208  1  0.16131300  0.70575913  0.60316285  1
  O2-  O209  1  0.16485869  0.70769249  0.92695840  1
  O2-  O210  1  0.66671206  0.21035778  0.26607879  1
  O2-  O211  1  0.66551006  0.21215572  0.59826245  1
  O2-  O212  1  0.66647948  0.20953741  0.93822013  1
  O2-  O213  1  0.67498799  0.69482204  0.27098549  1
  O2-  O214  1  0.67268227  0.70590995  0.59719344  1
  O2-  O215  1  0.67780080  0.69825859  0.93900405  1
  O2-  O216  1  0.08702188  0.45841992  0.06327097  1
  O2-  O217  1  0.08407480  0.45625432  0.39512211  1
  O2-  O218  1  0.08341255  0.46475973  0.73463967  1
  O2-  O219  1  0.08484080  0.95473817  0.06850506  1
  O2-  O220  1  0.08881031  0.95638878  0.39856754  1
  O2-  O221  1  0.08601900  0.95693145  0.73200355  1
  O2-  O222  1  0.57486396  0.45485774  0.06414024  1
  O2-  O223  1  0.58431011  0.45886972  0.40734236  1
  O2-  O224  1  0.58409215  0.44716644  0.72579442  1
  O2-  O225  1  0.57968295  0.95308550  0.06644372  1
  O2-  O226  1  0.57494364  0.95570614  0.40081218  1
  O2-  O227  1  0.58756960  0.95924462  0.72489579  1
  O2-  O228  1  0.20101341  0.33471742  0.06131730  1
  O2-  O229  1  0.20074796  0.33364669  0.39560055  1
  O2-  O230  1  0.20485533  0.33190258  0.73517793  1
  O2-  O231  1  0.20662876  0.82513578  0.06549836  1
  O2-  O232  1  0.20734427  0.83809091  0.40050937  1
  O2-  O233  1  0.20087656  0.83424014  0.72701776  1
  O2-  O234  1  0.70967602  0.33675923  0.06759832  1
  O2-  O235  1  0.71381517  0.33500146  0.40256290  1
  O2-  O236  1  0.71371296  0.33797430  0.72924957  1
  O2-  O237  1  0.70978511  0.83143970  0.06665327  1
  O2-  O238  1  0.70882483  0.82973441  0.40363284  1
  O2-  O239  1  0.71001401  0.83881783  0.72624437  1
  O2-  O240  1  0.45138083  0.41733281  0.28006646  1
  O2-  O241  1  0.44369362  0.41834922  0.60887003  1
  O2-  O242  1  0.45508639  0.41498587  0.92767821  1
  O2-  O243  1  0.44265920  0.92276247  0.26887318  1
  O2-  O244  1  0.45678787  0.91846412  0.59673643  1
  O2-  O245  1  0.45242700  0.92483293  0.93528970  1
  O2-  O246  1  0.96144171  0.41893345  0.25976243  1
  O2-  O247  1  0.96279209  0.41717096  0.59820306  1
  O2-  O248  1  0.96288189  0.40837334  0.93362659  1
  O2-  O249  1  0.96260767  0.90999734  0.27159743  1
  O2-  O250  1  0.95887963  0.91474956  0.60264862  1
  O2-  O251  1  0.95998906  0.91638359  0.93501458  1
  O2-  O252  1  0.33339165  0.29812559  0.27535149  1
  O2-  O253  1  0.33154380  0.29285357  0.60421251  1
  O2-  O254  1  0.33015561  0.28904920  0.93241787  1
  O2-  O255  1  0.32942698  0.78483828  0.26638397  1
  O2-  O256  1  0.32793543  0.79518636  0.59959364  1
  O2-  O257  1  0.33436012  0.78881770  0.93020458  1
  O2-  O258  1  0.82962888  0.29722589  0.26187975  1
  O2-  O259  1  0.83606749  0.29026551  0.59631419  1
  O2-  O260  1  0.83666606  0.29442022  0.93625101  1
  O2-  O261  1  0.83632320  0.79788796  0.27349094  1
  O2-  O262  1  0.83929637  0.79455245  0.60241335  1
  O2-  O263  1  0.83706333  0.80132304  0.93519465  1
  O2-  O264  1  0.42291601  0.05644405  0.06609332  1
  O2-  O265  1  0.41162940  0.04752690  0.39812270  1
  O2-  O266  1  0.41354040  0.04106412  0.72787908  1
  O2-  O267  1  0.41011966  0.54055749  0.05889582  1
  O2-  O268  1  0.41253653  0.54010565  0.40872309  1
  O2-  O269  1  0.41736163  0.55134750  0.73099851  1
  O2-  O270  1  0.92037846  0.04549107  0.06533555  1
  O2-  O271  1  0.91924839  0.03810347  0.40284211  1
  O2-  O272  1  0.91304380  0.04477350  0.72784934  1
  O2-  O273  1  0.91806323  0.53263267  0.06771366  1
  O2-  O274  1  0.91899241  0.54261513  0.40027245  1
  O2-  O275  1  0.91166326  0.54096062  0.72836995  1
  O2-  O276  1  0.28490345  0.16845119  0.06969090  1
  O2-  O277  1  0.28865705  0.16425190  0.40099172  1
  O2-  O278  1  0.29492484  0.16035529  0.72996256  1
  O2-  O279  1  0.28707630  0.65862179  0.05888334  1
  O2-  O280  1  0.28259288  0.66434761  0.40588845  1
  O2-  O281  1  0.29027140  0.66582212  0.73202139  1
  O2-  O282  1  0.79830521  0.17220132  0.06657835  1
  O2-  O283  1  0.79659366  0.17120337  0.39859853  1
  O2-  O284  1  0.79281978  0.16480281  0.72549828  1
  O2-  O285  1  0.81514172  0.67397359  0.06134038  1
  O2-  O286  1  0.80651129  0.66733759  0.39647850  1
  O2-  O287  1  0.79869166  0.66598755  0.72803400  1
