# generated using pymatgen
data_Ca2Al2SiO7
_symmetry_space_group_name_H-M   'P 1'
_cell_length_a   15.46049929
_cell_length_b   15.46080510
_cell_length_c   15.28581365
_cell_angle_alpha   89.98847579
_cell_angle_beta   89.99239708
_cell_angle_gamma   90.00732724
_symmetry_Int_Tables_number   1
_chemical_formula_structural   Ca2Al2SiO7
_chemical_formula_sum   'Ca48 Al48 Si24 O168'
_cell_volume   3653.79490156
_cell_formula_units_Z   24
loop_
 _symmetry_equiv_pos_site_id
 _symmetry_equiv_pos_as_xyz
  1  'x, y, z'
loop_
 _atom_type_symbol
 _atom_type_oxidation_number
  Ca2+  2.0
  Al0+  0.0
  Si0+  0.0
  O2-  -2.0
loop_
 _atom_site_type_symbol
 _atom_site_label
 _atom_site_symmetry_multiplicity
 _atom_site_fract_x
 _atom_site_fract_y
 _atom_site_fract_z
 _atom_site_occupancy
  Ca2+  Ca0  1  0.17630616  0.07531802  0.16823233  1
  Ca2+  Ca1  1  0.17833627  0.08239521  0.50435750  1
  Ca2+  Ca2  1  0.17828083  0.07869466  0.84221528  1
  Ca2+  Ca3  1  0.16387777  0.58165683  0.17127068  1
  Ca2+  Ca4  1  0.16844742  0.59227239  0.49960848  1
  Ca2+  Ca5  1  0.16213059  0.58091202  0.83940912  1
  Ca2+  Ca6  1  0.66524968  0.07539001  0.16650908  1
  Ca2+  Ca7  1  0.66805925  0.07114910  0.50935670  1
  Ca2+  Ca8  1  0.66723138  0.07591878  0.83956056  1
  Ca2+  Ca9  1  0.67087408  0.58951503  0.17361807  1
  Ca2+  Ca10  1  0.68112501  0.58805841  0.50464942  1
  Ca2+  Ca11  1  0.67357735  0.58814705  0.83703361  1
  Ca2+  Ca12  1  0.08394915  0.33463663  0.16209366  1
  Ca2+  Ca13  1  0.08311610  0.32969570  0.49782343  1
  Ca2+  Ca14  1  0.08490170  0.33343100  0.83219854  1
  Ca2+  Ca15  1  0.08378158  0.82405369  0.16024522  1
  Ca2+  Ca16  1  0.06862404  0.82696034  0.49174709  1
  Ca2+  Ca17  1  0.08250864  0.82760604  0.82563198  1
  Ca2+  Ca18  1  0.57516867  0.32687121  0.15866395  1
  Ca2+  Ca19  1  0.57463755  0.32442486  0.49706721  1
  Ca2+  Ca20  1  0.57790514  0.31661521  0.82378736  1
  Ca2+  Ca21  1  0.58223151  0.83596663  0.16525701  1
  Ca2+  Ca22  1  0.58214116  0.84042992  0.49461082  1
  Ca2+  Ca23  1  0.59084220  0.83569966  0.83515416  1
  Ca2+  Ca24  1  0.33018291  0.42239253  0.17341305  1
  Ca2+  Ca25  1  0.33940070  0.41881860  0.50053306  1
  Ca2+  Ca26  1  0.32924864  0.41498529  0.83656102  1
  Ca2+  Ca27  1  0.33720238  0.92480703  0.17143652  1
  Ca2+  Ca28  1  0.34036001  0.92738165  0.50316975  1
  Ca2+  Ca29  1  0.32976314  0.92748123  0.84013595  1
  Ca2+  Ca30  1  0.82826421  0.42484471  0.17336028  1
  Ca2+  Ca31  1  0.83655273  0.43046954  0.50376713  1
  Ca2+  Ca32  1  0.83578153  0.42514861  0.83544636  1
  Ca2+  Ca33  1  0.82199339  0.91106415  0.17094990  1
  Ca2+  Ca34  1  0.82504313  0.91074087  0.50778545  1
  Ca2+  Ca35  1  0.82778449  0.92337368  0.83581980  1
  Ca2+  Ca36  1  0.41588389  0.16559503  0.16303336  1
  Ca2+  Ca37  1  0.41483589  0.17092222  0.49624579  1
  Ca2+  Ca38  1  0.42316018  0.16192208  0.82652209  1
  Ca2+  Ca39  1  0.41758074  0.67268174  0.16307380  1
  Ca2+  Ca40  1  0.41779729  0.67535598  0.48880611  1
  Ca2+  Ca41  1  0.42522155  0.66788089  0.83130365  1
  Ca2+  Ca42  1  0.91342107  0.16848632  0.15931043  1
  Ca2+  Ca43  1  0.91487344  0.16324315  0.49892952  1
  Ca2+  Ca44  1  0.91198425  0.16253245  0.82847630  1
  Ca2+  Ca45  1  0.92195835  0.67082085  0.16594772  1
  Ca2+  Ca46  1  0.91960445  0.67212516  0.49515521  1
  Ca2+  Ca47  1  0.92658030  0.67460964  0.82339828  1
  Al0+  Al48  1  0.00091268  0.00216484  0.00602123  1
  Al0+  Al49  1  -0.00066948  0.00014853  0.32738499  1
  Al0+  Al50  1  -0.00067050  -0.00160578  0.66428324  1
  Al0+  Al51  1  0.00009793  0.50087718  0.00075283  1
  Al0+  Al52  1  -0.00083600  0.49750636  0.33445060  1
  Al0+  Al53  1  0.00193058  0.49927482  0.66695676  1
  Al0+  Al54  1  0.50122961  0.00098742  0.00325302  1
  Al0+  Al55  1  0.50103808  -0.00002654  0.33732697  1
  Al0+  Al56  1  0.50095324  -0.00063085  0.67199481  1
  Al0+  Al57  1  0.49998636  0.50079455  -0.00619239  1
  Al0+  Al58  1  0.49824138  0.49698340  0.33350458  1
  Al0+  Al59  1  0.49970544  0.49941139  0.66361820  1
  Al0+  Al60  1  0.24724141  0.25257670  0.00776136  1
  Al0+  Al61  1  0.25022409  0.24983350  0.33282522  1
  Al0+  Al62  1  0.24968961  0.25157024  0.66720652  1
  Al0+  Al63  1  0.25067581  0.74930100  -0.00391149  1
  Al0+  Al64  1  0.24951933  0.74947116  0.32917121  1
  Al0+  Al65  1  0.25247649  0.74812036  0.66433124  1
  Al0+  Al66  1  0.74812108  0.25261651  -0.00171605  1
  Al0+  Al67  1  0.74950441  0.24860241  0.33245641  1
  Al0+  Al68  1  0.74937605  0.25060534  0.66160115  1
  Al0+  Al69  1  0.75111474  0.75131138  -0.00068126  1
  Al0+  Al70  1  0.75092742  0.74974155  0.33869617  1
  Al0+  Al71  1  0.75156330  0.74894457  0.67374965  1
  Al0+  Al72  1  0.32074509  0.57189812  0.34596926  1
  Al0+  Al73  1  0.07296470  0.67695317  0.64982867  1
  Al0+  Al74  1  0.42976884  0.82242224  0.32081907  1
  Al0+  Al75  1  0.82286096  0.07298507  0.67984229  1
  Al0+  Al76  1  0.42695075  0.32054608  0.65066753  1
  Al0+  Al77  1  0.07087401  0.67924886  0.98488013  1
  Al0+  Al78  1  0.17844322  0.92554291  0.01440202  1
  Al0+  Al79  1  0.57224361  0.67893505  0.98693819  1
  Al0+  Al80  1  0.68109744  0.92821067  0.01834052  1
  Al0+  Al81  1  0.92593787  0.82152224  0.31597758  1
  Al0+  Al82  1  0.56965919  0.17982313  0.98613815  1
  Al0+  Al83  1  0.92873624  0.82122787  0.65202200  1
  Al0+  Al84  1  0.31919001  0.07202608  0.68055083  1
  Al0+  Al85  1  0.67856188  0.92841831  0.68445182  1
  Al0+  Al86  1  0.82073656  0.07489092  0.01568554  1
  Al0+  Al87  1  0.32156527  0.07083977  0.01617216  1
  Al0+  Al88  1  0.82229766  0.56931325  0.68284033  1
  Al0+  Al89  1  0.68122120  0.93067376  0.34822854  1
  Al0+  Al90  1  0.81973176  0.56870273  0.34669679  1
  Al0+  Al91  1  0.31911973  0.06961830  0.34879398  1
  Al0+  Al92  1  0.42848919  0.32070211  0.31673457  1
  Al0+  Al93  1  0.57135653  0.17584876  0.64954161  1
  Al0+  Al94  1  0.07019825  0.67791498  0.31636810  1
  Al0+  Al95  1  0.17843827  0.43196324  0.01395153  1
  Si0+  Si96  1  0.17573507  0.92676888  0.35001516  1
  Si0+  Si97  1  0.07174801  0.17946696  0.31749226  1
  Si0+  Si98  1  0.18006308  0.42973210  0.68120166  1
  Si0+  Si99  1  0.82021146  0.57010163  0.01488632  1
  Si0+  Si100  1  0.57184485  0.67791935  0.65198991  1
  Si0+  Si101  1  0.07114648  0.18005353  0.98598306  1
  Si0+  Si102  1  0.17828643  0.42804410  0.35189913  1
  Si0+  Si103  1  0.32315730  0.57244831  0.68167875  1
  Si0+  Si104  1  0.32495873  0.57155826  0.01466701  1
  Si0+  Si105  1  0.67780735  0.43010896  0.01280091  1
  Si0+  Si106  1  0.92863758  0.82398082  0.98292301  1
  Si0+  Si107  1  0.82419476  0.07421692  0.34949651  1
  Si0+  Si108  1  0.07113968  0.17887968  0.65368068  1
  Si0+  Si109  1  0.67674295  0.42908527  0.68288995  1
  Si0+  Si110  1  0.42874021  0.82263971  0.98265041  1
  Si0+  Si111  1  0.57167329  0.17801623  0.31533422  1
  Si0+  Si112  1  0.42516648  0.32214438  0.98323566  1
  Si0+  Si113  1  0.67632278  0.42454491  0.35006694  1
  Si0+  Si114  1  0.92883159  0.32145139  0.98500416  1
  Si0+  Si115  1  0.92896410  0.32190193  0.65193156  1
  Si0+  Si116  1  0.17895265  0.92681356  0.67979819  1
  Si0+  Si117  1  0.43023772  0.81970051  0.65319490  1
  Si0+  Si118  1  0.92840562  0.31985587  0.31842876  1
  Si0+  Si119  1  0.57166972  0.67750046  0.32095792  1
  O2-  O120  1  0.25246321  -0.00474376  0.06508466  1
  O2-  O121  1  0.24580328  -0.00658099  0.39595757  1
  O2-  O122  1  0.24443361  -0.00279204  0.72609539  1
  O2-  O123  1  0.25351088  0.50612959  0.05917909  1
  O2-  O124  1  0.24485761  0.49879672  0.39537230  1
  O2-  O125  1  0.25077520  0.50176948  0.72215171  1
  O2-  O126  1  0.75337089  0.00043290  0.06783226  1
  O2-  O127  1  0.75873365  0.00337446  0.39320112  1
  O2-  O128  1  0.74947983  0.00378497  0.73083589  1
  O2-  O129  1  0.74413935  0.50437529  0.05721893  1
  O2-  O130  1  0.74330780  0.49506305  0.39384446  1
  O2-  O131  1  0.74632343  0.49553793  0.72986409  1
  O2-  O132  1  -0.00360121  0.24676085  0.27576857  1
  O2-  O133  1  -0.00473081  0.24547495  0.61117908  1
  O2-  O134  1  -0.00345024  0.24729667  0.94261183  1
  O2-  O135  1  0.00076674  0.75217229  0.26607961  1
  O2-  O136  1  0.00075223  0.74900861  0.60189656  1
  O2-  O137  1  0.00133018  0.75879679  0.93905884  1
  O2-  O138  1  0.50419158  0.24765501  0.27030674  1
  O2-  O139  1  0.49713175  0.24679622  0.60076567  1
  O2-  O140  1  0.49071098  0.25088379  0.93962679  1
  O2-  O141  1  0.50118356  0.74342128  0.27573804  1
  O2-  O142  1  0.50292968  0.75051127  0.61027027  1
  O2-  O143  1  0.49816466  0.75371520  0.93895023  1
  O2-  O144  1  0.07174150  0.18444320  0.09106695  1
  O2-  O145  1  0.07211274  0.18189531  0.42312580  1
  O2-  O146  1  0.07365252  0.18261156  0.75868856  1
  O2-  O147  1  0.06613608  0.67470217  0.09740263  1
  O2-  O148  1  0.06775741  0.67790411  0.42976810  1
  O2-  O149  1  0.07222883  0.67695049  0.76371861  1
  O2-  O150  1  0.57073798  0.18442749  0.09932829  1
  O2-  O151  1  0.57250816  0.17993878  0.42066260  1
  O2-  O152  1  0.57005627  0.17776889  0.76331124  1
  O2-  O153  1  0.57017379  0.67571554  0.09989911  1
  O2-  O154  1  0.57124636  0.67851314  0.42683466  1
  O2-  O155  1  0.56865859  0.67548791  0.75720375  1
  O2-  O156  1  0.17762173  0.42761937  0.24629023  1
  O2-  O157  1  0.17829674  0.42680053  0.57647015  1
  O2-  O158  1  0.17783647  0.43129487  0.90048975  1
  O2-  O159  1  0.17632131  0.93033125  0.24461749  1
  O2-  O160  1  0.18139595  0.92874812  0.57426742  1
  O2-  O161  1  0.17945931  0.92901491  0.90007125  1
  O2-  O162  1  0.67949066  0.42341812  0.24395188  1
  O2-  O163  1  0.67794462  0.43263516  0.57724425  1
  O2-  O164  1  0.68183344  0.42982059  0.90793881  1
  O2-  O165  1  0.67952953  0.93125016  0.23552867  1
  O2-  O166  1  0.67811747  0.92745302  0.57077438  1
  O2-  O167  1  0.68325084  0.92776881  0.90532105  1
  O2-  O168  1  0.42810912  0.32494333  0.08878114  1
  O2-  O169  1  0.42866990  0.31909735  0.42956621  1
  O2-  O170  1  0.42672321  0.32125663  0.76443153  1
  O2-  O171  1  0.42826357  0.82095408  0.08828136  1
  O2-  O172  1  0.43250810  0.82262824  0.43446434  1
  O2-  O173  1  0.42679648  0.81602778  0.75815855  1
  O2-  O174  1  0.92977367  0.32321625  0.09033527  1
  O2-  O175  1  0.92987836  0.32049697  0.42365685  1
  O2-  O176  1  0.93204332  0.32580274  0.75707988  1
  O2-  O177  1  0.92609918  0.81876250  0.08831622  1
  O2-  O178  1  0.92547235  0.81971843  0.42935710  1
  O2-  O179  1  0.93197681  0.82123827  0.76583183  1
  O2-  O180  1  0.31752676  0.07025185  0.23612107  1
  O2-  O181  1  0.31691438  0.07216224  0.56728400  1
  O2-  O182  1  0.31896566  0.07159593  0.90229655  1
  O2-  O183  1  0.32210224  0.56893759  0.23295861  1
  O2-  O184  1  0.32443148  0.57386104  0.57686084  1
  O2-  O185  1  0.32694677  0.56838820  0.90868078  1
  O2-  O186  1  0.82139121  0.07981604  0.24441962  1
  O2-  O187  1  0.82285989  0.07201842  0.56621060  1
  O2-  O188  1  0.81887838  0.07661310  0.90249651  1
  O2-  O189  1  0.81813638  0.56606945  0.23302245  1
  O2-  O190  1  0.82193222  0.56703840  0.56975304  1
  O2-  O191  1  0.82145815  0.56627809  0.90984034  1
  O2-  O192  1  0.04903848  0.08736092  0.26906208  1
  O2-  O193  1  0.04900072  0.08669837  0.60479500  1
  O2-  O194  1  0.04930126  0.08679499  0.93916361  1
  O2-  O195  1  0.03976227  0.57770614  0.26675863  1
  O2-  O196  1  0.04551311  0.57741683  0.59893036  1
  O2-  O197  1  0.03491245  0.58321724  0.93126093  1
  O2-  O198  1  0.54310929  0.08527858  0.27087968  1
  O2-  O199  1  0.54289889  0.07640774  0.59953771  1
  O2-  O200  1  0.54250143  0.08168403  0.93403498  1
  O2-  O201  1  0.55093693  0.58207373  0.27641894  1
  O2-  O202  1  0.54337942  0.58733783  0.60303044  1
  O2-  O203  1  0.54214813  0.58325183  0.92851851  1
  O2-  O204  1  0.16044521  0.21318520  0.26860597  1
  O2-  O205  1  0.15928290  0.21393165  0.60333284  1
  O2-  O206  1  0.16116125  0.21413904  0.93809648  1
  O2-  O207  1  0.16968081  0.70192328  0.26385800  1
  O2-  O208  1  0.17307309  0.70338431  0.59923747  1
  O2-  O209  1  0.17033886  0.70141739  0.93153672  1
  O2-  O210  1  0.66606135  0.20309456  0.26949300  1
  O2-  O211  1  0.66884394  0.20699717  0.59506728  1
  O2-  O212  1  0.66408780  0.21721023  0.93127105  1
  O2-  O213  1  0.66434898  0.70519187  0.27502854  1
  O2-  O214  1  0.66552344  0.70306033  0.60840757  1
  O2-  O215  1  0.66939421  0.70818040  0.93237162  1
  O2-  O216  1  0.08181142  0.46187624  0.06932085  1
  O2-  O217  1  0.08323955  0.44888749  0.39735516  1
  O2-  O218  1  0.08880542  0.45601718  0.73072441  1
  O2-  O219  1  0.08195224  0.95590204  0.06933603  1
  O2-  O220  1  0.08211083  0.95629397  0.39475310  1
  O2-  O221  1  0.08459412  0.94971885  0.72442508  1
  O2-  O222  1  0.58393611  0.45391889  0.05794468  1
  O2-  O223  1  0.58203897  0.44643395  0.39489955  1
  O2-  O224  1  0.58343402  0.45564172  0.72919447  1
  O2-  O225  1  0.58197234  0.95592220  0.06917606  1
  O2-  O226  1  0.58614528  0.96359533  0.40370677  1
  O2-  O227  1  0.58017143  0.95402934  0.73883154  1
  O2-  O228  1  0.20570419  0.33666435  0.07175375  1
  O2-  O229  1  0.20632453  0.33524653  0.39827131  1
  O2-  O230  1  0.20808670  0.33916797  0.73145305  1
  O2-  O231  1  0.20378814  0.82524517  0.06473717  1
  O2-  O232  1  0.19802993  0.83188135  0.39311976  1
  O2-  O233  1  0.20797301  0.83379706  0.72584657  1
  O2-  O234  1  0.70950019  0.34152865  0.06349655  1
  O2-  O235  1  0.70529713  0.33202831  0.39675401  1
  O2-  O236  1  0.70192649  0.33442137  0.72609541  1
  O2-  O237  1  0.70930680  0.82863214  0.07052652  1
  O2-  O238  1  0.70838094  0.83341646  0.40265841  1
  O2-  O239  1  0.70700106  0.83038168  0.73800468  1
  O2-  O240  1  0.45799737  0.41775077  0.26214784  1
  O2-  O241  1  0.45698628  0.41926615  0.59762814  1
  O2-  O242  1  0.45213365  0.41465256  0.93531450  1
  O2-  O243  1  0.46441141  0.91756341  0.26660560  1
  O2-  O244  1  0.45686170  0.91222353  0.60762158  1
  O2-  O245  1  0.45490933  0.91625892  0.93768488  1
  O2-  O246  1  0.95826191  0.40972369  0.26862282  1
  O2-  O247  1  0.96470424  0.40981950  0.60178631  1
  O2-  O248  1  0.96173160  0.41119860  0.93617963  1
  O2-  O249  1  0.94825539  0.92223880  0.26461506  1
  O2-  O250  1  0.95507648  0.91956455  0.59669214  1
  O2-  O251  1  0.95055158  0.92042614  0.94155052  1
  O2-  O252  1  0.33111335  0.29018695  0.26417183  1
  O2-  O253  1  0.32740001  0.29500881  0.59802508  1
  O2-  O254  1  0.32893974  0.29982982  0.94130250  1
  O2-  O255  1  0.33312851  0.79504336  0.26606901  1
  O2-  O256  1  0.34020565  0.79059341  0.60306647  1
  O2-  O257  1  0.33626532  0.79675714  0.93402020  1
  O2-  O258  1  0.83548080  0.29562390  0.27045137  1
  O2-  O259  1  0.83658153  0.30217333  0.60244355  1
  O2-  O260  1  0.83646512  0.29875494  0.93665375  1
  O2-  O261  1  0.82878857  0.78638615  0.26417551  1
  O2-  O262  1  0.82981955  0.78888658  0.60247579  1
  O2-  O263  1  0.83707618  0.79371079  0.93577522  1
  O2-  O264  1  0.41987475  0.04498369  0.06928282  1
  O2-  O265  1  0.41574992  0.03983766  0.40239883  1
  O2-  O266  1  0.41446563  0.03966864  0.73430490  1
  O2-  O267  1  0.41763994  0.54355727  0.06156742  1
  O2-  O268  1  0.41714761  0.53988702  0.40104194  1
  O2-  O269  1  0.41451651  0.54295762  0.72967226  1
  O2-  O270  1  0.92200407  0.05557271  0.06612964  1
  O2-  O271  1  0.92072800  0.05405487  0.39184225  1
  O2-  O272  1  0.92260513  0.04592086  0.73247673  1
  O2-  O273  1  0.90873108  0.53500408  0.06326339  1
  O2-  O274  1  0.91427163  0.53211147  0.40120625  1
  O2-  O275  1  0.91817701  0.53398649  0.73599410  1
  O2-  O276  1  0.28924661  0.16818387  0.06894673  1
  O2-  O277  1  0.28405151  0.16587924  0.40155126  1
  O2-  O278  1  0.28651385  0.16815090  0.73416665  1
  O2-  O279  1  0.30344578  0.66691688  0.05708013  1
  O2-  O280  1  0.29236641  0.66943961  0.40015623  1
  O2-  O281  1  0.29687750  0.66372605  0.73117587  1
  O2-  O282  1  0.79098732  0.17441623  0.06758966  1
  O2-  O283  1  0.79825246  0.16807796  0.39651422  1
  O2-  O284  1  0.80153788  0.17578715  0.72777525  1
  O2-  O285  1  0.79617861  0.66291842  0.06043905  1
  O2-  O286  1  0.78903394  0.66333448  0.40327410  1
  O2-  O287  1  0.79167167  0.66382292  0.73934364  1
