# generated using pymatgen
data_Ca2Al2SiO7
_symmetry_space_group_name_H-M   'P 1'
_cell_length_a   15.46175324
_cell_length_b   15.46180295
_cell_length_c   15.28554910
_cell_angle_alpha   89.99992911
_cell_angle_beta   90.00792068
_cell_angle_gamma   89.98667114
_symmetry_Int_Tables_number   1
_chemical_formula_structural   Ca2Al2SiO7
_chemical_formula_sum   'Ca48 Al48 Si24 O168'
_cell_volume   3654.26384189
_cell_formula_units_Z   24
loop_
 _symmetry_equiv_pos_site_id
 _symmetry_equiv_pos_as_xyz
  1  'x, y, z'
loop_
 _atom_type_symbol
 _atom_type_oxidation_number
  Ca2+  2.0
  Al0+  0.0
  Si0+  0.0
  O2-  -2.0
loop_
 _atom_site_type_symbol
 _atom_site_label
 _atom_site_symmetry_multiplicity
 _atom_site_fract_x
 _atom_site_fract_y
 _atom_site_fract_z
 _atom_site_occupancy
  Ca2+  Ca0  1  0.16531817  0.08205037  0.17034301  1
  Ca2+  Ca1  1  0.16911560  0.08803026  0.50531268  1
  Ca2+  Ca2  1  0.15590510  0.07662408  0.83879747  1
  Ca2+  Ca3  1  0.16352188  0.57535808  0.16744926  1
  Ca2+  Ca4  1  0.16308980  0.57932171  0.51017023  1
  Ca2+  Ca5  1  0.15791330  0.57114564  0.83692628  1
  Ca2+  Ca6  1  0.67377135  0.08904615  0.17097996  1
  Ca2+  Ca7  1  0.67798529  0.08483732  0.51218196  1
  Ca2+  Ca8  1  0.66885518  0.08757132  0.83264666  1
  Ca2+  Ca9  1  0.67285623  0.59017284  0.16463347  1
  Ca2+  Ca10  1  0.67039326  0.57317821  0.50921699  1
  Ca2+  Ca11  1  0.67086613  0.57676765  0.84227772  1
  Ca2+  Ca12  1  0.08219186  0.31980758  0.15642911  1
  Ca2+  Ca13  1  0.08161366  0.32499865  0.50040101  1
  Ca2+  Ca14  1  0.07743606  0.33070201  0.82676357  1
  Ca2+  Ca15  1  0.07989229  0.82964664  0.15869525  1
  Ca2+  Ca16  1  0.09330064  0.82355419  0.49994829  1
  Ca2+  Ca17  1  0.08126792  0.83423447  0.82770233  1
  Ca2+  Ca18  1  0.56917168  0.32674935  0.15635564  1
  Ca2+  Ca19  1  0.58187862  0.32924544  0.49944593  1
  Ca2+  Ca20  1  0.58587191  0.32412226  0.82840829  1
  Ca2+  Ca21  1  0.57564959  0.83019512  0.15284245  1
  Ca2+  Ca22  1  0.58619296  0.83798812  0.50146318  1
  Ca2+  Ca23  1  0.58121823  0.83252931  0.83151772  1
  Ca2+  Ca24  1  0.32903605  0.40470419  0.16688115  1
  Ca2+  Ca25  1  0.32769695  0.41584814  0.50481568  1
  Ca2+  Ca26  1  0.32099137  0.41027534  0.83963113  1
  Ca2+  Ca27  1  0.33060091  0.92216589  0.16773025  1
  Ca2+  Ca28  1  0.32764463  0.92670117  0.50609549  1
  Ca2+  Ca29  1  0.32116553  0.91623781  0.84015513  1
  Ca2+  Ca30  1  0.83753004  0.41907403  0.16272270  1
  Ca2+  Ca31  1  0.82979367  0.41369879  0.51086726  1
  Ca2+  Ca32  1  0.83646089  0.41683373  0.83858907  1
  Ca2+  Ca33  1  0.83449229  0.92185017  0.16986173  1
  Ca2+  Ca34  1  0.83083612  0.93097868  0.50782455  1
  Ca2+  Ca35  1  0.83623801  0.92409106  0.83672137  1
  Ca2+  Ca36  1  0.41653005  0.17169362  0.16077412  1
  Ca2+  Ca37  1  0.41954159  0.17009029  0.49485904  1
  Ca2+  Ca38  1  0.42671075  0.16843702  0.83385028  1
  Ca2+  Ca39  1  0.42409596  0.67434992  0.15582548  1
  Ca2+  Ca40  1  0.41757662  0.66946819  0.49718668  1
  Ca2+  Ca41  1  0.41654452  0.67100788  0.83578951  1
  Ca2+  Ca42  1  0.92517439  0.16726163  0.15982903  1
  Ca2+  Ca43  1  0.92181358  0.16392654  0.50080443  1
  Ca2+  Ca44  1  0.92496563  0.17499375  0.82683380  1
  Ca2+  Ca45  1  0.91921205  0.67199101  0.15818285  1
  Ca2+  Ca46  1  0.93091776  0.66658451  0.49811963  1
  Ca2+  Ca47  1  0.91698152  0.67133263  0.83212174  1
  Al0+  Al48  1  -0.00113676  -0.00225223  -0.00007544  1
  Al0+  Al49  1  -0.00112941  -0.00285329  0.33581805  1
  Al0+  Al50  1  -0.00007987  0.00103026  0.66914846  1
  Al0+  Al51  1  -0.00059634  0.49965845  0.00906114  1
  Al0+  Al52  1  0.00004585  0.50011613  0.33023905  1
  Al0+  Al53  1  0.00037722  0.50128593  0.66244782  1
  Al0+  Al54  1  0.49843015  -0.00095276  -0.00685622  1
  Al0+  Al55  1  0.49856677  -0.00016793  0.33698515  1
  Al0+  Al56  1  0.50052920  0.00080425  0.66492161  1
  Al0+  Al57  1  0.49851040  0.49951161  -0.00594137  1
  Al0+  Al58  1  0.49867206  0.50026170  0.32979298  1
  Al0+  Al59  1  0.50092197  0.50207748  0.67057504  1
  Al0+  Al60  1  0.25098925  0.24641404  -0.00283998  1
  Al0+  Al61  1  0.24858827  0.24891046  0.33166650  1
  Al0+  Al62  1  0.25117717  0.25203515  0.66834846  1
  Al0+  Al63  1  0.24970005  0.74813988  0.00240634  1
  Al0+  Al64  1  0.25168778  0.74731667  0.32767978  1
  Al0+  Al65  1  0.25198449  0.75242591  0.66569316  1
  Al0+  Al66  1  0.75087396  0.25101147  -0.00252159  1
  Al0+  Al67  1  0.74986007  0.25104962  0.33780671  1
  Al0+  Al68  1  0.74932610  0.25091796  0.66713457  1
  Al0+  Al69  1  0.75108168  0.74971699  -0.00274711  1
  Al0+  Al70  1  0.75103100  0.74804089  0.33694212  1
  Al0+  Al71  1  0.74922927  0.75086702  0.66585480  1
  Al0+  Al72  1  0.42938765  0.32046485  0.32079844  1
  Al0+  Al73  1  0.92919010  0.32171415  0.65123176  1
  Al0+  Al74  1  0.92942820  0.82062633  0.98699388  1
  Al0+  Al75  1  0.82147675  0.07144946  0.34686922  1
  Al0+  Al76  1  0.07266217  0.67770723  0.31723816  1
  Al0+  Al77  1  0.57247500  0.67917828  0.98408900  1
  Al0+  Al78  1  0.57275760  0.17861678  0.98587280  1
  Al0+  Al79  1  0.07087776  0.17681075  0.98558500  1
  Al0+  Al80  1  0.42672718  0.32101271  0.98311448  1
  Al0+  Al81  1  0.93088491  0.32315511  0.98647876  1
  Al0+  Al82  1  0.17947375  0.43046852  0.67914093  1
  Al0+  Al83  1  0.17681964  0.92763757  0.01514603  1
  Al0+  Al84  1  0.06891827  0.17804724  0.32008988  1
  Al0+  Al85  1  0.17997220  0.42722064  0.01517221  1
  Al0+  Al86  1  0.42640634  0.82111840  0.98370451  1
  Al0+  Al87  1  0.31961477  0.07173030  0.34702375  1
  Al0+  Al88  1  0.18071627  0.92995260  0.67918009  1
  Al0+  Al89  1  0.56973011  0.17951815  0.65088512  1
  Al0+  Al90  1  0.81945149  0.57148456  0.01443534  1
  Al0+  Al91  1  0.07271366  0.17772203  0.65097896  1
  Al0+  Al92  1  0.82150932  0.07186895  0.68509138  1
  Al0+  Al93  1  0.67778511  0.92854119  0.68338427  1
  Al0+  Al94  1  0.67877158  0.42972485  0.68100237  1
  Al0+  Al95  1  0.07097543  0.68164266  0.65544367  1
  Si0+  Si96  1  0.17909672  0.42949557  0.34834785  1
  Si0+  Si97  1  0.82202750  0.57147500  0.35041588  1
  Si0+  Si98  1  0.42961933  0.82074641  0.64909228  1
  Si0+  Si99  1  0.67732368  0.92663276  0.34813726  1
  Si0+  Si100  1  0.92626302  0.82319737  0.64857358  1
  Si0+  Si101  1  0.32204529  0.57129595  0.34768933  1
  Si0+  Si102  1  0.81991065  0.07165022  0.01570605  1
  Si0+  Si103  1  0.57116128  0.67904484  0.32016403  1
  Si0+  Si104  1  0.32322730  0.57112137  0.01826696  1
  Si0+  Si105  1  0.82285188  0.57205611  0.68200621  1
  Si0+  Si106  1  0.32279819  0.57423683  0.68342610  1
  Si0+  Si107  1  0.67629915  0.42690670  0.01810099  1
  Si0+  Si108  1  0.32262992  0.07386407  0.68394809  1
  Si0+  Si109  1  0.92721128  0.81908060  0.31765475  1
  Si0+  Si110  1  0.67742537  0.43199552  0.34681078  1
  Si0+  Si111  1  0.42871799  0.32471353  0.64974976  1
  Si0+  Si112  1  0.92509852  0.32244769  0.31623330  1
  Si0+  Si113  1  0.32283223  0.06911348  0.01630933  1
  Si0+  Si114  1  0.67837272  0.92941810  0.01361067  1
  Si0+  Si115  1  0.07148641  0.67729507  0.98493062  1
  Si0+  Si116  1  0.43031641  0.82205070  0.31874886  1
  Si0+  Si117  1  0.17912518  0.92522636  0.34925068  1
  Si0+  Si118  1  0.57171780  0.67843361  0.64979102  1
  Si0+  Si119  1  0.57265911  0.17750868  0.31882923  1
  O2-  O120  1  0.25207467  0.00225446  0.06099554  1
  O2-  O121  1  0.24404793  -0.00258905  0.39359994  1
  O2-  O122  1  0.24940620  0.00950135  0.72696089  1
  O2-  O123  1  0.25757342  0.49967967  0.06323366  1
  O2-  O124  1  0.24890815  0.50283030  0.39034045  1
  O2-  O125  1  0.25432964  0.50533190  0.72601430  1
  O2-  O126  1  0.74556537  0.00294410  0.05798741  1
  O2-  O127  1  0.74351214  -0.00205610  0.39090879  1
  O2-  O128  1  0.75036709  -0.00181692  0.73488108  1
  O2-  O129  1  0.74330976  0.49767162  0.06278789  1
  O2-  O130  1  0.75269190  0.49828839  0.39091570  1
  O2-  O131  1  0.75455128  0.50357465  0.72614334  1
  O2-  O132  1  -0.00790343  0.25134108  0.27418156  1
  O2-  O133  1  0.00008703  0.24908992  0.60037841  1
  O2-  O134  1  0.00380110  0.25322592  0.93648024  1
  O2-  O135  1  -0.00234611  0.75264417  0.27268038  1
  O2-  O136  1  -0.00202415  0.75671150  0.60516053  1
  O2-  O137  1  0.00627906  0.74843738  0.94057745  1
  O2-  O138  1  0.50270935  0.24419535  0.27444332  1
  O2-  O139  1  0.49547757  0.25495642  0.60411132  1
  O2-  O140  1  0.50382655  0.25361733  0.93568228  1
  O2-  O141  1  0.50573058  0.75488115  0.27826293  1
  O2-  O142  1  0.50250471  0.75090471  0.60631886  1
  O2-  O143  1  0.49912825  0.74958172  0.93391534  1
  O2-  O144  1  0.06781876  0.17622408  0.10004184  1
  O2-  O145  1  0.07092185  0.18156734  0.43269659  1
  O2-  O146  1  0.07203161  0.17904277  0.76381288  1
  O2-  O147  1  0.06905851  0.67862327  0.09106200  1
  O2-  O148  1  0.07283302  0.67797971  0.43062432  1
  O2-  O149  1  0.06928060  0.68132998  0.76799449  1
  O2-  O150  1  0.57261971  0.17877902  0.10046874  1
  O2-  O151  1  0.57239228  0.17952840  0.42418212  1
  O2-  O152  1  0.56739264  0.17988113  0.76335588  1
  O2-  O153  1  0.57211559  0.68372053  0.09906469  1
  O2-  O154  1  0.56911616  0.67737493  0.42539639  1
  O2-  O155  1  0.57067081  0.67703238  0.75404061  1
  O2-  O156  1  0.18076221  0.42986121  0.24348008  1
  O2-  O157  1  0.18180013  0.43254086  0.56516886  1
  O2-  O158  1  0.17855989  0.43154282  0.90230091  1
  O2-  O159  1  0.18129499  0.92396796  0.24382329  1
  O2-  O160  1  0.18698285  0.92473542  0.56582091  1
  O2-  O161  1  0.17790036  0.92798466  0.90217525  1
  O2-  O162  1  0.67597976  0.43496778  0.24220127  1
  O2-  O163  1  0.67659595  0.43408260  0.56668123  1
  O2-  O164  1  0.67832442  0.42757397  0.91277879  1
  O2-  O165  1  0.67701406  0.92353987  0.24251196  1
  O2-  O166  1  0.67992778  0.92923049  0.56875907  1
  O2-  O167  1  0.68044218  0.92854663  0.90928120  1
  O2-  O168  1  0.42780962  0.31712328  0.09752387  1
  O2-  O169  1  0.43230088  0.32340666  0.43379559  1
  O2-  O170  1  0.42966696  0.32518310  0.75463615  1
  O2-  O171  1  0.42993440  0.82109339  0.09835894  1
  O2-  O172  1  0.42895560  0.82005738  0.42400477  1
  O2-  O173  1  0.42752224  0.81813156  0.75347068  1
  O2-  O174  1  0.93037466  0.31935902  0.10084366  1
  O2-  O175  1  0.92471758  0.32571960  0.42148983  1
  O2-  O176  1  0.93222029  0.32489274  0.76421564  1
  O2-  O177  1  0.92898045  0.81995446  0.10077889  1
  O2-  O178  1  0.92422625  0.81602961  0.42295381  1
  O2-  O179  1  0.92477740  0.82028017  0.75396704  1
  O2-  O180  1  0.32231017  0.06841176  0.23432777  1
  O2-  O181  1  0.32335444  0.07117076  0.57762794  1
  O2-  O182  1  0.32554689  0.06696406  0.91105613  1
  O2-  O183  1  0.32447092  0.57249971  0.24337453  1
  O2-  O184  1  0.32387027  0.57451184  0.57690343  1
  O2-  O185  1  0.32070185  0.57431780  0.91289785  1
  O2-  O186  1  0.81961964  0.07008289  0.23323681  1
  O2-  O187  1  0.81993420  0.06972806  0.57072831  1
  O2-  O188  1  0.82073449  0.07051893  0.91135197  1
  O2-  O189  1  0.81961144  0.57565840  0.24574556  1
  O2-  O190  1  0.82028144  0.57186601  0.57552408  1
  O2-  O191  1  0.81923985  0.57184581  0.90162467  1
  O2-  O192  1  0.04164473  0.07857740  0.26949619  1
  O2-  O193  1  0.04592873  0.07804074  0.59879126  1
  O2-  O194  1  0.03740083  0.08031860  0.93412283  1
  O2-  O195  1  0.04067442  0.58151240  0.26341063  1
  O2-  O196  1  0.03886699  0.58745105  0.59701165  1
  O2-  O197  1  0.04090893  0.58462229  0.94181552  1
  O2-  O198  1  0.54997535  0.08197934  0.27534081  1
  O2-  O199  1  0.53962925  0.08271590  0.59579446  1
  O2-  O200  1  0.54313378  0.08181060  0.93177770  1
  O2-  O201  1  0.53890870  0.59057850  0.27010308  1
  O2-  O202  1  0.54068986  0.58772484  0.60067036  1
  O2-  O203  1  0.54701698  0.58040293  0.93218781  1
  O2-  O204  1  0.16453876  0.21041482  0.26535862  1
  O2-  O205  1  0.17231317  0.20825098  0.59972627  1
  O2-  O206  1  0.17141349  0.19581083  0.93607798  1
  O2-  O207  1  0.16977918  0.70527376  0.26270887  1
  O2-  O208  1  0.16845907  0.71134936  0.59998452  1
  O2-  O209  1  0.16665475  0.69685900  0.94172475  1
  O2-  O210  1  0.66606124  0.20528692  0.27343691  1
  O2-  O211  1  0.66564205  0.21202743  0.59712348  1
  O2-  O212  1  0.67086135  0.20544807  0.93293054  1
  O2-  O213  1  0.66550357  0.70208994  0.27538999  1
  O2-  O214  1  0.66378477  0.70409589  0.60056921  1
  O2-  O215  1  0.66914336  0.70870704  0.93077899  1
  O2-  O216  1  0.08598288  0.46044174  0.07341382  1
  O2-  O217  1  0.08619623  0.45698138  0.39391863  1
  O2-  O218  1  0.08332808  0.46456355  0.73137441  1
  O2-  O219  1  0.08026249  0.95784466  0.07055575  1
  O2-  O220  1  0.08357881  0.94345073  0.39345445  1
  O2-  O221  1  0.08191936  0.95221402  0.73109626  1
  O2-  O222  1  0.58077047  0.45107941  0.06137436  1
  O2-  O223  1  0.58754350  0.46536434  0.39542353  1
  O2-  O224  1  0.58360921  0.46300460  0.73589511  1
  O2-  O225  1  0.58429697  0.95332357  0.05929407  1
  O2-  O226  1  0.58285498  0.94787821  0.39458613  1
  O2-  O227  1  0.57813193  0.95576863  0.73338267  1
  O2-  O228  1  0.21107211  0.32907662  0.06743948  1
  O2-  O229  1  0.20939217  0.33895372  0.39581565  1
  O2-  O230  1  0.21012793  0.33475733  0.73416205  1
  O2-  O231  1  0.20728201  0.83027438  0.06907692  1
  O2-  O232  1  0.21136007  0.83215582  0.39402405  1
  O2-  O233  1  0.21657676  0.83516201  0.73403907  1
  O2-  O234  1  0.70436715  0.33425462  0.06563892  1
  O2-  O235  1  0.70055908  0.33906651  0.39444935  1
  O2-  O236  1  0.70633031  0.33338149  0.73395920  1
  O2-  O237  1  0.70902203  0.83885887  0.06232496  1
  O2-  O238  1  0.70405716  0.83337404  0.39610632  1
  O2-  O239  1  0.70122240  0.82714257  0.73231214  1
  O2-  O240  1  0.46045040  0.41655588  0.26510612  1
  O2-  O241  1  0.45543149  0.41917800  0.60444896  1
  O2-  O242  1  0.44556911  0.42184021  0.93289799  1
  O2-  O243  1  0.45493224  0.91470720  0.27155266  1
  O2-  O244  1  0.45710642  0.91219598  0.60067339  1
  O2-  O245  1  0.45363215  0.91763517  0.92890203  1
  O2-  O246  1  0.95187023  0.41586833  0.27028248  1
  O2-  O247  1  0.95711166  0.41999796  0.59608585  1
  O2-  O248  1  0.95708602  0.42331711  0.93742489  1
  O2-  O249  1  0.95041418  0.91324398  0.27247770  1
  O2-  O250  1  0.95059235  0.91726624  0.60436502  1
  O2-  O251  1  0.95842781  0.91598233  0.93191986  1
  O2-  O252  1  0.33309650  0.28982936  0.26731957  1
  O2-  O253  1  0.33506421  0.29981437  0.60352280  1
  O2-  O254  1  0.33129408  0.28805148  0.92878488  1
  O2-  O255  1  0.34128549  0.79002473  0.26926938  1
  O2-  O256  1  0.34036932  0.78983079  0.59807635  1
  O2-  O257  1  0.32856018  0.78919170  0.93201433  1
  O2-  O258  1  0.82987178  0.29994488  0.27162354  1
  O2-  O259  1  0.82992442  0.29503310  0.59907734  1
  O2-  O260  1  0.83198502  0.29716586  0.93538101  1
  O2-  O261  1  0.83374276  0.79083797  0.27107179  1
  O2-  O262  1  0.83368882  0.79502877  0.60058916  1
  O2-  O263  1  0.83509849  0.78846566  0.93139457  1
  O2-  O264  1  0.41585534  0.04032376  0.06384713  1
  O2-  O265  1  0.41611598  0.04039692  0.40306966  1
  O2-  O266  1  0.41418228  0.04180065  0.72891518  1
  O2-  O267  1  0.41909692  0.55007507  0.06267868  1
  O2-  O268  1  0.41328132  0.54220587  0.39706273  1
  O2-  O269  1  0.41629378  0.55084264  0.72975912  1
  O2-  O270  1  0.90932066  0.03820423  0.06449432  1
  O2-  O271  1  0.91612231  0.03698191  0.40282591  1
  O2-  O272  1  0.91981084  0.04377227  0.73726674  1
  O2-  O273  1  0.91383344  0.54101929  0.07391644  1
  O2-  O274  1  0.91527378  0.54519504  0.39574821  1
  O2-  O275  1  0.91628734  0.54785259  0.72708425  1
  O2-  O276  1  0.29912918  0.16295388  0.06240542  1
  O2-  O277  1  0.28940796  0.16815080  0.40194747  1
  O2-  O278  1  0.30478485  0.16935927  0.72763888  1
  O2-  O279  1  0.29545899  0.66334205  0.06731697  1
  O2-  O280  1  0.29679485  0.66420460  0.39543610  1
  O2-  O281  1  0.29761324  0.66776667  0.72838933  1
  O2-  O282  1  0.79360022  0.16390252  0.06375102  1
  O2-  O283  1  0.79301986  0.16858765  0.40159792  1
  O2-  O284  1  0.79103207  0.16983427  0.73539631  1
  O2-  O285  1  0.78694343  0.66798505  0.07049466  1
  O2-  O286  1  0.79255998  0.66156097  0.40099759  1
  O2-  O287  1  0.79678257  0.66602945  0.72586147  1
