# generated using pymatgen
data_Ca2Al2SiO7
_symmetry_space_group_name_H-M   'P 1'
_cell_length_a   15.45505673
_cell_length_b   15.45661769
_cell_length_c   15.28206900
_cell_angle_alpha   89.98674423
_cell_angle_beta   89.99519237
_cell_angle_gamma   89.99886021
_symmetry_Int_Tables_number   1
_chemical_formula_structural   Ca2Al2SiO7
_chemical_formula_sum   'Ca48 Al48 Si24 O168'
_cell_volume   3650.62489856
_cell_formula_units_Z   24
loop_
 _symmetry_equiv_pos_site_id
 _symmetry_equiv_pos_as_xyz
  1  'x, y, z'
loop_
 _atom_type_symbol
 _atom_type_oxidation_number
  Ca2+  2.0
  Al0+  0.0
  Si0+  0.0
  O2-  -2.0
loop_
 _atom_site_type_symbol
 _atom_site_label
 _atom_site_symmetry_multiplicity
 _atom_site_fract_x
 _atom_site_fract_y
 _atom_site_fract_z
 _atom_site_occupancy
  Ca2+  Ca0  1  0.16944805  0.08640175  0.17300307  1
  Ca2+  Ca1  1  0.17943135  0.08074564  0.50580520  1
  Ca2+  Ca2  1  0.16753542  0.08339712  0.83556294  1
  Ca2+  Ca3  1  0.16258137  0.57591073  0.17115594  1
  Ca2+  Ca4  1  0.17005677  0.57882530  0.50217521  1
  Ca2+  Ca5  1  0.17738701  0.57720776  0.84385366  1
  Ca2+  Ca6  1  0.67351634  0.09005129  0.17343013  1
  Ca2+  Ca7  1  0.66951794  0.09151172  0.49597365  1
  Ca2+  Ca8  1  0.67276309  0.08616617  0.84273727  1
  Ca2+  Ca9  1  0.67358988  0.57650720  0.17900203  1
  Ca2+  Ca10  1  0.67299842  0.58429274  0.50385263  1
  Ca2+  Ca11  1  0.67075086  0.58503690  0.83317208  1
  Ca2+  Ca12  1  0.08157940  0.33376011  0.16463800  1
  Ca2+  Ca13  1  0.07253098  0.34224030  0.49367723  1
  Ca2+  Ca14  1  0.08367008  0.33152773  0.83310020  1
  Ca2+  Ca15  1  0.07942232  0.81939916  0.15934136  1
  Ca2+  Ca16  1  0.08809616  0.82689833  0.49600709  1
  Ca2+  Ca17  1  0.08126812  0.83229600  0.83277364  1
  Ca2+  Ca18  1  0.58388400  0.32619320  0.16895449  1
  Ca2+  Ca19  1  0.56895555  0.33377429  0.48926676  1
  Ca2+  Ca20  1  0.57808289  0.32791281  0.82825196  1
  Ca2+  Ca21  1  0.58411125  0.82772221  0.16743323  1
  Ca2+  Ca22  1  0.58537361  0.82037992  0.49569616  1
  Ca2+  Ca23  1  0.57971668  0.82603322  0.82701670  1
  Ca2+  Ca24  1  0.32059023  0.41410677  0.17063825  1
  Ca2+  Ca25  1  0.32969979  0.41247672  0.50407071  1
  Ca2+  Ca26  1  0.33526587  0.42455528  0.83837106  1
  Ca2+  Ca27  1  0.33214451  0.92460742  0.17419388  1
  Ca2+  Ca28  1  0.33121676  0.92827533  0.50638249  1
  Ca2+  Ca29  1  0.32710388  0.91985500  0.83254562  1
  Ca2+  Ca30  1  0.82777241  0.41809669  0.18065901  1
  Ca2+  Ca31  1  0.83221575  0.42283458  0.50001067  1
  Ca2+  Ca32  1  0.83783023  0.41944667  0.83144860  1
  Ca2+  Ca33  1  0.84261286  0.92837634  0.16763066  1
  Ca2+  Ca34  1  0.83410114  0.92459361  0.50048699  1
  Ca2+  Ca35  1  0.83369594  0.92088811  0.84280930  1
  Ca2+  Ca36  1  0.42366480  0.16939203  0.16575083  1
  Ca2+  Ca37  1  0.41499445  0.17288534  0.49074169  1
  Ca2+  Ca38  1  0.41966421  0.17164591  0.82580424  1
  Ca2+  Ca39  1  0.42206825  0.65879942  0.16515324  1
  Ca2+  Ca40  1  0.42752601  0.65816539  0.49715359  1
  Ca2+  Ca41  1  0.41910542  0.65876404  0.82473760  1
  Ca2+  Ca42  1  0.91523795  0.17100353  0.16052985  1
  Ca2+  Ca43  1  0.91467067  0.17943678  0.49253892  1
  Ca2+  Ca44  1  0.92259012  0.16977061  0.83076987  1
  Ca2+  Ca45  1  0.92744082  0.66351481  0.16361326  1
  Ca2+  Ca46  1  0.91986925  0.66223742  0.49060835  1
  Ca2+  Ca47  1  0.92199127  0.66741008  0.83028508  1
  Al0+  Al48  1  -0.00013828  0.00136048  -0.00299619  1
  Al0+  Al49  1  -0.00009133  -0.00058067  0.34056629  1
  Al0+  Al50  1  -0.00021161  -0.00091024  0.66839259  1
  Al0+  Al51  1  0.00079768  0.50064760  -0.00213982  1
  Al0+  Al52  1  0.00021717  0.49982256  0.33201231  1
  Al0+  Al53  1  -0.00079755  0.50098329  0.66835488  1
  Al0+  Al54  1  0.50158102  -0.00162229  -0.00445743  1
  Al0+  Al55  1  0.50056069  -0.00033176  0.33515249  1
  Al0+  Al56  1  0.50103271  -0.00138508  0.67025458  1
  Al0+  Al57  1  0.50075308  0.49963749  0.00366875  1
  Al0+  Al58  1  0.49859747  0.49933231  0.32503189  1
  Al0+  Al59  1  0.50148165  0.49687396  0.66242104  1
  Al0+  Al60  1  0.24952691  0.25155013  -0.00137955  1
  Al0+  Al61  1  0.24810879  0.25093030  0.33912977  1
  Al0+  Al62  1  0.24961191  0.24829558  0.66796624  1
  Al0+  Al63  1  0.25224376  0.75096409  0.00090932  1
  Al0+  Al64  1  0.24956431  0.74910496  0.32854400  1
  Al0+  Al65  1  0.25006274  0.75072155  0.67355409  1
  Al0+  Al66  1  0.74917624  0.24998938  -0.00196795  1
  Al0+  Al67  1  0.74858744  0.25153162  0.33593812  1
  Al0+  Al68  1  0.75093458  0.25102587  0.66398279  1
  Al0+  Al69  1  0.74837196  0.75093678  -0.00249655  1
  Al0+  Al70  1  0.75041378  0.75279518  0.33054187  1
  Al0+  Al71  1  0.75166967  0.75023295  0.66733351  1
  Al0+  Al72  1  0.82043475  0.07043648  0.01276398  1
  Al0+  Al73  1  0.32245380  0.56779096  0.67742083  1
  Al0+  Al74  1  0.92924758  0.32003749  0.31985919  1
  Al0+  Al75  1  0.67613282  0.42888681  0.34920313  1
  Al0+  Al76  1  0.17910293  0.43002787  0.34854016  1
  Al0+  Al77  1  0.57131757  0.17882579  0.98555945  1
  Al0+  Al78  1  0.82071331  0.57203379  0.34635946  1
  Al0+  Al79  1  0.82151621  0.07205182  0.34782840  1
  Al0+  Al80  1  0.93070515  0.32162402  0.65185916  1
  Al0+  Al81  1  0.82123787  0.57184415  0.68196895  1
  Al0+  Al82  1  0.32096279  0.07066946  0.34514602  1
  Al0+  Al83  1  0.07278356  0.67724296  0.98192661  1
  Al0+  Al84  1  0.42877464  0.31894180  0.65368645  1
  Al0+  Al85  1  0.17827604  0.42874204  0.01562982  1
  Al0+  Al86  1  0.42391796  0.32188173  0.31566419  1
  Al0+  Al87  1  0.56977716  0.17837964  0.31890152  1
  Al0+  Al88  1  0.17798614  0.92889002  0.68357039  1
  Al0+  Al89  1  0.57107073  0.67945436  0.65341944  1
  Al0+  Al90  1  0.57214262  0.67872725  0.31843285  1
  Al0+  Al91  1  0.07190488  0.17991359  0.98748077  1
  Al0+  Al92  1  0.32236970  0.07269005  0.68441220  1
  Al0+  Al93  1  0.92942574  0.82030260  0.98476281  1
  Al0+  Al94  1  0.32308977  0.57283799  0.01714691  1
  Al0+  Al95  1  0.07064773  0.67919679  0.32087177  1
  Si0+  Si96  1  0.17599490  0.42839108  0.68350019  1
  Si0+  Si97  1  0.92869673  0.82205754  0.65004996  1
  Si0+  Si98  1  0.81916947  0.07236446  0.68227144  1
  Si0+  Si99  1  0.67992331  0.42897426  0.01421983  1
  Si0+  Si100  1  0.42847968  0.82157392  0.31741495  1
  Si0+  Si101  1  0.07153750  0.68062028  0.65238248  1
  Si0+  Si102  1  0.42681704  0.82214581  0.65026814  1
  Si0+  Si103  1  0.32260553  0.07051449  0.01426590  1
  Si0+  Si104  1  0.07097866  0.17592889  0.64855787  1
  Si0+  Si105  1  0.57267733  0.17553641  0.65021333  1
  Si0+  Si106  1  0.32153778  0.57366153  0.34917023  1
  Si0+  Si107  1  0.92789891  0.82518232  0.31746871  1
  Si0+  Si108  1  0.67880113  0.42785409  0.68390949  1
  Si0+  Si109  1  0.56947738  0.67790741  0.98431615  1
  Si0+  Si110  1  0.07040178  0.17658153  0.32025693  1
  Si0+  Si111  1  0.92609105  0.32260425  0.98348195  1
  Si0+  Si112  1  0.42892563  0.32108647  0.98301973  1
  Si0+  Si113  1  0.17871255  0.93040361  0.01642877  1
  Si0+  Si114  1  0.17861178  0.92553273  0.34835939  1
  Si0+  Si115  1  0.68087826  0.92735296  0.68222542  1
  Si0+  Si116  1  0.81997485  0.57261335  0.01369637  1
  Si0+  Si117  1  0.67729775  0.92817728  0.35112444  1
  Si0+  Si118  1  0.42920883  0.82270319  0.98372608  1
  Si0+  Si119  1  0.67665872  0.92689590  0.01737514  1
  O2-  O120  1  0.25005418  0.00163631  0.05811033  1
  O2-  O121  1  0.24652960  -0.00493208  0.39139148  1
  O2-  O122  1  0.24848093  0.00228790  0.73448856  1
  O2-  O123  1  0.24732866  0.50408236  0.06545618  1
  O2-  O124  1  0.25616919  0.50289890  0.39458439  1
  O2-  O125  1  0.24900855  0.49314706  0.72633149  1
  O2-  O126  1  0.74561731  -0.00435316  0.06006563  1
  O2-  O127  1  0.74583734  -0.00231443  0.39470106  1
  O2-  O128  1  0.74697433  0.00272761  0.72474669  1
  O2-  O129  1  0.75227359  0.49895862  0.05555958  1
  O2-  O130  1  0.74567679  0.50420425  0.39824651  1
  O2-  O131  1  0.74727853  0.49654337  0.72962077  1
  O2-  O132  1  -0.00013924  0.24146631  0.27364181  1
  O2-  O133  1  0.00577431  0.24749474  0.60449380  1
  O2-  O134  1  -0.00260513  0.25533450  0.94100326  1
  O2-  O135  1  -0.00512039  0.75414205  0.27554381  1
  O2-  O136  1  0.00033666  0.75143328  0.60900353  1
  O2-  O137  1  -0.00039943  0.74839052  0.93144664  1
  O2-  O138  1  0.49782957  0.24993326  0.26790521  1
  O2-  O139  1  0.49970840  0.23979842  0.60809963  1
  O2-  O140  1  0.49572700  0.25105801  0.93757915  1
  O2-  O141  1  0.49524460  0.75170852  0.27162883  1
  O2-  O142  1  0.49394545  0.75198573  0.60627784  1
  O2-  O143  1  0.49571635  0.74639523  0.94251318  1
  O2-  O144  1  0.07135373  0.17832434  0.10051100  1
  O2-  O145  1  0.06859227  0.17653049  0.42580235  1
  O2-  O146  1  0.06805802  0.17487384  0.75447996  1
  O2-  O147  1  0.06988255  0.67802020  0.09555171  1
  O2-  O148  1  0.07248822  0.68217110  0.43460690  1
  O2-  O149  1  0.06978026  0.68149886  0.75711072  1
  O2-  O150  1  0.57141851  0.17931687  0.09792678  1
  O2-  O151  1  0.56698872  0.17771602  0.43273130  1
  O2-  O152  1  0.57503569  0.17754755  0.75622254  1
  O2-  O153  1  0.57139697  0.67972211  0.08913046  1
  O2-  O154  1  0.57245919  0.68128490  0.43167738  1
  O2-  O155  1  0.57076370  0.68208181  0.76709707  1
  O2-  O156  1  0.17757722  0.42994323  0.23578370  1
  O2-  O157  1  0.17348889  0.43224370  0.57797798  1
  O2-  O158  1  0.18144045  0.42757858  0.90159694  1
  O2-  O159  1  0.17892141  0.92582674  0.24255289  1
  O2-  O160  1  0.17980375  0.92881523  0.56972748  1
  O2-  O161  1  0.18008847  0.93079374  0.91149413  1
  O2-  O162  1  0.68033336  0.42942923  0.23465026  1
  O2-  O163  1  0.67875593  0.42851136  0.57911256  1
  O2-  O164  1  0.67827896  0.43056519  0.90879611  1
  O2-  O165  1  0.67620903  0.92686507  0.24568280  1
  O2-  O166  1  0.68336747  0.92482548  0.57741616  1
  O2-  O167  1  0.67622599  0.92611972  0.91133507  1
  O2-  O168  1  0.42901388  0.31923191  0.08805585  1
  O2-  O169  1  0.42362947  0.31924246  0.42959818  1
  O2-  O170  1  0.43344872  0.32026880  0.76726035  1
  O2-  O171  1  0.43241050  0.82819495  0.08858203  1
  O2-  O172  1  0.42903779  0.82139595  0.42288346  1
  O2-  O173  1  0.42971487  0.82255625  0.75622042  1
  O2-  O174  1  0.92244676  0.32116839  0.08876232  1
  O2-  O175  1  0.93126573  0.32086244  0.43310036  1
  O2-  O176  1  0.93063505  0.31854978  0.76540011  1
  O2-  O177  1  0.93178074  0.81999299  0.09826597  1
  O2-  O178  1  0.92896485  0.82709332  0.42343965  1
  O2-  O179  1  0.92710095  0.82284032  0.75490724  1
  O2-  O180  1  0.31959745  0.06808311  0.23127781  1
  O2-  O181  1  0.32255111  0.07007708  0.57085676  1
  O2-  O182  1  0.32283122  0.06759145  0.90941950  1
  O2-  O183  1  0.31744783  0.57615425  0.24386518  1
  O2-  O184  1  0.32074291  0.56836558  0.56453474  1
  O2-  O185  1  0.32667569  0.56852770  0.90303905  1
  O2-  O186  1  0.82362240  0.06963182  0.23477713  1
  O2-  O187  1  0.81859601  0.07139053  0.57724741  1
  O2-  O188  1  0.81804966  0.06975132  0.89905881  1
  O2-  O189  1  0.82053215  0.56997911  0.23214067  1
  O2-  O190  1  0.82130036  0.57412396  0.56960057  1
  O2-  O191  1  0.81710103  0.57310001  0.90826988  1
  O2-  O192  1  0.04921975  0.08057085  0.27637851  1
  O2-  O193  1  0.04257714  0.08286191  0.60277923  1
  O2-  O194  1  0.03990161  0.08519453  0.93055827  1
  O2-  O195  1  0.03772191  0.58484327  0.26501261  1
  O2-  O196  1  0.04328883  0.58873263  0.60618315  1
  O2-  O197  1  0.04457695  0.57892470  0.92838135  1
  O2-  O198  1  0.54425959  0.07840709  0.26678441  1
  O2-  O199  1  0.55342693  0.07894287  0.60758754  1
  O2-  O200  1  0.54423816  0.08094961  0.93136673  1
  O2-  O201  1  0.54326626  0.58372144  0.26119156  1
  O2-  O202  1  0.54334793  0.58265190  0.59975317  1
  O2-  O203  1  0.54449910  0.58493169  0.93753772  1
  O2-  O204  1  0.16306207  0.20447760  0.27475317  1
  O2-  O205  1  0.16684500  0.19690837  0.60615033  1
  O2-  O206  1  0.16806807  0.20959406  0.93065775  1
  O2-  O207  1  0.16582068  0.71027803  0.26363505  1
  O2-  O208  1  0.16375765  0.70980224  0.60624729  1
  O2-  O209  1  0.17271698  0.70726016  0.93302472  1
  O2-  O210  1  0.66838782  0.20791511  0.26722283  1
  O2-  O211  1  0.66544977  0.20395709  0.60431776  1
  O2-  O212  1  0.66646930  0.21223312  0.92932822  1
  O2-  O213  1  0.66725784  0.71361348  0.26277334  1
  O2-  O214  1  0.66681509  0.71513809  0.60064694  1
  O2-  O215  1  0.65993943  0.70865713  0.93538790  1
  O2-  O216  1  0.07741751  0.45373556  0.06606448  1
  O2-  O217  1  0.08428006  0.46548135  0.40273591  1
  O2-  O218  1  0.08493794  0.45794256  0.73207430  1
  O2-  O219  1  0.08722652  0.95875141  0.06293103  1
  O2-  O220  1  0.08548996  0.94799916  0.39677061  1
  O2-  O221  1  0.07844395  0.95592491  0.73630408  1
  O2-  O222  1  0.58939952  0.45744125  0.06293339  1
  O2-  O223  1  0.57489783  0.45521225  0.39670210  1
  O2-  O224  1  0.58608088  0.45436093  0.73121517  1
  O2-  O225  1  0.58277569  0.95206765  0.06287834  1
  O2-  O226  1  0.58435808  0.95184547  0.39949808  1
  O2-  O227  1  0.58721565  0.94878566  0.72952292  1
  O2-  O228  1  0.20871386  0.33040855  0.06874485  1
  O2-  O229  1  0.20544618  0.33373514  0.40529756  1
  O2-  O230  1  0.19607856  0.33211744  0.72570277  1
  O2-  O231  1  0.20764124  0.83883981  0.06366464  1
  O2-  O232  1  0.20644788  0.83270949  0.39507709  1
  O2-  O233  1  0.20783413  0.83232317  0.74003543  1
  O2-  O234  1  0.70719191  0.33714084  0.06093979  1
  O2-  O235  1  0.70488381  0.33207297  0.40355791  1
  O2-  O236  1  0.70623283  0.33409750  0.73046537  1
  O2-  O237  1  0.70147604  0.83277026  0.06334232  1
  O2-  O238  1  0.70574820  0.83573843  0.39842616  1
  O2-  O239  1  0.71282794  0.83848257  0.73298617  1
  O2-  O240  1  0.44901167  0.41992281  0.26123436  1
  O2-  O241  1  0.46243663  0.41280009  0.59689093  1
  O2-  O242  1  0.45952752  0.41449383  0.93835850  1
  O2-  O243  1  0.45685443  0.91388613  0.26992454  1
  O2-  O244  1  0.45546889  0.91545754  0.60467864  1
  O2-  O245  1  0.46196772  0.91071038  0.93117811  1
  O2-  O246  1  0.96213571  0.41484410  0.26482397  1
  O2-  O247  1  0.96066677  0.41933836  0.59951093  1
  O2-  O248  1  0.95034000  0.41639129  0.93710549  1
  O2-  O249  1  0.95751275  0.91800571  0.27129457  1
  O2-  O250  1  0.95594164  0.91435150  0.60245037  1
  O2-  O251  1  0.95849324  0.91825205  0.93101251  1
  O2-  O252  1  0.32554616  0.28945645  0.26486591  1
  O2-  O253  1  0.32968192  0.29309209  0.60197665  1
  O2-  O254  1  0.33544287  0.29744362  0.93644949  1
  O2-  O255  1  0.33476439  0.79920440  0.26964890  1
  O2-  O256  1  0.33181309  0.79945930  0.60681803  1
  O2-  O257  1  0.33587780  0.80089573  0.93725645  1
  O2-  O258  1  0.83178486  0.29152396  0.26752259  1
  O2-  O259  1  0.83379740  0.29037537  0.59865860  1
  O2-  O260  1  0.83436743  0.29483758  0.93439476  1
  O2-  O261  1  0.83354171  0.80576058  0.27113682  1
  O2-  O262  1  0.83744327  0.79414443  0.60237504  1
  O2-  O263  1  0.82906072  0.79462175  0.93229696  1
  O2-  O264  1  0.41416321  0.03852328  0.06006103  1
  O2-  O265  1  0.41651081  0.03879189  0.40045199  1
  O2-  O266  1  0.42138984  0.04278649  0.73690729  1
  O2-  O267  1  0.42118427  0.54207820  0.07011340  1
  O2-  O268  1  0.41760163  0.55144350  0.38998268  1
  O2-  O269  1  0.41961077  0.53697633  0.73148476  1
  O2-  O270  1  0.91724153  0.03965889  0.06640868  1
  O2-  O271  1  0.91631709  0.03968298  0.40600247  1
  O2-  O272  1  0.91095904  0.04278857  0.72823263  1
  O2-  O273  1  0.91376693  0.54881700  0.05755161  1
  O2-  O274  1  0.91760761  0.54055417  0.39973604  1
  O2-  O275  1  0.91706979  0.53985685  0.73736956  1
  O2-  O276  1  0.29688479  0.16343380  0.05894229  1
  O2-  O277  1  0.28812218  0.16445578  0.40204243  1
  O2-  O278  1  0.29413429  0.17098840  0.73835816  1
  O2-  O279  1  0.30313077  0.67476227  0.06673704  1
  O2-  O280  1  0.29459306  0.66723631  0.39543695  1
  O2-  O281  1  0.29467009  0.66486360  0.73225779  1
  O2-  O282  1  0.78901842  0.16758091  0.06500959  1
  O2-  O283  1  0.78933215  0.16691840  0.40342059  1
  O2-  O284  1  0.79252794  0.16448715  0.72977391  1
  O2-  O285  1  0.78885759  0.66359473  0.06047485  1
  O2-  O286  1  0.79727495  0.67354317  0.39591316  1
  O2-  O287  1  0.78939661  0.66822201  0.73671205  1
