# generated using pymatgen
data_Ca2Al2SiO7
_symmetry_space_group_name_H-M   'P 1'
_cell_length_a   15.45740692
_cell_length_b   15.45746275
_cell_length_c   15.28383763
_cell_angle_alpha   90.00564794
_cell_angle_beta   90.00427062
_cell_angle_gamma   89.99490631
_symmetry_Int_Tables_number   1
_chemical_formula_structural   Ca2Al2SiO7
_chemical_formula_sum   'Ca48 Al48 Si24 O168'
_cell_volume   3651.80230879
_cell_formula_units_Z   24
loop_
 _symmetry_equiv_pos_site_id
 _symmetry_equiv_pos_as_xyz
  1  'x, y, z'
loop_
 _atom_type_symbol
 _atom_type_oxidation_number
  Ca2+  2.0
  Al0+  0.0
  Si0+  0.0
  O2-  -2.0
loop_
 _atom_site_type_symbol
 _atom_site_label
 _atom_site_symmetry_multiplicity
 _atom_site_fract_x
 _atom_site_fract_y
 _atom_site_fract_z
 _atom_site_occupancy
  Ca2+  Ca0  1  0.17166103  0.08524881  0.16563219  1
  Ca2+  Ca1  1  0.16132678  0.07381568  0.50637563  1
  Ca2+  Ca2  1  0.16984644  0.08757701  0.83820447  1
  Ca2+  Ca3  1  0.17331155  0.57430856  0.17220612  1
  Ca2+  Ca4  1  0.17569561  0.58142792  0.50196383  1
  Ca2+  Ca5  1  0.17103893  0.57144927  0.84101709  1
  Ca2+  Ca6  1  0.66378986  0.07749587  0.17533697  1
  Ca2+  Ca7  1  0.67609020  0.09348477  0.49938265  1
  Ca2+  Ca8  1  0.67113684  0.08208126  0.84170223  1
  Ca2+  Ca9  1  0.65722468  0.56987551  0.16698472  1
  Ca2+  Ca10  1  0.66277931  0.57643965  0.50166335  1
  Ca2+  Ca11  1  0.66019462  0.58027010  0.84092395  1
  Ca2+  Ca12  1  0.07730310  0.33115212  0.15825546  1
  Ca2+  Ca13  1  0.07033994  0.32653968  0.49643930  1
  Ca2+  Ca14  1  0.08397657  0.32137286  0.82789434  1
  Ca2+  Ca15  1  0.07758716  0.83816646  0.16351295  1
  Ca2+  Ca16  1  0.08858596  0.83801150  0.49486812  1
  Ca2+  Ca17  1  0.07749168  0.83981610  0.82984458  1
  Ca2+  Ca18  1  0.57948854  0.32582048  0.16250272  1
  Ca2+  Ca19  1  0.57772130  0.32912300  0.49014582  1
  Ca2+  Ca20  1  0.57492181  0.33291127  0.83323050  1
  Ca2+  Ca21  1  0.59230486  0.82890128  0.15736134  1
  Ca2+  Ca22  1  0.58388002  0.83058937  0.49823072  1
  Ca2+  Ca23  1  0.58411484  0.82472416  0.82897804  1
  Ca2+  Ca24  1  0.33608122  0.41595179  0.16890908  1
  Ca2+  Ca25  1  0.34497875  0.41977384  0.50134597  1
  Ca2+  Ca26  1  0.33116860  0.40750752  0.84188955  1
  Ca2+  Ca27  1  0.33204189  0.92888506  0.17124816  1
  Ca2+  Ca28  1  0.32431672  0.91498587  0.50778009  1
  Ca2+  Ca29  1  0.33174163  0.92171254  0.83640550  1
  Ca2+  Ca30  1  0.82024873  0.40874927  0.17202554  1
  Ca2+  Ca31  1  0.82821304  0.40438645  0.50122862  1
  Ca2+  Ca32  1  0.82835329  0.41694997  0.83859160  1
  Ca2+  Ca33  1  0.82392176  0.92157873  0.17145355  1
  Ca2+  Ca34  1  0.82756719  0.93212270  0.50240327  1
  Ca2+  Ca35  1  0.82983306  0.92211215  0.83982674  1
  Ca2+  Ca36  1  0.42616808  0.17090242  0.15800167  1
  Ca2+  Ca37  1  0.42127607  0.17918510  0.49153546  1
  Ca2+  Ca38  1  0.41763688  0.17251639  0.83437698  1
  Ca2+  Ca39  1  0.41958841  0.66780644  0.16352467  1
  Ca2+  Ca40  1  0.41763388  0.67071988  0.49890977  1
  Ca2+  Ca41  1  0.42964338  0.67118256  0.82651739  1
  Ca2+  Ca42  1  0.91956789  0.16567868  0.16624254  1
  Ca2+  Ca43  1  0.91419487  0.16757810  0.49813566  1
  Ca2+  Ca44  1  0.92706752  0.16735645  0.82510844  1
  Ca2+  Ca45  1  0.91486937  0.67666060  0.15922760  1
  Ca2+  Ca46  1  0.92022224  0.66970278  0.49574999  1
  Ca2+  Ca47  1  0.91496739  0.67496563  0.83317405  1
  Al0+  Al48  1  -0.00069582  0.00045244  -0.00765174  1
  Al0+  Al49  1  -0.00096848  -0.00061784  0.33892166  1
  Al0+  Al50  1  -0.00097087  -0.00058790  0.67142735  1
  Al0+  Al51  1  0.00047541  0.50208418  0.00448715  1
  Al0+  Al52  1  0.00080153  0.50005946  0.32860856  1
  Al0+  Al53  1  -0.00048327  0.50073407  0.66490586  1
  Al0+  Al54  1  0.49959991  0.00026110  0.00412069  1
  Al0+  Al55  1  0.49774226  -0.00187922  0.33636452  1
  Al0+  Al56  1  0.49943973  -0.00129748  0.66317351  1
  Al0+  Al57  1  0.49987566  0.50142118  -0.00337020  1
  Al0+  Al58  1  0.49995190  0.50196961  0.33859617  1
  Al0+  Al59  1  0.50127205  0.50117670  0.66124160  1
  Al0+  Al60  1  0.24841489  0.24937606  0.00360679  1
  Al0+  Al61  1  0.24780655  0.25118824  0.33167012  1
  Al0+  Al62  1  0.24933010  0.24873375  0.65561233  1
  Al0+  Al63  1  0.24831975  0.74912133  0.00014054  1
  Al0+  Al64  1  0.25101356  0.74752356  0.33835579  1
  Al0+  Al65  1  0.25016350  0.74915696  0.67141000  1
  Al0+  Al66  1  0.75059862  0.25045417  0.00077075  1
  Al0+  Al67  1  0.75029481  0.24978268  0.33294205  1
  Al0+  Al68  1  0.74997102  0.25102982  0.67283768  1
  Al0+  Al69  1  0.75144872  0.75128402  -0.00608965  1
  Al0+  Al70  1  0.75078039  0.74991398  0.33659896  1
  Al0+  Al71  1  0.75166455  0.74825030  0.66128910  1
  Al0+  Al72  1  0.42925781  0.31965081  0.65257470  1
  Al0+  Al73  1  0.32050532  0.07057926  0.01298972  1
  Al0+  Al74  1  0.06964703  0.18078885  0.98731067  1
  Al0+  Al75  1  0.57014288  0.17727054  0.31887477  1
  Al0+  Al76  1  0.67566711  0.92579233  0.34984742  1
  Al0+  Al77  1  0.57361071  0.17597808  0.98473173  1
  Al0+  Al78  1  0.92798845  0.32234156  0.65338942  1
  Al0+  Al79  1  0.81942718  0.07086272  0.34766988  1
  Al0+  Al80  1  0.42763576  0.82138761  0.65172551  1
  Al0+  Al81  1  0.92951442  0.32103023  0.31732931  1
  Al0+  Al82  1  0.18000750  0.92844283  0.68337814  1
  Al0+  Al83  1  0.93076031  0.82035261  0.98607689  1
  Al0+  Al84  1  0.67862437  0.42920843  0.01293932  1
  Al0+  Al85  1  0.57275175  0.67952786  0.64808866  1
  Al0+  Al86  1  0.56916218  0.68078670  0.98838852  1
  Al0+  Al87  1  0.07008098  0.17663620  0.64934511  1
  Al0+  Al88  1  0.18143670  0.93095165  0.34471877  1
  Al0+  Al89  1  0.32008172  0.56824170  0.34814922  1
  Al0+  Al90  1  0.42857469  0.32421674  0.31653375  1
  Al0+  Al91  1  0.43000033  0.31997392  0.98644158  1
  Al0+  Al92  1  0.68002356  0.92938535  0.01088183  1
  Al0+  Al93  1  0.81853981  0.07177316  0.68403416  1
  Al0+  Al94  1  0.17876569  0.42801614  0.01311709  1
  Al0+  Al95  1  0.68086702  0.43060033  0.34728727  1
  Si0+  Si96  1  0.07056952  0.17509066  0.31591283  1
  Si0+  Si97  1  0.32264165  0.07399946  0.68187474  1
  Si0+  Si98  1  0.32207330  0.56940183  0.68373549  1
  Si0+  Si99  1  0.92727806  0.32497167  0.98417224  1
  Si0+  Si100  1  0.82338305  0.57278079  0.68196879  1
  Si0+  Si101  1  0.32199993  0.07465599  0.35142261  1
  Si0+  Si102  1  0.07330945  0.67633882  0.98287365  1
  Si0+  Si103  1  0.82357138  0.07199510  0.01608236  1
  Si0+  Si104  1  0.42441830  0.82379007  0.98581909  1
  Si0+  Si105  1  0.17597584  0.92735283  0.01550774  1
  Si0+  Si106  1  0.82197009  0.57318244  0.01611782  1
  Si0+  Si107  1  0.82463601  0.57283201  0.34947797  1
  Si0+  Si108  1  0.93016229  0.82031560  0.31984944  1
  Si0+  Si109  1  0.93026009  0.82065975  0.64946773  1
  Si0+  Si110  1  0.67879569  0.43159109  0.68265891  1
  Si0+  Si111  1  0.32194185  0.57275761  0.01530580  1
  Si0+  Si112  1  0.67824192  0.92569226  0.68337257  1
  Si0+  Si113  1  0.17913920  0.42913049  0.67903009  1
  Si0+  Si114  1  0.57352878  0.17727787  0.65197707  1
  Si0+  Si115  1  0.07335466  0.67927769  0.31805563  1
  Si0+  Si116  1  0.07123831  0.67852293  0.65215106  1
  Si0+  Si117  1  0.17465621  0.42691926  0.35177663  1
  Si0+  Si118  1  0.57190375  0.68153676  0.31777593  1
  Si0+  Si119  1  0.42610449  0.81922307  0.31858996  1
  O2-  O120  1  0.24743453  -0.00742357  0.05905268  1
  O2-  O121  1  0.25255819  0.00642090  0.39521069  1
  O2-  O122  1  0.25505059  0.00401164  0.72705521  1
  O2-  O123  1  0.25326306  0.50382093  0.05876371  1
  O2-  O124  1  0.24883275  0.49002020  0.39587722  1
  O2-  O125  1  0.25416318  0.49479304  0.72440874  1
  O2-  O126  1  0.74978811  0.00817969  0.05889137  1
  O2-  O127  1  0.74299985  0.00292786  0.39807468  1
  O2-  O128  1  0.74209438  -0.00224866  0.72908575  1
  O2-  O129  1  0.75594512  0.50228523  0.05985016  1
  O2-  O130  1  0.75881164  0.50243150  0.39479210  1
  O2-  O131  1  0.75139175  0.50257332  0.72321855  1
  O2-  O132  1  0.00614555  0.24773224  0.27158717  1
  O2-  O133  1  -0.00352350  0.24815650  0.60171065  1
  O2-  O134  1  -0.00438135  0.25632634  0.94042336  1
  O2-  O135  1  0.00045941  0.74864430  0.27657279  1
  O2-  O136  1  0.00391697  0.75184864  0.60766610  1
  O2-  O137  1  0.00707201  0.74692450  0.93838902  1
  O2-  O138  1  0.49672546  0.24793089  0.26854087  1
  O2-  O139  1  0.50226154  0.24303948  0.60771769  1
  O2-  O140  1  0.50261851  0.24936044  0.93510788  1
  O2-  O141  1  0.50444733  0.75629900  0.27602172  1
  O2-  O142  1  0.50164246  0.75284061  0.59905499  1
  O2-  O143  1  0.49453714  0.75599337  0.94267714  1
  O2-  O144  1  0.06739034  0.17977632  0.10056534  1
  O2-  O145  1  0.06853309  0.17362617  0.42130874  1
  O2-  O146  1  0.07213008  0.18015314  0.76307527  1
  O2-  O147  1  0.07319257  0.67623466  0.08853814  1
  O2-  O148  1  0.07288588  0.67950037  0.42354535  1
  O2-  O149  1  0.06820944  0.67600242  0.75706741  1
  O2-  O150  1  0.57236190  0.17527143  0.09787432  1
  O2-  O151  1  0.56967830  0.18133352  0.43312433  1
  O2-  O152  1  0.57394087  0.17887738  0.75749092  1
  O2-  O153  1  0.56800040  0.68030489  0.10179349  1
  O2-  O154  1  0.57147739  0.68127834  0.42268438  1
  O2-  O155  1  0.57202830  0.67892028  0.76192178  1
  O2-  O156  1  0.17135698  0.43156711  0.24631671  1
  O2-  O157  1  0.17687108  0.43486254  0.57427203  1
  O2-  O158  1  0.17900069  0.42969618  0.89926409  1
  O2-  O159  1  0.18189009  0.93038533  0.23152885  1
  O2-  O160  1  0.18083717  0.92726318  0.56998750  1
  O2-  O161  1  0.17684063  0.92697307  0.91009299  1
  O2-  O162  1  0.67971368  0.43350611  0.23426313  1
  O2-  O163  1  0.67946627  0.43183468  0.57751134  1
  O2-  O164  1  0.67910340  0.43281694  0.89945708  1
  O2-  O165  1  0.68189997  0.92091786  0.23622884  1
  O2-  O166  1  0.68244682  0.92382497  0.57810107  1
  O2-  O167  1  0.68353858  0.92677873  0.89772744  1
  O2-  O168  1  0.43136846  0.32059737  0.09944950  1
  O2-  O169  1  0.43299228  0.32347327  0.43053086  1
  O2-  O170  1  0.42886874  0.32059675  0.76547652  1
  O2-  O171  1  0.42144969  0.82088803  0.09164327  1
  O2-  O172  1  0.42207880  0.81425864  0.42326416  1
  O2-  O173  1  0.42755026  0.81804888  0.76558649  1
  O2-  O174  1  0.92836759  0.32459478  0.08981010  1
  O2-  O175  1  0.93144227  0.32185041  0.43025599  1
  O2-  O176  1  0.93173480  0.32563013  0.76694053  1
  O2-  O177  1  0.93238533  0.81936756  0.09968017  1
  O2-  O178  1  0.93216623  0.81801834  0.42500420  1
  O2-  O179  1  0.92945709  0.81737695  0.75461833  1
  O2-  O180  1  0.32140296  0.07213693  0.24572381  1
  O2-  O181  1  0.32106705  0.07335765  0.57636433  1
  O2-  O182  1  0.31884542  0.07020311  0.89969535  1
  O2-  O183  1  0.31698663  0.57205589  0.23507656  1
  O2-  O184  1  0.31955049  0.57056251  0.57857961  1
  O2-  O185  1  0.32005574  0.57430357  0.90958986  1
  O2-  O186  1  0.82463191  0.06555620  0.23421543  1
  O2-  O187  1  0.81785226  0.07118547  0.57108013  1
  O2-  O188  1  0.82483736  0.06886966  0.91040235  1
  O2-  O189  1  0.82354030  0.57713418  0.24417923  1
  O2-  O190  1  0.82601480  0.57477328  0.57713409  1
  O2-  O191  1  0.82304426  0.57280226  0.91013088  1
  O2-  O192  1  0.04062917  0.08244604  0.26984127  1
  O2-  O193  1  0.04016862  0.07718056  0.59978772  1
  O2-  O194  1  0.04071829  0.08527939  0.93048632  1
  O2-  O195  1  0.04793501  0.58779863  0.26925192  1
  O2-  O196  1  0.04064431  0.58911321  0.60160499  1
  O2-  O197  1  0.04471716  0.58383494  0.93547365  1
  O2-  O198  1  0.54368006  0.07618253  0.26914687  1
  O2-  O199  1  0.55451652  0.08207462  0.60698570  1
  O2-  O200  1  0.54368716  0.07736836  0.93261764  1
  O2-  O201  1  0.53851008  0.59098285  0.27206682  1
  O2-  O202  1  0.54109745  0.58285670  0.59424450  1
  O2-  O203  1  0.53723822  0.58670745  0.93049683  1
  O2-  O204  1  0.16602182  0.19668381  0.27210277  1
  O2-  O205  1  0.16659525  0.20426090  0.59301369  1
  O2-  O206  1  0.16537814  0.21251555  0.93313518  1
  O2-  O207  1  0.16385896  0.70988503  0.27028597  1
  O2-  O208  1  0.16419102  0.70398287  0.60645246  1
  O2-  O209  1  0.16772069  0.69820453  0.93634183  1
  O2-  O210  1  0.66891194  0.20483595  0.26750564  1
  O2-  O211  1  0.66564765  0.20881360  0.60687498  1
  O2-  O212  1  0.67304680  0.20378619  0.93317327  1
  O2-  O213  1  0.66564422  0.70498297  0.27176413  1
  O2-  O214  1  0.67233734  0.70372589  0.59512150  1
  O2-  O215  1  0.66538675  0.70954353  0.93248498  1
  O2-  O216  1  0.08327117  0.46109317  0.06932932  1
  O2-  O217  1  0.08362836  0.46059601  0.39892030  1
  O2-  O218  1  0.08928097  0.46228861  0.72770533  1
  O2-  O219  1  0.08291636  0.95693457  0.06040484  1
  O2-  O220  1  0.08458960  0.95755809  0.40074432  1
  O2-  O221  1  0.08275564  0.95731698  0.73632768  1
  O2-  O222  1  0.58313550  0.46515093  0.06597665  1
  O2-  O223  1  0.58693656  0.46588271  0.40341240  1
  O2-  O224  1  0.58755678  0.46326517  0.72919689  1
  O2-  O225  1  0.58189603  0.95091549  0.06557498  1
  O2-  O226  1  0.57418218  0.94481427  0.40000195  1
  O2-  O227  1  0.58131934  0.94467420  0.72516435  1
  O2-  O228  1  0.20736108  0.33349409  0.07027000  1
  O2-  O229  1  0.19215849  0.33047702  0.39457939  1
  O2-  O230  1  0.20422621  0.33462813  0.72177212  1
  O2-  O231  1  0.19547467  0.83124660  0.06001540  1
  O2-  O232  1  0.21198417  0.83439181  0.39960350  1
  O2-  O233  1  0.20812798  0.83085676  0.73821658  1
  O2-  O234  1  0.70857259  0.33259100  0.06765353  1
  O2-  O235  1  0.71055475  0.33416965  0.40128028  1
  O2-  O236  1  0.70467059  0.34056006  0.73193103  1
  O2-  O237  1  0.71683614  0.83377309  0.06435802  1
  O2-  O238  1  0.71062773  0.82964900  0.40453550  1
  O2-  O239  1  0.70960020  0.83224105  0.72759867  1
  O2-  O240  1  0.45924372  0.42367069  0.26729167  1
  O2-  O241  1  0.46198380  0.41574802  0.59933186  1
  O2-  O242  1  0.45569020  0.41899205  0.93271520  1
  O2-  O243  1  0.44440617  0.91441199  0.27489088  1
  O2-  O244  1  0.44969310  0.92097559  0.59792898  1
  O2-  O245  1  0.44862820  0.91723524  0.94063265  1
  O2-  O246  1  0.95802928  0.41883388  0.26304310  1
  O2-  O247  1  0.95697459  0.42051123  0.59901792  1
  O2-  O248  1  0.95170622  0.42033999  0.94095335  1
  O2-  O249  1  0.96014660  0.91115125  0.27256756  1
  O2-  O250  1  0.95717372  0.91278011  0.60412918  1
  O2-  O251  1  0.96083915  0.91476809  0.92810875  1
  O2-  O252  1  0.32545052  0.30363036  0.26986638  1
  O2-  O253  1  0.33342279  0.29389446  0.59470736  1
  O2-  O254  1  0.33112367  0.28966422  0.93576828  1
  O2-  O255  1  0.33787235  0.78268716  0.26932032  1
  O2-  O256  1  0.32947615  0.78719044  0.60024690  1
  O2-  O257  1  0.33078815  0.79791391  0.93880721  1
  O2-  O258  1  0.83358197  0.28932062  0.26382057  1
  O2-  O259  1  0.82787730  0.29513054  0.60382045  1
  O2-  O260  1  0.83357811  0.30122947  0.93846046  1
  O2-  O261  1  0.83860658  0.79118843  0.27234230  1
  O2-  O262  1  0.84090590  0.78921498  0.60020407  1
  O2-  O263  1  0.83765720  0.78630057  0.92729285  1
  O2-  O264  1  0.41544659  0.04033173  0.07066417  1
  O2-  O265  1  0.41454817  0.04857909  0.39847874  1
  O2-  O266  1  0.41736415  0.04969688  0.72713516  1
  O2-  O267  1  0.41509113  0.54763158  0.06148178  1
  O2-  O268  1  0.41631583  0.54278111  0.40520830  1
  O2-  O269  1  0.41596566  0.54450706  0.72791726  1
  O2-  O270  1  0.91554375  0.03939116  0.06156258  1
  O2-  O271  1  0.91491723  0.03658652  0.40399957  1
  O2-  O272  1  0.91421466  0.03732629  0.73735338  1
  O2-  O273  1  0.91665240  0.55374113  0.06307963  1
  O2-  O274  1  0.92025871  0.55080507  0.39357208  1
  O2-  O275  1  0.91474724  0.54512310  0.73130156  1
  O2-  O276  1  0.28546422  0.16369106  0.07019892  1
  O2-  O277  1  0.29749455  0.16947167  0.39564489  1
  O2-  O278  1  0.29396546  0.16788677  0.72623860  1
  O2-  O279  1  0.29559058  0.66607434  0.06313566  1
  O2-  O280  1  0.28337336  0.66166714  0.40566341  1
  O2-  O281  1  0.29059387  0.65886152  0.73297639  1
  O2-  O282  1  0.80576415  0.16795906  0.05954101  1
  O2-  O283  1  0.79439337  0.16961431  0.40135629  1
  O2-  O284  1  0.79137407  0.16878111  0.73960915  1
  O2-  O285  1  0.79429613  0.66650578  0.06101691  1
  O2-  O286  1  0.79766446  0.66493523  0.39843850  1
  O2-  O287  1  0.79623267  0.66516122  0.72936340  1
