# generated using pymatgen
data_Ca2Al2SiO7
_symmetry_space_group_name_H-M   'P 1'
_cell_length_a   15.47449420
_cell_length_b   15.46927400
_cell_length_c   15.29258241
_cell_angle_alpha   89.97967521
_cell_angle_beta   90.02926715
_cell_angle_gamma   89.98123044
_symmetry_Int_Tables_number   1
_chemical_formula_structural   Ca2Al2SiO7
_chemical_formula_sum   'Ca48 Al48 Si24 O168'
_cell_volume   3660.72509676
_cell_formula_units_Z   24
loop_
 _symmetry_equiv_pos_site_id
 _symmetry_equiv_pos_as_xyz
  1  'x, y, z'
loop_
 _atom_type_symbol
 _atom_type_oxidation_number
  Ca2+  2.0
  Al0+  0.0
  Si0+  0.0
  O2-  -2.0
loop_
 _atom_site_type_symbol
 _atom_site_label
 _atom_site_symmetry_multiplicity
 _atom_site_fract_x
 _atom_site_fract_y
 _atom_site_fract_z
 _atom_site_occupancy
  Ca2+  Ca0  1  0.16672112  0.07903078  0.17848049  1
  Ca2+  Ca1  1  0.15712534  0.07794382  0.50196849  1
  Ca2+  Ca2  1  0.16658951  0.08824444  0.83615571  1
  Ca2+  Ca3  1  0.16863458  0.57822280  0.17823626  1
  Ca2+  Ca4  1  0.15777547  0.57993558  0.50280382  1
  Ca2+  Ca5  1  0.16793014  0.58784656  0.83485995  1
  Ca2+  Ca6  1  0.67681848  0.08782535  0.17165049  1
  Ca2+  Ca7  1  0.67185495  0.08968536  0.50223477  1
  Ca2+  Ca8  1  0.66574661  0.07781957  0.84627269  1
  Ca2+  Ca9  1  0.66671070  0.57368628  0.17586202  1
  Ca2+  Ca10  1  0.67409764  0.58237285  0.50711253  1
  Ca2+  Ca11  1  0.66228383  0.57535156  0.83850810  1
  Ca2+  Ca12  1  0.07649145  0.33235029  0.16344297  1
  Ca2+  Ca13  1  0.08486102  0.32371166  0.49119298  1
  Ca2+  Ca14  1  0.07130812  0.32879448  0.82889568  1
  Ca2+  Ca15  1  0.07261019  0.83393414  0.16891253  1
  Ca2+  Ca16  1  0.07759111  0.82189858  0.48895614  1
  Ca2+  Ca17  1  0.07348655  0.82921444  0.82914598  1
  Ca2+  Ca18  1  0.59142201  0.32672517  0.15981616  1
  Ca2+  Ca19  1  0.59511626  0.32875428  0.49616629  1
  Ca2+  Ca20  1  0.59314981  0.32561756  0.83296623  1
  Ca2+  Ca21  1  0.59955333  0.81900407  0.16375197  1
  Ca2+  Ca22  1  0.58679167  0.82065202  0.49478875  1
  Ca2+  Ca23  1  0.59598434  0.82054173  0.83379346  1
  Ca2+  Ca24  1  0.32822461  0.41128740  0.17026292  1
  Ca2+  Ca25  1  0.32586003  0.41347268  0.49760679  1
  Ca2+  Ca26  1  0.33240566  0.41304241  0.83878054  1
  Ca2+  Ca27  1  0.32524558  0.91697175  0.17482009  1
  Ca2+  Ca28  1  0.32629208  0.91409249  0.50018657  1
  Ca2+  Ca29  1  0.32928594  0.91701076  0.83803262  1
  Ca2+  Ca30  1  0.82536206  0.41858882  0.17283789  1
  Ca2+  Ca31  1  0.82364700  0.42864114  0.50202535  1
  Ca2+  Ca32  1  0.82479402  0.42160064  0.83694569  1
  Ca2+  Ca33  1  0.83738336  0.92399272  0.16724873  1
  Ca2+  Ca34  1  0.84143294  0.92149272  0.49471062  1
  Ca2+  Ca35  1  0.82923503  0.92413125  0.84408252  1
  Ca2+  Ca36  1  0.43010204  0.17334800  0.16155999  1
  Ca2+  Ca37  1  0.43119058  0.16815550  0.49458061  1
  Ca2+  Ca38  1  0.42897099  0.17217676  0.83199633  1
  Ca2+  Ca39  1  0.42955173  0.66394355  0.16460653  1
  Ca2+  Ca40  1  0.43004619  0.66135553  0.49696784  1
  Ca2+  Ca41  1  0.43034683  0.66564378  0.83226855  1
  Ca2+  Ca42  1  0.91616444  0.16673069  0.16309519  1
  Ca2+  Ca43  1  0.92341995  0.16714874  0.49158786  1
  Ca2+  Ca44  1  0.90895757  0.17441863  0.83399239  1
  Ca2+  Ca45  1  0.90883252  0.67777674  0.16711820  1
  Ca2+  Ca46  1  0.91783788  0.66649390  0.48956937  1
  Ca2+  Ca47  1  0.91343129  0.67304348  0.82725981  1
  Al0+  Al48  1  0.00111743  -0.00293688  -0.00172344  1
  Al0+  Al49  1  0.00135332  -0.00095922  0.33476275  1
  Al0+  Al50  1  -0.00052723  -0.00008935  0.66696687  1
  Al0+  Al51  1  0.00208528  0.49821847  -0.00477234  1
  Al0+  Al52  1  0.00057308  0.49821262  0.33792565  1
  Al0+  Al53  1  -0.00152635  0.50037118  0.66950799  1
  Al0+  Al54  1  0.49779868  -0.00339938  0.00386934  1
  Al0+  Al55  1  0.50058208  0.00063874  0.32974620  1
  Al0+  Al56  1  0.49725276  0.00265986  0.66382932  1
  Al0+  Al57  1  0.49801891  0.50001737  -0.00223325  1
  Al0+  Al58  1  0.49703248  0.49766272  0.33394456  1
  Al0+  Al59  1  0.49657167  0.49984903  0.66662204  1
  Al0+  Al60  1  0.25158982  0.24919253  -0.00171058  1
  Al0+  Al61  1  0.25241983  0.24874169  0.33469417  1
  Al0+  Al62  1  0.25012676  0.24886206  0.66444121  1
  Al0+  Al63  1  0.25197993  0.74864689  0.00221795  1
  Al0+  Al64  1  0.25102380  0.75014890  0.33601131  1
  Al0+  Al65  1  0.24676929  0.75077999  0.66588721  1
  Al0+  Al66  1  0.75306702  0.25075705  -0.00158388  1
  Al0+  Al67  1  0.75264911  0.24943852  0.33835111  1
  Al0+  Al68  1  0.75092417  0.25192362  0.66518882  1
  Al0+  Al69  1  0.75310831  0.75061333  -0.00736195  1
  Al0+  Al70  1  0.75069039  0.75173255  0.32900895  1
  Al0+  Al71  1  0.74991041  0.75410541  0.66430170  1
  Al0+  Al72  1  0.67917500  0.43116024  0.01351368  1
  Al0+  Al73  1  0.57106323  0.68005613  0.98732792  1
  Al0+  Al74  1  0.82130758  0.07116965  0.01435907  1
  Al0+  Al75  1  0.57425576  0.18036336  0.31910688  1
  Al0+  Al76  1  0.93103084  0.82057729  0.98367293  1
  Al0+  Al77  1  0.92914019  0.32239649  0.98598775  1
  Al0+  Al78  1  0.42798156  0.32068943  0.98475744  1
  Al0+  Al79  1  0.57039085  0.67803746  0.32039165  1
  Al0+  Al80  1  0.82106245  0.07006799  0.34801771  1
  Al0+  Al81  1  0.67690851  0.42847327  0.34778285  1
  Al0+  Al82  1  0.57126044  0.18021552  0.65254936  1
  Al0+  Al83  1  0.07012936  0.18041252  0.65326719  1
  Al0+  Al84  1  0.56996002  0.67994435  0.65289541  1
  Al0+  Al85  1  0.92944252  0.82089361  0.31691852  1
  Al0+  Al86  1  0.67730559  0.43014091  0.68378322  1
  Al0+  Al87  1  0.81937572  0.57371811  0.34589708  1
  Al0+  Al88  1  0.57250794  0.17807092  0.98682388  1
  Al0+  Al89  1  0.67757905  0.92628415  0.01521185  1
  Al0+  Al90  1  0.06956443  0.67953889  0.65333012  1
  Al0+  Al91  1  0.07244154  0.67546391  0.31832726  1
  Al0+  Al92  1  0.07206210  0.17883382  0.31973941  1
  Al0+  Al93  1  0.82114683  0.57461524  0.68317536  1
  Al0+  Al94  1  0.17995376  0.92928436  0.34847981  1
  Al0+  Al95  1  0.17900546  0.42815148  0.34623670  1
  Si0+  Si96  1  0.42350929  0.82052015  0.98424329  1
  Si0+  Si97  1  0.82497680  0.57199521  0.01494638  1
  Si0+  Si98  1  0.17857344  0.92975687  0.68382356  1
  Si0+  Si99  1  0.42593706  0.32217130  0.64816119  1
  Si0+  Si100  1  0.82138449  0.07032269  0.68101175  1
  Si0+  Si101  1  0.42567337  0.82302544  0.65080351  1
  Si0+  Si102  1  0.32027579  0.07197444  0.01619285  1
  Si0+  Si103  1  0.17920151  0.42694459  0.68295656  1
  Si0+  Si104  1  0.17914797  0.42778680  0.01347360  1
  Si0+  Si105  1  0.92771035  0.32274433  0.64730281  1
  Si0+  Si106  1  0.18030490  0.92791067  0.01487184  1
  Si0+  Si107  1  0.92974423  0.32075716  0.31768850  1
  Si0+  Si108  1  0.32090599  0.07135767  0.68323917  1
  Si0+  Si109  1  0.32024341  0.57078369  0.01546745  1
  Si0+  Si110  1  0.92774869  0.82317837  0.64844164  1
  Si0+  Si111  1  0.07477072  0.67769973  0.98423744  1
  Si0+  Si112  1  0.07218555  0.17737209  0.98525424  1
  Si0+  Si113  1  0.32392098  0.07138103  0.35193870  1
  Si0+  Si114  1  0.42852796  0.82271070  0.31719020  1
  Si0+  Si115  1  0.42775919  0.32076678  0.31676293  1
  Si0+  Si116  1  0.32159420  0.57243439  0.35157231  1
  Si0+  Si117  1  0.67684653  0.92845583  0.35048205  1
  Si0+  Si118  1  0.31845992  0.57235455  0.68267771  1
  Si0+  Si119  1  0.67506520  0.93222551  0.67983931  1
  O2-  O120  1  0.24916127  0.00059538  0.05731753  1
  O2-  O121  1  0.25415510  0.00411871  0.39706046  1
  O2-  O122  1  0.24922055  0.00096246  0.72668390  1
  O2-  O123  1  0.24947337  0.49897841  0.05602253  1
  O2-  O124  1  0.24891410  0.50702344  0.39469402  1
  O2-  O125  1  0.24805062  0.50032193  0.72548467  1
  O2-  O126  1  0.74505383  0.00313123  0.06410445  1
  O2-  O127  1  0.74383787  -0.00192623  0.39592284  1
  O2-  O128  1  0.74542066  0.00420415  0.72175378  1
  O2-  O129  1  0.75412190  0.50606176  0.05931376  1
  O2-  O130  1  0.74293559  0.50660789  0.39625029  1
  O2-  O131  1  0.74632799  0.50554565  0.73352153  1
  O2-  O132  1  -0.00042891  0.25364788  0.27197533  1
  O2-  O133  1  -0.00227812  0.25485817  0.60401371  1
  O2-  O134  1  0.00177465  0.24373242  0.94098904  1
  O2-  O135  1  -0.00096176  0.74518216  0.26781352  1
  O2-  O136  1  -0.00922443  0.74870278  0.60642875  1
  O2-  O137  1  0.00386909  0.74300068  0.93892035  1
  O2-  O138  1  0.50215472  0.25810779  0.27401091  1
  O2-  O139  1  0.50067277  0.25940326  0.60590951  1
  O2-  O140  1  0.50315046  0.25221492  0.93485916  1
  O2-  O141  1  0.49780023  0.75517687  0.27304801  1
  O2-  O142  1  0.49528115  0.75574524  0.60684671  1
  O2-  O143  1  0.49907811  0.75913078  0.94146318  1
  O2-  O144  1  0.07523184  0.17898596  0.09055253  1
  O2-  O145  1  0.06995392  0.17987987  0.43302603  1
  O2-  O146  1  0.07068163  0.18187021  0.76658747  1
  O2-  O147  1  0.07893977  0.67834450  0.08904149  1
  O2-  O148  1  0.07124553  0.67818219  0.43208085  1
  O2-  O149  1  0.07436444  0.68521747  0.76659219  1
  O2-  O150  1  0.57076702  0.18007089  0.10019660  1
  O2-  O151  1  0.57115830  0.17977757  0.43255436  1
  O2-  O152  1  0.56842406  0.17526872  0.76517838  1
  O2-  O153  1  0.56807841  0.67888931  0.10014884  1
  O2-  O154  1  0.56818121  0.67975611  0.43370671  1
  O2-  O155  1  0.56755095  0.68114488  0.76605853  1
  O2-  O156  1  0.18298991  0.42661274  0.23278978  1
  O2-  O157  1  0.18178915  0.42540195  0.57810418  1
  O2-  O158  1  0.18008943  0.42814523  0.90810391  1
  O2-  O159  1  0.18243508  0.93117563  0.23489171  1
  O2-  O160  1  0.17964969  0.92977165  0.57929165  1
  O2-  O161  1  0.18266212  0.92739519  0.90927546  1
  O2-  O162  1  0.67936448  0.42794510  0.23395059  1
  O2-  O163  1  0.67975756  0.43037095  0.57052760  1
  O2-  O164  1  0.67933944  0.43220566  0.90050724  1
  O2-  O165  1  0.67703781  0.92859696  0.24531356  1
  O2-  O166  1  0.67336004  0.93217596  0.57494640  1
  O2-  O167  1  0.68042425  0.92707024  0.90057946  1
  O2-  O168  1  0.42165318  0.31646938  0.09763013  1
  O2-  O169  1  0.42318390  0.31801286  0.42232763  1
  O2-  O170  1  0.41997941  0.31813467  0.75331900  1
  O2-  O171  1  0.41173417  0.81452499  0.08854367  1
  O2-  O172  1  0.42888949  0.82268957  0.42311040  1
  O2-  O173  1  0.42328223  0.82238523  0.75640389  1
  O2-  O174  1  0.93384920  0.32668857  0.09854542  1
  O2-  O175  1  0.93146635  0.31810186  0.42333485  1
  O2-  O176  1  0.92891600  0.32051009  0.75331533  1
  O2-  O177  1  0.93388036  0.82308638  0.09591367  1
  O2-  O178  1  0.93207300  0.82185731  0.43074255  1
  O2-  O179  1  0.93147560  0.82647592  0.75413492  1
  O2-  O180  1  0.32272514  0.06985626  0.24617802  1
  O2-  O181  1  0.32210388  0.06965601  0.57864506  1
  O2-  O182  1  0.31821805  0.07204515  0.91064103  1
  O2-  O183  1  0.32284740  0.57139561  0.24582676  1
  O2-  O184  1  0.31811695  0.57300184  0.57800413  1
  O2-  O185  1  0.31761956  0.57422615  0.91014924  1
  O2-  O186  1  0.82151994  0.07095827  0.23546738  1
  O2-  O187  1  0.82411815  0.06766474  0.57609424  1
  O2-  O188  1  0.82231085  0.06889471  0.89989814  1
  O2-  O189  1  0.81860457  0.57225814  0.23200373  1
  O2-  O190  1  0.82102682  0.57384107  0.56988183  1
  O2-  O191  1  0.82479951  0.57040522  0.90927011  1
  O2-  O192  1  0.04238941  0.08233925  0.26710066  1
  O2-  O193  1  0.03940149  0.08268231  0.60191958  1
  O2-  O194  1  0.05149545  0.08272129  0.93960070  1
  O2-  O195  1  0.05040288  0.57420070  0.26919745  1
  O2-  O196  1  0.04722806  0.57899311  0.60458921  1
  O2-  O197  1  0.05421661  0.58314666  0.93789965  1
  O2-  O198  1  0.54147383  0.08406721  0.26582771  1
  O2-  O199  1  0.53509086  0.08563608  0.59711819  1
  O2-  O200  1  0.54027103  0.07817157  0.93743174  1
  O2-  O201  1  0.53561308  0.58195219  0.26779686  1
  O2-  O202  1  0.53526380  0.58399612  0.60036078  1
  O2-  O203  1  0.53336452  0.58668741  0.93188221  1
  O2-  O204  1  0.17058901  0.20646621  0.26837143  1
  O2-  O205  1  0.16758919  0.20805492  0.59964958  1
  O2-  O206  1  0.16442957  0.20580112  0.93747185  1
  O2-  O207  1  0.17221178  0.70529492  0.26859328  1
  O2-  O208  1  0.16489064  0.71339748  0.59869861  1
  O2-  O209  1  0.16734184  0.70756972  0.93696607  1
  O2-  O210  1  0.67199267  0.20968196  0.26808465  1
  O2-  O211  1  0.66942863  0.20729668  0.60002202  1
  O2-  O212  1  0.67111907  0.20387973  0.93387919  1
  O2-  O213  1  0.66598550  0.70839207  0.26572653  1
  O2-  O214  1  0.66572035  0.71366422  0.59937059  1
  O2-  O215  1  0.66684548  0.70821820  0.93072491  1
  O2-  O216  1  0.08757310  0.45502170  0.06081933  1
  O2-  O217  1  0.08279373  0.45200351  0.40359965  1
  O2-  O218  1  0.08679646  0.45200867  0.73021249  1
  O2-  O219  1  0.08854687  0.95397662  0.06135086  1
  O2-  O220  1  0.08523340  0.96087199  0.40426935  1
  O2-  O221  1  0.08716440  0.95865942  0.73181101  1
  O2-  O222  1  0.58056934  0.45984291  0.06488182  1
  O2-  O223  1  0.57500601  0.44730453  0.39731977  1
  O2-  O224  1  0.57537130  0.45325552  0.73274894  1
  O2-  O225  1  0.57466432  0.94067747  0.06465616  1
  O2-  O226  1  0.58174991  0.95128926  0.39506676  1
  O2-  O227  1  0.58268173  0.95814952  0.72733614  1
  O2-  O228  1  0.20781283  0.33598868  0.06049940  1
  O2-  O229  1  0.21558769  0.33325862  0.40213254  1
  O2-  O230  1  0.21048110  0.33596659  0.73066057  1
  O2-  O231  1  0.21088266  0.83715490  0.06241397  1
  O2-  O232  1  0.21259953  0.83348927  0.40407167  1
  O2-  O233  1  0.20796810  0.83866640  0.73246295  1
  O2-  O234  1  0.71174489  0.33427561  0.06468762  1
  O2-  O235  1  0.71287405  0.33359258  0.40275978  1
  O2-  O236  1  0.71064325  0.33130414  0.73473233  1
  O2-  O237  1  0.71377343  0.82884560  0.06514100  1
  O2-  O238  1  0.70501457  0.83553350  0.39648829  1
  O2-  O239  1  0.70488450  0.84097362  0.72702041  1
  O2-  O240  1  0.44380530  0.41656330  0.27227426  1
  O2-  O241  1  0.44240224  0.41845232  0.60488192  1
  O2-  O242  1  0.44788090  0.42121085  0.93342720  1
  O2-  O243  1  0.44962735  0.91675367  0.27040061  1
  O2-  O244  1  0.44839006  0.91702769  0.60475775  1
  O2-  O245  1  0.44002115  0.91725317  0.94168726  1
  O2-  O246  1  0.95473723  0.41424701  0.27245358  1
  O2-  O247  1  0.95331901  0.41696871  0.60446037  1
  O2-  O248  1  0.96498273  0.41552694  0.92700397  1
  O2-  O249  1  0.96457388  0.91723808  0.26464374  1
  O2-  O250  1  0.96103045  0.91421445  0.60209363  1
  O2-  O251  1  0.96631503  0.91515368  0.92705362  1
  O2-  O252  1  0.33727782  0.28855660  0.26805043  1
  O2-  O253  1  0.33542096  0.28944797  0.59941930  1
  O2-  O254  1  0.33101665  0.28798691  0.92873223  1
  O2-  O255  1  0.33507570  0.79623672  0.27171611  1
  O2-  O256  1  0.33256606  0.79578161  0.60459405  1
  O2-  O257  1  0.33406901  0.78780941  0.93179324  1
  O2-  O258  1  0.83737852  0.29210324  0.27210184  1
  O2-  O259  1  0.83561877  0.29554507  0.60061745  1
  O2-  O260  1  0.83482703  0.29181346  0.92818628  1
  O2-  O261  1  0.83068852  0.79741707  0.26267039  1
  O2-  O262  1  0.83219352  0.80704026  0.60377640  1
  O2-  O263  1  0.83600228  0.79231404  0.92571558  1
  O2-  O264  1  0.41079393  0.04451783  0.06544440  1
  O2-  O265  1  0.41701665  0.04291322  0.39826316  1
  O2-  O266  1  0.41150566  0.04196981  0.73263793  1
  O2-  O267  1  0.41105125  0.54334796  0.06383561  1
  O2-  O268  1  0.41221826  0.54079732  0.40064289  1
  O2-  O269  1  0.40962008  0.54512661  0.73148795  1
  O2-  O270  1  0.92032856  0.03871034  0.06483952  1
  O2-  O271  1  0.91654670  0.03654485  0.40296410  1
  O2-  O272  1  0.91116161  0.03835452  0.73044682  1
  O2-  O273  1  0.91941771  0.54532470  0.05854766  1
  O2-  O274  1  0.91667862  0.54229761  0.39963357  1
  O2-  O275  1  0.91964785  0.54493771  0.73717097  1
  O2-  O276  1  0.29097012  0.16289135  0.06420208  1
  O2-  O277  1  0.30055248  0.16489066  0.39808527  1
  O2-  O278  1  0.29121009  0.16270558  0.73077585  1
  O2-  O279  1  0.29183851  0.66129916  0.06525124  1
  O2-  O280  1  0.30263726  0.66708060  0.39772049  1
  O2-  O281  1  0.28825585  0.66367841  0.73081172  1
  O2-  O282  1  0.80001610  0.17135052  0.06559580  1
  O2-  O283  1  0.79276297  0.16561189  0.40509921  1
  O2-  O284  1  0.79891255  0.16466155  0.72489929  1
  O2-  O285  1  0.80173207  0.66751966  0.05615830  1
  O2-  O286  1  0.79520709  0.67377614  0.39793112  1
  O2-  O287  1  0.79671150  0.67658512  0.73168192  1
