# generated using pymatgen
data_Ca2Al2SiO7
_symmetry_space_group_name_H-M   'P 1'
_cell_length_a   15.45978263
_cell_length_b   15.45893041
_cell_length_c   15.28416968
_cell_angle_alpha   90.00397027
_cell_angle_beta   90.01382125
_cell_angle_gamma   90.00963260
_symmetry_Int_Tables_number   1
_chemical_formula_structural   Ca2Al2SiO7
_chemical_formula_sum   'Ca48 Al48 Si24 O168'
_cell_volume   3652.78958721
_cell_formula_units_Z   24
loop_
 _symmetry_equiv_pos_site_id
 _symmetry_equiv_pos_as_xyz
  1  'x, y, z'
loop_
 _atom_type_symbol
 _atom_type_oxidation_number
  Ca2+  2.0
  Al0+  0.0
  Si0+  0.0
  O2-  -2.0
loop_
 _atom_site_type_symbol
 _atom_site_label
 _atom_site_symmetry_multiplicity
 _atom_site_fract_x
 _atom_site_fract_y
 _atom_site_fract_z
 _atom_site_occupancy
  Ca2+  Ca0  1  0.16528146  0.07318073  0.17285929  1
  Ca2+  Ca1  1  0.15679385  0.08157279  0.50205678  1
  Ca2+  Ca2  1  0.16609465  0.07943957  0.83776125  1
  Ca2+  Ca3  1  0.17212719  0.57298913  0.17642936  1
  Ca2+  Ca4  1  0.16694688  0.57447325  0.50481202  1
  Ca2+  Ca5  1  0.16026456  0.57221629  0.83594943  1
  Ca2+  Ca6  1  0.67745167  0.08280330  0.17313101  1
  Ca2+  Ca7  1  0.67547564  0.08400921  0.50845812  1
  Ca2+  Ca8  1  0.67447630  0.07782228  0.83743034  1
  Ca2+  Ca9  1  0.66307184  0.57507797  0.17311586  1
  Ca2+  Ca10  1  0.67224072  0.58086445  0.49820547  1
  Ca2+  Ca11  1  0.66473329  0.57860232  0.84066070  1
  Ca2+  Ca12  1  0.08923319  0.33069400  0.16457094  1
  Ca2+  Ca13  1  0.08952396  0.32401812  0.49542442  1
  Ca2+  Ca14  1  0.08394296  0.32933469  0.82327561  1
  Ca2+  Ca15  1  0.08049982  0.83899601  0.16582366  1
  Ca2+  Ca16  1  0.07065664  0.83477436  0.49302187  1
  Ca2+  Ca17  1  0.07822607  0.82898367  0.82427979  1
  Ca2+  Ca18  1  0.59340860  0.33142588  0.16464893  1
  Ca2+  Ca19  1  0.58647674  0.32361004  0.49368522  1
  Ca2+  Ca20  1  0.57821923  0.32887713  0.82398830  1
  Ca2+  Ca21  1  0.57744723  0.82587668  0.15334581  1
  Ca2+  Ca22  1  0.58443182  0.83633403  0.49611014  1
  Ca2+  Ca23  1  0.58676002  0.83612004  0.83292865  1
  Ca2+  Ca24  1  0.32528990  0.42274754  0.17460104  1
  Ca2+  Ca25  1  0.32630831  0.41469861  0.50236140  1
  Ca2+  Ca26  1  0.32301088  0.40951520  0.83486609  1
  Ca2+  Ca27  1  0.32276352  0.90784383  0.16892233  1
  Ca2+  Ca28  1  0.32460445  0.91743597  0.50071418  1
  Ca2+  Ca29  1  0.32808191  0.91637291  0.84120837  1
  Ca2+  Ca30  1  0.82281122  0.42521887  0.17377269  1
  Ca2+  Ca31  1  0.83180931  0.41852981  0.49779217  1
  Ca2+  Ca32  1  0.82719165  0.41832377  0.84003429  1
  Ca2+  Ca33  1  0.83260616  0.92500787  0.17125404  1
  Ca2+  Ca34  1  0.83467947  0.92378065  0.50666907  1
  Ca2+  Ca35  1  0.82905206  0.92527630  0.83460384  1
  Ca2+  Ca36  1  0.42550102  0.16676917  0.16587447  1
  Ca2+  Ca37  1  0.42924769  0.17076681  0.49760679  1
  Ca2+  Ca38  1  0.42462013  0.17268409  0.82162568  1
  Ca2+  Ca39  1  0.41840040  0.66799222  0.15958637  1
  Ca2+  Ca40  1  0.41502076  0.66485080  0.49562047  1
  Ca2+  Ca41  1  0.42160201  0.67200909  0.83606594  1
  Ca2+  Ca42  1  0.91803340  0.16080811  0.16831691  1
  Ca2+  Ca43  1  0.92323523  0.15914287  0.49389726  1
  Ca2+  Ca44  1  0.91854425  0.16234075  0.82860298  1
  Ca2+  Ca45  1  0.90951944  0.67308817  0.16688422  1
  Ca2+  Ca46  1  0.91604916  0.67739193  0.49512655  1
  Ca2+  Ca47  1  0.92319433  0.67488469  0.82177665  1
  Al0+  Al48  1  0.00188492  0.00062786  0.00554896  1
  Al0+  Al49  1  -0.00075160  -0.00061055  0.33101280  1
  Al0+  Al50  1  -0.00119304  -0.00026187  0.66528824  1
  Al0+  Al51  1  -0.00119923  0.49803831  0.00401071  1
  Al0+  Al52  1  -0.00024880  0.50040340  0.34000912  1
  Al0+  Al53  1  0.00091189  0.49986977  0.66738964  1
  Al0+  Al54  1  0.50035579  0.00073207  -0.00213708  1
  Al0+  Al55  1  0.49860622  0.00018314  0.32582757  1
  Al0+  Al56  1  0.49930945  -0.00042318  0.66586465  1
  Al0+  Al57  1  0.49878336  0.49932135  -0.00159926  1
  Al0+  Al58  1  0.49865174  0.49911147  0.34124068  1
  Al0+  Al59  1  0.49710520  0.50297492  0.66359136  1
  Al0+  Al60  1  0.25037902  0.24796624  0.00387426  1
  Al0+  Al61  1  0.25295061  0.24819732  0.32989392  1
  Al0+  Al62  1  0.24989956  0.25045177  0.66304193  1
  Al0+  Al63  1  0.24973937  0.74899892  -0.00172605  1
  Al0+  Al64  1  0.24781386  0.75026360  0.34178462  1
  Al0+  Al65  1  0.25206307  0.74718089  0.66446049  1
  Al0+  Al66  1  0.75304961  0.25189641  0.00560410  1
  Al0+  Al67  1  0.75241609  0.24910966  0.33562794  1
  Al0+  Al68  1  0.75122375  0.25072663  0.66832459  1
  Al0+  Al69  1  0.75109537  0.75155221  -0.00435370  1
  Al0+  Al70  1  0.74851519  0.75016269  0.33009288  1
  Al0+  Al71  1  0.74903320  0.75033533  0.66671477  1
  Al0+  Al72  1  0.17757241  0.42694854  0.01377843  1
  Al0+  Al73  1  0.07167572  0.18010805  0.31712469  1
  Al0+  Al74  1  0.82113687  0.07076450  0.01767779  1
  Al0+  Al75  1  0.82266907  0.07239065  0.68247361  1
  Al0+  Al76  1  0.67952408  0.42818028  0.35020810  1
  Al0+  Al77  1  0.32033540  0.57157314  0.34924594  1
  Al0+  Al78  1  0.67677937  0.92807960  0.68150361  1
  Al0+  Al79  1  0.57268589  0.17893835  0.65275278  1
  Al0+  Al80  1  0.17907018  0.93157428  0.34863850  1
  Al0+  Al81  1  0.67753635  0.43122762  0.01120897  1
  Al0+  Al82  1  0.92909577  0.82012716  0.65178039  1
  Al0+  Al83  1  0.82059004  0.57483334  0.34858548  1
  Al0+  Al84  1  0.17871106  0.42560465  0.34977710  1
  Al0+  Al85  1  0.57355490  0.17968483  0.31748201  1
  Al0+  Al86  1  0.67749513  0.92768596  0.01624892  1
  Al0+  Al87  1  0.06914536  0.17979185  0.65511936  1
  Al0+  Al88  1  0.57207666  0.67791806  0.98478839  1
  Al0+  Al89  1  0.92833992  0.82006736  0.31675460  1
  Al0+  Al90  1  0.18113991  0.92809464  0.01187359  1
  Al0+  Al91  1  0.18078438  0.42931594  0.68143487  1
  Al0+  Al92  1  0.42833359  0.32270433  0.65077686  1
  Al0+  Al93  1  0.42748806  0.82214150  0.98440457  1
  Al0+  Al94  1  0.07290725  0.67662889  0.65072640  1
  Al0+  Al95  1  0.82005077  0.06849104  0.34838799  1
  Si0+  Si96  1  0.56890064  0.67859378  0.31976335  1
  Si0+  Si97  1  0.42779275  0.31923132  0.98588850  1
  Si0+  Si98  1  0.57081726  0.67936078  0.64997663  1
  Si0+  Si99  1  0.67751306  0.43052165  0.68092858  1
  Si0+  Si100  1  0.42823286  0.82185313  0.65022071  1
  Si0+  Si101  1  0.32392202  0.57432242  0.68850501  1
  Si0+  Si102  1  0.42629192  0.82044177  0.31900944  1
  Si0+  Si103  1  0.06982349  0.67664415  0.98713800  1
  Si0+  Si104  1  0.67515402  0.92842335  0.34696560  1
  Si0+  Si105  1  0.82020265  0.57096428  0.68207915  1
  Si0+  Si106  1  0.93111076  0.82323100  0.98425342  1
  Si0+  Si107  1  0.07146741  0.17940969  0.98551268  1
  Si0+  Si108  1  0.82272981  0.57299098  0.01376373  1
  Si0+  Si109  1  0.43035494  0.32267303  0.31432949  1
  Si0+  Si110  1  0.32004828  0.57026758  0.01474342  1
  Si0+  Si111  1  0.92665520  0.32418754  0.65088766  1
  Si0+  Si112  1  0.32497309  0.07130723  0.34997476  1
  Si0+  Si113  1  0.92994513  0.32178338  0.98570072  1
  Si0+  Si114  1  0.07231828  0.67803674  0.31653036  1
  Si0+  Si115  1  0.17953081  0.92805835  0.68031785  1
  Si0+  Si116  1  0.32335622  0.07305362  0.01620700  1
  Si0+  Si117  1  0.57435936  0.18088217  0.98525578  1
  Si0+  Si118  1  0.32028588  0.07032074  0.67993994  1
  Si0+  Si119  1  0.92868994  0.32439951  0.31546750  1
  O2-  O120  1  0.25960575  -0.00110534  0.05870189  1
  O2-  O121  1  0.25235399  0.00758025  0.39551701  1
  O2-  O122  1  0.24983947  -0.00087232  0.72348839  1
  O2-  O123  1  0.25116392  0.50238054  0.05924405  1
  O2-  O124  1  0.24878062  0.49950477  0.39925611  1
  O2-  O125  1  0.25425551  0.50493536  0.73034990  1
  O2-  O126  1  0.74791300  -0.00013183  0.06759117  1
  O2-  O127  1  0.74213974  -0.00313832  0.39331186  1
  O2-  O128  1  0.74789170  0.00186910  0.73015642  1
  O2-  O129  1  0.74729830  0.51110810  0.05645773  1
  O2-  O130  1  0.75176578  0.50030482  0.39981621  1
  O2-  O131  1  0.74948059  0.49977296  0.72491913  1
  O2-  O132  1  0.00077956  0.25903512  0.27034180  1
  O2-  O133  1  -0.00653620  0.25314519  0.60834370  1
  O2-  O134  1  0.00181579  0.25152355  0.94329270  1
  O2-  O135  1  0.00161749  0.74318804  0.26950515  1
  O2-  O136  1  0.00263334  0.74998077  0.60108470  1
  O2-  O137  1  0.00008398  0.74880800  0.94398763  1
  O2-  O138  1  0.50144622  0.25682768  0.26895683  1
  O2-  O139  1  0.50459762  0.25458276  0.60215305  1
  O2-  O140  1  0.50080662  0.25007256  0.94350269  1
  O2-  O141  1  0.49706580  0.74889484  0.27802498  1
  O2-  O142  1  0.50123605  0.75245665  0.60874739  1
  O2-  O143  1  0.50416899  0.75446088  0.93436722  1
  O2-  O144  1  0.07201758  0.17990212  0.09027936  1
  O2-  O145  1  0.06885081  0.17929197  0.43021718  1
  O2-  O146  1  0.07081465  0.18045794  0.76900599  1
  O2-  O147  1  0.06904157  0.67557244  0.09191610  1
  O2-  O148  1  0.07283473  0.68220118  0.42171009  1
  O2-  O149  1  0.06983025  0.67748495  0.76568804  1
  O2-  O150  1  0.57349745  0.18280841  0.09034062  1
  O2-  O151  1  0.57085083  0.17804508  0.43019750  1
  O2-  O152  1  0.57009519  0.18087717  0.76718531  1
  O2-  O153  1  0.56715304  0.67482112  0.09852913  1
  O2-  O154  1  0.56969493  0.68142692  0.42519628  1
  O2-  O155  1  0.56994899  0.67625638  0.75484731  1
  O2-  O156  1  0.18202079  0.42771550  0.23548701  1
  O2-  O157  1  0.18260560  0.42816878  0.56927614  1
  O2-  O158  1  0.17793245  0.42612869  0.90058162  1
  O2-  O159  1  0.18211997  0.93001211  0.23525700  1
  O2-  O160  1  0.18091694  0.92967521  0.57543075  1
  O2-  O161  1  0.17960519  0.93106535  0.89818839  1
  O2-  O162  1  0.67905753  0.43170011  0.23625463  1
  O2-  O163  1  0.67892539  0.43210205  0.57636769  1
  O2-  O164  1  0.68011646  0.42975182  0.89753019  1
  O2-  O165  1  0.67539696  0.92906487  0.24155184  1
  O2-  O166  1  0.67586180  0.92751264  0.56770838  1
  O2-  O167  1  0.68021123  0.93040840  0.90289356  1
  O2-  O168  1  0.42658206  0.31801945  0.09063294  1
  O2-  O169  1  0.43016242  0.32008997  0.41959811  1
  O2-  O170  1  0.42899760  0.31927268  0.76557568  1
  O2-  O171  1  0.42387402  0.81579499  0.09808787  1
  O2-  O172  1  0.42834758  0.82249981  0.42442364  1
  O2-  O173  1  0.42504497  0.82120017  0.75497928  1
  O2-  O174  1  0.93012550  0.32446659  0.09014274  1
  O2-  O175  1  0.92736795  0.32230318  0.42110669  1
  O2-  O176  1  0.92757211  0.32658403  0.75719738  1
  O2-  O177  1  0.93184109  0.82288932  0.08929825  1
  O2-  O178  1  0.92865549  0.82023356  0.42941256  1
  O2-  O179  1  0.93202330  0.81884283  0.76627084  1
  O2-  O180  1  0.32663032  0.06779917  0.24416733  1
  O2-  O181  1  0.32114237  0.06747029  0.57510156  1
  O2-  O182  1  0.31902214  0.07776960  0.91035905  1
  O2-  O183  1  0.32005268  0.57163487  0.23497073  1
  O2-  O184  1  0.32504277  0.57608336  0.58342699  1
  O2-  O185  1  0.31958569  0.56969982  0.90923333  1
  O2-  O186  1  0.81982729  0.06706014  0.23534303  1
  O2-  O187  1  0.82354702  0.07026959  0.56917573  1
  O2-  O188  1  0.82275365  0.07114697  0.90428620  1
  O2-  O189  1  0.81556360  0.57535733  0.23448197  1
  O2-  O190  1  0.81802610  0.57133099  0.57747567  1
  O2-  O191  1  0.82684431  0.56789069  0.90794240  1
  O2-  O192  1  0.03679605  0.08470399  0.26289066  1
  O2-  O193  1  0.04095975  0.08310578  0.60073338  1
  O2-  O194  1  0.04260513  0.08734609  0.93879500  1
  O2-  O195  1  0.05089278  0.58177759  0.27384930  1
  O2-  O196  1  0.04297219  0.57870781  0.59909660  1
  O2-  O197  1  0.03970821  0.58495626  0.93929428  1
  O2-  O198  1  0.53854998  0.08465767  0.26114720  1
  O2-  O199  1  0.53992430  0.08179881  0.59997575  1
  O2-  O200  1  0.54852818  0.08853380  0.93853969  1
  O2-  O201  1  0.54083302  0.58556482  0.27496868  1
  O2-  O202  1  0.54086274  0.58942011  0.60028423  1
  O2-  O203  1  0.53881180  0.58071299  0.92970106  1
  O2-  O204  1  0.17103923  0.20401142  0.26370812  1
  O2-  O205  1  0.16488736  0.20950795  0.59987414  1
  O2-  O206  1  0.16444151  0.20540908  0.93883803  1
  O2-  O207  1  0.16563771  0.70786320  0.27129029  1
  O2-  O208  1  0.17321850  0.70033441  0.60073861  1
  O2-  O209  1  0.16155326  0.70234789  0.93886031  1
  O2-  O210  1  0.67070336  0.21031993  0.26441386  1
  O2-  O211  1  0.67210313  0.20590224  0.60176288  1
  O2-  O212  1  0.66581190  0.21215246  0.93943464  1
  O2-  O213  1  0.65939755  0.70541787  0.26991070  1
  O2-  O214  1  0.66280961  0.70526364  0.60249569  1
  O2-  O215  1  0.67228108  0.70065028  0.93146503  1
  O2-  O216  1  0.08135212  0.45653440  0.06834996  1
  O2-  O217  1  0.07925601  0.44892950  0.40124082  1
  O2-  O218  1  0.08294116  0.45893119  0.73585027  1
  O2-  O219  1  0.08794574  0.96277271  0.06889286  1
  O2-  O220  1  0.08297694  0.96322736  0.40108704  1
  O2-  O221  1  0.08794287  0.95550071  0.72767089  1
  O2-  O222  1  0.57968469  0.45637307  0.06538265  1
  O2-  O223  1  0.58185761  0.45559824  0.40378933  1
  O2-  O224  1  0.58529822  0.46071244  0.72653165  1
  O2-  O225  1  0.57611698  0.95137472  0.06529523  1
  O2-  O226  1  0.58000035  0.95212775  0.39074600  1
  O2-  O227  1  0.57696576  0.95422521  0.73382250  1
  O2-  O228  1  0.20990826  0.33119223  0.06768802  1
  O2-  O229  1  0.21088568  0.32672871  0.39938886  1
  O2-  O230  1  0.21345064  0.33225015  0.73537679  1
  O2-  O231  1  0.20840789  0.83042360  0.06602522  1
  O2-  O232  1  0.21058475  0.83701651  0.40502540  1
  O2-  O233  1  0.20870168  0.83569251  0.72603826  1
  O2-  O234  1  0.71393357  0.33832630  0.06761401  1
  O2-  O235  1  0.71040958  0.33091089  0.40264402  1
  O2-  O236  1  0.70341475  0.33853984  0.72895009  1
  O2-  O237  1  0.70459977  0.82710151  0.06559878  1
  O2-  O238  1  0.69951017  0.83427107  0.39138380  1
  O2-  O239  1  0.70507090  0.82905246  0.73437075  1
  O2-  O240  1  0.45322127  0.41841621  0.27111230  1
  O2-  O241  1  0.45008117  0.42343856  0.60061382  1
  O2-  O242  1  0.45217603  0.41145321  0.93799149  1
  O2-  O243  1  0.45164412  0.91116794  0.26851280  1
  O2-  O244  1  0.45303306  0.91366804  0.60166345  1
  O2-  O245  1  0.44873833  0.92329050  0.93265039  1
  O2-  O246  1  0.94933270  0.42057831  0.27153180  1
  O2-  O247  1  0.95333064  0.41662383  0.60425511  1
  O2-  O248  1  0.95656561  0.41361801  0.93634430  1
  O2-  O249  1  0.96395537  0.91438725  0.26174142  1
  O2-  O250  1  0.95805502  0.91783203  0.59912090  1
  O2-  O251  1  0.96441016  0.91387663  0.93794093  1
  O2-  O252  1  0.33837668  0.29412066  0.26595282  1
  O2-  O253  1  0.33308358  0.28874142  0.59664115  1
  O2-  O254  1  0.33663053  0.28776797  0.93787215  1
  O2-  O255  1  0.33378259  0.79111300  0.27387492  1
  O2-  O256  1  0.33797404  0.79167735  0.60078594  1
  O2-  O257  1  0.33040268  0.78919113  0.92890754  1
  O2-  O258  1  0.83648039  0.29476635  0.26861397  1
  O2-  O259  1  0.83225988  0.30262653  0.60560168  1
  O2-  O260  1  0.83844962  0.29311571  0.93711073  1
  O2-  O261  1  0.83127534  0.78943390  0.26177037  1
  O2-  O262  1  0.83076551  0.78999911  0.60000402  1
  O2-  O263  1  0.83905567  0.79911570  0.93600923  1
  O2-  O264  1  0.41897932  0.05415908  0.05972486  1
  O2-  O265  1  0.41654205  0.03973803  0.39686990  1
  O2-  O266  1  0.41108167  0.04228421  0.72934903  1
  O2-  O267  1  0.41291680  0.54339894  0.06115719  1
  O2-  O268  1  0.41772038  0.54486035  0.40477528  1
  O2-  O269  1  0.41803530  0.54884189  0.73425131  1
  O2-  O270  1  0.91925154  0.04083000  0.07014209  1
  O2-  O271  1  0.91577354  0.03462510  0.40040639  1
  O2-  O272  1  0.92027819  0.04022752  0.73679010  1
  O2-  O273  1  0.91186781  0.54077307  0.06466649  1
  O2-  O274  1  0.91961871  0.55127792  0.40139265  1
  O2-  O275  1  0.91197927  0.54359474  0.72994564  1
  O2-  O276  1  0.29262027  0.16267711  0.06726498  1
  O2-  O277  1  0.30524413  0.16674964  0.39271922  1
  O2-  O278  1  0.29197186  0.16166856  0.72772610  1
  O2-  O279  1  0.29479960  0.66358315  0.06075818  1
  O2-  O280  1  0.29346000  0.66901752  0.40477000  1
  O2-  O281  1  0.29882035  0.66841785  0.73464473  1
  O2-  O282  1  0.79508082  0.16989305  0.07007371  1
  O2-  O283  1  0.79485815  0.16639504  0.40069030  1
  O2-  O284  1  0.79814754  0.17258182  0.73537576  1
  O2-  O285  1  0.80516321  0.66943207  0.05535197  1
  O2-  O286  1  0.78618186  0.67124104  0.40248663  1
  O2-  O287  1  0.79121767  0.66187200  0.73050907  1
