# generated using pymatgen
data_Ca2Al2SiO7
_symmetry_space_group_name_H-M   'P 1'
_cell_length_a   15.45734551
_cell_length_b   15.45776832
_cell_length_c   15.28339429
_cell_angle_alpha   90.00088948
_cell_angle_beta   90.00928887
_cell_angle_gamma   90.00081572
_symmetry_Int_Tables_number   1
_chemical_formula_structural   Ca2Al2SiO7
_chemical_formula_sum   'Ca48 Al48 Si24 O168'
_cell_volume   3651.75405369
_cell_formula_units_Z   24
loop_
 _symmetry_equiv_pos_site_id
 _symmetry_equiv_pos_as_xyz
  1  'x, y, z'
loop_
 _atom_type_symbol
 _atom_type_oxidation_number
  Ca2+  2.0
  Al0+  0.0
  Si0+  0.0
  O2-  -2.0
loop_
 _atom_site_type_symbol
 _atom_site_label
 _atom_site_symmetry_multiplicity
 _atom_site_fract_x
 _atom_site_fract_y
 _atom_site_fract_z
 _atom_site_occupancy
  Ca2+  Ca0  1  0.16503003  0.07630236  0.17329910  1
  Ca2+  Ca1  1  0.16853830  0.08614483  0.49691717  1
  Ca2+  Ca2  1  0.16398338  0.08375210  0.84034689  1
  Ca2+  Ca3  1  0.16122719  0.57654785  0.16677950  1
  Ca2+  Ca4  1  0.17245240  0.57340415  0.50967719  1
  Ca2+  Ca5  1  0.16438651  0.56947877  0.84258931  1
  Ca2+  Ca6  1  0.67223443  0.06959846  0.17694666  1
  Ca2+  Ca7  1  0.67438270  0.08634872  0.50702713  1
  Ca2+  Ca8  1  0.67116874  0.08367382  0.83764828  1
  Ca2+  Ca9  1  0.66816709  0.59240029  0.16727356  1
  Ca2+  Ca10  1  0.66785647  0.57949879  0.50713999  1
  Ca2+  Ca11  1  0.67330388  0.58143897  0.83819026  1
  Ca2+  Ca12  1  0.08724297  0.31972609  0.15972063  1
  Ca2+  Ca13  1  0.08639928  0.32202097  0.49782556  1
  Ca2+  Ca14  1  0.08929427  0.32500567  0.82843189  1
  Ca2+  Ca15  1  0.07943086  0.83474682  0.15520579  1
  Ca2+  Ca16  1  0.08243904  0.83402502  0.49351146  1
  Ca2+  Ca17  1  0.07896963  0.83187862  0.83550510  1
  Ca2+  Ca18  1  0.57000127  0.33061268  0.16094841  1
  Ca2+  Ca19  1  0.57691299  0.33444896  0.49671232  1
  Ca2+  Ca20  1  0.57367480  0.33401510  0.82398928  1
  Ca2+  Ca21  1  0.58914369  0.82969630  0.16246728  1
  Ca2+  Ca22  1  0.58108994  0.82686565  0.48810775  1
  Ca2+  Ca23  1  0.59364910  0.82892519  0.83550664  1
  Ca2+  Ca24  1  0.33268908  0.41125103  0.16627453  1
  Ca2+  Ca25  1  0.33253178  0.40911474  0.50392096  1
  Ca2+  Ca26  1  0.32688321  0.40634065  0.83668583  1
  Ca2+  Ca27  1  0.32138902  0.91896627  0.17777086  1
  Ca2+  Ca28  1  0.33320606  0.91950521  0.49749609  1
  Ca2+  Ca29  1  0.32558128  0.92202800  0.84262339  1
  Ca2+  Ca30  1  0.83636706  0.42638216  0.16758388  1
  Ca2+  Ca31  1  0.82411000  0.42341203  0.51270102  1
  Ca2+  Ca32  1  0.82970325  0.42581340  0.83649459  1
  Ca2+  Ca33  1  0.82740410  0.91537879  0.16940231  1
  Ca2+  Ca34  1  0.82793429  0.92746003  0.49833403  1
  Ca2+  Ca35  1  0.83147356  0.92145497  0.83961011  1
  Ca2+  Ca36  1  0.40529961  0.17462547  0.16551544  1
  Ca2+  Ca37  1  0.41818126  0.17568806  0.49642729  1
  Ca2+  Ca38  1  0.42292517  0.17610578  0.82680883  1
  Ca2+  Ca39  1  0.42807911  0.67446879  0.16468981  1
  Ca2+  Ca40  1  0.42364717  0.67312031  0.48850379  1
  Ca2+  Ca41  1  0.42207916  0.66778078  0.83395302  1
  Ca2+  Ca42  1  0.92653451  0.15753306  0.16535530  1
  Ca2+  Ca43  1  0.92345037  0.15652617  0.49640140  1
  Ca2+  Ca44  1  0.92822991  0.16115281  0.82694321  1
  Ca2+  Ca45  1  0.92147235  0.67452845  0.15277480  1
  Ca2+  Ca46  1  0.91556453  0.66528764  0.49800801  1
  Ca2+  Ca47  1  0.91224968  0.66770125  0.83647541  1
  Al0+  Al48  1  0.00078440  -0.00031280  -0.00530974  1
  Al0+  Al49  1  -0.00045244  -0.00212380  0.33634706  1
  Al0+  Al50  1  -0.00139797  -0.00210311  0.66476047  1
  Al0+  Al51  1  0.00009519  0.49871227  0.00686170  1
  Al0+  Al52  1  -0.00057205  0.49790992  0.33574290  1
  Al0+  Al53  1  0.00186054  0.50026869  0.67366625  1
  Al0+  Al54  1  0.50041515  0.00170717  0.00515907  1
  Al0+  Al55  1  0.49734553  0.00035799  0.33787764  1
  Al0+  Al56  1  0.49885098  -0.00002680  0.66439668  1
  Al0+  Al57  1  0.49846818  0.50092578  -0.00867660  1
  Al0+  Al58  1  0.49989633  0.50019800  0.32416083  1
  Al0+  Al59  1  0.49886475  0.50273055  0.66597913  1
  Al0+  Al60  1  0.24963206  0.25097475  -0.00423982  1
  Al0+  Al61  1  0.24784746  0.24793728  0.32889142  1
  Al0+  Al62  1  0.25040757  0.24783274  0.66236775  1
  Al0+  Al63  1  0.25071064  0.74849503  -0.00047317  1
  Al0+  Al64  1  0.25100625  0.74681856  0.33427986  1
  Al0+  Al65  1  0.24855456  0.74970333  0.66690492  1
  Al0+  Al66  1  0.75064880  0.25157002  0.00300639  1
  Al0+  Al67  1  0.75043403  0.25317594  0.33512669  1
  Al0+  Al68  1  0.75126710  0.25026015  0.67457939  1
  Al0+  Al69  1  0.75069724  0.75092695  -0.00141148  1
  Al0+  Al70  1  0.75293490  0.75008339  0.33541535  1
  Al0+  Al71  1  0.75097880  0.75194409  0.66663240  1
  Al0+  Al72  1  0.57408102  0.17794263  0.65241305  1
  Al0+  Al73  1  0.18060267  0.42846232  0.01562738  1
  Al0+  Al74  1  0.57275229  0.68113649  0.31802612  1
  Al0+  Al75  1  0.42973349  0.31871539  0.31753511  1
  Al0+  Al76  1  0.06928396  0.17783309  0.65045700  1
  Al0+  Al77  1  0.07312508  0.67601572  0.98508961  1
  Al0+  Al78  1  0.18287882  0.42740857  0.67958470  1
  Al0+  Al79  1  0.67614037  0.42913427  0.68218290  1
  Al0+  Al80  1  0.17921199  0.92859934  0.01155723  1
  Al0+  Al81  1  0.67784407  0.92701624  0.34911223  1
  Al0+  Al82  1  0.82137401  0.57344777  0.68290786  1
  Al0+  Al83  1  0.81856114  0.56954464  0.01554539  1
  Al0+  Al84  1  0.81987823  0.07243761  0.34771538  1
  Al0+  Al85  1  0.42703013  0.82416977  0.31824319  1
  Al0+  Al86  1  0.82174831  0.07085466  0.68191329  1
  Al0+  Al87  1  0.43028623  0.31913697  0.98425731  1
  Al0+  Al88  1  0.31985781  0.07348819  0.34950021  1
  Al0+  Al89  1  0.67971320  0.93084704  0.01323212  1
  Al0+  Al90  1  0.17863253  0.92605498  0.34914588  1
  Al0+  Al91  1  0.06813567  0.18057501  0.98586042  1
  Al0+  Al92  1  0.06689498  0.17944160  0.31888880  1
  Al0+  Al93  1  0.43019013  0.32159570  0.65009365  1
  Al0+  Al94  1  0.57084185  0.68210620  0.98392136  1
  Al0+  Al95  1  0.92941330  0.82065431  0.98347935  1
  Si0+  Si96  1  0.32062100  0.06937092  0.68198389  1
  Si0+  Si97  1  0.32223062  0.56831237  0.34675168  1
  Si0+  Si98  1  0.93232869  0.81837055  0.31946815  1
  Si0+  Si99  1  0.07175779  0.67454004  0.32066501  1
  Si0+  Si100  1  0.92587044  0.32539064  0.31676984  1
  Si0+  Si101  1  0.82364733  0.07354032  0.01606081  1
  Si0+  Si102  1  0.32447604  0.57238308  0.01791403  1
  Si0+  Si103  1  0.07140674  0.67783175  0.65142725  1
  Si0+  Si104  1  0.67452426  0.42809489  0.01798128  1
  Si0+  Si105  1  0.67689561  0.43108618  0.34603628  1
  Si0+  Si106  1  0.92921056  0.81982752  0.64843961  1
  Si0+  Si107  1  0.92911649  0.32462811  0.65241138  1
  Si0+  Si108  1  0.57475657  0.17666783  0.98598817  1
  Si0+  Si109  1  0.42752427  0.82498406  0.98388160  1
  Si0+  Si110  1  0.17849919  0.92728730  0.68242533  1
  Si0+  Si111  1  0.32103526  0.07230570  0.01521856  1
  Si0+  Si112  1  0.57101743  0.68240152  0.65197245  1
  Si0+  Si113  1  0.67622403  0.92948847  0.68281175  1
  Si0+  Si114  1  0.92570517  0.32379899  0.98372772  1
  Si0+  Si115  1  0.42521606  0.82128621  0.65217480  1
  Si0+  Si116  1  0.17902967  0.42847922  0.34826010  1
  Si0+  Si117  1  0.57568802  0.17776190  0.31736225  1
  Si0+  Si118  1  0.32149517  0.57557939  0.68384335  1
  Si0+  Si119  1  0.82203856  0.57031474  0.34848831  1
  O2-  O120  1  0.25614353  -0.00008949  0.05859221  1
  O2-  O121  1  0.25155618  -0.00295167  0.39973668  1
  O2-  O122  1  0.24910898  -0.00137556  0.72412665  1
  O2-  O123  1  0.25313466  0.50592444  0.06231783  1
  O2-  O124  1  0.25076561  0.49850517  0.39062113  1
  O2-  O125  1  0.25750007  0.50224211  0.72671645  1
  O2-  O126  1  0.75155471  0.00834342  0.05932613  1
  O2-  O127  1  0.74223156  0.00639306  0.39850767  1
  O2-  O128  1  0.74152812  0.00120672  0.72697831  1
  O2-  O129  1  0.74356177  0.49563688  0.06411488  1
  O2-  O130  1  0.74954669  0.50053972  0.38909146  1
  O2-  O131  1  0.74941104  0.50070306  0.73124031  1
  O2-  O132  1  -0.01003172  0.25241739  0.27303270  1
  O2-  O133  1  -0.00626218  0.25333842  0.60547670  1
  O2-  O134  1  -0.00815554  0.25336826  0.93871139  1
  O2-  O135  1  0.00537920  0.74905406  0.27851685  1
  O2-  O136  1  -0.00077942  0.74662335  0.60710915  1
  O2-  O137  1  0.00204104  0.74824594  0.93372292  1
  O2-  O138  1  0.50268164  0.24151715  0.27175896  1
  O2-  O139  1  0.50612356  0.25325535  0.60079886  1
  O2-  O140  1  0.50904636  0.24750752  0.94088997  1
  O2-  O141  1  0.50543611  0.75840164  0.26905973  1
  O2-  O142  1  0.49834215  0.75187057  0.61067153  1
  O2-  O143  1  0.49723516  0.75854861  0.93697582  1
  O2-  O144  1  0.06792314  0.17945424  0.09898682  1
  O2-  O145  1  0.06740933  0.18241229  0.43208230  1
  O2-  O146  1  0.07030193  0.17734201  0.76351098  1
  O2-  O147  1  0.06987186  0.67715535  0.09944611  1
  O2-  O148  1  0.06821532  0.67109279  0.42621679  1
  O2-  O149  1  0.07457853  0.68025437  0.75564774  1
  O2-  O150  1  0.57473070  0.17704611  0.09151322  1
  O2-  O151  1  0.57924762  0.18466133  0.42258255  1
  O2-  O152  1  0.56812780  0.17450988  0.76619874  1
  O2-  O153  1  0.57035004  0.68298736  0.09666472  1
  O2-  O154  1  0.57044940  0.67768912  0.43231489  1
  O2-  O155  1  0.57174151  0.68427035  0.75692536  1
  O2-  O156  1  0.17743856  0.43076178  0.24342669  1
  O2-  O157  1  0.18311888  0.43040450  0.56573005  1
  O2-  O158  1  0.18343428  0.42638604  0.90254181  1
  O2-  O159  1  0.17604255  0.92653453  0.23567509  1
  O2-  O160  1  0.18021180  0.92365716  0.57762645  1
  O2-  O161  1  0.18065657  0.93149118  0.89772372  1
  O2-  O162  1  0.67756133  0.43169685  0.24114913  1
  O2-  O163  1  0.67614836  0.43377288  0.56758812  1
  O2-  O164  1  0.67602513  0.42899183  0.91266832  1
  O2-  O165  1  0.68513950  0.92405291  0.23569559  1
  O2-  O166  1  0.67793221  0.92636403  0.57756924  1
  O2-  O167  1  0.68067894  0.93312228  0.89975126  1
  O2-  O168  1  0.42944744  0.31712717  0.09763892  1
  O2-  O169  1  0.43167016  0.32177990  0.43023080  1
  O2-  O170  1  0.42845720  0.31735521  0.76346373  1
  O2-  O171  1  0.42736766  0.82334364  0.08884087  1
  O2-  O172  1  0.42519766  0.81552677  0.43253623  1
  O2-  O173  1  0.42224859  0.82014014  0.75720318  1
  O2-  O174  1  0.92614102  0.32302689  0.08966329  1
  O2-  O175  1  0.92888631  0.33312443  0.42192526  1
  O2-  O176  1  0.93373247  0.32562688  0.75780087  1
  O2-  O177  1  0.93025385  0.82038132  0.09758821  1
  O2-  O178  1  0.93156819  0.81542781  0.42503949  1
  O2-  O179  1  0.92975108  0.82123163  0.75301569  1
  O2-  O180  1  0.31249488  0.07667300  0.23593174  1
  O2-  O181  1  0.32067757  0.06814878  0.57728634  1
  O2-  O182  1  0.32107223  0.07102479  0.90899992  1
  O2-  O183  1  0.32125693  0.56826933  0.24206704  1
  O2-  O184  1  0.31801322  0.58053693  0.57796670  1
  O2-  O185  1  0.32502321  0.57178254  0.91208780  1
  O2-  O186  1  0.82145157  0.06860535  0.23407347  1
  O2-  O187  1  0.82411528  0.06564013  0.56908129  1
  O2-  O188  1  0.82338643  0.07254592  0.91035060  1
  O2-  O189  1  0.82509218  0.56997678  0.24382947  1
  O2-  O190  1  0.81926984  0.57349157  0.56833593  1
  O2-  O191  1  0.81667030  0.56815328  0.90283664  1
  O2-  O192  1  0.03707697  0.08110296  0.26755641  1
  O2-  O193  1  0.03816324  0.08053873  0.59765170  1
  O2-  O194  1  0.03932744  0.08481043  0.92946476  1
  O2-  O195  1  0.03985539  0.58426050  0.27229590  1
  O2-  O196  1  0.04540461  0.58503936  0.60442549  1
  O2-  O197  1  0.04286285  0.57659022  0.93561177  1
  O2-  O198  1  0.55509084  0.08106416  0.27691117  1
  O2-  O199  1  0.54295300  0.07992086  0.59875461  1
  O2-  O200  1  0.54718981  0.08379315  0.93923424  1
  O2-  O201  1  0.54020063  0.58555266  0.26212704  1
  O2-  O202  1  0.54470723  0.59041875  0.60440251  1
  O2-  O203  1  0.53881888  0.58680362  0.92816130  1
  O2-  O204  1  0.16124601  0.21327860  0.26349323  1
  O2-  O205  1  0.16531397  0.20965419  0.59649384  1
  O2-  O206  1  0.16381261  0.21300807  0.93125304  1
  O2-  O207  1  0.16561576  0.69493750  0.27569374  1
  O2-  O208  1  0.16258427  0.70751646  0.60214417  1
  O2-  O209  1  0.17273307  0.70071139  0.93250320  1
  O2-  O210  1  0.66756949  0.20749019  0.26895011  1
  O2-  O211  1  0.67598296  0.20127698  0.60460629  1
  O2-  O212  1  0.67001620  0.19923907  0.94136896  1
  O2-  O213  1  0.67382354  0.70553548  0.26834484  1
  O2-  O214  1  0.66247121  0.71121302  0.60381230  1
  O2-  O215  1  0.66629464  0.71389753  0.92916417  1
  O2-  O216  1  0.08414028  0.45557617  0.07192684  1
  O2-  O217  1  0.08780303  0.45737424  0.39701906  1
  O2-  O218  1  0.08741177  0.45850154  0.73469694  1
  O2-  O219  1  0.08254049  0.96094677  0.06400174  1
  O2-  O220  1  0.08112603  0.95523473  0.40339002  1
  O2-  O221  1  0.08613207  0.95475376  0.72748932  1
  O2-  O222  1  0.58019496  0.45564520  0.06085197  1
  O2-  O223  1  0.58562240  0.46178960  0.39282932  1
  O2-  O224  1  0.57794884  0.46039311  0.73435229  1
  O2-  O225  1  0.58235285  0.95718246  0.06887487  1
  O2-  O226  1  0.57558699  0.94340246  0.39752367  1
  O2-  O227  1  0.58052966  0.94863445  0.72777058  1
  O2-  O228  1  0.21577313  0.33265264  0.06909126  1
  O2-  O229  1  0.20717466  0.33675900  0.39396520  1
  O2-  O230  1  0.21343003  0.33014914  0.73236985  1
  O2-  O231  1  0.20546647  0.83013032  0.06401491  1
  O2-  O232  1  0.20483461  0.82566230  0.40170365  1
  O2-  O233  1  0.20689066  0.83568213  0.73041910  1
  O2-  O234  1  0.69828266  0.33367137  0.06435778  1
  O2-  O235  1  0.70253902  0.33977181  0.39520148  1
  O2-  O236  1  0.70148512  0.33127952  0.73681269  1
  O2-  O237  1  0.71348162  0.83530783  0.06631867  1
  O2-  O238  1  0.71508926  0.83141704  0.40450746  1
  O2-  O239  1  0.70785437  0.83761549  0.72922107  1
  O2-  O240  1  0.46159717  0.41382336  0.26123668  1
  O2-  O241  1  0.45167338  0.42373397  0.59992266  1
  O2-  O242  1  0.45602492  0.41622992  0.92932843  1
  O2-  O243  1  0.44251188  0.92689658  0.27011779  1
  O2-  O244  1  0.45053905  0.91341990  0.60508304  1
  O2-  O245  1  0.45085012  0.92026018  0.93943625  1
  O2-  O246  1  0.95733679  0.41680732  0.26776604  1
  O2-  O247  1  0.95657006  0.41815897  0.60550968  1
  O2-  O248  1  0.95335291  0.41689265  0.93943766  1
  O2-  O249  1  0.95791360  0.91002630  0.27211308  1
  O2-  O250  1  0.96091593  0.90917795  0.59905255  1
  O2-  O251  1  0.95904829  0.91749903  0.92811634  1
  O2-  O252  1  0.33236658  0.28931807  0.26420551  1
  O2-  O253  1  0.33387755  0.28742860  0.59622648  1
  O2-  O254  1  0.33578996  0.28448429  0.92931820  1
  O2-  O255  1  0.33065847  0.78717426  0.26504156  1
  O2-  O256  1  0.33439768  0.79138629  0.60330365  1
  O2-  O257  1  0.33512203  0.79711122  0.93583159  1
  O2-  O258  1  0.83049910  0.30665561  0.27153944  1
  O2-  O259  1  0.83291331  0.30379515  0.61042131  1
  O2-  O260  1  0.83016379  0.30293372  0.93895006  1
  O2-  O261  1  0.84185194  0.78776438  0.27177461  1
  O2-  O262  1  0.83723550  0.79264000  0.60033497  1
  O2-  O263  1  0.83250717  0.79069368  0.92914898  1
  O2-  O264  1  0.41562889  0.05364635  0.06192749  1
  O2-  O265  1  0.42005528  0.05333496  0.40264500  1
  O2-  O266  1  0.41193235  0.04074028  0.73057732  1
  O2-  O267  1  0.41726380  0.54264621  0.06325284  1
  O2-  O268  1  0.41419416  0.53928543  0.39354633  1
  O2-  O269  1  0.41710098  0.55616722  0.72709673  1
  O2-  O270  1  0.91577534  0.04228782  0.06099934  1
  O2-  O271  1  0.91490872  0.03549531  0.40215602  1
  O2-  O272  1  0.91643814  0.03191935  0.73557576  1
  O2-  O273  1  0.91436956  0.53894843  0.07192680  1
  O2-  O274  1  0.91288828  0.54082135  0.39825567  1
  O2-  O275  1  0.92026396  0.54780218  0.73515610  1
  O2-  O276  1  0.28959699  0.16406457  0.06027177  1
  O2-  O277  1  0.28429801  0.17013755  0.40347700  1
  O2-  O278  1  0.29169635  0.16075709  0.72870523  1
  O2-  O279  1  0.30267066  0.66706026  0.06311255  1
  O2-  O280  1  0.29527989  0.65895379  0.39713161  1
  O2-  O281  1  0.29171186  0.66699628  0.73266433  1
  O2-  O282  1  0.80428927  0.16893731  0.06161698  1
  O2-  O283  1  0.80032193  0.17440717  0.39858870  1
  O2-  O284  1  0.80077740  0.16861323  0.73753454  1
  O2-  O285  1  0.78822022  0.66678457  0.06803051  1
  O2-  O286  1  0.79683254  0.66182252  0.39721912  1
  O2-  O287  1  0.79151418  0.67209658  0.73413843  1
