# generated using pymatgen
data_Ca2Al2SiO7
_symmetry_space_group_name_H-M   'P 1'
_cell_length_a   15.47076772
_cell_length_b   15.47000278
_cell_length_c   15.29234532
_cell_angle_alpha   89.99880368
_cell_angle_beta   89.99727068
_cell_angle_gamma   89.98293360
_symmetry_Int_Tables_number   1
_chemical_formula_structural   Ca2Al2SiO7
_chemical_formula_sum   'Ca48 Al48 Si24 O168'
_cell_volume   3659.95995717
_cell_formula_units_Z   24
loop_
 _symmetry_equiv_pos_site_id
 _symmetry_equiv_pos_as_xyz
  1  'x, y, z'
loop_
 _atom_type_symbol
 _atom_type_oxidation_number
  Ca2+  2.0
  Al0+  0.0
  Si0+  0.0
  O2-  -2.0
loop_
 _atom_site_type_symbol
 _atom_site_label
 _atom_site_symmetry_multiplicity
 _atom_site_fract_x
 _atom_site_fract_y
 _atom_site_fract_z
 _atom_site_occupancy
  Ca2+  Ca0  1  0.17145372  0.08778637  0.17028967  1
  Ca2+  Ca1  1  0.16504104  0.08497128  0.50066867  1
  Ca2+  Ca2  1  0.17463730  0.07980499  0.84105319  1
  Ca2+  Ca3  1  0.17558596  0.57439910  0.16992370  1
  Ca2+  Ca4  1  0.17283207  0.57291645  0.50335246  1
  Ca2+  Ca5  1  0.17106224  0.57628160  0.83983529  1
  Ca2+  Ca6  1  0.67157266  0.07771017  0.17693300  1
  Ca2+  Ca7  1  0.66131512  0.08736031  0.50077531  1
  Ca2+  Ca8  1  0.66769272  0.08037000  0.84272944  1
  Ca2+  Ca9  1  0.66530148  0.58476192  0.16870558  1
  Ca2+  Ca10  1  0.66863052  0.58410527  0.50478811  1
  Ca2+  Ca11  1  0.66345388  0.58761986  0.83852809  1
  Ca2+  Ca12  1  0.08432210  0.33684999  0.16822669  1
  Ca2+  Ca13  1  0.07763683  0.33648130  0.49265234  1
  Ca2+  Ca14  1  0.08095808  0.33940528  0.82804055  1
  Ca2+  Ca15  1  0.08264632  0.82544251  0.15936292  1
  Ca2+  Ca16  1  0.08827724  0.82331119  0.49567807  1
  Ca2+  Ca17  1  0.08845274  0.81845805  0.82936400  1
  Ca2+  Ca18  1  0.57157543  0.33019678  0.16507183  1
  Ca2+  Ca19  1  0.57386137  0.32470123  0.49410802  1
  Ca2+  Ca20  1  0.56549997  0.32912131  0.82634942  1
  Ca2+  Ca21  1  0.58557407  0.83256790  0.16496757  1
  Ca2+  Ca22  1  0.57520558  0.83051093  0.49621015  1
  Ca2+  Ca23  1  0.58146790  0.82619396  0.82944872  1
  Ca2+  Ca24  1  0.33338425  0.42547937  0.17371754  1
  Ca2+  Ca25  1  0.32506193  0.40793280  0.50305596  1
  Ca2+  Ca26  1  0.32494557  0.41609014  0.84342076  1
  Ca2+  Ca27  1  0.33959964  0.92324957  0.17104961  1
  Ca2+  Ca28  1  0.34188229  0.91534771  0.50212014  1
  Ca2+  Ca29  1  0.34105172  0.92321540  0.83676508  1
  Ca2+  Ca30  1  0.83277410  0.41615126  0.17301188  1
  Ca2+  Ca31  1  0.83595187  0.40932486  0.50330079  1
  Ca2+  Ca32  1  0.83119194  0.41470184  0.83342312  1
  Ca2+  Ca33  1  0.82202191  0.92571013  0.17354445  1
  Ca2+  Ca34  1  0.82669628  0.92458023  0.50030130  1
  Ca2+  Ca35  1  0.82374392  0.92525342  0.84686637  1
  Ca2+  Ca36  1  0.41166000  0.17913623  0.16316528  1
  Ca2+  Ca37  1  0.42475025  0.17658446  0.49499133  1
  Ca2+  Ca38  1  0.41507319  0.17476542  0.82911162  1
  Ca2+  Ca39  1  0.41386819  0.66968175  0.16021120  1
  Ca2+  Ca40  1  0.41210230  0.67602102  0.49497802  1
  Ca2+  Ca41  1  0.42529824  0.66683567  0.82912700  1
  Ca2+  Ca42  1  0.91702987  0.16344691  0.16909724  1
  Ca2+  Ca43  1  0.92119995  0.17645964  0.48881680  1
  Ca2+  Ca44  1  0.91570286  0.17112150  0.82912577  1
  Ca2+  Ca45  1  0.92496936  0.66699405  0.15851704  1
  Ca2+  Ca46  1  0.92547741  0.66392844  0.49852418  1
  Ca2+  Ca47  1  0.93106857  0.66334306  0.82895806  1
  Al0+  Al48  1  -0.00137994  0.00087771  0.00171540  1
  Al0+  Al49  1  -0.00116721  -0.00049682  0.33454210  1
  Al0+  Al50  1  -0.00087437  -0.00102090  0.67094752  1
  Al0+  Al51  1  -0.00085052  0.49978329  -0.00170876  1
  Al0+  Al52  1  0.00178179  0.50005857  0.33220676  1
  Al0+  Al53  1  0.00063034  0.50041144  0.66300425  1
  Al0+  Al54  1  0.50019305  0.00044662  0.00929110  1
  Al0+  Al55  1  0.50040870  -0.00274842  0.33144158  1
  Al0+  Al56  1  0.50112977  -0.00126180  0.66359163  1
  Al0+  Al57  1  0.49897996  0.50028303  -0.00507068  1
  Al0+  Al58  1  0.50280091  0.50296859  0.33623921  1
  Al0+  Al59  1  0.50032656  0.49998544  0.66023288  1
  Al0+  Al60  1  0.24536680  0.24857555  0.00230697  1
  Al0+  Al61  1  0.24868481  0.24987823  0.33153940  1
  Al0+  Al62  1  0.24791780  0.24760931  0.66967881  1
  Al0+  Al63  1  0.25015270  0.74952470  -0.00361481  1
  Al0+  Al64  1  0.25151515  0.74991823  0.33069455  1
  Al0+  Al65  1  0.24919518  0.74836236  0.65997732  1
  Al0+  Al66  1  0.75014568  0.25097878  0.00353143  1
  Al0+  Al67  1  0.75158214  0.25097144  0.32965607  1
  Al0+  Al68  1  0.75125095  0.25082392  0.66304113  1
  Al0+  Al69  1  0.75000289  0.75056576  -0.00003939  1
  Al0+  Al70  1  0.75076757  0.75190271  0.33907515  1
  Al0+  Al71  1  0.75159001  0.75114995  0.66601108  1
  Al0+  Al72  1  0.32284349  0.57083386  0.01280726  1
  Al0+  Al73  1  0.67734699  0.92903819  0.35380493  1
  Al0+  Al74  1  0.93028393  0.32249153  0.31574008  1
  Al0+  Al75  1  0.57105590  0.17862697  0.31688803  1
  Al0+  Al76  1  0.82074500  0.07230607  0.35213846  1
  Al0+  Al77  1  0.42995393  0.81952278  0.65279751  1
  Al0+  Al78  1  0.42894988  0.81891016  0.31660501  1
  Al0+  Al79  1  0.18078716  0.42888486  0.34999772  1
  Al0+  Al80  1  0.67865302  0.92770996  0.01613861  1
  Al0+  Al81  1  0.82160466  0.07413609  0.01657446  1
  Al0+  Al82  1  0.42836486  0.32315509  0.31804303  1
  Al0+  Al83  1  0.07082625  0.17664315  0.31739406  1
  Al0+  Al84  1  0.17592969  0.42894597  0.01546781  1
  Al0+  Al85  1  0.57106050  0.17940855  0.65478362  1
  Al0+  Al86  1  0.42631174  0.32011633  0.98662388  1
  Al0+  Al87  1  0.93119187  0.31971993  0.65471042  1
  Al0+  Al88  1  0.31970912  0.07063502  0.01386444  1
  Al0+  Al89  1  0.32374301  0.57302329  0.34968453  1
  Al0+  Al90  1  0.07142442  0.67857076  0.98583808  1
  Al0+  Al91  1  0.17958746  0.42898098  0.68129335  1
  Al0+  Al92  1  0.42413120  0.32126710  0.65260908  1
  Al0+  Al93  1  0.07034744  0.67905358  0.65034551  1
  Al0+  Al94  1  0.57120138  0.67964541  0.98753424  1
  Al0+  Al95  1  0.57443277  0.67788687  0.65071646  1
  Si0+  Si96  1  0.92882478  0.82214068  0.98360594  1
  Si0+  Si97  1  0.42802929  0.82436299  0.98410268  1
  Si0+  Si98  1  0.06929303  0.17711747  0.98325622  1
  Si0+  Si99  1  0.82062462  0.57016982  0.01275927  1
  Si0+  Si100  1  0.32256811  0.57356470  0.68298330  1
  Si0+  Si101  1  0.67956475  0.92960111  0.68343047  1
  Si0+  Si102  1  0.82251868  0.57164463  0.34795171  1
  Si0+  Si103  1  0.82061918  0.57147120  0.68193153  1
  Si0+  Si104  1  0.17769755  0.92700994  0.01507143  1
  Si0+  Si105  1  0.67905007  0.42793890  0.68114931  1
  Si0+  Si106  1  0.17862575  0.92821776  0.34719312  1
  Si0+  Si107  1  0.68033505  0.42963104  0.34846951  1
  Si0+  Si108  1  0.92881474  0.82336210  0.65002678  1
  Si0+  Si109  1  0.17694545  0.92644615  0.68118272  1
  Si0+  Si110  1  0.32084621  0.06786327  0.68042601  1
  Si0+  Si111  1  0.92876393  0.81996490  0.31893373  1
  Si0+  Si112  1  0.92746295  0.32136561  0.98382455  1
  Si0+  Si113  1  0.57567735  0.67958125  0.31683266  1
  Si0+  Si114  1  0.07084328  0.67988385  0.31652718  1
  Si0+  Si115  1  0.67793288  0.42994310  0.01313666  1
  Si0+  Si116  1  0.82112690  0.07235625  0.68281695  1
  Si0+  Si117  1  0.57168843  0.17875745  0.98607272  1
  Si0+  Si118  1  0.07108551  0.17425885  0.65274935  1
  Si0+  Si119  1  0.32040176  0.07061220  0.34904809  1
  O2-  O120  1  0.24685537  -0.00634707  0.06061471  1
  O2-  O121  1  0.24797202  0.00004250  0.39075033  1
  O2-  O122  1  0.24960567  -0.00399700  0.72258167  1
  O2-  O123  1  0.25230158  0.49747611  0.06291328  1
  O2-  O124  1  0.25698604  0.49638400  0.40027876  1
  O2-  O125  1  0.25867000  0.49993838  0.72678911  1
  O2-  O126  1  0.74828325  0.00283149  0.06432776  1
  O2-  O127  1  0.74494909  0.00545886  0.40408784  1
  O2-  O128  1  0.74947049  0.00219027  0.72532237  1
  O2-  O129  1  0.74827676  0.50185729  0.05591431  1
  O2-  O130  1  0.75294900  0.49992017  0.39038673  1
  O2-  O131  1  0.74607309  0.50371325  0.72410936  1
  O2-  O132  1  0.00066356  0.24950086  0.26544265  1
  O2-  O133  1  0.00526532  0.24493791  0.60911961  1
  O2-  O134  1  -0.00211746  0.24900381  0.94271554  1
  O2-  O135  1  -0.00091850  0.74996910  0.27437328  1
  O2-  O136  1  -0.00199677  0.75655464  0.60367971  1
  O2-  O137  1  -0.00137507  0.75549248  0.93815721  1
  O2-  O138  1  0.49784943  0.24913632  0.26673315  1
  O2-  O139  1  0.49981959  0.25199616  0.60521536  1
  O2-  O140  1  0.50038724  0.24364076  0.94059523  1
  O2-  O141  1  0.50379827  0.74381423  0.27202981  1
  O2-  O142  1  0.49881623  0.74551638  0.60119326  1
  O2-  O143  1  0.49614291  0.75438015  0.94142629  1
  O2-  O144  1  0.06953990  0.17390362  0.08751572  1
  O2-  O145  1  0.06882806  0.17447874  0.43143699  1
  O2-  O146  1  0.06889257  0.17094490  0.75851562  1
  O2-  O147  1  0.06698906  0.68075367  0.09897393  1
  O2-  O148  1  0.06896008  0.68139044  0.42178627  1
  O2-  O149  1  0.06844106  0.67988844  0.76348358  1
  O2-  O150  1  0.57264273  0.18270642  0.09096314  1
  O2-  O151  1  0.56815771  0.18209824  0.43074314  1
  O2-  O152  1  0.56997875  0.17923692  0.76895880  1
  O2-  O153  1  0.57403856  0.67957202  0.10010247  1
  O2-  O154  1  0.57967462  0.68215188  0.42206842  1
  O2-  O155  1  0.57631208  0.68219940  0.76448514  1
  O2-  O156  1  0.17736644  0.43391375  0.23687782  1
  O2-  O157  1  0.17743731  0.43000916  0.56882579  1
  O2-  O158  1  0.17442223  0.43176375  0.90130668  1
  O2-  O159  1  0.17881087  0.92645870  0.24210470  1
  O2-  O160  1  0.17278521  0.92876057  0.57627882  1
  O2-  O161  1  0.17710874  0.92908329  0.90905686  1
  O2-  O162  1  0.68033274  0.43304390  0.24294923  1
  O2-  O163  1  0.68355400  0.42653699  0.57629529  1
  O2-  O164  1  0.68083404  0.42925399  0.90782970  1
  O2-  O165  1  0.68316822  0.92422062  0.24069788  1
  O2-  O166  1  0.68112310  0.92906428  0.57898899  1
  O2-  O167  1  0.68071941  0.92833368  0.90158340  1
  O2-  O168  1  0.42980006  0.32193758  0.09913607  1
  O2-  O169  1  0.42943248  0.31980955  0.43159542  1
  O2-  O170  1  0.42392009  0.31810908  0.76665066  1
  O2-  O171  1  0.42648767  0.82313224  0.08931241  1
  O2-  O172  1  0.42758970  0.81785388  0.42954518  1
  O2-  O173  1  0.43218007  0.82301454  0.76653206  1
  O2-  O174  1  0.92648331  0.32498929  0.08803023  1
  O2-  O175  1  0.93250600  0.32365956  0.42945079  1
  O2-  O176  1  0.92924085  0.31841305  0.76836508  1
  O2-  O177  1  0.92983760  0.81923072  0.08929592  1
  O2-  O178  1  0.93117377  0.81728501  0.42421661  1
  O2-  O179  1  0.92994387  0.82235659  0.75562668  1
  O2-  O180  1  0.31878603  0.06916422  0.24386106  1
  O2-  O181  1  0.31940067  0.06753629  0.57549709  1
  O2-  O182  1  0.31855265  0.06897361  0.89995834  1
  O2-  O183  1  0.31975754  0.57538362  0.23610532  1
  O2-  O184  1  0.31786644  0.57754276  0.57790369  1
  O2-  O185  1  0.32276066  0.57071055  0.89894673  1
  O2-  O186  1  0.82207268  0.06684787  0.23891414  1
  O2-  O187  1  0.82430808  0.07081311  0.57858591  1
  O2-  O188  1  0.82045656  0.07382507  0.90187121  1
  O2-  O189  1  0.82188055  0.57365106  0.24251887  1
  O2-  O190  1  0.82172983  0.57154015  0.57675654  1
  O2-  O191  1  0.82208529  0.56841342  0.90753440  1
  O2-  O192  1  0.04260139  0.07725879  0.26499023  1
  O2-  O193  1  0.04475866  0.08084762  0.60642433  1
  O2-  O194  1  0.04199140  0.08507306  0.93429013  1
  O2-  O195  1  0.04083768  0.58945507  0.26947885  1
  O2-  O196  1  0.03372928  0.58592964  0.59502647  1
  O2-  O197  1  0.03432729  0.58439055  0.93077129  1
  O2-  O198  1  0.54654212  0.07838372  0.26795676  1
  O2-  O199  1  0.54314955  0.08195422  0.60136738  1
  O2-  O200  1  0.54877049  0.08274955  0.94385519  1
  O2-  O201  1  0.55653277  0.58387279  0.27350622  1
  O2-  O202  1  0.55558280  0.57719148  0.59983813  1
  O2-  O203  1  0.54280292  0.58377258  0.93032373  1
  O2-  O204  1  0.16959978  0.20255097  0.26518431  1
  O2-  O205  1  0.16553781  0.19600811  0.60849744  1
  O2-  O206  1  0.16029076  0.20401828  0.93385147  1
  O2-  O207  1  0.16085176  0.71103491  0.26924049  1
  O2-  O208  1  0.16487853  0.70990404  0.59403820  1
  O2-  O209  1  0.16695331  0.70916506  0.92938305  1
  O2-  O210  1  0.66913699  0.20804212  0.26533209  1
  O2-  O211  1  0.66869218  0.20752901  0.60123363  1
  O2-  O212  1  0.66519795  0.20663670  0.93990778  1
  O2-  O213  1  0.66911181  0.70838290  0.27077220  1
  O2-  O214  1  0.67288671  0.70832568  0.59865955  1
  O2-  O215  1  0.66896762  0.70847776  0.93276332  1
  O2-  O216  1  0.07845919  0.46183019  0.06767318  1
  O2-  O217  1  0.08256825  0.46340670  0.40169420  1
  O2-  O218  1  0.08264080  0.46418985  0.73342438  1
  O2-  O219  1  0.08397647  0.95222388  0.06081508  1
  O2-  O220  1  0.08677860  0.95281708  0.39618215  1
  O2-  O221  1  0.08643864  0.95437780  0.73233399  1
  O2-  O222  1  0.58708299  0.45850912  0.06033549  1
  O2-  O223  1  0.59054457  0.45812252  0.39895613  1
  O2-  O224  1  0.58495551  0.45085454  0.72675051  1
  O2-  O225  1  0.58050354  0.95106530  0.07006439  1
  O2-  O226  1  0.57655240  0.95264707  0.40374484  1
  O2-  O227  1  0.58725624  0.95628726  0.73030461  1
  O2-  O228  1  0.19542862  0.32791883  0.06429309  1
  O2-  O229  1  0.20302489  0.32773950  0.40088726  1
  O2-  O230  1  0.20309042  0.32938970  0.73460020  1
  O2-  O231  1  0.20031797  0.83253849  0.05973304  1
  O2-  O232  1  0.20842064  0.83727778  0.39528039  1
  O2-  O233  1  0.20376142  0.83353646  0.72664644  1
  O2-  O234  1  0.70730818  0.34007981  0.06259402  1
  O2-  O235  1  0.70867716  0.33835467  0.39541041  1
  O2-  O236  1  0.71298852  0.33873010  0.73065814  1
  O2-  O237  1  0.71132097  0.83025432  0.06904757  1
  O2-  O238  1  0.71321231  0.83260614  0.40806565  1
  O2-  O239  1  0.71037098  0.83815398  0.73064963  1
  O2-  O240  1  0.46127168  0.42219991  0.26862207  1
  O2-  O241  1  0.44835583  0.42024804  0.60097840  1
  O2-  O242  1  0.46022036  0.41447084  0.93046280  1
  O2-  O243  1  0.45830032  0.91563403  0.26360275  1
  O2-  O244  1  0.46003987  0.91657181  0.59848792  1
  O2-  O245  1  0.45568554  0.91849185  0.93956326  1
  O2-  O246  1  0.95777539  0.42208742  0.26317669  1
  O2-  O247  1  0.95883145  0.41611473  0.60005415  1
  O2-  O248  1  0.95544241  0.41250255  0.93464615  1
  O2-  O249  1  0.95679654  0.91088398  0.27158761  1
  O2-  O250  1  0.95348183  0.91763299  0.60531464  1
  O2-  O251  1  0.95204779  0.91673755  0.93813532  1
  O2-  O252  1  0.32981187  0.29525677  0.26651900  1
  O2-  O253  1  0.32741544  0.28673575  0.60047955  1
  O2-  O254  1  0.32876347  0.28791419  0.93511428  1
  O2-  O255  1  0.33179541  0.79069954  0.26171088  1
  O2-  O256  1  0.33040976  0.79692243  0.59934175  1
  O2-  O257  1  0.33379003  0.80276146  0.93730307  1
  O2-  O258  1  0.83111029  0.29827163  0.26352689  1
  O2-  O259  1  0.83560053  0.29038500  0.59923193  1
  O2-  O260  1  0.83496451  0.29426146  0.93604673  1
  O2-  O261  1  0.83758920  0.78987274  0.27235560  1
  O2-  O262  1  0.83649958  0.79626910  0.60344908  1
  O2-  O263  1  0.83640970  0.79442335  0.93679736  1
  O2-  O264  1  0.41530490  0.04393375  0.07047139  1
  O2-  O265  1  0.41119870  0.03983059  0.39566173  1
  O2-  O266  1  0.41225626  0.03912552  0.72846440  1
  O2-  O267  1  0.42199095  0.54446872  0.06527381  1
  O2-  O268  1  0.42578410  0.55565204  0.39943334  1
  O2-  O269  1  0.42004265  0.55425399  0.72383003  1
  O2-  O270  1  0.91995923  0.04410373  0.06828338  1
  O2-  O271  1  0.91808678  0.03723808  0.40490502  1
  O2-  O272  1  0.91248976  0.04362513  0.73242530  1
  O2-  O273  1  0.91051806  0.54017756  0.06203251  1
  O2-  O274  1  0.91443507  0.54486793  0.39543892  1
  O2-  O275  1  0.91094413  0.53919070  0.72967556  1
  O2-  O276  1  0.28388479  0.16435088  0.06892565  1
  O2-  O277  1  0.29282778  0.16186528  0.39683551  1
  O2-  O278  1  0.29145675  0.15790744  0.73053946  1
  O2-  O279  1  0.29351964  0.67036329  0.06329712  1
  O2-  O280  1  0.28687629  0.66984943  0.40178844  1
  O2-  O281  1  0.29150804  0.66609021  0.72914591  1
  O2-  O282  1  0.79682892  0.17326340  0.06892333  1
  O2-  O283  1  0.79777048  0.17414848  0.40014077  1
  O2-  O284  1  0.79408651  0.16484817  0.72958888  1
  O2-  O285  1  0.79646219  0.66251605  0.06050989  1
  O2-  O286  1  0.79496659  0.66210274  0.39816269  1
  O2-  O287  1  0.79734611  0.66463277  0.72966944  1
