# generated using pymatgen
data_Ca2Al2SiO7
_symmetry_space_group_name_H-M   'P 1'
_cell_length_a   15.46116577
_cell_length_b   15.46102288
_cell_length_c   15.28660367
_cell_angle_alpha   90.01150582
_cell_angle_beta   90.00388387
_cell_angle_gamma   89.99395198
_symmetry_Int_Tables_number   1
_chemical_formula_structural   Ca2Al2SiO7
_chemical_formula_sum   'Ca48 Al48 Si24 O168'
_cell_volume   3654.19276204
_cell_formula_units_Z   24
loop_
 _symmetry_equiv_pos_site_id
 _symmetry_equiv_pos_as_xyz
  1  'x, y, z'
loop_
 _atom_type_symbol
 _atom_type_oxidation_number
  Ca2+  2.0
  Al0+  0.0
  Si0+  0.0
  O2-  -2.0
loop_
 _atom_site_type_symbol
 _atom_site_label
 _atom_site_symmetry_multiplicity
 _atom_site_fract_x
 _atom_site_fract_y
 _atom_site_fract_z
 _atom_site_occupancy
  Ca2+  Ca0  1  0.17108914  0.08024386  0.16433144  1
  Ca2+  Ca1  1  0.17211698  0.08106683  0.51433974  1
  Ca2+  Ca2  1  0.17017204  0.07754890  0.83701455  1
  Ca2+  Ca3  1  0.16655607  0.57573594  0.16359803  1
  Ca2+  Ca4  1  0.16226863  0.57299474  0.50494997  1
  Ca2+  Ca5  1  0.16102915  0.57859680  0.84074780  1
  Ca2+  Ca6  1  0.66176171  0.08179289  0.17011648  1
  Ca2+  Ca7  1  0.66536416  0.08103671  0.50006912  1
  Ca2+  Ca8  1  0.66987671  0.08638461  0.83996199  1
  Ca2+  Ca9  1  0.67622720  0.58419636  0.17411389  1
  Ca2+  Ca10  1  0.67591653  0.57827551  0.50534504  1
  Ca2+  Ca11  1  0.67011948  0.57583626  0.83445802  1
  Ca2+  Ca12  1  0.08134575  0.33927041  0.16048761  1
  Ca2+  Ca13  1  0.09128938  0.33122183  0.50069712  1
  Ca2+  Ca14  1  0.07766519  0.33793135  0.82566893  1
  Ca2+  Ca15  1  0.07363315  0.82853769  0.15283269  1
  Ca2+  Ca16  1  0.07685854  0.83270305  0.49859348  1
  Ca2+  Ca17  1  0.08753269  0.82781726  0.82616851  1
  Ca2+  Ca18  1  0.57134894  0.32513344  0.15737844  1
  Ca2+  Ca19  1  0.57675821  0.32944300  0.49145844  1
  Ca2+  Ca20  1  0.57670808  0.33152618  0.83162277  1
  Ca2+  Ca21  1  0.57900313  0.83443770  0.16075312  1
  Ca2+  Ca22  1  0.58413736  0.83470388  0.49355776  1
  Ca2+  Ca23  1  0.57404306  0.83299729  0.83466058  1
  Ca2+  Ca24  1  0.32525056  0.40847283  0.16698272  1
  Ca2+  Ca25  1  0.32458836  0.41219788  0.50369489  1
  Ca2+  Ca26  1  0.31896444  0.42023020  0.84415553  1
  Ca2+  Ca27  1  0.33118857  0.91748876  0.16263520  1
  Ca2+  Ca28  1  0.32645828  0.92742165  0.51251316  1
  Ca2+  Ca29  1  0.32258654  0.92427633  0.84173829  1
  Ca2+  Ca30  1  0.83664772  0.42330901  0.17176697  1
  Ca2+  Ca31  1  0.83073133  0.42044867  0.50838727  1
  Ca2+  Ca32  1  0.83115860  0.40559903  0.83753360  1
  Ca2+  Ca33  1  0.82895292  0.91090526  0.17479030  1
  Ca2+  Ca34  1  0.83318166  0.91115893  0.50103113  1
  Ca2+  Ca35  1  0.83781356  0.91241529  0.83680528  1
  Ca2+  Ca36  1  0.42341294  0.17195103  0.16022699  1
  Ca2+  Ca37  1  0.41875118  0.17115011  0.49167577  1
  Ca2+  Ca38  1  0.41349163  0.16334585  0.83504056  1
  Ca2+  Ca39  1  0.41460012  0.67093632  0.15587119  1
  Ca2+  Ca40  1  0.41873083  0.66829510  0.49809206  1
  Ca2+  Ca41  1  0.40253128  0.67266009  0.83666524  1
  Ca2+  Ca42  1  0.91870709  0.17487421  0.15905096  1
  Ca2+  Ca43  1  0.92422697  0.17170974  0.50401986  1
  Ca2+  Ca44  1  0.92755418  0.17579308  0.82817134  1
  Ca2+  Ca45  1  0.92016307  0.67235899  0.16046851  1
  Ca2+  Ca46  1  0.92088942  0.67175349  0.49772696  1
  Ca2+  Ca47  1  0.93223681  0.67700864  0.82978678  1
  Al0+  Al48  1  -0.00326724  0.00291568  0.00242674  1
  Al0+  Al49  1  -0.00149604  0.00011622  0.32944888  1
  Al0+  Al50  1  -0.00144091  0.00148083  0.66265686  1
  Al0+  Al51  1  -0.00268420  0.50212943  -0.00351728  1
  Al0+  Al52  1  0.00151916  0.50060814  0.34260758  1
  Al0+  Al53  1  -0.00219578  0.50444648  0.66325160  1
  Al0+  Al54  1  0.50138036  -0.00204903  -0.00432691  1
  Al0+  Al55  1  0.50040648  -0.00045593  0.33489075  1
  Al0+  Al56  1  0.50140626  0.00031927  0.66958217  1
  Al0+  Al57  1  0.50094862  0.49807326  -0.00012562  1
  Al0+  Al58  1  0.49890442  0.50095933  0.32882599  1
  Al0+  Al59  1  0.50263114  0.50019948  0.66978625  1
  Al0+  Al60  1  0.25096075  0.24803277  0.00554241  1
  Al0+  Al61  1  0.24978082  0.24891008  0.33295123  1
  Al0+  Al62  1  0.25173493  0.25256063  0.67170491  1
  Al0+  Al63  1  0.24956131  0.74879469  0.00082878  1
  Al0+  Al64  1  0.24928306  0.74810915  0.33400662  1
  Al0+  Al65  1  0.25079170  0.75087237  0.66076352  1
  Al0+  Al66  1  0.74915226  0.24822352  -0.00359769  1
  Al0+  Al67  1  0.75169438  0.24793201  0.33125447  1
  Al0+  Al68  1  0.74868795  0.24871527  0.66608730  1
  Al0+  Al69  1  0.74976021  0.74888513  -0.00406735  1
  Al0+  Al70  1  0.75025865  0.75052544  0.33922120  1
  Al0+  Al71  1  0.74882689  0.74891231  0.66573758  1
  Al0+  Al72  1  0.17712551  0.92916696  0.67965660  1
  Al0+  Al73  1  0.42656758  0.32151822  0.98196773  1
  Al0+  Al74  1  0.93074817  0.32172714  0.98906953  1
  Al0+  Al75  1  0.56956937  0.17840265  0.98244105  1
  Al0+  Al76  1  0.32232033  0.57065814  0.01490811  1
  Al0+  Al77  1  0.92966408  0.81941877  0.31823110  1
  Al0+  Al78  1  0.17820768  0.43214234  0.68055563  1
  Al0+  Al79  1  0.57214664  0.17746616  0.31881817  1
  Al0+  Al80  1  0.07093476  0.68086896  0.98618818  1
  Al0+  Al81  1  0.07367619  0.18228590  0.65325746  1
  Al0+  Al82  1  0.82049673  0.57056670  0.34798585  1
  Al0+  Al83  1  0.92764232  0.82229547  0.64978950  1
  Al0+  Al84  1  0.68036359  0.42762047  0.68054335  1
  Al0+  Al85  1  0.92689520  0.32206234  0.65089285  1
  Al0+  Al86  1  0.07426648  0.67974377  0.64804106  1
  Al0+  Al87  1  0.92690782  0.82359664  0.98590688  1
  Al0+  Al88  1  0.32321512  0.07291381  0.68205299  1
  Al0+  Al89  1  0.17629715  0.92850443  0.01542954  1
  Al0+  Al90  1  0.67973390  0.93144716  0.34640968  1
  Al0+  Al91  1  0.32364234  0.06964105  0.01803671  1
  Al0+  Al92  1  0.17595780  0.42885152  0.01448475  1
  Al0+  Al93  1  0.42737668  0.32170610  0.31799799  1
  Al0+  Al94  1  0.18195510  0.42904114  0.34851745  1
  Al0+  Al95  1  0.42923251  0.81887133  0.98694386  1
  Si0+  Si96  1  0.43117545  0.82207429  0.65062673  1
  Si0+  Si97  1  0.07119566  0.17851604  0.31774984  1
  Si0+  Si98  1  0.43118626  0.32268862  0.65260451  1
  Si0+  Si99  1  0.67902081  0.92722235  0.68346373  1
  Si0+  Si100  1  0.07212228  0.67617049  0.31516726  1
  Si0+  Si101  1  0.67724946  0.42697860  0.34708495  1
  Si0+  Si102  1  0.32461710  0.57467410  0.35111037  1
  Si0+  Si103  1  0.57395239  0.67602370  0.98323755  1
  Si0+  Si104  1  0.31913599  0.06781285  0.34787902  1
  Si0+  Si105  1  0.17667294  0.92758744  0.34730251  1
  Si0+  Si106  1  0.57097935  0.17757001  0.65031432  1
  Si0+  Si107  1  0.82507315  0.07420671  0.35179808  1
  Si0+  Si108  1  0.57068395  0.67852020  0.65087839  1
  Si0+  Si109  1  0.81942331  0.07289918  0.01540077  1
  Si0+  Si110  1  0.82065254  0.57332276  0.68616326  1
  Si0+  Si111  1  0.32455306  0.57221947  0.68122612  1
  Si0+  Si112  1  0.42830583  0.82037959  0.32011357  1
  Si0+  Si113  1  0.67950499  0.42597441  0.01651247  1
  Si0+  Si114  1  0.81949466  0.07070851  0.68166045  1
  Si0+  Si115  1  0.57142833  0.68007346  0.31994651  1
  Si0+  Si116  1  0.68137624  0.92747711  0.01349222  1
  Si0+  Si117  1  0.07274588  0.17758265  0.98572073  1
  Si0+  Si118  1  0.81771208  0.57061320  0.01408976  1
  Si0+  Si119  1  0.93041750  0.32234539  0.32044215  1
  O2-  O120  1  0.24937551  -0.00104572  0.06768461  1
  O2-  O121  1  0.24808534  -0.00251731  0.39061926  1
  O2-  O122  1  0.24827389  0.00234227  0.72865724  1
  O2-  O123  1  0.25259608  0.49647707  0.06507707  1
  O2-  O124  1  0.25853278  0.50324135  0.39406029  1
  O2-  O125  1  0.25147990  0.50902189  0.72495442  1
  O2-  O126  1  0.75324745  -0.00327780  0.05639027  1
  O2-  O127  1  0.75409884  0.00616749  0.39406168  1
  O2-  O128  1  0.75208658  -0.00409247  0.72448761  1
  O2-  O129  1  0.74837176  0.49886547  0.05875566  1
  O2-  O130  1  0.74658726  0.49362831  0.39322044  1
  O2-  O131  1  0.75891920  0.49745009  0.72947234  1
  O2-  O132  1  -0.00000225  0.25053721  0.27733828  1
  O2-  O133  1  0.00469178  0.25650126  0.60018672  1
  O2-  O134  1  0.01070862  0.25297426  0.94311709  1
  O2-  O135  1  0.00613779  0.74749384  0.27128573  1
  O2-  O136  1  0.00188866  0.75288202  0.59963469  1
  O2-  O137  1  0.00648292  0.76050416  0.93710104  1
  O2-  O138  1  0.50399035  0.25318241  0.27018973  1
  O2-  O139  1  0.49928745  0.24845089  0.60977061  1
  O2-  O140  1  0.49656734  0.24788334  0.93076228  1
  O2-  O141  1  0.49718587  0.74722911  0.27771967  1
  O2-  O142  1  0.50077005  0.75002660  0.60732046  1
  O2-  O143  1  0.49941753  0.73901040  0.94010912  1
  O2-  O144  1  0.06686005  0.17510422  0.09197797  1
  O2-  O145  1  0.07239068  0.17763395  0.42264182  1
  O2-  O146  1  0.07057735  0.18100058  0.76646026  1
  O2-  O147  1  0.06522960  0.67764819  0.10019635  1
  O2-  O148  1  0.07203850  0.67738546  0.42052204  1
  O2-  O149  1  0.07424405  0.68016823  0.76124579  1
  O2-  O150  1  0.57217945  0.18029269  0.09596728  1
  O2-  O151  1  0.56895679  0.17700647  0.43305710  1
  O2-  O152  1  0.57289674  0.17637520  0.75478016  1
  O2-  O153  1  0.57951730  0.68089915  0.08910165  1
  O2-  O154  1  0.57036295  0.68093066  0.42533779  1
  O2-  O155  1  0.57187687  0.67939298  0.75556214  1
  O2-  O156  1  0.17856035  0.42987138  0.23604417  1
  O2-  O157  1  0.18423274  0.43008477  0.56712598  1
  O2-  O158  1  0.17321082  0.43233418  0.90119964  1
  O2-  O159  1  0.17798579  0.92831481  0.24261588  1
  O2-  O160  1  0.18175492  0.93079988  0.56489790  1
  O2-  O161  1  0.17695872  0.93057376  0.90209799  1
  O2-  O162  1  0.67903211  0.42981798  0.24148636  1
  O2-  O163  1  0.67771044  0.43124467  0.56702162  1
  O2-  O164  1  0.68124720  0.42601834  0.91134685  1
  O2-  O165  1  0.67941893  0.92973509  0.23332717  1
  O2-  O166  1  0.67573980  0.92884483  0.57826988  1
  O2-  O167  1  0.68214812  0.92657804  0.90819302  1
  O2-  O168  1  0.43079544  0.32122500  0.09560145  1
  O2-  O169  1  0.42789484  0.31912514  0.43257332  1
  O2-  O170  1  0.43405144  0.32525850  0.75685372  1
  O2-  O171  1  0.43454217  0.81939264  0.10070922  1
  O2-  O172  1  0.43033408  0.82036256  0.42552932  1
  O2-  O173  1  0.43296081  0.82146153  0.75527966  1
  O2-  O174  1  0.92853647  0.32052957  0.10303958  1
  O2-  O175  1  0.92917861  0.32076474  0.42505524  1
  O2-  O176  1  0.92517481  0.31580429  0.76426777  1
  O2-  O177  1  0.92191276  0.81723358  0.09963302  1
  O2-  O178  1  0.93049947  0.81904550  0.43087040  1
  O2-  O179  1  0.92430135  0.81907922  0.76284084  1
  O2-  O180  1  0.31970490  0.06610530  0.24334730  1
  O2-  O181  1  0.32614654  0.06983345  0.56727044  1
  O2-  O182  1  0.32317758  0.06647075  0.90487915  1
  O2-  O183  1  0.32439970  0.58029135  0.24651233  1
  O2-  O184  1  0.32954467  0.56855082  0.57526269  1
  O2-  O185  1  0.32067943  0.56979059  0.90120225  1
  O2-  O186  1  0.82743343  0.07527307  0.24636643  1
  O2-  O187  1  0.81560486  0.07280632  0.57648183  1
  O2-  O188  1  0.81718138  0.07560431  0.91039131  1
  O2-  O189  1  0.81884627  0.56957218  0.23428350  1
  O2-  O190  1  0.81472145  0.57535108  0.58029549  1
  O2-  O191  1  0.81381832  0.57121084  0.90950961  1
  O2-  O192  1  0.04232873  0.08795288  0.26864737  1
  O2-  O193  1  0.04143991  0.08550774  0.59798939  1
  O2-  O194  1  0.03851897  0.08800416  0.93724184  1
  O2-  O195  1  0.04213818  0.58272258  0.27190122  1
  O2-  O196  1  0.04169214  0.58302492  0.59373332  1
  O2-  O197  1  0.03314538  0.58684019  0.93086885  1
  O2-  O198  1  0.54010363  0.07964749  0.26649471  1
  O2-  O199  1  0.54416418  0.08477042  0.60323736  1
  O2-  O200  1  0.54707790  0.07857974  0.93010431  1
  O2-  O201  1  0.55001275  0.58745900  0.27127154  1
  O2-  O202  1  0.54214559  0.58719136  0.60220367  1
  O2-  O203  1  0.55651751  0.58021479  0.93983838  1
  O2-  O204  1  0.16235202  0.20614404  0.26989437  1
  O2-  O205  1  0.17344755  0.20901946  0.60013738  1
  O2-  O206  1  0.16929039  0.19309100  0.94488994  1
  O2-  O207  1  0.16768782  0.69854073  0.27159337  1
  O2-  O208  1  0.17322301  0.70483537  0.59249698  1
  O2-  O209  1  0.17106068  0.70039492  0.93478372  1
  O2-  O210  1  0.67359453  0.19794768  0.26818641  1
  O2-  O211  1  0.66172592  0.20575964  0.60161738  1
  O2-  O212  1  0.66712235  0.20991857  0.92911507  1
  O2-  O213  1  0.66170242  0.71184493  0.27253584  1
  O2-  O214  1  0.66123865  0.70729619  0.60169811  1
  O2-  O215  1  0.66284492  0.70907872  0.93219748  1
  O2-  O216  1  0.07766395  0.46225094  0.06720617  1
  O2-  O217  1  0.08662513  0.45957437  0.40501226  1
  O2-  O218  1  0.07873266  0.45992004  0.72968952  1
  O2-  O219  1  0.07754078  0.95908133  0.06878128  1
  O2-  O220  1  0.08461940  0.95687111  0.39290943  1
  O2-  O221  1  0.07708296  0.95437484  0.72935896  1
  O2-  O222  1  0.58754979  0.45208491  0.06346374  1
  O2-  O223  1  0.58329959  0.45407610  0.39222747  1
  O2-  O224  1  0.58666595  0.46465525  0.73692362  1
  O2-  O225  1  0.59003494  0.95575993  0.06068404  1
  O2-  O226  1  0.58315559  0.96079807  0.40342515  1
  O2-  O227  1  0.58857893  0.95721556  0.73199415  1
  O2-  O228  1  0.19935741  0.32888959  0.06716327  1
  O2-  O229  1  0.21251746  0.33126958  0.40195427  1
  O2-  O230  1  0.20952888  0.33675274  0.73512254  1
  O2-  O231  1  0.20467842  0.83013566  0.06806808  1
  O2-  O232  1  0.20319608  0.83475453  0.39362001  1
  O2-  O233  1  0.20989700  0.83054692  0.72897341  1
  O2-  O234  1  0.71055255  0.33520552  0.06364822  1
  O2-  O235  1  0.70099971  0.33200264  0.39142616  1
  O2-  O236  1  0.70644225  0.32963758  0.73397663  1
  O2-  O237  1  0.70729953  0.83482179  0.06122982  1
  O2-  O238  1  0.70914730  0.83572915  0.40333299  1
  O2-  O239  1  0.70313684  0.83413767  0.72979190  1
  O2-  O240  1  0.44977486  0.42215317  0.26639768  1
  O2-  O241  1  0.46313965  0.41321934  0.60404657  1
  O2-  O242  1  0.45894762  0.41958237  0.93016732  1
  O2-  O243  1  0.45910796  0.91074970  0.27293442  1
  O2-  O244  1  0.46315131  0.91300269  0.60295867  1
  O2-  O245  1  0.46675370  0.91094364  0.92984551  1
  O2-  O246  1  0.95980438  0.41462464  0.27504547  1
  O2-  O247  1  0.94461734  0.42414590  0.60309412  1
  O2-  O248  1  0.95239689  0.41881575  0.93336447  1
  O2-  O249  1  0.95502013  0.91820634  0.26534015  1
  O2-  O250  1  0.94962958  0.92226660  0.59709485  1
  O2-  O251  1  0.94326611  0.92669609  0.93938603  1
  O2-  O252  1  0.33094623  0.28738224  0.26529037  1
  O2-  O253  1  0.33879609  0.29676750  0.60616224  1
  O2-  O254  1  0.32591615  0.29518256  0.93371285  1
  O2-  O255  1  0.33563950  0.79484593  0.27350233  1
  O2-  O256  1  0.34058023  0.79657159  0.60001859  1
  O2-  O257  1  0.33273129  0.79120081  0.93244615  1
  O2-  O258  1  0.83815419  0.29681786  0.27214219  1
  O2-  O259  1  0.83022370  0.28657477  0.59694980  1
  O2-  O260  1  0.83654384  0.28490024  0.93492143  1
  O2-  O261  1  0.83129421  0.78713327  0.26823047  1
  O2-  O262  1  0.82818686  0.79050690  0.59814810  1
  O2-  O263  1  0.83144596  0.78861121  0.93079267  1
  O2-  O264  1  0.42235051  0.03597285  0.06859976  1
  O2-  O265  1  0.41056700  0.03950972  0.39622217  1
  O2-  O266  1  0.42071949  0.04075111  0.73467603  1
  O2-  O267  1  0.42443403  0.54897993  0.06540301  1
  O2-  O268  1  0.42032855  0.55253772  0.39588710  1
  O2-  O269  1  0.41670482  0.54591570  0.72927719  1
  O2-  O270  1  0.91171025  0.05261369  0.06487420  1
  O2-  O271  1  0.91770136  0.04549843  0.39857274  1
  O2-  O272  1  0.91215412  0.04702304  0.72820432  1
  O2-  O273  1  0.90873895  0.54322753  0.06220705  1
  O2-  O274  1  0.91552344  0.54118420  0.40444271  1
  O2-  O275  1  0.91677643  0.55701063  0.72806703  1
  O2-  O276  1  0.29733766  0.16783502  0.07246671  1
  O2-  O277  1  0.29104263  0.15964156  0.39486229  1
  O2-  O278  1  0.29922472  0.17153251  0.73433899  1
  O2-  O279  1  0.29472419  0.66876023  0.06911333  1
  O2-  O280  1  0.29771418  0.66754112  0.40028208  1
  O2-  O281  1  0.30378937  0.66906384  0.72145836  1
  O2-  O282  1  0.78589624  0.16199532  0.06581457  1
  O2-  O283  1  0.80027536  0.16787430  0.39907395  1
  O2-  O284  1  0.78638154  0.15982293  0.73073291  1
  O2-  O285  1  0.78642996  0.66155824  0.06261583  1
  O2-  O286  1  0.78500146  0.66405516  0.40454756  1
  O2-  O287  1  0.78430918  0.66316008  0.73329029  1
