# generated using pymatgen
data_Ca2Al2SiO7
_symmetry_space_group_name_H-M   'P 1'
_cell_length_a   15.47038298
_cell_length_b   15.46931210
_cell_length_c   15.29225366
_cell_angle_alpha   89.98947072
_cell_angle_beta   90.00004592
_cell_angle_gamma   90.00016093
_symmetry_Int_Tables_number   1
_chemical_formula_structural   Ca2Al2SiO7
_chemical_formula_sum   'Ca48 Al48 Si24 O168'
_cell_volume   3659.68370690
_cell_formula_units_Z   24
loop_
 _symmetry_equiv_pos_site_id
 _symmetry_equiv_pos_as_xyz
  1  'x, y, z'
loop_
 _atom_type_symbol
 _atom_type_oxidation_number
  Ca2+  2.0
  Al0+  0.0
  Si0+  0.0
  O2-  -2.0
loop_
 _atom_site_type_symbol
 _atom_site_label
 _atom_site_symmetry_multiplicity
 _atom_site_fract_x
 _atom_site_fract_y
 _atom_site_fract_z
 _atom_site_occupancy
  Ca2+  Ca0  1  0.17153307  0.07436903  0.18258800  1
  Ca2+  Ca1  1  0.16529650  0.07740364  0.50782877  1
  Ca2+  Ca2  1  0.16498595  0.07780072  0.82855910  1
  Ca2+  Ca3  1  0.16980489  0.58115434  0.17586575  1
  Ca2+  Ca4  1  0.16800656  0.57299785  0.50793744  1
  Ca2+  Ca5  1  0.16072748  0.58537300  0.83010242  1
  Ca2+  Ca6  1  0.66972478  0.08672566  0.17425996  1
  Ca2+  Ca7  1  0.67962916  0.09168694  0.50206245  1
  Ca2+  Ca8  1  0.67287251  0.08398298  0.83505205  1
  Ca2+  Ca9  1  0.66737977  0.58405603  0.17461798  1
  Ca2+  Ca10  1  0.67176400  0.58464834  0.50584257  1
  Ca2+  Ca11  1  0.67474445  0.58522809  0.83159038  1
  Ca2+  Ca12  1  0.08516066  0.33112004  0.17194229  1
  Ca2+  Ca13  1  0.08173956  0.32776969  0.49573676  1
  Ca2+  Ca14  1  0.08141433  0.32690385  0.81886765  1
  Ca2+  Ca15  1  0.08192210  0.83103165  0.16072343  1
  Ca2+  Ca16  1  0.08701644  0.83555050  0.50236511  1
  Ca2+  Ca17  1  0.07959676  0.82392650  0.82343976  1
  Ca2+  Ca18  1  0.57947866  0.32134542  0.16532220  1
  Ca2+  Ca19  1  0.57817526  0.32836737  0.49291800  1
  Ca2+  Ca20  1  0.58203032  0.32743380  0.83081516  1
  Ca2+  Ca21  1  0.57502573  0.82873271  0.16381444  1
  Ca2+  Ca22  1  0.57505901  0.82796789  0.49692979  1
  Ca2+  Ca23  1  0.56951754  0.83801147  0.82717880  1
  Ca2+  Ca24  1  0.32554157  0.42631086  0.17902523  1
  Ca2+  Ca25  1  0.32300287  0.42446348  0.50606582  1
  Ca2+  Ca26  1  0.32546070  0.42147689  0.82998100  1
  Ca2+  Ca27  1  0.32750805  0.91748454  0.17405336  1
  Ca2+  Ca28  1  0.32284294  0.92390420  0.50560308  1
  Ca2+  Ca29  1  0.33084666  0.91212759  0.82931488  1
  Ca2+  Ca30  1  0.83332548  0.41545782  0.17417254  1
  Ca2+  Ca31  1  0.83658084  0.41603430  0.50763500  1
  Ca2+  Ca32  1  0.84600295  0.42540481  0.82882818  1
  Ca2+  Ca33  1  0.83450653  0.92299476  0.17513519  1
  Ca2+  Ca34  1  0.83604183  0.92821070  0.50822306  1
  Ca2+  Ca35  1  0.84547673  0.92073337  0.83303093  1
  Ca2+  Ca36  1  0.42735446  0.15418291  0.16618254  1
  Ca2+  Ca37  1  0.41983215  0.15655200  0.49326970  1
  Ca2+  Ca38  1  0.42307265  0.15898373  0.82628118  1
  Ca2+  Ca39  1  0.41642948  0.66924733  0.16421817  1
  Ca2+  Ca40  1  0.41019373  0.66761396  0.49668853  1
  Ca2+  Ca41  1  0.41227424  0.67676126  0.82384574  1
  Ca2+  Ca42  1  0.92122041  0.16747490  0.17362628  1
  Ca2+  Ca43  1  0.92571880  0.17019348  0.49670847  1
  Ca2+  Ca44  1  0.92354956  0.17167720  0.81986923  1
  Ca2+  Ca45  1  0.92640393  0.67694969  0.15679278  1
  Ca2+  Ca46  1  0.92068031  0.66807223  0.50318635  1
  Ca2+  Ca47  1  0.92494444  0.67466832  0.82279277  1
  Al0+  Al48  1  0.00091341  0.00295330  0.00077429  1
  Al0+  Al49  1  -0.00224496  0.00162473  0.33658321  1
  Al0+  Al50  1  0.00006414  0.00025947  0.66990111  1
  Al0+  Al51  1  0.00026807  0.49964899  0.00125560  1
  Al0+  Al52  1  -0.00149341  0.50168024  0.33121545  1
  Al0+  Al53  1  -0.00216891  0.50117672  0.66854221  1
  Al0+  Al54  1  0.50316694  -0.00060660  -0.00723895  1
  Al0+  Al55  1  0.50025252  -0.00403233  0.33081031  1
  Al0+  Al56  1  0.50123988  -0.00205499  0.66284680  1
  Al0+  Al57  1  0.50072541  0.49818667  0.00112136  1
  Al0+  Al58  1  0.50235313  0.49999766  0.33150766  1
  Al0+  Al59  1  0.50043778  0.49800097  0.67214812  1
  Al0+  Al60  1  0.25204843  0.25131422  0.00251177  1
  Al0+  Al61  1  0.25063655  0.25068829  0.33426333  1
  Al0+  Al62  1  0.25304736  0.25022659  0.67182066  1
  Al0+  Al63  1  0.25032982  0.74992670  -0.00557024  1
  Al0+  Al64  1  0.24915791  0.75124369  0.33847474  1
  Al0+  Al65  1  0.25033633  0.75077739  0.66364602  1
  Al0+  Al66  1  0.74936495  0.25018703  -0.00276339  1
  Al0+  Al67  1  0.74836709  0.25118874  0.32915725  1
  Al0+  Al68  1  0.74892521  0.24844083  0.66965872  1
  Al0+  Al69  1  0.74902805  0.75160194  -0.00093685  1
  Al0+  Al70  1  0.74840142  0.75003467  0.32837747  1
  Al0+  Al71  1  0.74822828  0.74949788  0.66880360  1
  Al0+  Al72  1  0.07317141  0.17760218  0.31851440  1
  Al0+  Al73  1  0.32371869  0.07077755  0.34521564  1
  Al0+  Al74  1  0.07100718  0.67921649  0.64844865  1
  Al0+  Al75  1  0.92739525  0.32096890  0.65330178  1
  Al0+  Al76  1  0.82055540  0.07054920  0.68166787  1
  Al0+  Al77  1  0.43085004  0.81904848  0.98589737  1
  Al0+  Al78  1  0.32387760  0.07056530  0.68233570  1
  Al0+  Al79  1  0.57157725  0.67794508  0.32001762  1
  Al0+  Al80  1  0.17618788  0.92952049  0.34816031  1
  Al0+  Al81  1  0.17590040  0.42922242  0.34830044  1
  Al0+  Al82  1  0.92938695  0.32250668  0.31800022  1
  Al0+  Al83  1  0.81764823  0.07238733  0.34694301  1
  Al0+  Al84  1  0.81989233  0.57166271  0.67997088  1
  Al0+  Al85  1  0.57040289  0.18024517  0.98421133  1
  Al0+  Al86  1  0.17850657  0.92906287  0.68401176  1
  Al0+  Al87  1  0.92683713  0.82177670  0.65008681  1
  Al0+  Al88  1  0.32306076  0.57099927  0.34722945  1
  Al0+  Al89  1  0.42887880  0.82086696  0.64925134  1
  Al0+  Al90  1  0.17756891  0.42934706  0.68249885  1
  Al0+  Al91  1  0.56861711  0.17821332  0.32084843  1
  Al0+  Al92  1  0.32180022  0.57137308  0.68285418  1
  Al0+  Al93  1  0.07044159  0.67845556  0.98531590  1
  Al0+  Al94  1  0.92786912  0.82437526  0.98620144  1
  Al0+  Al95  1  0.07399868  0.17948935  0.65281214  1
  Si0+  Si96  1  0.67763799  0.42615982  0.68485837  1
  Si0+  Si97  1  0.57012161  0.17858509  0.65063433  1
  Si0+  Si98  1  0.92931646  0.31965833  0.98585864  1
  Si0+  Si99  1  0.67743855  0.92987072  0.01563215  1
  Si0+  Si100  1  0.57043130  0.67552803  0.65137057  1
  Si0+  Si101  1  0.32074739  0.57136503  0.01428655  1
  Si0+  Si102  1  0.68028150  0.42945076  0.34720918  1
  Si0+  Si103  1  0.42704815  0.81895839  0.31571234  1
  Si0+  Si104  1  0.67867583  0.92773997  0.68358031  1
  Si0+  Si105  1  0.18000076  0.93019455  0.01425958  1
  Si0+  Si106  1  0.57272931  0.67470048  0.98211984  1
  Si0+  Si107  1  0.32356323  0.07076824  0.01400552  1
  Si0+  Si108  1  0.67922750  0.42854538  0.01718939  1
  Si0+  Si109  1  0.43056331  0.32217341  0.65231030  1
  Si0+  Si110  1  0.82082527  0.07196974  0.01656558  1
  Si0+  Si111  1  0.42779661  0.32369549  0.31725989  1
  Si0+  Si112  1  0.07399356  0.18063266  0.98651116  1
  Si0+  Si113  1  0.92744388  0.82167995  0.31949674  1
  Si0+  Si114  1  0.82056895  0.57122806  0.01675743  1
  Si0+  Si115  1  0.67851614  0.92540410  0.34921660  1
  Si0+  Si116  1  0.42776844  0.32345243  0.98227134  1
  Si0+  Si117  1  0.82000775  0.57304475  0.34631457  1
  Si0+  Si118  1  0.17822404  0.42774996  0.01686654  1
  Si0+  Si119  1  0.07038871  0.68051707  0.31922085  1
  O2-  O120  1  0.25085547  0.00179399  0.05652609  1
  O2-  O121  1  0.24510559  0.00653992  0.39441348  1
  O2-  O122  1  0.25117453  0.00092647  0.73465371  1
  O2-  O123  1  0.24888104  0.50093939  0.05661506  1
  O2-  O124  1  0.25101212  0.49898705  0.39585927  1
  O2-  O125  1  0.24637978  0.50386532  0.73456447  1
  O2-  O126  1  0.75308288  -0.00339526  0.05761476  1
  O2-  O127  1  0.74348449  -0.00307417  0.39335339  1
  O2-  O128  1  0.75012284  -0.00767416  0.72994932  1
  O2-  O129  1  0.74842496  0.50139600  0.06016263  1
  O2-  O130  1  0.75103068  0.50029094  0.38873260  1
  O2-  O131  1  0.74776988  0.49409724  0.72794027  1
  O2-  O132  1  0.00295819  0.25196081  0.26737135  1
  O2-  O133  1  0.00242872  0.25274554  0.60415843  1
  O2-  O134  1  0.00327959  0.25203512  0.94495250  1
  O2-  O135  1  0.00133755  0.75371886  0.27705137  1
  O2-  O136  1  0.00011599  0.75263487  0.59814672  1
  O2-  O137  1  -0.00281248  0.74999868  0.93734740  1
  O2-  O138  1  0.48913267  0.24762899  0.27298477  1
  O2-  O139  1  0.49722844  0.24746618  0.60931084  1
  O2-  O140  1  0.49328385  0.25201089  0.93744177  1
  O2-  O141  1  0.49395260  0.74805775  0.27164699  1
  O2-  O142  1  0.49952744  0.74042239  0.60592530  1
  O2-  O143  1  0.50389971  0.74250728  0.93854465  1
  O2-  O144  1  0.07406373  0.17973920  0.09136664  1
  O2-  O145  1  0.06972823  0.17548080  0.43092641  1
  O2-  O146  1  0.07110521  0.18106771  0.76780718  1
  O2-  O147  1  0.07032720  0.67954492  0.09994842  1
  O2-  O148  1  0.06783763  0.67787064  0.42322928  1
  O2-  O149  1  0.06731478  0.67945604  0.76231601  1
  O2-  O150  1  0.57032091  0.18077335  0.09737927  1
  O2-  O151  1  0.57125505  0.18295814  0.43357853  1
  O2-  O152  1  0.57077906  0.18011002  0.75612219  1
  O2-  O153  1  0.57243940  0.67460472  0.08789842  1
  O2-  O154  1  0.57682424  0.68104086  0.43228122  1
  O2-  O155  1  0.57052761  0.67657438  0.75729733  1
  O2-  O156  1  0.17707475  0.43469948  0.23337802  1
  O2-  O157  1  0.18036593  0.42879323  0.56943327  1
  O2-  O158  1  0.17794900  0.42445524  0.91257889  1
  O2-  O159  1  0.17882610  0.92607187  0.23303589  1
  O2-  O160  1  0.17960516  0.93142500  0.57087874  1
  O2-  O161  1  0.17888440  0.93092677  0.91011453  1
  O2-  O162  1  0.68080275  0.42994050  0.24162800  1
  O2-  O163  1  0.67473847  0.42596095  0.57929376  1
  O2-  O164  1  0.67835777  0.42809646  0.91256641  1
  O2-  O165  1  0.68075523  0.92451820  0.24297422  1
  O2-  O166  1  0.67807839  0.92956213  0.57809452  1
  O2-  O167  1  0.67382281  0.93293248  0.91110147  1
  O2-  O168  1  0.43002099  0.32602186  0.08765048  1
  O2-  O169  1  0.43468089  0.32937894  0.42224797  1
  O2-  O170  1  0.43519346  0.32345229  0.75770724  1
  O2-  O171  1  0.43174613  0.81789192  0.09920938  1
  O2-  O172  1  0.42981316  0.82010180  0.42054821  1
  O2-  O173  1  0.43364245  0.82133226  0.76284186  1
  O2-  O174  1  0.92743910  0.31957278  0.09080148  1
  O2-  O175  1  0.92630941  0.32274121  0.43036772  1
  O2-  O176  1  0.92775765  0.31780699  0.76804707  1
  O2-  O177  1  0.92978936  0.82380330  0.10072027  1
  O2-  O178  1  0.92195461  0.81859863  0.42350234  1
  O2-  O179  1  0.92733719  0.81862088  0.76384782  1
  O2-  O180  1  0.32587298  0.06337972  0.23054983  1
  O2-  O181  1  0.32738443  0.06804563  0.56940236  1
  O2-  O182  1  0.32305876  0.07136680  0.90960850  1
  O2-  O183  1  0.32125338  0.57115404  0.23224632  1
  O2-  O184  1  0.32649303  0.56504900  0.56998406  1
  O2-  O185  1  0.32287680  0.56965091  0.91001782  1
  O2-  O186  1  0.81659292  0.06971800  0.23280333  1
  O2-  O187  1  0.81562927  0.07381251  0.56894284  1
  O2-  O188  1  0.82010450  0.07376349  0.91184059  1
  O2-  O189  1  0.81775933  0.57329398  0.24063727  1
  O2-  O190  1  0.81516731  0.57253086  0.56672259  1
  O2-  O191  1  0.81989288  0.56918099  0.91215271  1
  O2-  O192  1  0.03868499  0.08026930  0.26367456  1
  O2-  O193  1  0.04312369  0.08150864  0.60334046  1
  O2-  O194  1  0.04511689  0.08934929  0.93961517  1
  O2-  O195  1  0.03997858  0.59094283  0.26845040  1
  O2-  O196  1  0.03797376  0.58135198  0.59792021  1
  O2-  O197  1  0.04212537  0.57895272  0.93484231  1
  O2-  O198  1  0.54347281  0.07964981  0.26572061  1
  O2-  O199  1  0.54591751  0.08683027  0.60292502  1
  O2-  O200  1  0.54316250  0.08419311  0.92882572  1
  O2-  O201  1  0.54636619  0.58048035  0.26380543  1
  O2-  O202  1  0.54974686  0.57957475  0.60812159  1
  O2-  O203  1  0.54960688  0.57986709  0.93799398  1
  O2-  O204  1  0.17303404  0.20273682  0.26465893  1
  O2-  O205  1  0.17439037  0.20530902  0.60403962  1
  O2-  O206  1  0.16648143  0.20759016  0.94041298  1
  O2-  O207  1  0.16308559  0.70747637  0.27240455  1
  O2-  O208  1  0.17028579  0.70356876  0.59743239  1
  O2-  O209  1  0.16812850  0.70549842  0.93243456  1
  O2-  O210  1  0.66155723  0.21519387  0.26326276  1
  O2-  O211  1  0.66084720  0.21011059  0.60445588  1
  O2-  O212  1  0.66563318  0.21509895  0.92966355  1
  O2-  O213  1  0.66568267  0.71191968  0.26051404  1
  O2-  O214  1  0.66278470  0.70400132  0.60532157  1
  O2-  O215  1  0.66670923  0.70045228  0.93763209  1
  O2-  O216  1  0.08584849  0.45427741  0.06438089  1
  O2-  O217  1  0.07801254  0.46085928  0.39901744  1
  O2-  O218  1  0.07836738  0.45488642  0.73542881  1
  O2-  O219  1  0.08833913  0.95877430  0.06284210  1
  O2-  O220  1  0.07697116  0.95270714  0.39960746  1
  O2-  O221  1  0.08090719  0.95741808  0.73888005  1
  O2-  O222  1  0.58665090  0.45387325  0.06540332  1
  O2-  O223  1  0.58929158  0.45699980  0.39543715  1
  O2-  O224  1  0.58643368  0.45346937  0.73522373  1
  O2-  O225  1  0.58763439  0.96247978  0.06493965  1
  O2-  O226  1  0.58348675  0.94649266  0.39245305  1
  O2-  O227  1  0.58740837  0.96008327  0.73053286  1
  O2-  O228  1  0.20848509  0.33703719  0.06640498  1
  O2-  O229  1  0.19965159  0.32908319  0.39757532  1
  O2-  O230  1  0.21145699  0.33341641  0.73845113  1
  O2-  O231  1  0.20878596  0.83754236  0.06027381  1
  O2-  O232  1  0.20700885  0.83324201  0.40195422  1
  O2-  O233  1  0.20874633  0.83053315  0.73514701  1
  O2-  O234  1  0.71030032  0.33706903  0.06422386  1
  O2-  O235  1  0.70698200  0.33820609  0.39493122  1
  O2-  O236  1  0.70179739  0.33308972  0.73253668  1
  O2-  O237  1  0.69866673  0.83532571  0.06198866  1
  O2-  O238  1  0.70695304  0.83295735  0.39533401  1
  O2-  O239  1  0.69679228  0.83294012  0.73007910  1
  O2-  O240  1  0.46274418  0.41275020  0.26621500  1
  O2-  O241  1  0.46424388  0.41161598  0.60406899  1
  O2-  O242  1  0.45801582  0.41531008  0.93498621  1
  O2-  O243  1  0.45690482  0.91010877  0.26622059  1
  O2-  O244  1  0.46738158  0.91419997  0.59424029  1
  O2-  O245  1  0.46504275  0.91345127  0.93055317  1
  O2-  O246  1  0.95495261  0.42188678  0.26259811  1
  O2-  O247  1  0.94723730  0.42199125  0.60488284  1
  O2-  O248  1  0.95431026  0.41327257  0.94112557  1
  O2-  O249  1  0.95238269  0.91419693  0.27240817  1
  O2-  O250  1  0.95252116  0.92203679  0.60142071  1
  O2-  O251  1  0.95663372  0.92356787  0.93595424  1
  O2-  O252  1  0.33196503  0.30809817  0.27280291  1
  O2-  O253  1  0.33747325  0.29965833  0.60750905  1
  O2-  O254  1  0.33287685  0.30048971  0.93826207  1
  O2-  O255  1  0.33283067  0.79450963  0.26966124  1
  O2-  O256  1  0.33221823  0.79474168  0.59587476  1
  O2-  O257  1  0.33484208  0.79041481  0.93125543  1
  O2-  O258  1  0.83165259  0.29160674  0.26284440  1
  O2-  O259  1  0.82812146  0.29137181  0.60275207  1
  O2-  O260  1  0.83854725  0.29082732  0.93805695  1
  O2-  O261  1  0.83785369  0.79103674  0.26795802  1
  O2-  O262  1  0.82709130  0.79242820  0.60006752  1
  O2-  O263  1  0.82705029  0.80111105  0.93650601  1
  O2-  O264  1  0.41609540  0.03989346  0.05859301  1
  O2-  O265  1  0.42068900  0.03716403  0.39816793  1
  O2-  O266  1  0.42292625  0.03845457  0.73411888  1
  O2-  O267  1  0.41337770  0.54299707  0.06159718  1
  O2-  O268  1  0.42290813  0.54415987  0.39712917  1
  O2-  O269  1  0.41894258  0.53878277  0.73838768  1
  O2-  O270  1  0.91408171  0.04809941  0.06398008  1
  O2-  O271  1  0.91318837  0.04236216  0.40045431  1
  O2-  O272  1  0.91670642  0.04355803  0.73763425  1
  O2-  O273  1  0.91197091  0.54189299  0.06486122  1
  O2-  O274  1  0.91190581  0.54779949  0.39251886  1
  O2-  O275  1  0.91449082  0.54206139  0.73812989  1
  O2-  O276  1  0.30048678  0.16448656  0.06075393  1
  O2-  O277  1  0.31029141  0.17403142  0.39153351  1
  O2-  O278  1  0.30238533  0.17018020  0.73639739  1
  O2-  O279  1  0.29363458  0.66371037  0.06120453  1
  O2-  O280  1  0.29652937  0.66929532  0.39825521  1
  O2-  O281  1  0.29757000  0.67164739  0.73198026  1
  O2-  O282  1  0.78698851  0.16260325  0.06297209  1
  O2-  O283  1  0.78289104  0.16829233  0.39847046  1
  O2-  O284  1  0.78423431  0.16481115  0.73838714  1
  O2-  O285  1  0.79398923  0.66446296  0.06302524  1
  O2-  O286  1  0.78875402  0.66374403  0.39279090  1
  O2-  O287  1  0.78471568  0.66560527  0.73761812  1
