# generated using pymatgen
data_Ca2Al2SiO7
_symmetry_space_group_name_H-M   'P 1'
_cell_length_a   15.45338960
_cell_length_b   15.45367146
_cell_length_c   15.28001944
_cell_angle_alpha   90.00668252
_cell_angle_beta   89.99976272
_cell_angle_gamma   89.99698471
_symmetry_Int_Tables_number   1
_chemical_formula_structural   Ca2Al2SiO7
_chemical_formula_sum   'Ca48 Al48 Si24 O168'
_cell_volume   3649.04594859
_cell_formula_units_Z   24
loop_
 _symmetry_equiv_pos_site_id
 _symmetry_equiv_pos_as_xyz
  1  'x, y, z'
loop_
 _atom_type_symbol
 _atom_type_oxidation_number
  Ca2+  2.0
  Al0+  0.0
  Si0+  0.0
  O2-  -2.0
loop_
 _atom_site_type_symbol
 _atom_site_label
 _atom_site_symmetry_multiplicity
 _atom_site_fract_x
 _atom_site_fract_y
 _atom_site_fract_z
 _atom_site_occupancy
  Ca2+  Ca0  1  0.17929427  0.08843419  0.17531545  1
  Ca2+  Ca1  1  0.17024391  0.08005002  0.50396168  1
  Ca2+  Ca2  1  0.17462673  0.07435765  0.83748076  1
  Ca2+  Ca3  1  0.16286067  0.57982119  0.17314945  1
  Ca2+  Ca4  1  0.16255510  0.58176018  0.50155227  1
  Ca2+  Ca5  1  0.16476965  0.58752654  0.83519486  1
  Ca2+  Ca6  1  0.66309952  0.08098338  0.17102899  1
  Ca2+  Ca7  1  0.66852807  0.07146136  0.50575193  1
  Ca2+  Ca8  1  0.66507164  0.08319489  0.83288508  1
  Ca2+  Ca9  1  0.67225634  0.56979813  0.17809688  1
  Ca2+  Ca10  1  0.67671882  0.58484899  0.50702477  1
  Ca2+  Ca11  1  0.66901054  0.57990449  0.83601760  1
  Ca2+  Ca12  1  0.08057090  0.33102170  0.16740791  1
  Ca2+  Ca13  1  0.07803469  0.32980401  0.49298067  1
  Ca2+  Ca14  1  0.06836401  0.33347061  0.82720994  1
  Ca2+  Ca15  1  0.08389675  0.81916497  0.16283500  1
  Ca2+  Ca16  1  0.08802643  0.82333546  0.49686405  1
  Ca2+  Ca17  1  0.08723201  0.82362503  0.82498146  1
  Ca2+  Ca18  1  0.58468649  0.33134837  0.16182150  1
  Ca2+  Ca19  1  0.57215267  0.33627812  0.49449100  1
  Ca2+  Ca20  1  0.58449141  0.32796373  0.82882372  1
  Ca2+  Ca21  1  0.57420400  0.84080321  0.16558822  1
  Ca2+  Ca22  1  0.58093357  0.83763880  0.49639981  1
  Ca2+  Ca23  1  0.57338193  0.83281374  0.82378429  1
  Ca2+  Ca24  1  0.32630557  0.41633840  0.17882772  1
  Ca2+  Ca25  1  0.32812432  0.40886995  0.50229146  1
  Ca2+  Ca26  1  0.33501891  0.41803807  0.83471462  1
  Ca2+  Ca27  1  0.34233952  0.92706712  0.17117654  1
  Ca2+  Ca28  1  0.33352908  0.91731426  0.50352754  1
  Ca2+  Ca29  1  0.33246492  0.91193224  0.83707354  1
  Ca2+  Ca30  1  0.82490296  0.41570734  0.17130833  1
  Ca2+  Ca31  1  0.83228206  0.42464970  0.50320271  1
  Ca2+  Ca32  1  0.83319721  0.41773532  0.83724027  1
  Ca2+  Ca33  1  0.82416386  0.91764781  0.17627241  1
  Ca2+  Ca34  1  0.82279711  0.91997624  0.51045634  1
  Ca2+  Ca35  1  0.82778200  0.92094941  0.83136732  1
  Ca2+  Ca36  1  0.41838950  0.16853924  0.16404254  1
  Ca2+  Ca37  1  0.41072253  0.17541388  0.49361256  1
  Ca2+  Ca38  1  0.42022715  0.16832054  0.83311491  1
  Ca2+  Ca39  1  0.41434252  0.68180055  0.16274851  1
  Ca2+  Ca40  1  0.42408830  0.67931733  0.49833326  1
  Ca2+  Ca41  1  0.42399765  0.67643227  0.82335455  1
  Ca2+  Ca42  1  0.92313699  0.17172897  0.16125568  1
  Ca2+  Ca43  1  0.91932403  0.16724238  0.49749047  1
  Ca2+  Ca44  1  0.90819361  0.17800410  0.82628406  1
  Ca2+  Ca45  1  0.92541391  0.65501260  0.16871374  1
  Ca2+  Ca46  1  0.92256220  0.65829576  0.49649798  1
  Ca2+  Ca47  1  0.92713331  0.66095838  0.82603406  1
  Al0+  Al48  1  0.00043783  -0.00212418  0.00157787  1
  Al0+  Al49  1  0.00214292  -0.00094637  0.32670188  1
  Al0+  Al50  1  0.00166994  -0.00012670  0.67762119  1
  Al0+  Al51  1  0.00059655  0.49921167  -0.00735381  1
  Al0+  Al52  1  0.00057047  0.49815432  0.33600633  1
  Al0+  Al53  1  -0.00091185  0.49763075  0.66292621  1
  Al0+  Al54  1  0.49896471  0.00186077  -0.00557969  1
  Al0+  Al55  1  0.49971058  0.00257864  0.33923710  1
  Al0+  Al56  1  0.49926466  0.00200960  0.66734956  1
  Al0+  Al57  1  0.49911100  0.50124879  0.00658035  1
  Al0+  Al58  1  0.49808195  0.50182560  0.33187945  1
  Al0+  Al59  1  0.49899348  0.50075483  0.65943536  1
  Al0+  Al60  1  0.24978056  0.24913950  0.00286568  1
  Al0+  Al61  1  0.24992603  0.25082547  0.33366280  1
  Al0+  Al62  1  0.24839048  0.24946296  0.66765241  1
  Al0+  Al63  1  0.24912289  0.74959469  -0.00643052  1
  Al0+  Al64  1  0.25031591  0.75062062  0.32302151  1
  Al0+  Al65  1  0.25107657  0.74887717  0.66213920  1
  Al0+  Al66  1  0.74937689  0.24974353  -0.00312167  1
  Al0+  Al67  1  0.74911447  0.25030453  0.33806838  1
  Al0+  Al68  1  0.74899395  0.25115642  0.66195060  1
  Al0+  Al69  1  0.75166688  0.75005174  0.00276105  1
  Al0+  Al70  1  0.75028555  0.74985164  0.33973567  1
  Al0+  Al71  1  0.75215646  0.74906797  0.67603393  1
  Al0+  Al72  1  0.82252175  0.56941322  0.68293123  1
  Al0+  Al73  1  0.31964505  0.07073596  0.34792628  1
  Al0+  Al74  1  0.32037154  0.06933511  0.01439214  1
  Al0+  Al75  1  0.42898846  0.32259810  0.31866748  1
  Al0+  Al76  1  0.43177088  0.82238855  0.31859770  1
  Al0+  Al77  1  0.92762397  0.31992919  0.65018039  1
  Al0+  Al78  1  0.42981067  0.82259865  0.65028041  1
  Al0+  Al79  1  0.06782062  0.68036487  0.98454933  1
  Al0+  Al80  1  0.43200907  0.82063307  0.98543139  1
  Al0+  Al81  1  0.82056456  0.56886713  0.34899647  1
  Al0+  Al82  1  0.42777712  0.32029135  0.65410653  1
  Al0+  Al83  1  0.57488676  0.67932726  0.65255961  1
  Al0+  Al84  1  0.67953486  0.93117109  0.34600874  1
  Al0+  Al85  1  0.67897059  0.42837860  0.01269924  1
  Al0+  Al86  1  0.18102400  0.43014445  0.34715524  1
  Al0+  Al87  1  0.06919115  0.67847792  0.31929436  1
  Al0+  Al88  1  0.67511774  0.42637883  0.35093094  1
  Al0+  Al89  1  0.56968605  0.18124008  0.98677351  1
  Al0+  Al90  1  0.07139509  0.17730852  0.32028490  1
  Al0+  Al91  1  0.07002844  0.67954753  0.65112165  1
  Al0+  Al92  1  0.82123272  0.07303223  0.68196753  1
  Al0+  Al93  1  0.18159881  0.92678297  0.67946029  1
  Al0+  Al94  1  0.93073079  0.31729162  0.98708932  1
  Al0+  Al95  1  0.67717311  0.92863877  0.68472543  1
  Si0+  Si96  1  0.92774681  0.32025437  0.31676916  1
  Si0+  Si97  1  0.67910060  0.92995918  0.01470455  1
  Si0+  Si98  1  0.32043182  0.57257494  0.01440847  1
  Si0+  Si99  1  0.67522001  0.43002673  0.68263437  1
  Si0+  Si100  1  0.82108166  0.07193725  0.01555893  1
  Si0+  Si101  1  0.82622342  0.07195664  0.34765378  1
  Si0+  Si102  1  0.07482872  0.17575905  0.98271167  1
  Si0+  Si103  1  0.32079597  0.07451739  0.68475726  1
  Si0+  Si104  1  0.17863485  0.43025759  0.01326681  1
  Si0+  Si105  1  0.82388977  0.57100560  0.01658911  1
  Si0+  Si106  1  0.92492442  0.82489947  0.98214978  1
  Si0+  Si107  1  0.17788181  0.92527408  0.01875175  1
  Si0+  Si108  1  0.17891946  0.42789735  0.68263659  1
  Si0+  Si109  1  0.07133834  0.17660780  0.65221652  1
  Si0+  Si110  1  0.32097790  0.57639014  0.34937867  1
  Si0+  Si111  1  0.57504714  0.67893681  0.31583303  1
  Si0+  Si112  1  0.17774937  0.92615946  0.34711117  1
  Si0+  Si113  1  0.57186956  0.17866142  0.64756072  1
  Si0+  Si114  1  0.32066513  0.56972148  0.68000380  1
  Si0+  Si115  1  0.57155175  0.17975749  0.31848575  1
  Si0+  Si116  1  0.42567229  0.32462915  0.98528997  1
  Si0+  Si117  1  0.57340533  0.67588589  0.98637263  1
  Si0+  Si118  1  0.92590914  0.82225414  0.31771781  1
  Si0+  Si119  1  0.92930923  0.82415788  0.65279707  1
  O2-  O120  1  0.24353087  -0.00314236  0.06265139  1
  O2-  O121  1  0.24467040  -0.00447836  0.39251622  1
  O2-  O122  1  0.25775701  -0.00017855  0.72754831  1
  O2-  O123  1  0.25268639  0.49792378  0.05586659  1
  O2-  O124  1  0.25581218  0.50459283  0.39441280  1
  O2-  O125  1  0.25020102  0.49870613  0.72487892  1
  O2-  O126  1  0.75356707  -0.00248361  0.05791526  1
  O2-  O127  1  0.75850126  0.00237177  0.39085893  1
  O2-  O128  1  0.74842937  0.00254734  0.73403251  1
  O2-  O129  1  0.75112239  0.50610326  0.05943756  1
  O2-  O130  1  0.74563472  0.50024620  0.39951571  1
  O2-  O131  1  0.74460212  0.49718546  0.72863315  1
  O2-  O132  1  -0.00661050  0.24838983  0.27273766  1
  O2-  O133  1  0.00019015  0.24174453  0.60686563  1
  O2-  O134  1  0.00381817  0.24133129  0.93826664  1
  O2-  O135  1  -0.00655520  0.75245999  0.27269113  1
  O2-  O136  1  -0.00428545  0.75509237  0.60566539  1
  O2-  O137  1  -0.00636677  0.75592070  0.93897219  1
  O2-  O138  1  0.50803148  0.25254368  0.27256202  1
  O2-  O139  1  0.50114795  0.24593168  0.60518832  1
  O2-  O140  1  0.49666412  0.25875724  0.94117015  1
  O2-  O141  1  0.50640376  0.74764766  0.27066281  1
  O2-  O142  1  0.50829479  0.75652654  0.60216011  1
  O2-  O143  1  0.50692248  0.74547041  0.94072227  1
  O2-  O144  1  0.07488642  0.17856318  0.08837180  1
  O2-  O145  1  0.06944050  0.17725848  0.43344153  1
  O2-  O146  1  0.07421930  0.18096727  0.75792066  1
  O2-  O147  1  0.06679867  0.67817132  0.09773267  1
  O2-  O148  1  0.07016206  0.68028137  0.43197252  1
  O2-  O149  1  0.07026304  0.67992261  0.76449463  1
  O2-  O150  1  0.56977537  0.18009873  0.09993946  1
  O2-  O151  1  0.56945980  0.17821676  0.42366287  1
  O2-  O152  1  0.57203376  0.18070854  0.75359499  1
  O2-  O153  1  0.57149236  0.67644138  0.09186230  1
  O2-  O154  1  0.57459043  0.68084190  0.42105867  1
  O2-  O155  1  0.56868656  0.67560578  0.76683981  1
  O2-  O156  1  0.18019764  0.43171821  0.23314736  1
  O2-  O157  1  0.17995295  0.42628756  0.57784316  1
  O2-  O158  1  0.17883130  0.43095024  0.90798901  1
  O2-  O159  1  0.17844608  0.92616847  0.24141903  1
  O2-  O160  1  0.18093555  0.92829764  0.56626887  1
  O2-  O161  1  0.17952180  0.92484043  0.91309573  1
  O2-  O162  1  0.67937376  0.42544046  0.23658387  1
  O2-  O163  1  0.67457491  0.43192191  0.57750544  1
  O2-  O164  1  0.67921966  0.42866872  0.89960502  1
  O2-  O165  1  0.67939354  0.93427470  0.23185925  1
  O2-  O166  1  0.67923728  0.93082734  0.57101931  1
  O2-  O167  1  0.67984595  0.93084547  0.91030305  1
  O2-  O168  1  0.42387981  0.32342075  0.09054289  1
  O2-  O169  1  0.42641833  0.31751752  0.43164324  1
  O2-  O170  1  0.42796227  0.32016301  0.76776011  1
  O2-  O171  1  0.43353688  0.82169031  0.09873344  1
  O2-  O172  1  0.43139847  0.82156225  0.43104212  1
  O2-  O173  1  0.42801748  0.81749072  0.76425241  1
  O2-  O174  1  0.93246029  0.31656232  0.10030896  1
  O2-  O175  1  0.92977555  0.31978039  0.42213493  1
  O2-  O176  1  0.93028484  0.32058479  0.76384846  1
  O2-  O177  1  0.92370408  0.82689981  0.08780257  1
  O2-  O178  1  0.92745444  0.82555807  0.42283123  1
  O2-  O179  1  0.93282834  0.82299804  0.75871993  1
  O2-  O180  1  0.32090390  0.06971020  0.23447239  1
  O2-  O181  1  0.31633651  0.07868998  0.57943779  1
  O2-  O182  1  0.31878339  0.06931267  0.90132096  1
  O2-  O183  1  0.31745068  0.57632307  0.24305359  1
  O2-  O184  1  0.31891779  0.56928097  0.57525913  1
  O2-  O185  1  0.32107774  0.57167827  0.90910304  1
  O2-  O186  1  0.82520282  0.07167057  0.24139904  1
  O2-  O187  1  0.82203836  0.06970136  0.56808379  1
  O2-  O188  1  0.81971228  0.07256840  0.91103712  1
  O2-  O189  1  0.82135006  0.56556201  0.23454834  1
  O2-  O190  1  0.82467285  0.56621693  0.57033965  1
  O2-  O191  1  0.82498521  0.56942037  0.91125308  1
  O2-  O192  1  0.04637228  0.08082754  0.26168685  1
  O2-  O193  1  0.04874221  0.08113380  0.60935306  1
  O2-  O194  1  0.05281818  0.07941538  0.94078567  1
  O2-  O195  1  0.03770190  0.58115284  0.26569071  1
  O2-  O196  1  0.03985448  0.58242970  0.59906978  1
  O2-  O197  1  0.03858921  0.58442846  0.92825360  1
  O2-  O198  1  0.54057394  0.08816418  0.27127428  1
  O2-  O199  1  0.54773856  0.08438848  0.60322097  1
  O2-  O200  1  0.53603900  0.08767568  0.92907986  1
  O2-  O201  1  0.54907667  0.58513797  0.27004801  1
  O2-  O202  1  0.54096301  0.58430601  0.59650475  1
  O2-  O203  1  0.54581185  0.58259581  0.94032029  1
  O2-  O204  1  0.16497152  0.21474244  0.26493622  1
  O2-  O205  1  0.16313689  0.20602314  0.60485101  1
  O2-  O206  1  0.16757783  0.20370937  0.93630049  1
  O2-  O207  1  0.16398271  0.70924611  0.26103265  1
  O2-  O208  1  0.16638667  0.70900846  0.59704412  1
  O2-  O209  1  0.16453423  0.70954627  0.92967159  1
  O2-  O210  1  0.66769766  0.19982757  0.27345845  1
  O2-  O211  1  0.66427973  0.20398128  0.59992716  1
  O2-  O212  1  0.66537420  0.21034976  0.93052703  1
  O2-  O213  1  0.66925433  0.70378217  0.27024140  1
  O2-  O214  1  0.67688741  0.70158717  0.60544363  1
  O2-  O215  1  0.66918744  0.69858188  0.94313493  1
  O2-  O216  1  0.08790514  0.46216137  0.06031261  1
  O2-  O217  1  0.08515343  0.45953019  0.40207436  1
  O2-  O218  1  0.08765450  0.45761699  0.72953960  1
  O2-  O219  1  0.08182436  0.94565003  0.06313490  1
  O2-  O220  1  0.08300311  0.94981488  0.39179159  1
  O2-  O221  1  0.08730103  0.95659090  0.73921105  1
  O2-  O222  1  0.58148991  0.45515187  0.06846345  1
  O2-  O223  1  0.57409248  0.45234699  0.39883133  1
  O2-  O224  1  0.58115264  0.45562630  0.72869439  1
  O2-  O225  1  0.58843533  0.96300824  0.06055958  1
  O2-  O226  1  0.58658328  0.96633633  0.40286428  1
  O2-  O227  1  0.57809842  0.95878046  0.73662493  1
  O2-  O228  1  0.20225596  0.33720481  0.06069220  1
  O2-  O229  1  0.21213031  0.33470226  0.40229122  1
  O2-  O230  1  0.20658418  0.33670931  0.73210973  1
  O2-  O231  1  0.20615749  0.83151850  0.06306978  1
  O2-  O232  1  0.20594379  0.83259568  0.39137426  1
  O2-  O233  1  0.21305660  0.82984608  0.73381647  1
  O2-  O234  1  0.71315352  0.33250467  0.06665188  1
  O2-  O235  1  0.70270737  0.32806403  0.40443892  1
  O2-  O236  1  0.70095950  0.33508667  0.72557630  1
  O2-  O237  1  0.70342730  0.83668057  0.06283605  1
  O2-  O238  1  0.70567047  0.83425088  0.40031962  1
  O2-  O239  1  0.70574300  0.83152509  0.74015939  1
  O2-  O240  1  0.45092403  0.42214775  0.26527064  1
  O2-  O241  1  0.45491231  0.41619379  0.59796429  1
  O2-  O242  1  0.44785434  0.42053024  0.94207006  1
  O2-  O243  1  0.46546254  0.91982034  0.26691179  1
  O2-  O244  1  0.45027334  0.92449780  0.60179988  1
  O2-  O245  1  0.46247136  0.91569725  0.92993813  1
  O2-  O246  1  0.95884279  0.41162530  0.27006357  1
  O2-  O247  1  0.96454384  0.41305350  0.59510708  1
  O2-  O248  1  0.96362729  0.41203598  0.93061291  1
  O2-  O249  1  0.95116957  0.91460403  0.26748200  1
  O2-  O250  1  0.95509541  0.91866714  0.60901080  1
  O2-  O251  1  0.94998910  0.91899235  0.93606644  1
  O2-  O252  1  0.33381794  0.28788135  0.26422805  1
  O2-  O253  1  0.33043503  0.28877132  0.60118973  1
  O2-  O254  1  0.33254151  0.29677161  0.93848308  1
  O2-  O255  1  0.33644069  0.79176197  0.26108823  1
  O2-  O256  1  0.33465168  0.78730803  0.59590307  1
  O2-  O257  1  0.33539002  0.78910150  0.93249860  1
  O2-  O258  1  0.83253420  0.29667869  0.27238333  1
  O2-  O259  1  0.83066626  0.29353105  0.59563226  1
  O2-  O260  1  0.83507604  0.28702739  0.93177159  1
  O2-  O261  1  0.83186852  0.79708776  0.27150811  1
  O2-  O262  1  0.83402093  0.80051147  0.61098651  1
  O2-  O263  1  0.83064874  0.80006892  0.93667645  1
  O2-  O264  1  0.41734576  0.03663785  0.06688444  1
  O2-  O265  1  0.41469218  0.04145554  0.40420646  1
  O2-  O266  1  0.41687436  0.05593216  0.72750814  1
  O2-  O267  1  0.41242417  0.55101840  0.06464325  1
  O2-  O268  1  0.41637202  0.55608821  0.39256258  1
  O2-  O269  1  0.41214181  0.54085390  0.72823531  1
  O2-  O270  1  0.91525339  0.04776920  0.06184136  1
  O2-  O271  1  0.92072896  0.04724820  0.39194410  1
  O2-  O272  1  0.91878494  0.04725839  0.73907823  1
  O2-  O273  1  0.91646518  0.53887539  0.06144183  1
  O2-  O274  1  0.91774212  0.53727825  0.40195349  1
  O2-  O275  1  0.91843893  0.53263544  0.73627866  1
  O2-  O276  1  0.29196395  0.16739549  0.06859979  1
  O2-  O277  1  0.28605447  0.16600173  0.40152961  1
  O2-  O278  1  0.28857814  0.16501845  0.73478321  1
  O2-  O279  1  0.28760977  0.66315607  0.06136950  1
  O2-  O280  1  0.29059214  0.66889315  0.39437464  1
  O2-  O281  1  0.29124249  0.66049214  0.72854802  1
  O2-  O282  1  0.79002396  0.16185386  0.06407311  1
  O2-  O283  1  0.80148371  0.16517604  0.39397316  1
  O2-  O284  1  0.79011838  0.17235987  0.73283949  1
  O2-  O285  1  0.80481203  0.66699802  0.06185415  1
  O2-  O286  1  0.79828068  0.66885005  0.40145725  1
  O2-  O287  1  0.79908654  0.66632103  0.73988971  1
