# generated using pymatgen
data_Ca2Al2SiO7
_symmetry_space_group_name_H-M   'P 1'
_cell_length_a   15.46036558
_cell_length_b   15.46169806
_cell_length_c   15.28587001
_cell_angle_alpha   90.00575983
_cell_angle_beta   90.00822785
_cell_angle_gamma   89.98091293
_symmetry_Int_Tables_number   1
_chemical_formula_structural   Ca2Al2SiO7
_chemical_formula_sum   'Ca48 Al48 Si24 O168'
_cell_volume   3653.98767745
_cell_formula_units_Z   24
loop_
 _symmetry_equiv_pos_site_id
 _symmetry_equiv_pos_as_xyz
  1  'x, y, z'
loop_
 _atom_type_symbol
 _atom_type_oxidation_number
  Ca2+  2.0
  Al0+  0.0
  Si0+  0.0
  O2-  -2.0
loop_
 _atom_site_type_symbol
 _atom_site_label
 _atom_site_symmetry_multiplicity
 _atom_site_fract_x
 _atom_site_fract_y
 _atom_site_fract_z
 _atom_site_occupancy
  Ca2+  Ca0  1  0.16222207  0.07994391  0.16984376  1
  Ca2+  Ca1  1  0.17155958  0.08910526  0.50763384  1
  Ca2+  Ca2  1  0.16788959  0.08466920  0.83732382  1
  Ca2+  Ca3  1  0.17200081  0.58776687  0.17106560  1
  Ca2+  Ca4  1  0.17056505  0.58928034  0.50727265  1
  Ca2+  Ca5  1  0.17599044  0.58852245  0.83490346  1
  Ca2+  Ca6  1  0.66779330  0.08001951  0.17736653  1
  Ca2+  Ca7  1  0.66452269  0.07609386  0.50987139  1
  Ca2+  Ca8  1  0.67148093  0.08467359  0.82718347  1
  Ca2+  Ca9  1  0.66335840  0.57173844  0.17234223  1
  Ca2+  Ca10  1  0.66420780  0.57011884  0.50611174  1
  Ca2+  Ca11  1  0.66806014  0.56934695  0.83642374  1
  Ca2+  Ca12  1  0.08636257  0.31946969  0.16245863  1
  Ca2+  Ca13  1  0.08006814  0.32270985  0.49843596  1
  Ca2+  Ca14  1  0.07796759  0.32272862  0.82246924  1
  Ca2+  Ca15  1  0.08064445  0.83235609  0.16516587  1
  Ca2+  Ca16  1  0.07165222  0.82637119  0.49754690  1
  Ca2+  Ca17  1  0.08167291  0.83087323  0.82503444  1
  Ca2+  Ca18  1  0.58605784  0.33518052  0.16819116  1
  Ca2+  Ca19  1  0.57946435  0.32732557  0.49660513  1
  Ca2+  Ca20  1  0.58151067  0.33136543  0.82205779  1
  Ca2+  Ca21  1  0.57041902  0.84138866  0.16499427  1
  Ca2+  Ca22  1  0.58035808  0.83926771  0.49193311  1
  Ca2+  Ca23  1  0.57773687  0.83443067  0.82766375  1
  Ca2+  Ca24  1  0.33737529  0.42280035  0.17199870  1
  Ca2+  Ca25  1  0.33672654  0.41850587  0.50844907  1
  Ca2+  Ca26  1  0.33929778  0.42811406  0.83395402  1
  Ca2+  Ca27  1  0.32914786  0.91088395  0.16940623  1
  Ca2+  Ca28  1  0.33426870  0.92492727  0.50656945  1
  Ca2+  Ca29  1  0.32761575  0.92459652  0.83840596  1
  Ca2+  Ca30  1  0.82210948  0.41528625  0.17290595  1
  Ca2+  Ca31  1  0.82371214  0.40844806  0.50707100  1
  Ca2+  Ca32  1  0.82190395  0.40075320  0.83181894  1
  Ca2+  Ca33  1  0.82709309  0.91645904  0.17726726  1
  Ca2+  Ca34  1  0.82663568  0.91684225  0.50795529  1
  Ca2+  Ca35  1  0.83454074  0.91932415  0.82924673  1
  Ca2+  Ca36  1  0.42423119  0.17250077  0.16872785  1
  Ca2+  Ca37  1  0.42518646  0.17313924  0.49767274  1
  Ca2+  Ca38  1  0.42194778  0.17392106  0.81965444  1
  Ca2+  Ca39  1  0.41391451  0.67700483  0.16256325  1
  Ca2+  Ca40  1  0.41595078  0.67267263  0.49705209  1
  Ca2+  Ca41  1  0.40900930  0.66985075  0.83116201  1
  Ca2+  Ca42  1  0.92781295  0.16152670  0.16496822  1
  Ca2+  Ca43  1  0.92211874  0.16256454  0.50297583  1
  Ca2+  Ca44  1  0.92641045  0.16544906  0.82291889  1
  Ca2+  Ca45  1  0.91768245  0.67100427  0.16853965  1
  Ca2+  Ca46  1  0.92285019  0.67458014  0.49497588  1
  Ca2+  Ca47  1  0.92386160  0.67422516  0.81940161  1
  Al0+  Al48  1  0.00072747  -0.00039811  0.00023455  1
  Al0+  Al49  1  -0.00006158  -0.00185412  0.32733705  1
  Al0+  Al50  1  -0.00128306  -0.00262478  0.66199857  1
  Al0+  Al51  1  -0.00117562  0.49988002  0.00022636  1
  Al0+  Al52  1  0.00175314  0.49943725  0.32903756  1
  Al0+  Al53  1  0.00067968  0.49886806  0.65939036  1
  Al0+  Al54  1  0.49931376  0.00128614  -0.00538094  1
  Al0+  Al55  1  0.49867291  0.00196192  0.32818086  1
  Al0+  Al56  1  0.49770767  0.00014101  0.67365836  1
  Al0+  Al57  1  0.50090771  0.50127363  0.00956367  1
  Al0+  Al58  1  0.49920613  0.50137154  0.33567263  1
  Al0+  Al59  1  0.49907841  0.50244442  0.67268959  1
  Al0+  Al60  1  0.25277666  0.25037814  -0.00414154  1
  Al0+  Al61  1  0.25103375  0.25141387  0.32487579  1
  Al0+  Al62  1  0.25099440  0.25237058  0.66590502  1
  Al0+  Al63  1  0.24970945  0.75226332  0.00377374  1
  Al0+  Al64  1  0.24976310  0.75086706  0.32876913  1
  Al0+  Al65  1  0.25103215  0.75065994  0.66697887  1
  Al0+  Al66  1  0.75046322  0.24846643  0.00707957  1
  Al0+  Al67  1  0.75116968  0.24878379  0.33483983  1
  Al0+  Al68  1  0.75011520  0.24542608  0.66819692  1
  Al0+  Al69  1  0.74895308  0.74946333  -0.00016318  1
  Al0+  Al70  1  0.75004170  0.74850025  0.33328734  1
  Al0+  Al71  1  0.74742052  0.74756360  0.66857352  1
  Al0+  Al72  1  0.07133996  0.17949843  0.31865279  1
  Al0+  Al73  1  0.92702991  0.32011524  0.65191642  1
  Al0+  Al74  1  0.67647180  0.92549161  0.68307191  1
  Al0+  Al75  1  0.92553963  0.82025000  0.65183902  1
  Al0+  Al76  1  0.43041889  0.32511466  0.65380242  1
  Al0+  Al77  1  0.68150065  0.42890324  0.01574987  1
  Al0+  Al78  1  0.31930427  0.57192367  0.67980341  1
  Al0+  Al79  1  0.07273706  0.17736370  0.65203388  1
  Al0+  Al80  1  0.68061950  0.42833348  0.67952476  1
  Al0+  Al81  1  0.31862079  0.57070848  0.01658851  1
  Al0+  Al82  1  0.07165606  0.67830257  0.31583915  1
  Al0+  Al83  1  0.07373418  0.67902044  0.65306828  1
  Al0+  Al84  1  0.57031206  0.17704990  0.65325788  1
  Al0+  Al85  1  0.57247789  0.17973252  0.31842229  1
  Al0+  Al86  1  0.07120065  0.17895524  0.98486362  1
  Al0+  Al87  1  0.82236785  0.06852506  0.68171016  1
  Al0+  Al88  1  0.43026932  0.82222663  0.32127731  1
  Al0+  Al89  1  0.43009696  0.32351259  0.31714408  1
  Al0+  Al90  1  0.31978453  0.07400148  0.67913616  1
  Al0+  Al91  1  0.42818657  0.82064127  0.98348530  1
  Al0+  Al92  1  0.67939293  0.42909469  0.35071402  1
  Al0+  Al93  1  0.67743674  0.92980659  0.34498970  1
  Al0+  Al94  1  0.92717227  0.81991022  0.31652780  1
  Al0+  Al95  1  0.17964330  0.93212916  0.01430799  1
  Si0+  Si96  1  0.82055767  0.06841461  0.01653095  1
  Si0+  Si97  1  0.17963414  0.42710984  0.34722141  1
  Si0+  Si98  1  0.92709332  0.32141781  0.98539431  1
  Si0+  Si99  1  0.57135766  0.67726930  0.98327922  1
  Si0+  Si100  1  0.82441531  0.07027148  0.35017521  1
  Si0+  Si101  1  0.82373005  0.57099063  0.68178611  1
  Si0+  Si102  1  0.82448066  0.57091106  0.35084345  1
  Si0+  Si103  1  0.67753127  0.92822079  0.01502360  1
  Si0+  Si104  1  0.43183752  0.32358731  0.98494795  1
  Si0+  Si105  1  0.42982970  0.82096786  0.65311258  1
  Si0+  Si106  1  0.57166455  0.67730887  0.31798779  1
  Si0+  Si107  1  0.07049402  0.67885603  0.98520306  1
  Si0+  Si108  1  0.31889864  0.07223331  0.34620894  1
  Si0+  Si109  1  0.17864090  0.92839853  0.34893256  1
  Si0+  Si110  1  0.17933906  0.92891733  0.68012894  1
  Si0+  Si111  1  0.17683006  0.42660568  0.01601119  1
  Si0+  Si112  1  0.92717968  0.82034488  0.98455059  1
  Si0+  Si113  1  0.57286061  0.17962210  0.98417975  1
  Si0+  Si114  1  0.57012886  0.67822416  0.65366820  1
  Si0+  Si115  1  0.31867168  0.57234757  0.34941550  1
  Si0+  Si116  1  0.17589558  0.42780856  0.68224829  1
  Si0+  Si117  1  0.32425309  0.07445424  0.01842808  1
  Si0+  Si118  1  0.92766463  0.32222947  0.31552508  1
  Si0+  Si119  1  0.82338066  0.57543165  0.01719545  1
  O2-  O120  1  0.25408029  0.00720999  0.06272890  1
  O2-  O121  1  0.24729895  0.00203289  0.38993716  1
  O2-  O122  1  0.24106339  0.00319060  0.72555341  1
  O2-  O123  1  0.24357120  0.49585909  0.06297708  1
  O2-  O124  1  0.24809449  0.50047809  0.39027368  1
  O2-  O125  1  0.24337945  0.49822013  0.72638763  1
  O2-  O126  1  0.74880068  -0.00201061  0.05839357  1
  O2-  O127  1  0.75286830  0.00331240  0.39152296  1
  O2-  O128  1  0.75056614  -0.00403176  0.73273263  1
  O2-  O129  1  0.75666094  0.50451693  0.06089217  1
  O2-  O130  1  0.75656925  0.50213879  0.39588267  1
  O2-  O131  1  0.76004558  0.49824331  0.72749014  1
  O2-  O132  1  -0.00407608  0.25325721  0.27094640  1
  O2-  O133  1  0.00026765  0.24916354  0.60245344  1
  O2-  O134  1  -0.00020110  0.25768179  0.94099559  1
  O2-  O135  1  -0.00087315  0.74886088  0.26452627  1
  O2-  O136  1  -0.00284543  0.74644130  0.60449731  1
  O2-  O137  1  -0.00398878  0.74645696  0.94366826  1
  O2-  O138  1  0.50534719  0.25534404  0.26611095  1
  O2-  O139  1  0.50074428  0.25172863  0.60435239  1
  O2-  O140  1  0.50198284  0.25152762  0.94348220  1
  O2-  O141  1  0.50781575  0.75052886  0.27386783  1
  O2-  O142  1  0.50449563  0.75407117  0.61119821  1
  O2-  O143  1  0.50360089  0.74606603  0.93743406  1
  O2-  O144  1  0.06841752  0.17836277  0.09823639  1
  O2-  O145  1  0.07355142  0.18068064  0.43090569  1
  O2-  O146  1  0.07196140  0.17906389  0.76592635  1
  O2-  O147  1  0.06977583  0.67974107  0.09011163  1
  O2-  O148  1  0.07310325  0.68091358  0.42886196  1
  O2-  O149  1  0.07494717  0.68302522  0.76753173  1
  O2-  O150  1  0.57299370  0.17853132  0.08925602  1
  O2-  O151  1  0.56866424  0.17674385  0.43107404  1
  O2-  O152  1  0.56876424  0.17970958  0.76773730  1
  O2-  O153  1  0.57127700  0.67870663  0.08892323  1
  O2-  O154  1  0.56793988  0.67527402  0.42364188  1
  O2-  O155  1  0.56811985  0.67659875  0.75888264  1
  O2-  O156  1  0.18202737  0.42703919  0.24179455  1
  O2-  O157  1  0.17754690  0.42713244  0.57657749  1
  O2-  O158  1  0.17682972  0.42798939  0.91077729  1
  O2-  O159  1  0.18001390  0.92858628  0.24345134  1
  O2-  O160  1  0.18445767  0.92599122  0.57454372  1
  O2-  O161  1  0.17948640  0.93240706  0.90119189  1
  O2-  O162  1  0.68075475  0.43227588  0.23708597  1
  O2-  O163  1  0.67851309  0.43180549  0.56681835  1
  O2-  O164  1  0.68176665  0.42786338  0.90282594  1
  O2-  O165  1  0.67783302  0.93275926  0.23096279  1
  O2-  O166  1  0.67433761  0.92675540  0.56949475  1
  O2-  O167  1  0.67861972  0.92748797  0.91048316  1
  O2-  O168  1  0.43190323  0.32286628  0.08995848  1
  O2-  O169  1  0.42806910  0.32281203  0.43002716  1
  O2-  O170  1  0.43357567  0.32614593  0.76821173  1
  O2-  O171  1  0.43022756  0.82016723  0.09676881  1
  O2-  O172  1  0.42860324  0.82097036  0.43455048  1
  O2-  O173  1  0.42785295  0.81833749  0.75827551  1
  O2-  O174  1  0.92649132  0.31918772  0.09108460  1
  O2-  O175  1  0.92903185  0.32291340  0.42058910  1
  O2-  O176  1  0.92929970  0.31859547  0.76625847  1
  O2-  O177  1  0.92607401  0.81997798  0.08941502  1
  O2-  O178  1  0.92788902  0.81911250  0.42937320  1
  O2-  O179  1  0.92855909  0.81864349  0.76651569  1
  O2-  O180  1  0.31770458  0.07103475  0.24088418  1
  O2-  O181  1  0.32143724  0.07010330  0.56558338  1
  O2-  O182  1  0.32410896  0.07375297  0.91294099  1
  O2-  O183  1  0.31791745  0.57264397  0.24406349  1
  O2-  O184  1  0.31935837  0.57457815  0.56672970  1
  O2-  O185  1  0.31797091  0.57025443  0.90353524  1
  O2-  O186  1  0.82481336  0.06865553  0.24350884  1
  O2-  O187  1  0.82262594  0.06713094  0.56841234  1
  O2-  O188  1  0.82091242  0.06903042  0.91202135  1
  O2-  O189  1  0.82306040  0.56934022  0.24472862  1
  O2-  O190  1  0.81889905  0.57324114  0.57652237  1
  O2-  O191  1  0.82300684  0.57968677  0.91208978  1
  O2-  O192  1  0.04083447  0.08312636  0.26367196  1
  O2-  O193  1  0.04700732  0.07875952  0.59941862  1
  O2-  O194  1  0.03691868  0.08296094  0.93247573  1
  O2-  O195  1  0.04690617  0.57870338  0.26221511  1
  O2-  O196  1  0.05286167  0.57946263  0.60042718  1
  O2-  O197  1  0.04761952  0.58484999  0.93919175  1
  O2-  O198  1  0.53800344  0.08490614  0.26096264  1
  O2-  O199  1  0.53767603  0.07883999  0.60291318  1
  O2-  O200  1  0.54576257  0.08839449  0.93596902  1
  O2-  O201  1  0.53965672  0.58696132  0.26910950  1
  O2-  O202  1  0.53584502  0.58983800  0.60444028  1
  O2-  O203  1  0.54457981  0.58288236  0.93976595  1
  O2-  O204  1  0.16563690  0.21182644  0.26086209  1
  O2-  O205  1  0.17034352  0.20809126  0.59950679  1
  O2-  O206  1  0.17009311  0.20562275  0.93344379  1
  O2-  O207  1  0.16852597  0.71028491  0.26169109  1
  O2-  O208  1  0.16997637  0.71286857  0.59866536  1
  O2-  O209  1  0.16120656  0.71103906  0.93947933  1
  O2-  O210  1  0.67296402  0.20331065  0.26629518  1
  O2-  O211  1  0.66964753  0.19967759  0.60254361  1
  O2-  O212  1  0.66596576  0.20778071  0.94001137  1
  O2-  O213  1  0.66701868  0.69512778  0.27307301  1
  O2-  O214  1  0.66308291  0.69832895  0.60606779  1
  O2-  O215  1  0.66568418  0.70149659  0.93750457  1
  O2-  O216  1  0.08164745  0.44882966  0.06158763  1
  O2-  O217  1  0.08585517  0.45112357  0.39218008  1
  O2-  O218  1  0.08121870  0.45078287  0.72803999  1
  O2-  O219  1  0.08274975  0.96194444  0.06965779  1
  O2-  O220  1  0.08511585  0.95372274  0.39309432  1
  O2-  O221  1  0.08316539  0.94602589  0.72317879  1
  O2-  O222  1  0.58662573  0.46132543  0.07226141  1
  O2-  O223  1  0.58287044  0.46362843  0.40255461  1
  O2-  O224  1  0.58716640  0.46586278  0.73587503  1
  O2-  O225  1  0.58502192  0.95836925  0.05999454  1
  O2-  O226  1  0.57963974  0.96054509  0.39680588  1
  O2-  O227  1  0.57965777  0.95583789  0.73871236  1
  O2-  O228  1  0.20542479  0.33292051  0.06125419  1
  O2-  O229  1  0.21018612  0.33599108  0.39396625  1
  O2-  O230  1  0.20280787  0.33577539  0.73063735  1
  O2-  O231  1  0.21111571  0.83662437  0.07016475  1
  O2-  O232  1  0.21016728  0.83749700  0.39519406  1
  O2-  O233  1  0.21237926  0.83899262  0.72982806  1
  O2-  O234  1  0.71276126  0.33302091  0.07219544  1
  O2-  O235  1  0.70880883  0.33074997  0.40122552  1
  O2-  O236  1  0.70817343  0.33108674  0.73390070  1
  O2-  O237  1  0.70320360  0.83532259  0.06174244  1
  O2-  O238  1  0.70325841  0.83047429  0.39612216  1
  O2-  O239  1  0.70144199  0.82579506  0.73678566  1
  O2-  O240  1  0.45644008  0.42348362  0.26561337  1
  O2-  O241  1  0.45888360  0.42378700  0.60207132  1
  O2-  O242  1  0.46112633  0.41638955  0.94096397  1
  O2-  O243  1  0.45753936  0.91747652  0.26299622  1
  O2-  O244  1  0.45399110  0.91392442  0.60769222  1
  O2-  O245  1  0.45802139  0.91793937  0.93008474  1
  O2-  O246  1  0.95242238  0.41536810  0.26785664  1
  O2-  O247  1  0.95104277  0.41874903  0.59749976  1
  O2-  O248  1  0.94508799  0.41772240  0.94126726  1
  O2-  O249  1  0.95645103  0.91708546  0.26127730  1
  O2-  O250  1  0.95433495  0.91628401  0.59653291  1
  O2-  O251  1  0.95826529  0.91120706  0.93833876  1
  O2-  O252  1  0.33428369  0.29244379  0.25997235  1
  O2-  O253  1  0.33129116  0.30022013  0.60252453  1
  O2-  O254  1  0.33951628  0.29869270  0.93734063  1
  O2-  O255  1  0.33601645  0.78780620  0.26510848  1
  O2-  O256  1  0.34031916  0.78951494  0.60407689  1
  O2-  O257  1  0.33107312  0.78861784  0.93173541  1
  O2-  O258  1  0.83428682  0.29614075  0.26943093  1
  O2-  O259  1  0.82972360  0.28966042  0.59960081  1
  O2-  O260  1  0.83467010  0.28925787  0.94069136  1
  O2-  O261  1  0.82866086  0.79039702  0.26244690  1
  O2-  O262  1  0.82619764  0.79203043  0.60148572  1
  O2-  O263  1  0.83429353  0.79520469  0.93770721  1
  O2-  O264  1  0.41820264  0.04643640  0.06295266  1
  O2-  O265  1  0.41021001  0.04241787  0.39240825  1
  O2-  O266  1  0.41217086  0.03902812  0.73840335  1
  O2-  O267  1  0.41493744  0.54157053  0.07204207  1
  O2-  O268  1  0.41106827  0.54699818  0.39619041  1
  O2-  O269  1  0.41408685  0.54201685  0.73839694  1
  O2-  O270  1  0.91167916  0.03883056  0.06431774  1
  O2-  O271  1  0.91772442  0.04176119  0.39483828  1
  O2-  O272  1  0.92109635  0.03841360  0.73546297  1
  O2-  O273  1  0.91786350  0.55161349  0.06328776  1
  O2-  O274  1  0.91972789  0.54695439  0.39418269  1
  O2-  O275  1  0.92024967  0.55163625  0.72460742  1
  O2-  O276  1  0.30118343  0.16964343  0.06267503  1
  O2-  O277  1  0.29092584  0.16488401  0.39132305  1
  O2-  O278  1  0.29399903  0.17152470  0.73438517  1
  O2-  O279  1  0.28675682  0.66691539  0.07038526  1
  O2-  O280  1  0.28952058  0.66443866  0.39582648  1
  O2-  O281  1  0.28798312  0.66810076  0.73609169  1
  O2-  O282  1  0.79346334  0.15929489  0.06656304  1
  O2-  O283  1  0.80380000  0.16543230  0.39368859  1
  O2-  O284  1  0.79351858  0.16542447  0.73842349  1
  O2-  O285  1  0.79517413  0.66782761  0.06584187  1
  O2-  O286  1  0.79892896  0.66470430  0.39583256  1
  O2-  O287  1  0.79349628  0.66180142  0.73157625  1
