# generated using pymatgen
data_Ca2Al2SiO7
_symmetry_space_group_name_H-M   'P 1'
_cell_length_a   15.45932096
_cell_length_b   15.45978128
_cell_length_c   15.28508254
_cell_angle_alpha   90.00761035
_cell_angle_beta   90.00162050
_cell_angle_gamma   90.01257134
_symmetry_Int_Tables_number   1
_chemical_formula_structural   Ca2Al2SiO7
_chemical_formula_sum   'Ca48 Al48 Si24 O168'
_cell_volume   3653.09976747
_cell_formula_units_Z   24
loop_
 _symmetry_equiv_pos_site_id
 _symmetry_equiv_pos_as_xyz
  1  'x, y, z'
loop_
 _atom_type_symbol
 _atom_type_oxidation_number
  Ca2+  2.0
  Al0+  0.0
  Si0+  0.0
  O2-  -2.0
loop_
 _atom_site_type_symbol
 _atom_site_label
 _atom_site_symmetry_multiplicity
 _atom_site_fract_x
 _atom_site_fract_y
 _atom_site_fract_z
 _atom_site_occupancy
  Ca2+  Ca0  1  0.17442497  0.07184203  0.16914839  1
  Ca2+  Ca1  1  0.16087084  0.07888320  0.50139374  1
  Ca2+  Ca2  1  0.17109902  0.07937092  0.84082051  1
  Ca2+  Ca3  1  0.17193947  0.58403440  0.17675792  1
  Ca2+  Ca4  1  0.17280083  0.57039281  0.49765218  1
  Ca2+  Ca5  1  0.16466247  0.57756537  0.83714776  1
  Ca2+  Ca6  1  0.66712146  0.07405411  0.17727209  1
  Ca2+  Ca7  1  0.67227685  0.07918483  0.49984477  1
  Ca2+  Ca8  1  0.66704178  0.07287725  0.83709589  1
  Ca2+  Ca9  1  0.66725716  0.57961011  0.17603688  1
  Ca2+  Ca10  1  0.67716181  0.58092279  0.49909588  1
  Ca2+  Ca11  1  0.67002620  0.58701741  0.83579503  1
  Ca2+  Ca12  1  0.07642029  0.34112892  0.16869302  1
  Ca2+  Ca13  1  0.08241028  0.33105034  0.49455320  1
  Ca2+  Ca14  1  0.08481778  0.32483140  0.82197690  1
  Ca2+  Ca15  1  0.08047442  0.83413711  0.16354514  1
  Ca2+  Ca16  1  0.07367889  0.83330325  0.48697697  1
  Ca2+  Ca17  1  0.08992626  0.82729643  0.83274697  1
  Ca2+  Ca18  1  0.58567943  0.32943312  0.17010041  1
  Ca2+  Ca19  1  0.57896324  0.32985717  0.48625220  1
  Ca2+  Ca20  1  0.57232680  0.32977456  0.82506420  1
  Ca2+  Ca21  1  0.57628759  0.83541488  0.16085638  1
  Ca2+  Ca22  1  0.58180545  0.83737876  0.49110742  1
  Ca2+  Ca23  1  0.58588079  0.83681451  0.83464076  1
  Ca2+  Ca24  1  0.32908987  0.42611697  0.18129161  1
  Ca2+  Ca25  1  0.32977624  0.41004520  0.50126949  1
  Ca2+  Ca26  1  0.32719401  0.40968420  0.83374300  1
  Ca2+  Ca27  1  0.32731530  0.90843964  0.17146739  1
  Ca2+  Ca28  1  0.32866260  0.91333290  0.49719586  1
  Ca2+  Ca29  1  0.33012721  0.92473842  0.84789628  1
  Ca2+  Ca30  1  0.82873438  0.42368779  0.18158109  1
  Ca2+  Ca31  1  0.83588085  0.42335230  0.49732325  1
  Ca2+  Ca32  1  0.83688522  0.42454200  0.83391529  1
  Ca2+  Ca33  1  0.82233005  0.91764801  0.17808597  1
  Ca2+  Ca34  1  0.82517598  0.92343172  0.50177261  1
  Ca2+  Ca35  1  0.82389124  0.92083275  0.83441331  1
  Ca2+  Ca36  1  0.41824850  0.16746701  0.16936319  1
  Ca2+  Ca37  1  0.42451080  0.17740761  0.49112543  1
  Ca2+  Ca38  1  0.41359498  0.16803147  0.82698381  1
  Ca2+  Ca39  1  0.41854282  0.67569722  0.16266519  1
  Ca2+  Ca40  1  0.41735859  0.67156060  0.48985792  1
  Ca2+  Ca41  1  0.42272294  0.67473134  0.83454115  1
  Ca2+  Ca42  1  0.90977154  0.17128975  0.17119258  1
  Ca2+  Ca43  1  0.91816476  0.16369234  0.49089353  1
  Ca2+  Ca44  1  0.92418574  0.16329485  0.82406093  1
  Ca2+  Ca45  1  0.91922797  0.67106720  0.16525027  1
  Ca2+  Ca46  1  0.91188315  0.66955293  0.49179705  1
  Ca2+  Ca47  1  0.92067556  0.66692508  0.83010141  1
  Al0+  Al48  1  -0.00021686  0.00276196  0.00275451  1
  Al0+  Al49  1  0.00035311  -0.00159302  0.33238593  1
  Al0+  Al50  1  -0.00068272  -0.00228385  0.66740641  1
  Al0+  Al51  1  -0.00156685  0.50125125  -0.00482742  1
  Al0+  Al52  1  0.00268724  0.49911957  0.33658707  1
  Al0+  Al53  1  0.00223737  0.49889449  0.67462717  1
  Al0+  Al54  1  0.50109700  0.00361134  0.00294049  1
  Al0+  Al55  1  0.49785774  0.00011773  0.32922252  1
  Al0+  Al56  1  0.49852925  -0.00011211  0.66882091  1
  Al0+  Al57  1  0.49952825  0.49973328  -0.00547771  1
  Al0+  Al58  1  0.50022833  0.50105149  0.33712850  1
  Al0+  Al59  1  0.49913378  0.50366274  0.66328699  1
  Al0+  Al60  1  0.24757388  0.24972291  0.00582661  1
  Al0+  Al61  1  0.25040520  0.24804790  0.33071595  1
  Al0+  Al62  1  0.24827297  0.24875559  0.66138171  1
  Al0+  Al63  1  0.24950225  0.74840412  -0.00680344  1
  Al0+  Al64  1  0.25003774  0.74916612  0.33964708  1
  Al0+  Al65  1  0.25084880  0.74695157  0.66538543  1
  Al0+  Al66  1  0.74866645  0.25279274  -0.00470944  1
  Al0+  Al67  1  0.75152272  0.24967509  0.33148504  1
  Al0+  Al68  1  0.75052177  0.25115594  0.67115342  1
  Al0+  Al69  1  0.75158474  0.75025686  -0.00043230  1
  Al0+  Al70  1  0.75008957  0.75074376  0.33530490  1
  Al0+  Al71  1  0.75036563  0.74897736  0.67495240  1
  Al0+  Al72  1  0.17963040  0.42622356  0.34753088  1
  Al0+  Al73  1  0.43000310  0.82318832  0.98443043  1
  Al0+  Al74  1  0.42925382  0.32078317  0.65316118  1
  Al0+  Al75  1  0.32191635  0.07347297  0.01614847  1
  Al0+  Al76  1  0.82251325  0.57221040  0.34596212  1
  Al0+  Al77  1  0.68128353  0.92932107  0.01594313  1
  Al0+  Al78  1  0.67741546  0.93023991  0.68303066  1
  Al0+  Al79  1  0.06867993  0.17696462  0.65262762  1
  Al0+  Al80  1  0.42816122  0.32337001  0.31658424  1
  Al0+  Al81  1  0.92728339  0.82163898  0.32033929  1
  Al0+  Al82  1  0.17969839  0.92889706  0.34739250  1
  Al0+  Al83  1  0.67893035  0.42787731  0.34713329  1
  Al0+  Al84  1  0.42795233  0.81996519  0.32085227  1
  Al0+  Al85  1  0.18304162  0.42865427  0.68136637  1
  Al0+  Al86  1  0.57218793  0.17951248  0.31786042  1
  Al0+  Al87  1  0.93172823  0.32106289  0.32105823  1
  Al0+  Al88  1  0.82309992  0.07282906  0.68215338  1
  Al0+  Al89  1  0.82135808  0.07109451  0.34643188  1
  Al0+  Al90  1  0.67558278  0.92883397  0.34714121  1
  Al0+  Al91  1  0.82065446  0.56908882  0.68260058  1
  Al0+  Al92  1  0.07022928  0.67936965  0.98596791  1
  Al0+  Al93  1  0.17938324  0.92613830  0.01455500  1
  Al0+  Al94  1  0.32244432  0.57182625  0.34763099  1
  Al0+  Al95  1  0.57253509  0.67786158  0.98464942  1
  Si0+  Si96  1  0.67464769  0.42876854  0.68384943  1
  Si0+  Si97  1  0.17710650  0.42935741  0.01469092  1
  Si0+  Si98  1  0.32186272  0.07178593  0.35185049  1
  Si0+  Si99  1  0.32104324  0.56864898  0.01215502  1
  Si0+  Si100  1  0.07086297  0.67918544  0.31956412  1
  Si0+  Si101  1  0.92837897  0.32188757  0.98312538  1
  Si0+  Si102  1  0.92796414  0.32342043  0.65111307  1
  Si0+  Si103  1  0.82179191  0.56958632  0.01513179  1
  Si0+  Si104  1  0.42720442  0.32042694  0.98549608  1
  Si0+  Si105  1  0.92839343  0.82438784  0.98242150  1
  Si0+  Si106  1  0.92983127  0.81755505  0.65278764  1
  Si0+  Si107  1  0.42874302  0.82191951  0.65135440  1
  Si0+  Si108  1  0.82187630  0.07573941  0.01693502  1
  Si0+  Si109  1  0.57323181  0.67871163  0.31900908  1
  Si0+  Si110  1  0.67765370  0.42985529  0.01298867  1
  Si0+  Si111  1  0.17821332  0.92585678  0.68071435  1
  Si0+  Si112  1  0.57254786  0.17722024  0.65144584  1
  Si0+  Si113  1  0.07070565  0.18101516  0.98565324  1
  Si0+  Si114  1  0.57192929  0.18077360  0.98288037  1
  Si0+  Si115  1  0.32357217  0.57416797  0.68705437  1
  Si0+  Si116  1  0.57286513  0.68132553  0.65030350  1
  Si0+  Si117  1  0.07296695  0.17494590  0.31331472  1
  Si0+  Si118  1  0.31798723  0.06888106  0.67889783  1
  Si0+  Si119  1  0.07228952  0.67635319  0.64994801  1
  O2-  O120  1  0.25634023  -0.00620223  0.06339318  1
  O2-  O121  1  0.25170255  0.00481179  0.39666027  1
  O2-  O122  1  0.24948039  -0.00378728  0.72283072  1
  O2-  O123  1  0.24795695  0.50035330  0.05537964  1
  O2-  O124  1  0.25732591  0.49263441  0.39658763  1
  O2-  O125  1  0.25780761  0.50215840  0.73093897  1
  O2-  O126  1  0.75651234  0.00438049  0.06050518  1
  O2-  O127  1  0.74829572  0.00040203  0.39602157  1
  O2-  O128  1  0.74755817  0.00495473  0.73254127  1
  O2-  O129  1  0.74622828  0.50301030  0.05517895  1
  O2-  O130  1  0.75157193  0.49943335  0.39640386  1
  O2-  O131  1  0.74645238  0.49350209  0.73003905  1
  O2-  O132  1  0.00620422  0.24713427  0.27086959  1
  O2-  O133  1  -0.01026599  0.24821868  0.60815263  1
  O2-  O134  1  -0.00186385  0.24967124  0.94157223  1
  O2-  O135  1  0.00132404  0.74593331  0.27405977  1
  O2-  O136  1  0.00176728  0.74783149  0.60889199  1
  O2-  O137  1  -0.00001834  0.75822761  0.93766899  1
  O2-  O138  1  0.50118208  0.25276681  0.26615408  1
  O2-  O139  1  0.50999811  0.25192200  0.60841451  1
  O2-  O140  1  0.49619862  0.24796465  0.94182217  1
  O2-  O141  1  0.50459617  0.74728949  0.27485182  1
  O2-  O142  1  0.50174471  0.75286134  0.60949841  1
  O2-  O143  1  0.50471471  0.75387285  0.93325578  1
  O2-  O144  1  0.07166736  0.18300348  0.09006333  1
  O2-  O145  1  0.07105634  0.17361288  0.41911879  1
  O2-  O146  1  0.07093700  0.17908353  0.76663647  1
  O2-  O147  1  0.06652537  0.67325502  0.09836196  1
  O2-  O148  1  0.07015658  0.68114341  0.42548550  1
  O2-  O149  1  0.07257488  0.67837035  0.75549283  1
  O2-  O150  1  0.57781051  0.18454285  0.08694038  1
  O2-  O151  1  0.56994074  0.17960876  0.43197103  1
  O2-  O152  1  0.56772355  0.17629345  0.75769518  1
  O2-  O153  1  0.56903643  0.67200099  0.09742811  1
  O2-  O154  1  0.57358848  0.68061101  0.42498288  1
  O2-  O155  1  0.57146154  0.68040838  0.75547517  1
  O2-  O156  1  0.17694692  0.43278680  0.23324662  1
  O2-  O157  1  0.18283651  0.42933804  0.56928815  1
  O2-  O158  1  0.17882931  0.42710918  0.90937368  1
  O2-  O159  1  0.18065101  0.92794287  0.23457460  1
  O2-  O160  1  0.17840363  0.92547550  0.57592993  1
  O2-  O161  1  0.17899677  0.93024463  0.89994256  1
  O2-  O162  1  0.68053655  0.43057665  0.23252319  1
  O2-  O163  1  0.67368858  0.43078315  0.57910554  1
  O2-  O164  1  0.67941681  0.42841806  0.90769029  1
  O2-  O165  1  0.67712045  0.92869111  0.23348473  1
  O2-  O166  1  0.67656534  0.92949289  0.57020896  1
  O2-  O167  1  0.68297261  0.93192790  0.90253394  1
  O2-  O168  1  0.42884943  0.32350196  0.08961381  1
  O2-  O169  1  0.42905890  0.31925424  0.43034722  1
  O2-  O170  1  0.42817871  0.31608821  0.76742899  1
  O2-  O171  1  0.42785186  0.81761711  0.09751740  1
  O2-  O172  1  0.42770482  0.81806230  0.43469912  1
  O2-  O173  1  0.42657371  0.82144305  0.75615923  1
  O2-  O174  1  0.92821827  0.32433852  0.08781973  1
  O2-  O175  1  0.93388486  0.32190153  0.43395130  1
  O2-  O176  1  0.93253821  0.32495921  0.75753478  1
  O2-  O177  1  0.92780525  0.82129205  0.08769339  1
  O2-  O178  1  0.92896570  0.82061121  0.43405636  1
  O2-  O179  1  0.93245793  0.81655271  0.75820659  1
  O2-  O180  1  0.32035547  0.07118027  0.24636343  1
  O2-  O181  1  0.31849451  0.06675540  0.57433129  1
  O2-  O182  1  0.31622120  0.07738188  0.90145590  1
  O2-  O183  1  0.31826395  0.57442136  0.23326001  1
  O2-  O184  1  0.32122319  0.57880456  0.58230537  1
  O2-  O185  1  0.32093602  0.56484818  0.90687200  1
  O2-  O186  1  0.82008388  0.06954238  0.23238118  1
  O2-  O187  1  0.82490977  0.06939386  0.56950745  1
  O2-  O188  1  0.82094314  0.07689868  0.91110381  1
  O2-  O189  1  0.82199206  0.57069642  0.23183696  1
  O2-  O190  1  0.82042092  0.57027940  0.57027825  1
  O2-  O191  1  0.82409187  0.56581143  0.90976655  1
  O2-  O192  1  0.04415748  0.08327595  0.26555685  1
  O2-  O193  1  0.04246093  0.07831841  0.60005827  1
  O2-  O194  1  0.04522299  0.08829512  0.93781503  1
  O2-  O195  1  0.04813953  0.58522462  0.27356519  1
  O2-  O196  1  0.04375719  0.58353832  0.60660280  1
  O2-  O197  1  0.03462437  0.58469478  0.92795500  1
  O2-  O198  1  0.53960149  0.08300010  0.26342217  1
  O2-  O199  1  0.54047577  0.08574258  0.60527392  1
  O2-  O200  1  0.54704875  0.08851418  0.93548481  1
  O2-  O201  1  0.54890993  0.58473086  0.27368461  1
  O2-  O202  1  0.54533318  0.59000765  0.60222707  1
  O2-  O203  1  0.54028818  0.58103122  0.92736355  1
  O2-  O204  1  0.16749402  0.19715326  0.26839840  1
  O2-  O205  1  0.16301094  0.20993489  0.59675028  1
  O2-  O206  1  0.16180523  0.21169819  0.93713593  1
  O2-  O207  1  0.16362618  0.70780659  0.27417273  1
  O2-  O208  1  0.16482551  0.70265134  0.60357879  1
  O2-  O209  1  0.16654621  0.70397472  0.92743189  1
  O2-  O210  1  0.67000433  0.20688891  0.26309192  1
  O2-  O211  1  0.66940168  0.19675519  0.61039208  1
  O2-  O212  1  0.66098365  0.21350420  0.93118405  1
  O2-  O213  1  0.66647260  0.70252227  0.27180128  1
  O2-  O214  1  0.66589195  0.70856216  0.60579756  1
  O2-  O215  1  0.67292238  0.70317044  0.93271148  1
  O2-  O216  1  0.08408141  0.45829683  0.05847258  1
  O2-  O217  1  0.08497493  0.45962817  0.40411424  1
  O2-  O218  1  0.08783220  0.45955163  0.73883299  1
  O2-  O219  1  0.08136171  0.95852677  0.06628007  1
  O2-  O220  1  0.08325181  0.95926388  0.40137735  1
  O2-  O221  1  0.08702872  0.95238541  0.72916783  1
  O2-  O222  1  0.58451423  0.45483290  0.05845861  1
  O2-  O223  1  0.58162508  0.45531313  0.40130370  1
  O2-  O224  1  0.58210228  0.45915601  0.73098416  1
  O2-  O225  1  0.58406473  0.96011501  0.06689977  1
  O2-  O226  1  0.57680703  0.95712731  0.39885876  1
  O2-  O227  1  0.57809140  0.95797169  0.73671576  1
  O2-  O228  1  0.20239475  0.33833251  0.06322698  1
  O2-  O229  1  0.20161974  0.32518079  0.39733953  1
  O2-  O230  1  0.21414131  0.33093472  0.73504050  1
  O2-  O231  1  0.20228821  0.82460900  0.06309630  1
  O2-  O232  1  0.21094275  0.83457546  0.40499190  1
  O2-  O233  1  0.20616952  0.83311673  0.72681012  1
  O2-  O234  1  0.70832523  0.33871178  0.05964898  1
  O2-  O235  1  0.70755698  0.33025061  0.39933272  1
  O2-  O236  1  0.69459614  0.33356341  0.73006432  1
  O2-  O237  1  0.71040159  0.83105859  0.06706517  1
  O2-  O238  1  0.70443260  0.83126906  0.40042949  1
  O2-  O239  1  0.70957494  0.83356679  0.73768075  1
  O2-  O240  1  0.45432105  0.42378318  0.26656138  1
  O2-  O241  1  0.45151321  0.42119335  0.60356930  1
  O2-  O242  1  0.45639876  0.41010095  0.93401371  1
  O2-  O243  1  0.45256701  0.91687961  0.26599896  1
  O2-  O244  1  0.45337305  0.91487221  0.60482174  1
  O2-  O245  1  0.45519151  0.92443265  0.93443792  1
  O2-  O246  1  0.96407592  0.41747916  0.26505987  1
  O2-  O247  1  0.96133222  0.41526457  0.60677024  1
  O2-  O248  1  0.95833942  0.41214748  0.93339782  1
  O2-  O249  1  0.96042017  0.91604502  0.26395967  1
  O2-  O250  1  0.95719076  0.90928309  0.60603014  1
  O2-  O251  1  0.95016044  0.92029580  0.93869333  1
  O2-  O252  1  0.32941635  0.29428774  0.26362716  1
  O2-  O253  1  0.33556229  0.28470937  0.59853742  1
  O2-  O254  1  0.33353679  0.29271176  0.94032820  1
  O2-  O255  1  0.33157780  0.78516535  0.26852573  1
  O2-  O256  1  0.33713290  0.79136217  0.60409381  1
  O2-  O257  1  0.33287487  0.79216203  0.92894117  1
  O2-  O258  1  0.83614012  0.29166934  0.26392952  1
  O2-  O259  1  0.83016635  0.30810375  0.61063047  1
  O2-  O260  1  0.83616349  0.29711078  0.93416898  1
  O2-  O261  1  0.83149438  0.79040184  0.26527813  1
  O2-  O262  1  0.83754262  0.78736017  0.60867813  1
  O2-  O263  1  0.83709296  0.79404746  0.93417457  1
  O2-  O264  1  0.42337261  0.05698331  0.06497008  1
  O2-  O265  1  0.41432311  0.04427140  0.39790274  1
  O2-  O266  1  0.40972005  0.04375239  0.72859575  1
  O2-  O267  1  0.41214490  0.53834961  0.05895380  1
  O2-  O268  1  0.42186369  0.55206687  0.40089665  1
  O2-  O269  1  0.41899732  0.55252913  0.73100194  1
  O2-  O270  1  0.91719128  0.05619951  0.06116608  1
  O2-  O271  1  0.91950116  0.04179301  0.39824516  1
  O2-  O272  1  0.91984545  0.03809788  0.73742580  1
  O2-  O273  1  0.91182014  0.53615912  0.06213781  1
  O2-  O274  1  0.92011014  0.54408523  0.39984595  1
  O2-  O275  1  0.91672178  0.53825372  0.73910894  1
  O2-  O276  1  0.28573675  0.16815888  0.07230010  1
  O2-  O277  1  0.29763991  0.16589911  0.39693010  1
  O2-  O278  1  0.28775950  0.15976350  0.72644929  1
  O2-  O279  1  0.29472150  0.66157333  0.05640853  1
  O2-  O280  1  0.28679844  0.66499418  0.40640480  1
  O2-  O281  1  0.29288745  0.66616697  0.73511111  1
  O2-  O282  1  0.79301860  0.17017199  0.05981150  1
  O2-  O283  1  0.79651509  0.16983022  0.39889424  1
  O2-  O284  1  0.80286249  0.17404081  0.73486829  1
  O2-  O285  1  0.80097715  0.66379974  0.05908341  1
  O2-  O286  1  0.79262169  0.66856905  0.40130868  1
  O2-  O287  1  0.78928310  0.66377620  0.74020617  1
