# generated using pymatgen
data_Ca2Al2SiO7
_symmetry_space_group_name_H-M   'P 1'
_cell_length_a   15.46331009
_cell_length_b   15.46173500
_cell_length_c   15.28633538
_cell_angle_alpha   90.00570730
_cell_angle_beta   90.01184950
_cell_angle_gamma   89.99142932
_symmetry_Int_Tables_number   1
_chemical_formula_structural   Ca2Al2SiO7
_chemical_formula_sum   'Ca48 Al48 Si24 O168'
_cell_volume   3654.80371758
_cell_formula_units_Z   24
loop_
 _symmetry_equiv_pos_site_id
 _symmetry_equiv_pos_as_xyz
  1  'x, y, z'
loop_
 _atom_type_symbol
 _atom_type_oxidation_number
  Ca2+  2.0
  Al0+  0.0
  Si0+  0.0
  O2-  -2.0
loop_
 _atom_site_type_symbol
 _atom_site_label
 _atom_site_symmetry_multiplicity
 _atom_site_fract_x
 _atom_site_fract_y
 _atom_site_fract_z
 _atom_site_occupancy
  Ca2+  Ca0  1  0.16530006  0.07846752  0.17776164  1
  Ca2+  Ca1  1  0.15716285  0.07983591  0.50101962  1
  Ca2+  Ca2  1  0.16386208  0.08325134  0.83463812  1
  Ca2+  Ca3  1  0.17914060  0.58243063  0.17781212  1
  Ca2+  Ca4  1  0.15737325  0.57902334  0.50389030  1
  Ca2+  Ca5  1  0.16750181  0.58195320  0.83568793  1
  Ca2+  Ca6  1  0.66955070  0.07504832  0.16763020  1
  Ca2+  Ca7  1  0.66610124  0.07751559  0.50453606  1
  Ca2+  Ca8  1  0.67060457  0.08091648  0.84404797  1
  Ca2+  Ca9  1  0.66812311  0.57699114  0.17246301  1
  Ca2+  Ca10  1  0.66426837  0.58035115  0.49739135  1
  Ca2+  Ca11  1  0.67617007  0.57660028  0.84523813  1
  Ca2+  Ca12  1  0.09164134  0.32834129  0.16729829  1
  Ca2+  Ca13  1  0.08992722  0.32877984  0.49622050  1
  Ca2+  Ca14  1  0.07542222  0.32985456  0.82008295  1
  Ca2+  Ca15  1  0.07453049  0.83290676  0.16689699  1
  Ca2+  Ca16  1  0.07652381  0.82508635  0.48985709  1
  Ca2+  Ca17  1  0.06845083  0.82552912  0.82543237  1
  Ca2+  Ca18  1  0.58153578  0.33538016  0.15575804  1
  Ca2+  Ca19  1  0.58689147  0.32778737  0.49353829  1
  Ca2+  Ca20  1  0.58722852  0.32567475  0.83343631  1
  Ca2+  Ca21  1  0.59258187  0.82977517  0.16622543  1
  Ca2+  Ca22  1  0.57726959  0.82904634  0.49165908  1
  Ca2+  Ca23  1  0.57951032  0.83514584  0.82901391  1
  Ca2+  Ca24  1  0.33469406  0.42495188  0.17331728  1
  Ca2+  Ca25  1  0.32101548  0.42465703  0.50046388  1
  Ca2+  Ca26  1  0.32744390  0.41866642  0.83938876  1
  Ca2+  Ca27  1  0.32502975  0.92081909  0.17424805  1
  Ca2+  Ca28  1  0.32617698  0.91091827  0.50280666  1
  Ca2+  Ca29  1  0.33327211  0.91553353  0.83523193  1
  Ca2+  Ca30  1  0.82207449  0.42033886  0.16849189  1
  Ca2+  Ca31  1  0.83071197  0.41242165  0.50415268  1
  Ca2+  Ca32  1  0.83220470  0.42080035  0.84158591  1
  Ca2+  Ca33  1  0.83064656  0.91617862  0.16883892  1
  Ca2+  Ca34  1  0.83266188  0.90836697  0.50009279  1
  Ca2+  Ca35  1  0.83223754  0.92092386  0.84443317  1
  Ca2+  Ca36  1  0.42455377  0.17733931  0.15584011  1
  Ca2+  Ca37  1  0.42225530  0.16730481  0.49856803  1
  Ca2+  Ca38  1  0.43022834  0.17109262  0.83205703  1
  Ca2+  Ca39  1  0.41972361  0.65783701  0.16565567  1
  Ca2+  Ca40  1  0.41928144  0.66684754  0.49436204  1
  Ca2+  Ca41  1  0.41555522  0.67022064  0.83206176  1
  Ca2+  Ca42  1  0.92003536  0.16261203  0.16536594  1
  Ca2+  Ca43  1  0.92689594  0.17398645  0.49898604  1
  Ca2+  Ca44  1  0.91720796  0.17137067  0.82689572  1
  Ca2+  Ca45  1  0.91431167  0.67639481  0.16274659  1
  Ca2+  Ca46  1  0.92666988  0.67430232  0.49432764  1
  Ca2+  Ca47  1  0.91334592  0.67480404  0.82747659  1
  Al0+  Al48  1  -0.00067881  -0.00232235  -0.00135925  1
  Al0+  Al49  1  0.00068408  0.00257164  0.33095914  1
  Al0+  Al50  1  -0.00215909  0.00104802  0.66285527  1
  Al0+  Al51  1  0.00233491  0.49866818  0.00553489  1
  Al0+  Al52  1  -0.00039159  0.49978584  0.33096756  1
  Al0+  Al53  1  -0.00305243  0.50049942  0.66641256  1
  Al0+  Al54  1  0.49881894  -0.00003279  0.00092256  1
  Al0+  Al55  1  0.50194688  0.00090244  0.33605249  1
  Al0+  Al56  1  0.49839063  -0.00030515  0.65949035  1
  Al0+  Al57  1  0.49713212  0.50064497  -0.00145552  1
  Al0+  Al58  1  0.50044355  0.50029250  0.33968862  1
  Al0+  Al59  1  0.49865985  0.49868967  0.66954673  1
  Al0+  Al60  1  0.25195230  0.24874698  -0.00588496  1
  Al0+  Al61  1  0.25255228  0.25215982  0.33211181  1
  Al0+  Al62  1  0.25203447  0.24956011  0.66922735  1
  Al0+  Al63  1  0.24961516  0.74860592  0.00337813  1
  Al0+  Al64  1  0.25109324  0.75323461  0.33735743  1
  Al0+  Al65  1  0.25020899  0.75013375  0.66273684  1
  Al0+  Al66  1  0.75294540  0.24803107  0.00473094  1
  Al0+  Al67  1  0.75184490  0.24870668  0.33650070  1
  Al0+  Al68  1  0.74959323  0.24684384  0.65935809  1
  Al0+  Al69  1  0.74997651  0.75033238  0.00035598  1
  Al0+  Al70  1  0.74780740  0.75050203  0.33100920  1
  Al0+  Al71  1  0.74688414  0.74852808  0.66450843  1
  Al0+  Al72  1  0.17778520  0.42933293  0.68170842  1
  Al0+  Al73  1  0.31868263  0.57127605  0.01304279  1
  Al0+  Al74  1  0.92891860  0.82095243  0.31615227  1
  Al0+  Al75  1  0.56766369  0.67911916  0.31909778  1
  Al0+  Al76  1  0.57314253  0.17849910  0.98692650  1
  Al0+  Al77  1  0.07390817  0.17978862  0.65247181  1
  Al0+  Al78  1  0.92843937  0.81904211  0.98490396  1
  Al0+  Al79  1  0.92798730  0.32183529  0.65288230  1
  Al0+  Al80  1  0.67944074  0.42903996  0.01249622  1
  Al0+  Al81  1  0.32154009  0.57270561  0.35045727  1
  Al0+  Al82  1  0.07367742  0.67705718  0.31619195  1
  Al0+  Al83  1  0.42869372  0.32400992  0.98311703  1
  Al0+  Al84  1  0.67615273  0.92882767  0.01374997  1
  Al0+  Al85  1  0.17878938  0.93177784  0.34759343  1
  Al0+  Al86  1  0.68013828  0.92913263  0.34960601  1
  Al0+  Al87  1  0.82380805  0.57253391  0.01530614  1
  Al0+  Al88  1  0.17810216  0.42937240  0.34766874  1
  Al0+  Al89  1  0.07151671  0.18309410  0.31880027  1
  Al0+  Al90  1  0.92539953  0.82207664  0.65178410  1
  Al0+  Al91  1  0.57009548  0.18002141  0.65153882  1
  Al0+  Al92  1  0.07002662  0.67907761  0.65332711  1
  Al0+  Al93  1  0.68020903  0.42869847  0.34812877  1
  Al0+  Al94  1  0.42962590  0.82032375  0.65360557  1
  Al0+  Al95  1  0.82377770  0.07090335  0.01512223  1
  Si0+  Si96  1  0.42844928  0.82511133  0.31511146  1
  Si0+  Si97  1  0.82135390  0.57287123  0.35064941  1
  Si0+  Si98  1  0.57048473  0.67922464  0.98535956  1
  Si0+  Si99  1  0.07187817  0.17743202  0.98532707  1
  Si0+  Si100  1  0.93100856  0.32134278  0.98752427  1
  Si0+  Si101  1  0.67708052  0.92897695  0.68035532  1
  Si0+  Si102  1  0.81967138  0.07000843  0.68084755  1
  Si0+  Si103  1  0.17801682  0.92905843  0.68216880  1
  Si0+  Si104  1  0.17873371  0.42447606  0.01604050  1
  Si0+  Si105  1  0.92524532  0.32266378  0.31386310  1
  Si0+  Si106  1  0.42619567  0.82101170  0.98721384  1
  Si0+  Si107  1  0.32301876  0.06995059  0.68314342  1
  Si0+  Si108  1  0.57102879  0.67541799  0.65127313  1
  Si0+  Si109  1  0.67870331  0.42581477  0.68134131  1
  Si0+  Si110  1  0.81829296  0.57107234  0.68059337  1
  Si0+  Si111  1  0.32301153  0.07354054  0.35005927  1
  Si0+  Si112  1  0.42809107  0.32333373  0.64828052  1
  Si0+  Si113  1  0.82309200  0.07184090  0.35398616  1
  Si0+  Si114  1  0.57349171  0.17748144  0.31712505  1
  Si0+  Si115  1  0.43281593  0.31970644  0.31976452  1
  Si0+  Si116  1  0.32073319  0.07149448  0.01365773  1
  Si0+  Si117  1  0.32226957  0.57302429  0.68556454  1
  Si0+  Si118  1  0.17966468  0.92993288  0.01295462  1
  Si0+  Si119  1  0.07372791  0.67775899  0.98467544  1
  O2-  O120  1  0.24832363  0.00290109  0.05621414  1
  O2-  O121  1  0.25475744  0.00530969  0.39529718  1
  O2-  O122  1  0.24849131  0.00136315  0.72519304  1
  O2-  O123  1  0.24669220  0.49408463  0.05869499  1
  O2-  O124  1  0.24159959  0.50857535  0.39900288  1
  O2-  O125  1  0.25229518  0.50481327  0.72856273  1
  O2-  O126  1  0.74962013  -0.00009394  0.06295102  1
  O2-  O127  1  0.75530802  0.00210270  0.39832637  1
  O2-  O128  1  0.75129701  -0.00401249  0.72280752  1
  O2-  O129  1  0.74911996  0.50236243  0.06379264  1
  O2-  O130  1  0.75677183  0.50051970  0.39650962  1
  O2-  O131  1  0.74852440  0.49798597  0.72282094  1
  O2-  O132  1  -0.00130235  0.25840284  0.26997783  1
  O2-  O133  1  0.00646061  0.25644980  0.60360241  1
  O2-  O134  1  0.00263675  0.25060679  0.94474625  1
  O2-  O135  1  0.00014890  0.74767396  0.26616877  1
  O2-  O136  1  0.00096592  0.75367979  0.60352065  1
  O2-  O137  1  -0.00022934  0.74026491  0.93961354  1
  O2-  O138  1  0.50489859  0.25055564  0.27591337  1
  O2-  O139  1  0.49893526  0.25734825  0.60325081  1
  O2-  O140  1  0.50437868  0.25367845  0.93596736  1
  O2-  O141  1  0.49395401  0.75414157  0.27015511  1
  O2-  O142  1  0.50152849  0.74330712  0.60798022  1
  O2-  O143  1  0.50045695  0.75294441  0.94513334  1
  O2-  O144  1  0.07447392  0.17752326  0.09028958  1
  O2-  O145  1  0.07082543  0.18321183  0.43138339  1
  O2-  O146  1  0.07004892  0.17803747  0.76674445  1
  O2-  O147  1  0.07762705  0.68295448  0.08946950  1
  O2-  O148  1  0.07021344  0.67920139  0.42983967  1
  O2-  O149  1  0.06896068  0.68077883  0.76760168  1
  O2-  O150  1  0.56795219  0.17730188  0.10050775  1
  O2-  O151  1  0.57106792  0.17746315  0.42257831  1
  O2-  O152  1  0.57092770  0.17950476  0.76439872  1
  O2-  O153  1  0.56922373  0.67738352  0.09009879  1
  O2-  O154  1  0.56602186  0.67989455  0.43263704  1
  O2-  O155  1  0.57255902  0.67610083  0.75711638  1
  O2-  O156  1  0.18658069  0.42383695  0.23420990  1
  O2-  O157  1  0.18089951  0.42910913  0.56924260  1
  O2-  O158  1  0.17767688  0.42437716  0.91027389  1
  O2-  O159  1  0.18058429  0.93488822  0.23367128  1
  O2-  O160  1  0.17939160  0.93031090  0.57747746  1
  O2-  O161  1  0.18159043  0.93080436  0.90744514  1
  O2-  O162  1  0.67893916  0.42893826  0.23533523  1
  O2-  O163  1  0.67851791  0.42685227  0.57626581  1
  O2-  O164  1  0.68297439  0.42979671  0.89813643  1
  O2-  O165  1  0.67794770  0.93268559  0.23697427  1
  O2-  O166  1  0.67664017  0.93036735  0.57544044  1
  O2-  O167  1  0.67474204  0.93005713  0.89928369  1
  O2-  O168  1  0.42656841  0.32079402  0.09709094  1
  O2-  O169  1  0.43368949  0.31616287  0.42497323  1
  O2-  O170  1  0.42946766  0.32240389  0.75373944  1
  O2-  O171  1  0.42182813  0.82129692  0.09156367  1
  O2-  O172  1  0.43210741  0.82709611  0.42081281  1
  O2-  O173  1  0.43152980  0.82137894  0.76755702  1
  O2-  O174  1  0.93244836  0.32146602  0.09229079  1
  O2-  O175  1  0.92180001  0.31870518  0.41924393  1
  O2-  O176  1  0.92595427  0.31850500  0.76723261  1
  O2-  O177  1  0.93177993  0.82233135  0.09725261  1
  O2-  O178  1  0.93001440  0.81911697  0.42979628  1
  O2-  O179  1  0.92482242  0.82072814  0.76580928  1
  O2-  O180  1  0.32232402  0.07254534  0.24397569  1
  O2-  O181  1  0.32617194  0.06839236  0.57831916  1
  O2-  O182  1  0.32080315  0.06948121  0.90835160  1
  O2-  O183  1  0.32446904  0.56668068  0.23677612  1
  O2-  O184  1  0.32665702  0.57181641  0.58076415  1
  O2-  O185  1  0.31517625  0.57570563  0.89984714  1
  O2-  O186  1  0.82118181  0.07352640  0.24843045  1
  O2-  O187  1  0.81778235  0.07186056  0.57612236  1
  O2-  O188  1  0.82545707  0.06992701  0.90084783  1
  O2-  O189  1  0.81726128  0.57223827  0.24513921  1
  O2-  O190  1  0.81533787  0.57286122  0.57587664  1
  O2-  O191  1  0.82196676  0.57047877  0.90078543  1
  O2-  O192  1  0.03985363  0.08732961  0.26380197  1
  O2-  O193  1  0.04105898  0.08333787  0.59914925  1
  O2-  O194  1  0.04321446  0.08630631  0.93728756  1
  O2-  O195  1  0.05121446  0.57620075  0.26515608  1
  O2-  O196  1  0.03884852  0.58216312  0.60078056  1
  O2-  O197  1  0.05485566  0.58040870  0.94344645  1
  O2-  O198  1  0.54284686  0.08657489  0.27029488  1
  O2-  O199  1  0.53492468  0.08596855  0.59563440  1
  O2-  O200  1  0.53837899  0.08154432  0.93288074  1
  O2-  O201  1  0.53646960  0.58147981  0.26698589  1
  O2-  O202  1  0.54601424  0.58107928  0.60618620  1
  O2-  O203  1  0.54017966  0.58962126  0.93508539  1
  O2-  O204  1  0.16974457  0.21121740  0.26457302  1
  O2-  O205  1  0.17487226  0.20107340  0.60247435  1
  O2-  O206  1  0.16423608  0.20111453  0.93663010  1
  O2-  O207  1  0.17331210  0.70883154  0.26744654  1
  O2-  O208  1  0.16934480  0.70313650  0.60158378  1
  O2-  O209  1  0.16475240  0.70993348  0.93598953  1
  O2-  O210  1  0.66706537  0.20232006  0.27341556  1
  O2-  O211  1  0.66534155  0.20754749  0.59428418  1
  O2-  O212  1  0.67359759  0.20320213  0.93591124  1
  O2-  O213  1  0.66374357  0.70940295  0.26480931  1
  O2-  O214  1  0.66271939  0.70167200  0.60271681  1
  O2-  O215  1  0.66190859  0.70544936  0.93636831  1
  O2-  O216  1  0.08552571  0.44584190  0.06373407  1
  O2-  O217  1  0.07536340  0.44643131  0.39652856  1
  O2-  O218  1  0.07942705  0.45808659  0.73473401  1
  O2-  O219  1  0.08850409  0.95732190  0.06016100  1
  O2-  O220  1  0.08328246  0.96556635  0.40124553  1
  O2-  O221  1  0.08555356  0.95750760  0.72891017  1
  O2-  O222  1  0.57952386  0.45587808  0.06178902  1
  O2-  O223  1  0.58586460  0.46083890  0.40522076  1
  O2-  O224  1  0.58586314  0.45136758  0.72826976  1
  O2-  O225  1  0.57751743  0.95556354  0.06785895  1
  O2-  O226  1  0.58361437  0.96205107  0.40411572  1
  O2-  O227  1  0.58550499  0.96044511  0.72616630  1
  O2-  O228  1  0.20597331  0.33000979  0.05983577  1
  O2-  O229  1  0.21598763  0.33349725  0.40159260  1
  O2-  O230  1  0.20958841  0.33207261  0.73568560  1
  O2-  O231  1  0.21038178  0.84003730  0.06117326  1
  O2-  O232  1  0.20919080  0.83660828  0.40381279  1
  O2-  O233  1  0.20850124  0.83783921  0.72971682  1
  O2-  O234  1  0.70786833  0.33168127  0.06650982  1
  O2-  O235  1  0.70945463  0.33094761  0.40187952  1
  O2-  O236  1  0.70806534  0.33328978  0.72604749  1
  O2-  O237  1  0.70324491  0.83016769  0.06506386  1
  O2-  O238  1  0.70717055  0.83099529  0.40251674  1
  O2-  O239  1  0.69877457  0.83448789  0.72584389  1
  O2-  O240  1  0.46097296  0.41183533  0.27459766  1
  O2-  O241  1  0.45112523  0.41815475  0.60393085  1
  O2-  O242  1  0.45213865  0.42286183  0.92881699  1
  O2-  O243  1  0.45610698  0.91892601  0.26960823  1
  O2-  O244  1  0.46052379  0.91437491  0.59595613  1
  O2-  O245  1  0.45095540  0.91341316  0.93897544  1
  O2-  O246  1  0.94344443  0.41828535  0.27028474  1
  O2-  O247  1  0.94611868  0.42231860  0.60218279  1
  O2-  O248  1  0.95792545  0.41358747  0.93926818  1
  O2-  O249  1  0.95884651  0.91996574  0.26555750  1
  O2-  O250  1  0.94928467  0.92141101  0.60071089  1
  O2-  O251  1  0.96400270  0.91443709  0.92979938  1
  O2-  O252  1  0.34258334  0.29112045  0.27021545  1
  O2-  O253  1  0.33607421  0.29329633  0.60281733  1
  O2-  O254  1  0.33255867  0.28971762  0.92734627  1
  O2-  O255  1  0.33294471  0.80496753  0.27194109  1
  O2-  O256  1  0.33304120  0.79335645  0.59886456  1
  O2-  O257  1  0.33625977  0.78957539  0.93681981  1
  O2-  O258  1  0.83370895  0.28986801  0.26676309  1
  O2-  O259  1  0.83359513  0.28694005  0.59602050  1
  O2-  O260  1  0.83951314  0.29344110  0.93995898  1
  O2-  O261  1  0.82961580  0.79337884  0.26502072  1
  O2-  O262  1  0.82742382  0.79113593  0.59970419  1
  O2-  O263  1  0.83035864  0.79244772  0.93094036  1
  O2-  O264  1  0.41061898  0.04278099  0.06336473  1
  O2-  O265  1  0.41656638  0.04829651  0.39649580  1
  O2-  O266  1  0.41319395  0.03623437  0.73124281  1
  O2-  O267  1  0.41604039  0.54301723  0.06587874  1
  O2-  O268  1  0.41577984  0.53590458  0.40663750  1
  O2-  O269  1  0.41582423  0.54631636  0.73331815  1
  O2-  O270  1  0.92163749  0.03997805  0.06859346  1
  O2-  O271  1  0.91734935  0.04783621  0.39810881  1
  O2-  O272  1  0.91264641  0.04621546  0.72857778  1
  O2-  O273  1  0.92157621  0.54429819  0.06887013  1
  O2-  O274  1  0.91680416  0.55125135  0.39384740  1
  O2-  O275  1  0.90972649  0.54651585  0.72984917  1
  O2-  O276  1  0.29458717  0.16404366  0.06024916  1
  O2-  O277  1  0.29844782  0.16704618  0.39573936  1
  O2-  O278  1  0.29926236  0.16215954  0.73169886  1
  O2-  O279  1  0.28874189  0.66682483  0.07008738  1
  O2-  O280  1  0.30544230  0.67513087  0.39851550  1
  O2-  O281  1  0.29733426  0.66792189  0.73026803  1
  O2-  O282  1  0.79980171  0.16860392  0.07070750  1
  O2-  O283  1  0.79549506  0.16447268  0.40102105  1
  O2-  O284  1  0.78826329  0.16124695  0.72813340  1
  O2-  O285  1  0.79488493  0.67050147  0.06653743  1
  O2-  O286  1  0.79013450  0.66432890  0.39713487  1
  O2-  O287  1  0.78673173  0.66170980  0.72999980  1
