# generated using pymatgen
data_Ca2Al2SiO7
_symmetry_space_group_name_H-M   'P 1'
_cell_length_a   15.45726349
_cell_length_b   15.45803677
_cell_length_c   15.28298533
_cell_angle_alpha   89.99266630
_cell_angle_beta   90.00711252
_cell_angle_gamma   90.00991399
_symmetry_Int_Tables_number   1
_chemical_formula_structural   Ca2Al2SiO7
_chemical_formula_sum   'Ca48 Al48 Si24 O168'
_cell_volume   3651.70031390
_cell_formula_units_Z   24
loop_
 _symmetry_equiv_pos_site_id
 _symmetry_equiv_pos_as_xyz
  1  'x, y, z'
loop_
 _atom_type_symbol
 _atom_type_oxidation_number
  Ca2+  2.0
  Al0+  0.0
  Si0+  0.0
  O2-  -2.0
loop_
 _atom_site_type_symbol
 _atom_site_label
 _atom_site_symmetry_multiplicity
 _atom_site_fract_x
 _atom_site_fract_y
 _atom_site_fract_z
 _atom_site_occupancy
  Ca2+  Ca0  1  0.17133623  0.08215734  0.17741901  1
  Ca2+  Ca1  1  0.16302945  0.07609798  0.49974538  1
  Ca2+  Ca2  1  0.15985020  0.07880730  0.83475961  1
  Ca2+  Ca3  1  0.17600538  0.57009967  0.17605806  1
  Ca2+  Ca4  1  0.16746637  0.58145940  0.50212404  1
  Ca2+  Ca5  1  0.16438367  0.57900701  0.83967612  1
  Ca2+  Ca6  1  0.66559861  0.07281755  0.17776482  1
  Ca2+  Ca7  1  0.66764646  0.08177623  0.49875213  1
  Ca2+  Ca8  1  0.67058964  0.07492525  0.84200894  1
  Ca2+  Ca9  1  0.67155203  0.58892822  0.17079461  1
  Ca2+  Ca10  1  0.67672151  0.59304422  0.49942938  1
  Ca2+  Ca11  1  0.67759046  0.58647842  0.84288115  1
  Ca2+  Ca12  1  0.09218126  0.32489316  0.16234937  1
  Ca2+  Ca13  1  0.08592861  0.32356681  0.49177416  1
  Ca2+  Ca14  1  0.08948584  0.32312398  0.83158899  1
  Ca2+  Ca15  1  0.08281007  0.83489134  0.16483474  1
  Ca2+  Ca16  1  0.08196655  0.83547604  0.49983721  1
  Ca2+  Ca17  1  0.07597301  0.82494003  0.81804855  1
  Ca2+  Ca18  1  0.57987022  0.32958185  0.16016748  1
  Ca2+  Ca19  1  0.58165010  0.32630906  0.49018366  1
  Ca2+  Ca20  1  0.57875835  0.34363408  0.83585180  1
  Ca2+  Ca21  1  0.58490778  0.82739563  0.16047401  1
  Ca2+  Ca22  1  0.57809932  0.83161141  0.49152773  1
  Ca2+  Ca23  1  0.57631573  0.83380290  0.83492537  1
  Ca2+  Ca24  1  0.32728946  0.41399023  0.17119669  1
  Ca2+  Ca25  1  0.33036064  0.42145427  0.49558503  1
  Ca2+  Ca26  1  0.32842460  0.41701436  0.84268456  1
  Ca2+  Ca27  1  0.32970667  0.92094051  0.17567557  1
  Ca2+  Ca28  1  0.32458567  0.91800794  0.50350656  1
  Ca2+  Ca29  1  0.33182137  0.91130363  0.83411610  1
  Ca2+  Ca30  1  0.82866394  0.42740215  0.16915872  1
  Ca2+  Ca31  1  0.83582323  0.42868880  0.50288094  1
  Ca2+  Ca32  1  0.82979228  0.42974047  0.84197685  1
  Ca2+  Ca33  1  0.82068460  0.92074324  0.17318774  1
  Ca2+  Ca34  1  0.83045178  0.91691940  0.49838362  1
  Ca2+  Ca35  1  0.83018818  0.91283043  0.83774012  1
  Ca2+  Ca36  1  0.41824861  0.16774628  0.16511009  1
  Ca2+  Ca37  1  0.41952852  0.16484082  0.49081626  1
  Ca2+  Ca38  1  0.41751233  0.17430929  0.83421825  1
  Ca2+  Ca39  1  0.42669059  0.66847103  0.16019738  1
  Ca2+  Ca40  1  0.41957853  0.67128574  0.49110738  1
  Ca2+  Ca41  1  0.42176862  0.67730574  0.83029195  1
  Ca2+  Ca42  1  0.92808877  0.15975542  0.16545441  1
  Ca2+  Ca43  1  0.92531467  0.16277806  0.49108539  1
  Ca2+  Ca44  1  0.92915746  0.16648004  0.82811426  1
  Ca2+  Ca45  1  0.91286971  0.66342044  0.16465207  1
  Ca2+  Ca46  1  0.91634302  0.66770948  0.49929169  1
  Ca2+  Ca47  1  0.91710022  0.66733760  0.82521827  1
  Al0+  Al48  1  0.00118101  -0.00095076  -0.00469984  1
  Al0+  Al49  1  -0.00190819  -0.00032469  0.33335651  1
  Al0+  Al50  1  0.00002195  -0.00078170  0.66359947  1
  Al0+  Al51  1  0.00063872  0.49774675  0.00871390  1
  Al0+  Al52  1  -0.00103958  0.49955860  0.33997139  1
  Al0+  Al53  1  -0.00028684  0.49864594  0.66907896  1
  Al0+  Al54  1  0.49907825  0.00043110  -0.00068747  1
  Al0+  Al55  1  0.49846187  0.00002554  0.33658781  1
  Al0+  Al56  1  0.49887273  0.00109263  0.66512545  1
  Al0+  Al57  1  0.50172170  0.50042400  -0.00684314  1
  Al0+  Al58  1  0.49979988  0.50080654  0.33261248  1
  Al0+  Al59  1  0.49869041  0.50013121  0.66532792  1
  Al0+  Al60  1  0.25147305  0.24786893  -0.00594519  1
  Al0+  Al61  1  0.24949083  0.24938693  0.33768426  1
  Al0+  Al62  1  0.25244963  0.24970524  0.66204113  1
  Al0+  Al63  1  0.24910026  0.74993798  -0.00268435  1
  Al0+  Al64  1  0.24833229  0.74902171  0.33826989  1
  Al0+  Al65  1  0.25037755  0.75029357  0.66398853  1
  Al0+  Al66  1  0.75411840  0.25155831  0.00234643  1
  Al0+  Al67  1  0.75067489  0.25034504  0.33078983  1
  Al0+  Al68  1  0.74945271  0.24955039  0.66974271  1
  Al0+  Al69  1  0.75071402  0.75269938  0.00354812  1
  Al0+  Al70  1  0.74949774  0.75078599  0.33692305  1
  Al0+  Al71  1  0.74968363  0.75052287  0.66831720  1
  Al0+  Al72  1  0.07096375  0.67591777  0.65134552  1
  Al0+  Al73  1  0.67847936  0.93236353  0.01318603  1
  Al0+  Al74  1  0.92658396  0.82058699  0.64998241  1
  Al0+  Al75  1  0.57197659  0.17761711  0.31981029  1
  Al0+  Al76  1  0.67810622  0.92893769  0.34974450  1
  Al0+  Al77  1  0.32314643  0.57102185  0.34736573  1
  Al0+  Al78  1  0.43084914  0.32040349  0.98724031  1
  Al0+  Al79  1  0.06938250  0.17965284  0.31846451  1
  Al0+  Al80  1  0.57100063  0.68057892  0.31962835  1
  Al0+  Al81  1  0.81992176  0.57055379  0.68136540  1
  Al0+  Al82  1  0.17652816  0.92756693  0.34773137  1
  Al0+  Al83  1  0.81966509  0.57106142  0.34919900  1
  Al0+  Al84  1  0.17896670  0.42812322  0.34993886  1
  Al0+  Al85  1  0.42948955  0.82196485  0.65056910  1
  Al0+  Al86  1  0.82029918  0.07262668  0.34743585  1
  Al0+  Al87  1  0.17951150  0.93018319  0.68225217  1
  Al0+  Al88  1  0.57362960  0.68003293  0.98384949  1
  Al0+  Al89  1  0.42676017  0.82301521  0.98557870  1
  Al0+  Al90  1  0.18178448  0.42703330  0.01249389  1
  Al0+  Al91  1  0.67645131  0.42791061  0.01566773  1
  Al0+  Al92  1  0.07095228  0.17992135  0.65032108  1
  Al0+  Al93  1  0.07074011  0.17918305  0.98534776  1
  Al0+  Al94  1  0.82044517  0.57234758  0.01683032  1
  Al0+  Al95  1  0.32090286  0.07101009  0.34801909  1
  Si0+  Si96  1  0.67698653  0.42747377  0.34917976  1
  Si0+  Si97  1  0.67649604  0.42613595  0.68271061  1
  Si0+  Si98  1  0.32200618  0.57121747  0.68320110  1
  Si0+  Si99  1  0.57149955  0.17968975  0.65343136  1
  Si0+  Si100  1  0.42888347  0.32146508  0.31704641  1
  Si0+  Si101  1  0.07058843  0.67693704  0.98863147  1
  Si0+  Si102  1  0.32336890  0.07299082  0.68637658  1
  Si0+  Si103  1  0.07150358  0.67678379  0.31759161  1
  Si0+  Si104  1  0.42535620  0.82167205  0.31740125  1
  Si0+  Si105  1  0.92767456  0.32529175  0.31515960  1
  Si0+  Si106  1  0.32189054  0.57400346  0.01368381  1
  Si0+  Si107  1  0.82112889  0.07177274  0.68264114  1
  Si0+  Si108  1  0.92861584  0.32420734  0.98303586  1
  Si0+  Si109  1  0.18120249  0.42761133  0.68230631  1
  Si0+  Si110  1  0.42974274  0.32248062  0.64951672  1
  Si0+  Si111  1  0.92625230  0.32069036  0.65090567  1
  Si0+  Si112  1  0.17793191  0.92780475  0.01247471  1
  Si0+  Si113  1  0.93091686  0.82028464  0.98649930  1
  Si0+  Si114  1  0.57497987  0.17777077  0.98452774  1
  Si0+  Si115  1  0.82542902  0.07198345  0.01464446  1
  Si0+  Si116  1  0.92959425  0.81945059  0.31668073  1
  Si0+  Si117  1  0.67722084  0.93058297  0.68262602  1
  Si0+  Si118  1  0.31965554  0.07031278  0.01265962  1
  Si0+  Si119  1  0.57067605  0.67805739  0.64952994  1
  O2-  O120  1  0.25160971  -0.00410158  0.05341503  1
  O2-  O121  1  0.24932466  -0.00122913  0.39747860  1
  O2-  O122  1  0.25351045  0.00554516  0.73093493  1
  O2-  O123  1  0.25687684  0.50184505  0.05782643  1
  O2-  O124  1  0.24888653  0.50238865  0.39968017  1
  O2-  O125  1  0.24919005  0.50142962  0.72539977  1
  O2-  O126  1  0.74977990  0.01128348  0.05800743  1
  O2-  O127  1  0.74671390  0.00409107  0.40022055  1
  O2-  O128  1  0.75085509  -0.00029577  0.72475225  1
  O2-  O129  1  0.74494751  0.50297728  0.06565407  1
  O2-  O130  1  0.74463231  0.49605377  0.39516998  1
  O2-  O131  1  0.74428623  0.49577500  0.72603327  1
  O2-  O132  1  -0.00411721  0.25555210  0.27105374  1
  O2-  O133  1  -0.00517739  0.25353173  0.60471126  1
  O2-  O134  1  -0.00429049  0.25376180  0.93845997  1
  O2-  O135  1  0.00147038  0.74867284  0.27428817  1
  O2-  O136  1  -0.00082710  0.74828603  0.60106760  1
  O2-  O137  1  -0.00064809  0.74671410  0.94514005  1
  O2-  O138  1  0.49770412  0.25273650  0.27330270  1
  O2-  O139  1  0.50308767  0.25277850  0.61067096  1
  O2-  O140  1  0.51113281  0.25086107  0.93919668  1
  O2-  O141  1  0.49445853  0.75365692  0.27312847  1
  O2-  O142  1  0.50284694  0.74642775  0.60426244  1
  O2-  O143  1  0.49914042  0.75090570  0.93539952  1
  O2-  O144  1  0.07110988  0.17697284  0.09803551  1
  O2-  O145  1  0.06754595  0.18061742  0.43148812  1
  O2-  O146  1  0.07055804  0.18177486  0.76403043  1
  O2-  O147  1  0.07247020  0.68006105  0.09368404  1
  O2-  O148  1  0.06990454  0.67626654  0.42237313  1
  O2-  O149  1  0.06927785  0.67550789  0.76609670  1
  O2-  O150  1  0.57057118  0.17549518  0.08962396  1
  O2-  O151  1  0.57089706  0.18158899  0.43373384  1
  O2-  O152  1  0.57094240  0.17911016  0.75867452  1
  O2-  O153  1  0.57297191  0.68242890  0.09741176  1
  O2-  O154  1  0.57077650  0.68267965  0.43310862  1
  O2-  O155  1  0.56941312  0.67762051  0.75500193  1
  O2-  O156  1  0.18203202  0.42739625  0.23603423  1
  O2-  O157  1  0.18380435  0.42657656  0.57775741  1
  O2-  O158  1  0.18251888  0.42890320  0.89866311  1
  O2-  O159  1  0.17777653  0.92828837  0.23297256  1
  O2-  O160  1  0.18007025  0.93237654  0.56990736  1
  O2-  O161  1  0.17544819  0.92863294  0.90751522  1
  O2-  O162  1  0.67720418  0.42790479  0.24393690  1
  O2-  O163  1  0.67663529  0.42224393  0.57737617  1
  O2-  O164  1  0.68080280  0.42858325  0.90154930  1
  O2-  O165  1  0.68054041  0.92828225  0.23598022  1
  O2-  O166  1  0.67557919  0.93316417  0.57808037  1
  O2-  O167  1  0.68122667  0.93317015  0.89924482  1
  O2-  O168  1  0.42661249  0.31447664  0.09966609  1
  O2-  O169  1  0.43138081  0.32184223  0.42324415  1
  O2-  O170  1  0.42831006  0.32312235  0.75476649  1
  O2-  O171  1  0.42356077  0.82245834  0.09868755  1
  O2-  O172  1  0.42686285  0.82004010  0.42319031  1
  O2-  O173  1  0.43238870  0.82148066  0.76377193  1
  O2-  O174  1  0.92913315  0.32470647  0.08816474  1
  O2-  O175  1  0.92857630  0.32544183  0.42114650  1
  O2-  O176  1  0.92606958  0.31821782  0.75662716  1
  O2-  O177  1  0.93367753  0.82403139  0.09151169  1
  O2-  O178  1  0.92893759  0.81867586  0.42149869  1
  O2-  O179  1  0.92677013  0.81930446  0.76457053  1
  O2-  O180  1  0.31974757  0.07114346  0.23357182  1
  O2-  O181  1  0.32565669  0.07333809  0.58142655  1
  O2-  O182  1  0.31924391  0.07235281  0.90743033  1
  O2-  O183  1  0.32237517  0.56940285  0.23346279  1
  O2-  O184  1  0.32529966  0.56755185  0.57857055  1
  O2-  O185  1  0.31675704  0.57520657  0.90760471  1
  O2-  O186  1  0.82172180  0.06760535  0.23355058  1
  O2-  O187  1  0.81798067  0.07578088  0.57824769  1
  O2-  O188  1  0.82693221  0.06786357  0.90841957  1
  O2-  O189  1  0.81944731  0.57109393  0.23656184  1
  O2-  O190  1  0.81810569  0.56972383  0.56837931  1
  O2-  O191  1  0.82299282  0.57151566  0.90298922  1
  O2-  O192  1  0.03754157  0.08273033  0.26440080  1
  O2-  O193  1  0.03945527  0.08360722  0.59853987  1
  O2-  O194  1  0.03797967  0.08319942  0.92932286  1
  O2-  O195  1  0.04198882  0.58464141  0.27159391  1
  O2-  O196  1  0.04343880  0.57650423  0.59994032  1
  O2-  O197  1  0.04424068  0.58379288  0.94322157  1
  O2-  O198  1  0.53978585  0.08097079  0.26663537  1
  O2-  O199  1  0.54183809  0.08950373  0.60489158  1
  O2-  O200  1  0.54342949  0.08713368  0.93520968  1
  O2-  O201  1  0.54271953  0.58261851  0.26678273  1
  O2-  O202  1  0.54543434  0.58384741  0.60389053  1
  O2-  O203  1  0.54968116  0.58133068  0.92931507  1
  O2-  O204  1  0.16781727  0.21014442  0.26726760  1
  O2-  O205  1  0.16833685  0.21074584  0.59843516  1
  O2-  O206  1  0.16576674  0.21018430  0.92841913  1
  O2-  O207  1  0.16395870  0.70348967  0.27045679  1
  O2-  O208  1  0.16984498  0.70269724  0.60012263  1
  O2-  O209  1  0.16120451  0.70409387  0.93831897  1
  O2-  O210  1  0.66881128  0.20595699  0.26501868  1
  O2-  O211  1  0.66430001  0.20519303  0.60655705  1
  O2-  O212  1  0.67170689  0.19664685  0.94140930  1
  O2-  O213  1  0.66763613  0.71355521  0.26686103  1
  O2-  O214  1  0.66447345  0.70492963  0.60575434  1
  O2-  O215  1  0.67150285  0.71349110  0.93168157  1
  O2-  O216  1  0.08637500  0.45478342  0.06869624  1
  O2-  O217  1  0.08078671  0.45447715  0.40330637  1
  O2-  O218  1  0.08774424  0.45025266  0.72885020  1
  O2-  O219  1  0.08702526  0.95816192  0.06029486  1
  O2-  O220  1  0.07892740  0.95716020  0.39995365  1
  O2-  O221  1  0.08133682  0.96059319  0.73514563  1
  O2-  O222  1  0.57443020  0.44898606  0.06373671  1
  O2-  O223  1  0.58321314  0.45099963  0.39547671  1
  O2-  O224  1  0.58170896  0.45197295  0.72706110  1
  O2-  O225  1  0.58082873  0.95992545  0.06628418  1
  O2-  O226  1  0.57936724  0.95458635  0.40188092  1
  O2-  O227  1  0.58687596  0.96299047  0.73085327  1
  O2-  O228  1  0.21526345  0.33016962  0.06389607  1
  O2-  O229  1  0.21041225  0.33217819  0.40503710  1
  O2-  O230  1  0.21442745  0.33665150  0.72924061  1
  O2-  O231  1  0.20169096  0.83484070  0.05963341  1
  O2-  O232  1  0.20087200  0.82908037  0.40146078  1
  O2-  O233  1  0.20977398  0.83187322  0.73448085  1
  O2-  O234  1  0.70594729  0.32899821  0.06827393  1
  O2-  O235  1  0.70281305  0.33391975  0.39533804  1
  O2-  O236  1  0.70063663  0.33283517  0.73123844  1
  O2-  O237  1  0.71338555  0.83855233  0.06824673  1
  O2-  O238  1  0.71155602  0.83363273  0.40489098  1
  O2-  O239  1  0.70338350  0.83827005  0.72950260  1
  O2-  O240  1  0.45360634  0.41468211  0.27046796  1
  O2-  O241  1  0.45618623  0.41428294  0.60115169  1
  O2-  O242  1  0.45461826  0.41725526  0.92891625  1
  O2-  O243  1  0.44953635  0.91624659  0.27343846  1
  O2-  O244  1  0.46013443  0.91929657  0.59814645  1
  O2-  O245  1  0.45541697  0.92138875  0.93104170  1
  O2-  O246  1  0.95426367  0.41911458  0.26992495  1
  O2-  O247  1  0.95161793  0.41461840  0.60637304  1
  O2-  O248  1  0.95765966  0.41722056  0.93686666  1
  O2-  O249  1  0.95710717  0.91065941  0.26796281  1
  O2-  O250  1  0.95408882  0.91905619  0.59805663  1
  O2-  O251  1  0.96041096  0.90994435  0.93520234  1
  O2-  O252  1  0.33502647  0.29460890  0.27311449  1
  O2-  O253  1  0.33991841  0.29281261  0.60023120  1
  O2-  O254  1  0.33828563  0.28316921  0.92788063  1
  O2-  O255  1  0.33063983  0.79695275  0.27278070  1
  O2-  O256  1  0.33308175  0.79186250  0.59785706  1
  O2-  O257  1  0.32845106  0.79348548  0.93048388  1
  O2-  O258  1  0.83358969  0.30188701  0.26940827  1
  O2-  O259  1  0.83180382  0.29583055  0.60571449  1
  O2-  O260  1  0.83448601  0.30129574  0.93566026  1
  O2-  O261  1  0.83818765  0.78949157  0.26982076  1
  O2-  O262  1  0.82751625  0.79302009  0.59814571  1
  O2-  O263  1  0.83854142  0.79549113  0.93950671  1
  O2-  O264  1  0.41229567  0.04670828  0.06003784  1
  O2-  O265  1  0.41842721  0.04457662  0.40312977  1
  O2-  O266  1  0.41688563  0.04645671  0.73332534  1
  O2-  O267  1  0.41793733  0.55223874  0.05399739  1
  O2-  O268  1  0.41996371  0.54014506  0.40324154  1
  O2-  O269  1  0.41323417  0.54047387  0.73138354  1
  O2-  O270  1  0.91611542  0.03745839  0.06150534  1
  O2-  O271  1  0.91638243  0.03963506  0.40129159  1
  O2-  O272  1  0.91294363  0.04383555  0.72947335  1
  O2-  O273  1  0.91753810  0.54123318  0.07142511  1
  O2-  O274  1  0.91523715  0.54068959  0.40472019  1
  O2-  O275  1  0.91660045  0.53901435  0.73587932  1
  O2-  O276  1  0.28803560  0.16000923  0.06064518  1
  O2-  O277  1  0.29462155  0.16863219  0.40274762  1
  O2-  O278  1  0.29850257  0.16845748  0.73009597  1
  O2-  O279  1  0.29253698  0.66565362  0.06167418  1
  O2-  O280  1  0.29595542  0.66865937  0.40138654  1
  O2-  O281  1  0.29625026  0.66360935  0.72951398  1
  O2-  O282  1  0.81165503  0.16873565  0.05693641  1
  O2-  O283  1  0.79683727  0.17279829  0.39945130  1
  O2-  O284  1  0.79222883  0.16257662  0.73309593  1
  O2-  O285  1  0.79591265  0.67183441  0.06870511  1
  O2-  O286  1  0.78798541  0.66659150  0.40371790  1
  O2-  O287  1  0.78961198  0.66766600  0.73542503  1
