# generated using pymatgen
data_Ca2Al2SiO7
_symmetry_space_group_name_H-M   'P 1'
_cell_length_a   15.46626914
_cell_length_b   15.46555227
_cell_length_c   15.29083594
_cell_angle_alpha   90.00815121
_cell_angle_beta   89.98895811
_cell_angle_gamma   89.99787437
_symmetry_Int_Tables_number   1
_chemical_formula_structural   Ca2Al2SiO7
_chemical_formula_sum   'Ca48 Al48 Si24 O168'
_cell_volume   3657.48212422
_cell_formula_units_Z   24
loop_
 _symmetry_equiv_pos_site_id
 _symmetry_equiv_pos_as_xyz
  1  'x, y, z'
loop_
 _atom_type_symbol
 _atom_type_oxidation_number
  Ca2+  2.0
  Al0+  0.0
  Si0+  0.0
  O2-  -2.0
loop_
 _atom_site_type_symbol
 _atom_site_label
 _atom_site_symmetry_multiplicity
 _atom_site_fract_x
 _atom_site_fract_y
 _atom_site_fract_z
 _atom_site_occupancy
  Ca2+  Ca0  1  0.18022688  0.07196025  0.16999365  1
  Ca2+  Ca1  1  0.17904833  0.07333030  0.50579984  1
  Ca2+  Ca2  1  0.18201328  0.07366515  0.83815209  1
  Ca2+  Ca3  1  0.17750498  0.59151026  0.16346776  1
  Ca2+  Ca4  1  0.17430040  0.58307867  0.49872505  1
  Ca2+  Ca5  1  0.17214475  0.58036670  0.84583603  1
  Ca2+  Ca6  1  0.66887415  0.08750734  0.17145109  1
  Ca2+  Ca7  1  0.66985228  0.08791297  0.49699427  1
  Ca2+  Ca8  1  0.66677242  0.08336609  0.84007608  1
  Ca2+  Ca9  1  0.65688938  0.57693603  0.16451627  1
  Ca2+  Ca10  1  0.66118854  0.57918520  0.51157070  1
  Ca2+  Ca11  1  0.65571744  0.57676003  0.84014005  1
  Ca2+  Ca12  1  0.07692213  0.33483521  0.15425058  1
  Ca2+  Ca13  1  0.08189914  0.32884450  0.49490099  1
  Ca2+  Ca14  1  0.07978508  0.33978921  0.83165034  1
  Ca2+  Ca15  1  0.08251301  0.83631739  0.15653020  1
  Ca2+  Ca16  1  0.08410343  0.84545720  0.50010623  1
  Ca2+  Ca17  1  0.08140991  0.84012844  0.83363783  1
  Ca2+  Ca18  1  0.58476418  0.32108708  0.15983252  1
  Ca2+  Ca19  1  0.57804135  0.33033520  0.50019076  1
  Ca2+  Ca20  1  0.58046271  0.33207025  0.83075961  1
  Ca2+  Ca21  1  0.56814571  0.82985449  0.15774732  1
  Ca2+  Ca22  1  0.56779415  0.83488000  0.49765353  1
  Ca2+  Ca23  1  0.56903819  0.82252599  0.83098699  1
  Ca2+  Ca24  1  0.33200980  0.43020382  0.16521886  1
  Ca2+  Ca25  1  0.34184804  0.42215668  0.50499136  1
  Ca2+  Ca26  1  0.33310222  0.42261437  0.84332162  1
  Ca2+  Ca27  1  0.32929957  0.91557823  0.17208576  1
  Ca2+  Ca28  1  0.33061238  0.92008476  0.50574449  1
  Ca2+  Ca29  1  0.33371839  0.91922205  0.84223989  1
  Ca2+  Ca30  1  0.82868591  0.41330625  0.16407248  1
  Ca2+  Ca31  1  0.82283519  0.42152555  0.50793791  1
  Ca2+  Ca32  1  0.82094800  0.41678539  0.84210732  1
  Ca2+  Ca33  1  0.83223482  0.92001262  0.17094209  1
  Ca2+  Ca34  1  0.83455338  0.92176838  0.50585180  1
  Ca2+  Ca35  1  0.83498992  0.91112458  0.83703666  1
  Ca2+  Ca36  1  0.42479492  0.15649768  0.16138311  1
  Ca2+  Ca37  1  0.41372049  0.16856417  0.49453966  1
  Ca2+  Ca38  1  0.41575094  0.16771199  0.82925973  1
  Ca2+  Ca39  1  0.41188811  0.67444323  0.15998290  1
  Ca2+  Ca40  1  0.41531389  0.67583156  0.49765110  1
  Ca2+  Ca41  1  0.41535094  0.67414503  0.83092193  1
  Ca2+  Ca42  1  0.91780275  0.16960673  0.15951326  1
  Ca2+  Ca43  1  0.91768554  0.16464681  0.49360892  1
  Ca2+  Ca44  1  0.91987713  0.17290835  0.83460791  1
  Ca2+  Ca45  1  0.92753504  0.67449344  0.15280587  1
  Ca2+  Ca46  1  0.91876737  0.67496576  0.49965135  1
  Ca2+  Ca47  1  0.92514602  0.67650167  0.83282812  1
  Al0+  Al48  1  0.00071287  0.00374203  -0.00127476  1
  Al0+  Al49  1  -0.00126246  0.00219813  0.33876454  1
  Al0+  Al50  1  0.00159195  0.00184441  0.66712337  1
  Al0+  Al51  1  -0.00373112  0.50058132  -0.00639140  1
  Al0+  Al52  1  -0.00229381  0.50112586  0.33413824  1
  Al0+  Al53  1  -0.00222057  0.50174954  0.66325621  1
  Al0+  Al54  1  0.50461818  -0.00080625  -0.00564331  1
  Al0+  Al55  1  0.50109153  -0.00020428  0.32912905  1
  Al0+  Al56  1  0.50484188  0.00058510  0.66585150  1
  Al0+  Al57  1  0.50026012  0.49602753  0.00972061  1
  Al0+  Al58  1  0.49905057  0.49832990  0.33796385  1
  Al0+  Al59  1  0.49989711  0.49640297  0.66448964  1
  Al0+  Al60  1  0.25084481  0.24862288  0.00941622  1
  Al0+  Al61  1  0.24785781  0.25022444  0.33247070  1
  Al0+  Al62  1  0.24945017  0.24927758  0.66437323  1
  Al0+  Al63  1  0.24812441  0.75051308  -0.00114876  1
  Al0+  Al64  1  0.24847871  0.74753348  0.33950313  1
  Al0+  Al65  1  0.24794042  0.74819559  0.66604918  1
  Al0+  Al66  1  0.75031186  0.25050975  -0.00435917  1
  Al0+  Al67  1  0.74900617  0.25096145  0.33562944  1
  Al0+  Al68  1  0.75041051  0.25232762  0.67017652  1
  Al0+  Al69  1  0.74985294  0.74929379  -0.00517212  1
  Al0+  Al70  1  0.75027853  0.74873258  0.33356097  1
  Al0+  Al71  1  0.75443725  0.75006570  0.65910257  1
  Al0+  Al72  1  0.07202227  0.67972721  0.98511558  1
  Al0+  Al73  1  0.17887055  0.92982198  0.01450409  1
  Al0+  Al74  1  0.92900839  0.82508412  0.98633339  1
  Al0+  Al75  1  0.56972292  0.67785733  0.65269194  1
  Al0+  Al76  1  0.67904401  0.43133183  0.68227006  1
  Al0+  Al77  1  0.42751969  0.82036030  0.98624177  1
  Al0+  Al78  1  0.81873557  0.07105373  0.34588376  1
  Al0+  Al79  1  0.93263169  0.82223779  0.65054969  1
  Al0+  Al80  1  0.32679803  0.06990292  0.01580815  1
  Al0+  Al81  1  0.32051088  0.56868752  0.34959785  1
  Al0+  Al82  1  0.17988755  0.92836468  0.68429252  1
  Al0+  Al83  1  0.56992047  0.18153439  0.32026034  1
  Al0+  Al84  1  0.42824584  0.31777005  0.65466245  1
  Al0+  Al85  1  0.32097242  0.57148853  0.01367963  1
  Al0+  Al86  1  0.42834236  0.81884604  0.31981635  1
  Al0+  Al87  1  0.67924035  0.42790488  0.01588580  1
  Al0+  Al88  1  0.57132916  0.17899837  0.98546061  1
  Al0+  Al89  1  0.32458638  0.07148524  0.34855627  1
  Al0+  Al90  1  0.17920692  0.92837067  0.34917053  1
  Al0+  Al91  1  0.42730195  0.82245796  0.65077377  1
  Al0+  Al92  1  0.57010606  0.67507586  0.98802331  1
  Al0+  Al93  1  0.17494144  0.42791616  0.01297059  1
  Al0+  Al94  1  0.32478040  0.07182457  0.68148588  1
  Al0+  Al95  1  0.92952888  0.32113397  0.98564022  1
  Si0+  Si96  1  0.67871060  0.92546335  0.34976869  1
  Si0+  Si97  1  0.57325073  0.67544899  0.31767641  1
  Si0+  Si98  1  0.31959736  0.56797903  0.68071557  1
  Si0+  Si99  1  0.82308183  0.57379466  0.68474701  1
  Si0+  Si100  1  0.07179794  0.67462353  0.64623322  1
  Si0+  Si101  1  0.07003803  0.17833377  0.31737952  1
  Si0+  Si102  1  0.42553359  0.32372579  0.31476954  1
  Si0+  Si103  1  0.68079151  0.43008979  0.34986639  1
  Si0+  Si104  1  0.06820926  0.67811373  0.31907313  1
  Si0+  Si105  1  0.06935612  0.18142349  0.65042427  1
  Si0+  Si106  1  0.17428018  0.42840337  0.34955111  1
  Si0+  Si107  1  0.68142762  0.92681243  0.01333958  1
  Si0+  Si108  1  0.57599785  0.17811241  0.64945949  1
  Si0+  Si109  1  0.17601311  0.42829273  0.67838812  1
  Si0+  Si110  1  0.68187584  0.92727289  0.68140235  1
  Si0+  Si111  1  0.42733083  0.32000953  0.98707551  1
  Si0+  Si112  1  0.82010090  0.57313397  0.01641839  1
  Si0+  Si113  1  0.82141149  0.07201517  0.68309650  1
  Si0+  Si114  1  0.92774452  0.32192074  0.64954255  1
  Si0+  Si115  1  0.82014036  0.07160058  0.01306040  1
  Si0+  Si116  1  0.07418480  0.17957387  0.98316512  1
  Si0+  Si117  1  0.92880675  0.82303315  0.31916474  1
  Si0+  Si118  1  0.92941938  0.32121073  0.31921925  1
  Si0+  Si119  1  0.82256659  0.57190475  0.34900000  1
  O2-  O120  1  0.25599767  -0.00405958  0.06448995  1
  O2-  O121  1  0.25422710  -0.00208966  0.39814256  1
  O2-  O122  1  0.26035995  -0.00727245  0.73116888  1
  O2-  O123  1  0.24494969  0.50164437  0.06272067  1
  O2-  O124  1  0.24788994  0.49031246  0.39550333  1
  O2-  O125  1  0.24570421  0.49906263  0.72115064  1
  O2-  O126  1  0.75385671  -0.00306059  0.05549602  1
  O2-  O127  1  0.74748459  -0.00555574  0.39465146  1
  O2-  O128  1  0.75076425  0.00097785  0.72442720  1
  O2-  O129  1  0.75087612  0.50586386  0.06303570  1
  O2-  O130  1  0.74674790  0.50622506  0.39160933  1
  O2-  O131  1  0.75047994  0.50944958  0.72824321  1
  O2-  O132  1  0.00193205  0.25301125  0.27598040  1
  O2-  O133  1  -0.00134000  0.25261497  0.60551030  1
  O2-  O134  1  0.01036711  0.25333510  0.93830203  1
  O2-  O135  1  0.00045716  0.75301650  0.27786390  1
  O2-  O136  1  0.00843307  0.74910156  0.60277882  1
  O2-  O137  1  0.00337224  0.75573914  0.93638981  1
  O2-  O138  1  0.49018497  0.25042627  0.27243869  1
  O2-  O139  1  0.50047845  0.24026297  0.60736651  1
  O2-  O140  1  0.49251982  0.24944846  0.94058514  1
  O2-  O141  1  0.50495366  0.74430900  0.27491174  1
  O2-  O142  1  0.49993132  0.75029643  0.60046539  1
  O2-  O143  1  0.49512867  0.74297399  0.93808343  1
  O2-  O144  1  0.06802212  0.17834432  0.08893834  1
  O2-  O145  1  0.06726783  0.18066617  0.42288220  1
  O2-  O146  1  0.06708457  0.18482995  0.75504736  1
  O2-  O147  1  0.06827244  0.67891571  0.09940583  1
  O2-  O148  1  0.06360797  0.67304689  0.42403439  1
  O2-  O149  1  0.06771319  0.66603462  0.75058430  1
  O2-  O150  1  0.57576271  0.18126262  0.09857165  1
  O2-  O151  1  0.57553801  0.18749105  0.43315055  1
  O2-  O152  1  0.58171336  0.18165073  0.75453998  1
  O2-  O153  1  0.57089315  0.67992390  0.10205782  1
  O2-  O154  1  0.57481019  0.67540587  0.42315463  1
  O2-  O155  1  0.56610092  0.67711504  0.76568671  1
  O2-  O156  1  0.16823652  0.43195007  0.24494239  1
  O2-  O157  1  0.17446877  0.42949427  0.57297057  1
  O2-  O158  1  0.17799237  0.42851213  0.89862175  1
  O2-  O159  1  0.17537594  0.93004059  0.23615200  1
  O2-  O160  1  0.17715865  0.93469378  0.57076519  1
  O2-  O161  1  0.17648567  0.93467047  0.90141165  1
  O2-  O162  1  0.68363258  0.42810351  0.24513053  1
  O2-  O163  1  0.68319051  0.42968015  0.56833521  1
  O2-  O164  1  0.68102244  0.42630370  0.90309399  1
  O2-  O165  1  0.68260578  0.92337001  0.24424535  1
  O2-  O166  1  0.68379011  0.92907798  0.57602011  1
  O2-  O167  1  0.68285400  0.92865588  0.90813085  1
  O2-  O168  1  0.43093934  0.32085931  0.09264600  1
  O2-  O169  1  0.42907519  0.32572929  0.42070527  1
  O2-  O170  1  0.42821914  0.31988099  0.76742706  1
  O2-  O171  1  0.42990407  0.82118988  0.10009204  1
  O2-  O172  1  0.42996063  0.81807987  0.43291145  1
  O2-  O173  1  0.42820698  0.82075034  0.76376677  1
  O2-  O174  1  0.92675820  0.31609876  0.09938548  1
  O2-  O175  1  0.92992099  0.32077892  0.42474260  1
  O2-  O176  1  0.92815024  0.32120337  0.75408524  1
  O2-  O177  1  0.92744614  0.82397173  0.10069218  1
  O2-  O178  1  0.92771189  0.82187223  0.42423924  1
  O2-  O179  1  0.93188775  0.82158376  0.76285749  1
  O2-  O180  1  0.32293905  0.06996236  0.23558798  1
  O2-  O181  1  0.31984054  0.07556133  0.56808869  1
  O2-  O182  1  0.32486280  0.07165316  0.90219681  1
  O2-  O183  1  0.31915083  0.56929408  0.23716686  1
  O2-  O184  1  0.31876324  0.56574034  0.57524947  1
  O2-  O185  1  0.32265151  0.56748668  0.89971238  1
  O2-  O186  1  0.81904582  0.07161982  0.23293294  1
  O2-  O187  1  0.82063467  0.07358247  0.57766593  1
  O2-  O188  1  0.81904697  0.07345946  0.90776321  1
  O2-  O189  1  0.82695030  0.57020148  0.24464462  1
  O2-  O190  1  0.82546628  0.56936411  0.57833595  1
  O2-  O191  1  0.81970845  0.57147639  0.91108099  1
  O2-  O192  1  0.03566668  0.08873924  0.27064404  1
  O2-  O193  1  0.03800774  0.09145687  0.60225068  1
  O2-  O194  1  0.04029959  0.09061785  0.93351905  1
  O2-  O195  1  0.03530928  0.58827873  0.27051379  1
  O2-  O196  1  0.03904020  0.58418644  0.59507633  1
  O2-  O197  1  0.03929346  0.58353156  0.92983710  1
  O2-  O198  1  0.54928084  0.08252648  0.26667441  1
  O2-  O199  1  0.56115044  0.08203541  0.60521498  1
  O2-  O200  1  0.54841773  0.08203710  0.92935724  1
  O2-  O201  1  0.54740173  0.58050305  0.27453991  1
  O2-  O202  1  0.54028803  0.57973535  0.59898096  1
  O2-  O203  1  0.54707818  0.57297506  0.94151606  1
  O2-  O204  1  0.16257002  0.20223388  0.27022518  1
  O2-  O205  1  0.15951351  0.21015247  0.60047553  1
  O2-  O206  1  0.17001405  0.20017868  0.94101553  1
  O2-  O207  1  0.16184566  0.70170241  0.27545864  1
  O2-  O208  1  0.16702624  0.69448000  0.60196480  1
  O2-  O209  1  0.17033340  0.70185777  0.93106403  1
  O2-  O210  1  0.66591875  0.21793174  0.26634093  1
  O2-  O211  1  0.66729584  0.21232980  0.60185946  1
  O2-  O212  1  0.66566627  0.21357616  0.92957013  1
  O2-  O213  1  0.66852675  0.69772930  0.27260020  1
  O2-  O214  1  0.67081857  0.70106060  0.60157421  1
  O2-  O215  1  0.66718473  0.70427683  0.93340985  1
  O2-  O216  1  0.07331817  0.45203060  0.06150120  1
  O2-  O217  1  0.08245673  0.45880696  0.39917461  1
  O2-  O218  1  0.08273265  0.45521756  0.72384630  1
  O2-  O219  1  0.08078688  0.96375214  0.06730554  1
  O2-  O220  1  0.08170348  0.96193904  0.40246005  1
  O2-  O221  1  0.08319650  0.96626924  0.73557571  1
  O2-  O222  1  0.58430400  0.45297736  0.07545960  1
  O2-  O223  1  0.58762198  0.45254371  0.39688079  1
  O2-  O224  1  0.58108705  0.45769802  0.73476458  1
  O2-  O225  1  0.59144485  0.95745130  0.06159696  1
  O2-  O226  1  0.58622593  0.95396404  0.39514195  1
  O2-  O227  1  0.59025317  0.95269519  0.72949991  1
  O2-  O228  1  0.20137650  0.33082753  0.06955451  1
  O2-  O229  1  0.19321134  0.33215874  0.39293651  1
  O2-  O230  1  0.20104322  0.33603984  0.72447804  1
  O2-  O231  1  0.19886624  0.82908614  0.06500807  1
  O2-  O232  1  0.20084535  0.82882520  0.40228927  1
  O2-  O233  1  0.19442710  0.82419049  0.72965272  1
  O2-  O234  1  0.71818315  0.33285837  0.06895211  1
  O2-  O235  1  0.71524882  0.34170197  0.39957382  1
  O2-  O236  1  0.71468864  0.33613957  0.73603789  1
  O2-  O237  1  0.70811297  0.83541221  0.06195939  1
  O2-  O238  1  0.70435686  0.83210154  0.39711464  1
  O2-  O239  1  0.71480283  0.83627908  0.72644031  1
  O2-  O240  1  0.45742258  0.41590867  0.26957978  1
  O2-  O241  1  0.46410801  0.41117417  0.59669607  1
  O2-  O242  1  0.45696980  0.41252489  0.94167115  1
  O2-  O243  1  0.46007719  0.91471552  0.26564525  1
  O2-  O244  1  0.46041098  0.92079084  0.59862091  1
  O2-  O245  1  0.46479294  0.91459115  0.93112999  1
  O2-  O246  1  0.95460005  0.41402514  0.27256596  1
  O2-  O247  1  0.95386492  0.41402013  0.60103805  1
  O2-  O248  1  0.95067380  0.41803246  0.92874583  1
  O2-  O249  1  0.95396664  0.91648273  0.27415387  1
  O2-  O250  1  0.96074497  0.92087652  0.59766276  1
  O2-  O251  1  0.95299932  0.92477067  0.93357302  1
  O2-  O252  1  0.32864285  0.30634400  0.27273659  1
  O2-  O253  1  0.33075390  0.29326612  0.59764517  1
  O2-  O254  1  0.33158215  0.29931608  0.94355328  1
  O2-  O255  1  0.33065003  0.78529429  0.26999812  1
  O2-  O256  1  0.32837543  0.79222492  0.59946318  1
  O2-  O257  1  0.32866199  0.79731790  0.93397099  1
  O2-  O258  1  0.83820268  0.29112853  0.27306778  1
  O2-  O259  1  0.83648393  0.29167774  0.60212872  1
  O2-  O260  1  0.83732358  0.28233827  0.92869604  1
  O2-  O261  1  0.83654595  0.79478124  0.27257360  1
  O2-  O262  1  0.83791217  0.79066931  0.59205415  1
  O2-  O263  1  0.83241692  0.79367499  0.93164266  1
  O2-  O264  1  0.42754675  0.04314458  0.06438010  1
  O2-  O265  1  0.42519850  0.04759018  0.39896044  1
  O2-  O266  1  0.42846269  0.05531934  0.72796240  1
  O2-  O267  1  0.41575839  0.53913328  0.07189565  1
  O2-  O268  1  0.41726678  0.53872131  0.40508146  1
  O2-  O269  1  0.40977981  0.53550620  0.72655348  1
  O2-  O270  1  0.91298033  0.04931319  0.06067767  1
  O2-  O271  1  0.91409090  0.04273343  0.40346980  1
  O2-  O272  1  0.91320363  0.04526333  0.72979501  1
  O2-  O273  1  0.91282695  0.54451549  0.06257762  1
  O2-  O274  1  0.91092598  0.53851317  0.40065425  1
  O2-  O275  1  0.91504200  0.54202938  0.73027375  1
  O2-  O276  1  0.29848469  0.16733196  0.07103573  1
  O2-  O277  1  0.29380742  0.17176043  0.39836868  1
  O2-  O278  1  0.28710886  0.16856003  0.73369710  1
  O2-  O279  1  0.29207003  0.66936506  0.06701803  1
  O2-  O280  1  0.28490545  0.66172441  0.40680806  1
  O2-  O281  1  0.29408964  0.66035808  0.72677638  1
  O2-  O282  1  0.78795033  0.16135980  0.06137229  1
  O2-  O283  1  0.78718327  0.16700844  0.40252402  1
  O2-  O284  1  0.79411979  0.16408279  0.73034504  1
  O2-  O285  1  0.79707268  0.66750403  0.06268081  1
  O2-  O286  1  0.79987804  0.66544802  0.39617422  1
  O2-  O287  1  0.80487115  0.67023033  0.72603763  1
