# generated using pymatgen
data_Ca2Al2SiO7
_symmetry_space_group_name_H-M   'P 1'
_cell_length_a   15.45687107
_cell_length_b   15.45679226
_cell_length_c   15.28258315
_cell_angle_alpha   90.00280945
_cell_angle_beta   90.00120410
_cell_angle_gamma   89.98120320
_symmetry_Int_Tables_number   1
_chemical_formula_structural   Ca2Al2SiO7
_chemical_formula_sum   'Ca48 Al48 Si24 O168'
_cell_volume   3651.21744537
_cell_formula_units_Z   24
loop_
 _symmetry_equiv_pos_site_id
 _symmetry_equiv_pos_as_xyz
  1  'x, y, z'
loop_
 _atom_type_symbol
 _atom_type_oxidation_number
  Ca2+  2.0
  Al0+  0.0
  Si0+  0.0
  O2-  -2.0
loop_
 _atom_site_type_symbol
 _atom_site_label
 _atom_site_symmetry_multiplicity
 _atom_site_fract_x
 _atom_site_fract_y
 _atom_site_fract_z
 _atom_site_occupancy
  Ca2+  Ca0  1  0.17346924  0.09217505  0.17038172  1
  Ca2+  Ca1  1  0.16931786  0.07909717  0.50241570  1
  Ca2+  Ca2  1  0.16981463  0.08078360  0.83999122  1
  Ca2+  Ca3  1  0.17479057  0.57967266  0.17079981  1
  Ca2+  Ca4  1  0.17116368  0.59184171  0.50322499  1
  Ca2+  Ca5  1  0.17264566  0.57788858  0.84208054  1
  Ca2+  Ca6  1  0.66079006  0.07781474  0.16619509  1
  Ca2+  Ca7  1  0.66925488  0.07622944  0.50836049  1
  Ca2+  Ca8  1  0.66072911  0.07197763  0.84059072  1
  Ca2+  Ca9  1  0.66771675  0.58192695  0.17291304  1
  Ca2+  Ca10  1  0.66434271  0.58283000  0.50704569  1
  Ca2+  Ca11  1  0.66058327  0.57683744  0.83371542  1
  Ca2+  Ca12  1  0.08126572  0.32621612  0.15795338  1
  Ca2+  Ca13  1  0.06993656  0.32984246  0.49119903  1
  Ca2+  Ca14  1  0.07993041  0.33307243  0.83262881  1
  Ca2+  Ca15  1  0.08147141  0.82693006  0.16317932  1
  Ca2+  Ca16  1  0.09401282  0.82420182  0.49936124  1
  Ca2+  Ca17  1  0.08208300  0.83076928  0.82623441  1
  Ca2+  Ca18  1  0.57473896  0.32288484  0.15612277  1
  Ca2+  Ca19  1  0.57878301  0.33854893  0.50177462  1
  Ca2+  Ca20  1  0.57194086  0.33249844  0.82737986  1
  Ca2+  Ca21  1  0.57904174  0.83044683  0.16419264  1
  Ca2+  Ca22  1  0.57749471  0.82803228  0.49678057  1
  Ca2+  Ca23  1  0.57910210  0.83118827  0.82463781  1
  Ca2+  Ca24  1  0.33126820  0.42270981  0.16728649  1
  Ca2+  Ca25  1  0.33495838  0.42396535  0.50419542  1
  Ca2+  Ca26  1  0.33280840  0.42054216  0.84515888  1
  Ca2+  Ca27  1  0.33755490  0.92999057  0.17342537  1
  Ca2+  Ca28  1  0.33527541  0.91758890  0.50374286  1
  Ca2+  Ca29  1  0.32887545  0.91766319  0.83757338  1
  Ca2+  Ca30  1  0.83478627  0.40840807  0.16945689  1
  Ca2+  Ca31  1  0.82915516  0.41265061  0.50833526  1
  Ca2+  Ca32  1  0.83268993  0.41171518  0.83436104  1
  Ca2+  Ca33  1  0.82926628  0.91193165  0.16569593  1
  Ca2+  Ca34  1  0.82774076  0.91901254  0.50857170  1
  Ca2+  Ca35  1  0.82182563  0.91063098  0.84153566  1
  Ca2+  Ca36  1  0.41438442  0.16790787  0.15498994  1
  Ca2+  Ca37  1  0.41294707  0.17100432  0.49814680  1
  Ca2+  Ca38  1  0.41295551  0.17455909  0.83663840  1
  Ca2+  Ca39  1  0.41408431  0.66639161  0.16824407  1
  Ca2+  Ca40  1  0.42399263  0.67727718  0.49323024  1
  Ca2+  Ca41  1  0.41909223  0.67139498  0.82334104  1
  Ca2+  Ca42  1  0.92895526  0.17446456  0.15972253  1
  Ca2+  Ca43  1  0.92044562  0.17472739  0.49354480  1
  Ca2+  Ca44  1  0.92027790  0.17569223  0.83277537  1
  Ca2+  Ca45  1  0.92374016  0.66955529  0.16309773  1
  Ca2+  Ca46  1  0.93125120  0.66456031  0.49705986  1
  Ca2+  Ca47  1  0.92437096  0.67029450  0.83070566  1
  Al0+  Al48  1  -0.00331179  -0.00089711  -0.00742128  1
  Al0+  Al49  1  -0.00083946  0.00089484  0.33200359  1
  Al0+  Al50  1  0.00158323  0.00092383  0.67152967  1
  Al0+  Al51  1  -0.00018192  0.50050842  0.00106032  1
  Al0+  Al52  1  -0.00195128  0.50154172  0.32624518  1
  Al0+  Al53  1  0.00051405  0.49989875  0.65909356  1
  Al0+  Al54  1  0.49928232  -0.00291436  0.00446660  1
  Al0+  Al55  1  0.49898080  -0.00031768  0.33743068  1
  Al0+  Al56  1  0.50054191  0.00262991  0.66804690  1
  Al0+  Al57  1  0.50188673  0.50021161  0.00315955  1
  Al0+  Al58  1  0.49965215  0.50027333  0.33425826  1
  Al0+  Al59  1  0.50137849  0.49971651  0.66402459  1
  Al0+  Al60  1  0.24915951  0.25027778  -0.00091894  1
  Al0+  Al61  1  0.24914242  0.25094922  0.33778137  1
  Al0+  Al62  1  0.25012634  0.25098650  0.66159418  1
  Al0+  Al63  1  0.25099688  0.75001966  0.00468397  1
  Al0+  Al64  1  0.25103478  0.75088930  0.32756008  1
  Al0+  Al65  1  0.25108430  0.75227224  0.66545275  1
  Al0+  Al66  1  0.75060202  0.24605549  -0.00600688  1
  Al0+  Al67  1  0.74831055  0.24878469  0.33183601  1
  Al0+  Al68  1  0.74969655  0.25129016  0.66827629  1
  Al0+  Al69  1  0.74949947  0.74862028  0.00167135  1
  Al0+  Al70  1  0.74871933  0.74732684  0.33344293  1
  Al0+  Al71  1  0.75253117  0.74960326  0.66799991  1
  Al0+  Al72  1  0.57283915  0.67887266  0.65302623  1
  Al0+  Al73  1  0.32424680  0.57286959  0.01553293  1
  Al0+  Al74  1  0.42983599  0.32249659  0.98672292  1
  Al0+  Al75  1  0.32130368  0.07297764  0.34917656  1
  Al0+  Al76  1  0.07192099  0.17863920  0.31877985  1
  Al0+  Al77  1  0.18112975  0.92898026  0.68061114  1
  Al0+  Al78  1  0.42998623  0.82271506  0.31582641  1
  Al0+  Al79  1  0.42920784  0.82374090  0.65284370  1
  Al0+  Al80  1  0.31773185  0.06825070  0.01196140  1
  Al0+  Al81  1  0.57115287  0.67769110  0.31659233  1
  Al0+  Al82  1  0.07220399  0.68011186  0.31769229  1
  Al0+  Al83  1  0.17774423  0.42922526  0.01476053  1
  Al0+  Al84  1  0.07314099  0.17835457  0.98269088  1
  Al0+  Al85  1  0.92784915  0.81919843  0.98663900  1
  Al0+  Al86  1  0.92943723  0.31949273  0.65170565  1
  Al0+  Al87  1  0.32038925  0.57128697  0.35014371  1
  Al0+  Al88  1  0.67908178  0.43046129  0.68132581  1
  Al0+  Al89  1  0.42796187  0.32152347  0.65173256  1
  Al0+  Al90  1  0.92889542  0.32318432  0.98274212  1
  Al0+  Al91  1  0.67925659  0.92774298  0.01613133  1
  Al0+  Al92  1  0.56997489  0.17478839  0.98495941  1
  Al0+  Al93  1  0.67999349  0.92873905  0.68037930  1
  Al0+  Al94  1  0.92626020  0.32049460  0.31766593  1
  Al0+  Al95  1  0.07095330  0.68041916  0.65490591  1
  Si0+  Si96  1  0.67955551  0.92793985  0.34958880  1
  Si0+  Si97  1  0.82165621  0.57162564  0.34893959  1
  Si0+  Si98  1  0.32196487  0.07527215  0.68464942  1
  Si0+  Si99  1  0.07270698  0.17633727  0.64845519  1
  Si0+  Si100  1  0.67990528  0.42622938  0.01477020  1
  Si0+  Si101  1  0.82565243  0.57101493  0.68328040  1
  Si0+  Si102  1  0.82223150  0.07190187  0.01795497  1
  Si0+  Si103  1  0.17792223  0.42920677  0.67847908  1
  Si0+  Si104  1  0.07351936  0.67980461  0.98370532  1
  Si0+  Si105  1  0.42903432  0.32117137  0.31966963  1
  Si0+  Si106  1  0.42905603  0.82006622  0.98602667  1
  Si0+  Si107  1  0.57172669  0.67887636  0.98555515  1
  Si0+  Si108  1  0.82254946  0.07299453  0.68496492  1
  Si0+  Si109  1  0.57175689  0.17927232  0.64964917  1
  Si0+  Si110  1  0.17658820  0.92856752  0.34816695  1
  Si0+  Si111  1  0.81970572  0.57013340  0.01503150  1
  Si0+  Si112  1  0.32051312  0.57012086  0.67952340  1
  Si0+  Si113  1  0.92863566  0.82393550  0.65094890  1
  Si0+  Si114  1  0.57010606  0.17828476  0.32056006  1
  Si0+  Si115  1  0.17391946  0.92709427  0.01691868  1
  Si0+  Si116  1  0.92576995  0.82228396  0.31894331  1
  Si0+  Si117  1  0.17638203  0.42985655  0.35179314  1
  Si0+  Si118  1  0.67990583  0.42795832  0.34752481  1
  Si0+  Si119  1  0.82035515  0.07090478  0.34754997  1
  O2-  O120  1  0.23980683  -0.00222225  0.06126930  1
  O2-  O121  1  0.24481597  -0.00188504  0.39234332  1
  O2-  O122  1  0.25489297  0.00435217  0.72745289  1
  O2-  O123  1  0.25136409  0.50050560  0.06388626  1
  O2-  O124  1  0.24334367  0.49930885  0.39849239  1
  O2-  O125  1  0.25043908  0.49822486  0.72160427  1
  O2-  O126  1  0.75300587  0.00358661  0.06325478  1
  O2-  O127  1  0.75215058  -0.00222825  0.39134250  1
  O2-  O128  1  0.75594328  0.00180049  0.72837432  1
  O2-  O129  1  0.75377218  0.49411311  0.05755173  1
  O2-  O130  1  0.75227493  0.49814458  0.38943856  1
  O2-  O131  1  0.75348213  0.50593645  0.72799390  1
  O2-  O132  1  0.00213538  0.25270872  0.26907986  1
  O2-  O133  1  0.00289903  0.24408889  0.60497465  1
  O2-  O134  1  0.00239733  0.25248984  0.93350367  1
  O2-  O135  1  -0.00331635  0.75613863  0.27468015  1
  O2-  O136  1  -0.00168841  0.75704457  0.60627136  1
  O2-  O137  1  0.00747516  0.75062372  0.93910693  1
  O2-  O138  1  0.49642715  0.24623942  0.27856168  1
  O2-  O139  1  0.50251703  0.24668196  0.60413185  1
  O2-  O140  1  0.50182498  0.25066815  0.93578886  1
  O2-  O141  1  0.50026375  0.74920563  0.26490615  1
  O2-  O142  1  0.50363186  0.75358153  0.60375123  1
  O2-  O143  1  0.49617754  0.74510382  0.94448686  1
  O2-  O144  1  0.07154618  0.17841250  0.09627931  1
  O2-  O145  1  0.06773663  0.17758701  0.43272434  1
  O2-  O146  1  0.07376737  0.17718878  0.75364296  1
  O2-  O147  1  0.07148499  0.68067093  0.08934953  1
  O2-  O148  1  0.07093838  0.68109035  0.43112726  1
  O2-  O149  1  0.06939952  0.67956709  0.76789008  1
  O2-  O150  1  0.56789375  0.17686187  0.09958245  1
  O2-  O151  1  0.57344816  0.18026525  0.42567354  1
  O2-  O152  1  0.57152031  0.17922848  0.75472071  1
  O2-  O153  1  0.57476407  0.67998364  0.09047264  1
  O2-  O154  1  0.57349427  0.67981842  0.42980969  1
  O2-  O155  1  0.56870161  0.67764753  0.76716252  1
  O2-  O156  1  0.17926228  0.42951260  0.24654667  1
  O2-  O157  1  0.17802382  0.43071200  0.57338858  1
  O2-  O158  1  0.17733623  0.43347302  0.90019470  1
  O2-  O159  1  0.17446119  0.92953864  0.24271703  1
  O2-  O160  1  0.18077933  0.92977742  0.56739656  1
  O2-  O161  1  0.17797864  0.92415938  0.91121682  1
  O2-  O162  1  0.68055717  0.42686322  0.24223462  1
  O2-  O163  1  0.68072562  0.43036852  0.56767350  1
  O2-  O164  1  0.67718533  0.43025763  0.90991248  1
  O2-  O165  1  0.68026060  0.92870331  0.24453012  1
  O2-  O166  1  0.68268385  0.93142684  0.56663644  1
  O2-  O167  1  0.67973625  0.92632262  0.90313136  1
  O2-  O168  1  0.43271018  0.32240246  0.10085245  1
  O2-  O169  1  0.43221825  0.32204337  0.42503706  1
  O2-  O170  1  0.42720401  0.32226601  0.76428245  1
  O2-  O171  1  0.43137418  0.82203180  0.09078459  1
  O2-  O172  1  0.43353505  0.82379092  0.42938719  1
  O2-  O173  1  0.42808290  0.82025383  0.76706246  1
  O2-  O174  1  0.92799759  0.32033408  0.09612412  1
  O2-  O175  1  0.92386318  0.31723583  0.43153314  1
  O2-  O176  1  0.93191353  0.32029864  0.76416242  1
  O2-  O177  1  0.92733747  0.81447259  0.10009940  1
  O2-  O178  1  0.92293278  0.82135735  0.42450766  1
  O2-  O179  1  0.92837213  0.82124708  0.75639820  1
  O2-  O180  1  0.32354734  0.07304401  0.23623916  1
  O2-  O181  1  0.31996821  0.07632788  0.57884432  1
  O2-  O182  1  0.31895367  0.06441502  0.89884373  1
  O2-  O183  1  0.32081135  0.56668444  0.23748243  1
  O2-  O184  1  0.31899323  0.56988627  0.57437269  1
  O2-  O185  1  0.32337154  0.57474742  0.90114223  1
  O2-  O186  1  0.81825484  0.07119251  0.24296059  1
  O2-  O187  1  0.82115104  0.07187009  0.57842275  1
  O2-  O188  1  0.82158470  0.07059066  0.91244368  1
  O2-  O189  1  0.81991673  0.57455055  0.24371256  1
  O2-  O190  1  0.82752346  0.56884069  0.57751730  1
  O2-  O191  1  0.81764602  0.57287280  0.91009201  1
  O2-  O192  1  0.04269395  0.08044667  0.26582451  1
  O2-  O193  1  0.04672981  0.08205720  0.60352223  1
  O2-  O194  1  0.04304120  0.08037245  0.92938393  1
  O2-  O195  1  0.03897672  0.58558486  0.26203014  1
  O2-  O196  1  0.03929302  0.58638291  0.59636936  1
  O2-  O197  1  0.04406435  0.58744674  0.93837886  1
  O2-  O198  1  0.54585940  0.08530438  0.27519472  1
  O2-  O199  1  0.54720147  0.08592693  0.60219641  1
  O2-  O200  1  0.53786129  0.07700929  0.93347442  1
  O2-  O201  1  0.54386321  0.57821766  0.26500145  1
  O2-  O202  1  0.54355578  0.58185680  0.59885921  1
  O2-  O203  1  0.54874373  0.58521023  0.94025032  1
  O2-  O204  1  0.17164027  0.20687930  0.26897224  1
  O2-  O205  1  0.16547793  0.20236765  0.60151089  1
  O2-  O206  1  0.17093431  0.20522835  0.92878019  1
  O2-  O207  1  0.16684956  0.71045754  0.26149682  1
  O2-  O208  1  0.16653920  0.71228023  0.59994051  1
  O2-  O209  1  0.16832939  0.70337121  0.93913829  1
  O2-  O210  1  0.65993554  0.20803096  0.27054470  1
  O2-  O211  1  0.66518968  0.20563067  0.60321999  1
  O2-  O212  1  0.66985829  0.19607812  0.93358039  1
  O2-  O213  1  0.67047495  0.70546681  0.26423774  1
  O2-  O214  1  0.67390187  0.70243922  0.60264852  1
  O2-  O215  1  0.66152932  0.71004624  0.93711664  1
  O2-  O216  1  0.07979676  0.45894033  0.06892985  1
  O2-  O217  1  0.08021542  0.45504857  0.39346318  1
  O2-  O218  1  0.08674854  0.45945245  0.72532532  1
  O2-  O219  1  0.07747685  0.94787428  0.05864538  1
  O2-  O220  1  0.08218462  0.95196746  0.39555251  1
  O2-  O221  1  0.08344288  0.95652944  0.73546098  1
  O2-  O222  1  0.59055593  0.45676866  0.06557535  1
  O2-  O223  1  0.58867236  0.45645279  0.39550109  1
  O2-  O224  1  0.58251155  0.46202768  0.73595243  1
  O2-  O225  1  0.58388342  0.95866739  0.07210970  1
  O2-  O226  1  0.58952182  0.95852994  0.39803453  1
  O2-  O227  1  0.58331428  0.96067192  0.73412711  1
  O2-  O228  1  0.20485759  0.33068364  0.06695914  1
  O2-  O229  1  0.20230942  0.33699192  0.39951618  1
  O2-  O230  1  0.20323148  0.33587901  0.72384880  1
  O2-  O231  1  0.20122156  0.83439098  0.06412625  1
  O2-  O232  1  0.20451485  0.83519741  0.39315566  1
  O2-  O233  1  0.21180423  0.83276339  0.73671250  1
  O2-  O234  1  0.70497777  0.33229379  0.05969937  1
  O2-  O235  1  0.70635574  0.33569968  0.39590139  1
  O2-  O236  1  0.70883696  0.33364217  0.73517401  1
  O2-  O237  1  0.71374174  0.83209733  0.07084681  1
  O2-  O238  1  0.70713203  0.83551733  0.39599702  1
  O2-  O239  1  0.70957972  0.83139416  0.73440282  1
  O2-  O240  1  0.46085627  0.41081417  0.27177826  1
  O2-  O241  1  0.46204210  0.41626665  0.59636766  1
  O2-  O242  1  0.46063246  0.42093940  0.93419825  1
  O2-  O243  1  0.46258289  0.92119494  0.26467285  1
  O2-  O244  1  0.45484685  0.92368173  0.60186212  1
  O2-  O245  1  0.46073893  0.90940642  0.93765648  1
  O2-  O246  1  0.94659286  0.42112379  0.26733897  1
  O2-  O247  1  0.96013548  0.41500723  0.59558730  1
  O2-  O248  1  0.95370777  0.42368005  0.93193388  1
  O2-  O249  1  0.94727405  0.91678930  0.27320806  1
  O2-  O250  1  0.95161644  0.91927005  0.60705635  1
  O2-  O251  1  0.94900005  0.91647158  0.93089797  1
  O2-  O252  1  0.33534821  0.29744482  0.27592583  1
  O2-  O253  1  0.33206006  0.29232316  0.59484992  1
  O2-  O254  1  0.33171664  0.29559577  0.93421118  1
  O2-  O255  1  0.33138847  0.79817817  0.26307119  1
  O2-  O256  1  0.33249487  0.79340639  0.59852599  1
  O2-  O257  1  0.33517616  0.79593586  0.94036427  1
  O2-  O258  1  0.82873461  0.28808356  0.26460594  1
  O2-  O259  1  0.83156585  0.28970299  0.59915659  1
  O2-  O260  1  0.83088533  0.29288647  0.92978108  1
  O2-  O261  1  0.83391502  0.79289374  0.27153836  1
  O2-  O262  1  0.83582111  0.79795875  0.60381430  1
  O2-  O263  1  0.83334692  0.78158871  0.93234676  1
  O2-  O264  1  0.41257173  0.03434467  0.06817574  1
  O2-  O265  1  0.41766242  0.04175962  0.40500148  1
  O2-  O266  1  0.41709026  0.05413440  0.72852513  1
  O2-  O267  1  0.42264046  0.54488969  0.06963481  1
  O2-  O268  1  0.41714375  0.53777754  0.40346485  1
  O2-  O269  1  0.41247365  0.54249094  0.72586028  1
  O2-  O270  1  0.91558705  0.04349159  0.06345354  1
  O2-  O271  1  0.91232183  0.04539636  0.39658714  1
  O2-  O272  1  0.91716380  0.05132234  0.73012984  1
  O2-  O273  1  0.91293893  0.54832066  0.06250772  1
  O2-  O274  1  0.91483394  0.54661616  0.39531502  1
  O2-  O275  1  0.91782597  0.54061997  0.73005140  1
  O2-  O276  1  0.29236027  0.16658200  0.06484180  1
  O2-  O277  1  0.29182387  0.16944236  0.40525667  1
  O2-  O278  1  0.29298320  0.16871460  0.72977544  1
  O2-  O279  1  0.29511237  0.67062697  0.07038733  1
  O2-  O280  1  0.29077272  0.67042368  0.39978412  1
  O2-  O281  1  0.29242838  0.66186905  0.72651537  1
  O2-  O282  1  0.79704746  0.16577285  0.06408963  1
  O2-  O283  1  0.78810565  0.16105559  0.39683196  1
  O2-  O284  1  0.79474031  0.16564100  0.73051280  1
  O2-  O285  1  0.78614212  0.65853435  0.06575136  1
  O2-  O286  1  0.79263057  0.66221141  0.39889648  1
  O2-  O287  1  0.80552624  0.66633881  0.72818264  1
