# generated using pymatgen
data_Ca2Al2SiO7
_symmetry_space_group_name_H-M   'P 1'
_cell_length_a   15.46783770
_cell_length_b   15.46438734
_cell_length_c   15.28861199
_cell_angle_alpha   90.00626931
_cell_angle_beta   89.99788958
_cell_angle_gamma   89.99741833
_symmetry_Int_Tables_number   1
_chemical_formula_structural   Ca2Al2SiO7
_chemical_formula_sum   'Ca48 Al48 Si24 O168'
_cell_volume   3657.04564542
_cell_formula_units_Z   24
loop_
 _symmetry_equiv_pos_site_id
 _symmetry_equiv_pos_as_xyz
  1  'x, y, z'
loop_
 _atom_type_symbol
 _atom_type_oxidation_number
  Ca2+  2.0
  Al0+  0.0
  Si0+  0.0
  O2-  -2.0
loop_
 _atom_site_type_symbol
 _atom_site_label
 _atom_site_symmetry_multiplicity
 _atom_site_fract_x
 _atom_site_fract_y
 _atom_site_fract_z
 _atom_site_occupancy
  Ca2+  Ca0  1  0.17167011  0.07993446  0.17033703  1
  Ca2+  Ca1  1  0.18108598  0.08839643  0.50633481  1
  Ca2+  Ca2  1  0.17310324  0.07836946  0.83786524  1
  Ca2+  Ca3  1  0.17015784  0.58199346  0.16872630  1
  Ca2+  Ca4  1  0.16332947  0.57931725  0.51056297  1
  Ca2+  Ca5  1  0.16177146  0.58237491  0.82919720  1
  Ca2+  Ca6  1  0.66830026  0.07759148  0.17365524  1
  Ca2+  Ca7  1  0.67587314  0.08370785  0.50547637  1
  Ca2+  Ca8  1  0.66765304  0.08781939  0.83158438  1
  Ca2+  Ca9  1  0.66707098  0.57475657  0.17583071  1
  Ca2+  Ca10  1  0.67450963  0.57377780  0.50369427  1
  Ca2+  Ca11  1  0.66748145  0.57361087  0.83869107  1
  Ca2+  Ca12  1  0.06745020  0.33125364  0.16271430  1
  Ca2+  Ca13  1  0.06887309  0.34016388  0.49877048  1
  Ca2+  Ca14  1  0.07143039  0.33878736  0.82561479  1
  Ca2+  Ca15  1  0.07688692  0.83492446  0.15741049  1
  Ca2+  Ca16  1  0.07703151  0.82964951  0.50340435  1
  Ca2+  Ca17  1  0.07700344  0.83153713  0.82660300  1
  Ca2+  Ca18  1  0.58462238  0.32958182  0.15518769  1
  Ca2+  Ca19  1  0.59399297  0.33043077  0.50039458  1
  Ca2+  Ca20  1  0.58871158  0.32538558  0.83078021  1
  Ca2+  Ca21  1  0.59678723  0.81966426  0.16625861  1
  Ca2+  Ca22  1  0.58400085  0.83104010  0.49495714  1
  Ca2+  Ca23  1  0.58121440  0.82510894  0.82664915  1
  Ca2+  Ca24  1  0.33625382  0.41393480  0.16845379  1
  Ca2+  Ca25  1  0.32259610  0.41793982  0.50847726  1
  Ca2+  Ca26  1  0.32676685  0.41058881  0.83716166  1
  Ca2+  Ca27  1  0.32640399  0.92132182  0.17151904  1
  Ca2+  Ca28  1  0.33921359  0.92605011  0.50836256  1
  Ca2+  Ca29  1  0.33271762  0.91801540  0.83480894  1
  Ca2+  Ca30  1  0.82302990  0.41653180  0.17405107  1
  Ca2+  Ca31  1  0.83003920  0.42234477  0.50837889  1
  Ca2+  Ca32  1  0.82685524  0.41592189  0.83362905  1
  Ca2+  Ca33  1  0.82919006  0.92280583  0.17506517  1
  Ca2+  Ca34  1  0.83009396  0.92522850  0.50509738  1
  Ca2+  Ca35  1  0.84595652  0.92245380  0.83520519  1
  Ca2+  Ca36  1  0.42373602  0.17105444  0.15969770  1
  Ca2+  Ca37  1  0.42145179  0.16109402  0.49891478  1
  Ca2+  Ca38  1  0.42867345  0.16566702  0.82781205  1
  Ca2+  Ca39  1  0.43357780  0.66460226  0.16143464  1
  Ca2+  Ca40  1  0.42248262  0.67457754  0.49575064  1
  Ca2+  Ca41  1  0.42364336  0.67089249  0.82889328  1
  Ca2+  Ca42  1  0.90344128  0.17870138  0.16513328  1
  Ca2+  Ca43  1  0.90448654  0.17694741  0.49823320  1
  Ca2+  Ca44  1  0.91201789  0.17810386  0.82626155  1
  Ca2+  Ca45  1  0.91033745  0.67279807  0.16357427  1
  Ca2+  Ca46  1  0.91344231  0.66207157  0.50030076  1
  Ca2+  Ca47  1  0.91748340  0.67797062  0.82194995  1
  Al0+  Al48  1  0.00153954  0.00097371  0.00358832  1
  Al0+  Al49  1  0.00230124  0.00004820  0.33695960  1
  Al0+  Al50  1  0.00191067  0.00041584  0.66527014  1
  Al0+  Al51  1  0.00086938  0.50163477  -0.00116450  1
  Al0+  Al52  1  -0.00028449  0.49967145  0.32756487  1
  Al0+  Al53  1  -0.00043350  0.50098888  0.66827490  1
  Al0+  Al54  1  0.50101235  -0.00051550  -0.00017743  1
  Al0+  Al55  1  0.49688599  -0.00055321  0.33697987  1
  Al0+  Al56  1  0.50141000  0.00110082  0.66378220  1
  Al0+  Al57  1  0.49910166  0.49963270  -0.00466095  1
  Al0+  Al58  1  0.49809749  0.50085547  0.33535393  1
  Al0+  Al59  1  0.49859372  0.49853669  0.66965374  1
  Al0+  Al60  1  0.24926708  0.25012391  0.00089115  1
  Al0+  Al61  1  0.24850735  0.24922355  0.33549517  1
  Al0+  Al62  1  0.25125735  0.25009315  0.67750739  1
  Al0+  Al63  1  0.25001520  0.74955338  0.00651023  1
  Al0+  Al64  1  0.24912896  0.75029483  0.33167835  1
  Al0+  Al65  1  0.25043974  0.75058772  0.65817264  1
  Al0+  Al66  1  0.74992130  0.25102002  -0.00423015  1
  Al0+  Al67  1  0.74748457  0.24908285  0.33288767  1
  Al0+  Al68  1  0.74962153  0.24790816  0.66626943  1
  Al0+  Al69  1  0.75173563  0.75083546  -0.01044919  1
  Al0+  Al70  1  0.75035869  0.74882290  0.33644732  1
  Al0+  Al71  1  0.74941261  0.75044036  0.66423001  1
  Al0+  Al72  1  0.92967226  0.32161259  0.98512748  1
  Al0+  Al73  1  0.56955263  0.18135703  0.65003765  1
  Al0+  Al74  1  0.93010877  0.31908931  0.65310317  1
  Al0+  Al75  1  0.43122583  0.82016625  0.65365207  1
  Al0+  Al76  1  0.67839226  0.42784623  0.68396649  1
  Al0+  Al77  1  0.82104796  0.57256739  0.68375499  1
  Al0+  Al78  1  0.67560796  0.42811253  0.34753456  1
  Al0+  Al79  1  0.82240829  0.06887936  0.68183813  1
  Al0+  Al80  1  0.31832401  0.07053350  0.34690587  1
  Al0+  Al81  1  0.57130064  0.17703395  0.98483254  1
  Al0+  Al82  1  0.68005509  0.43022955  0.01370063  1
  Al0+  Al83  1  0.17884436  0.43029316  0.68080939  1
  Al0+  Al84  1  0.82270361  0.56992424  0.34679395  1
  Al0+  Al85  1  0.57202352  0.67896566  0.98544384  1
  Al0+  Al86  1  0.32379127  0.07050107  0.68339568  1
  Al0+  Al87  1  0.67867540  0.92733135  0.34733149  1
  Al0+  Al88  1  0.93064297  0.82214838  0.98795928  1
  Al0+  Al89  1  0.57037731  0.68003323  0.32105581  1
  Al0+  Al90  1  0.42709448  0.32157332  0.98500381  1
  Al0+  Al91  1  0.92757794  0.31974947  0.31892362  1
  Al0+  Al92  1  0.92680362  0.82428793  0.64827890  1
  Al0+  Al93  1  0.06894360  0.67983012  0.65129948  1
  Al0+  Al94  1  0.82155475  0.07172683  0.34757179  1
  Al0+  Al95  1  0.17924072  0.92933631  0.01350874  1
  Si0+  Si96  1  0.07243725  0.17822266  0.98418966  1
  Si0+  Si97  1  0.57227146  0.67443441  0.64851660  1
  Si0+  Si98  1  0.42515852  0.32232955  0.64956705  1
  Si0+  Si99  1  0.07532910  0.17813122  0.65170532  1
  Si0+  Si100  1  0.32062479  0.57214311  0.34795777  1
  Si0+  Si101  1  0.93048366  0.82164433  0.31853896  1
  Si0+  Si102  1  0.32145763  0.57423917  0.68283006  1
  Si0+  Si103  1  0.18035661  0.92740794  0.68244154  1
  Si0+  Si104  1  0.82064539  0.07065850  0.01387055  1
  Si0+  Si105  1  0.42623252  0.82034411  0.98624156  1
  Si0+  Si106  1  0.07441241  0.17855013  0.31728315  1
  Si0+  Si107  1  0.42594381  0.32058372  0.32110331  1
  Si0+  Si108  1  0.67818002  0.92858632  0.68372470  1
  Si0+  Si109  1  0.07238368  0.67826403  0.31551669  1
  Si0+  Si110  1  0.17955351  0.43064761  0.34593896  1
  Si0+  Si111  1  0.56896324  0.17838740  0.31880077  1
  Si0+  Si112  1  0.82222613  0.57425125  0.01548312  1
  Si0+  Si113  1  0.07479114  0.67889763  0.98442967  1
  Si0+  Si114  1  0.32071085  0.57050675  0.01570780  1
  Si0+  Si115  1  0.42658918  0.82335916  0.31422518  1
  Si0+  Si116  1  0.17711815  0.42820821  0.01756809  1
  Si0+  Si117  1  0.67853263  0.92669562  0.01258437  1
  Si0+  Si118  1  0.32348256  0.07193199  0.01767297  1
  Si0+  Si119  1  0.17753212  0.92506774  0.35313947  1
  O2-  O120  1  0.25450060  0.00308345  0.06132174  1
  O2-  O121  1  0.24620000  -0.00578481  0.39548121  1
  O2-  O122  1  0.24801832  -0.00382429  0.72814870  1
  O2-  O123  1  0.25113448  0.49723717  0.05868619  1
  O2-  O124  1  0.24821782  0.50294117  0.38972404  1
  O2-  O125  1  0.25489473  0.50406377  0.72789788  1
  O2-  O126  1  0.74878118  -0.00082190  0.05434590  1
  O2-  O127  1  0.74976573  -0.00032254  0.39744895  1
  O2-  O128  1  0.75232822  -0.00977191  0.72980659  1
  O2-  O129  1  0.75446290  0.50536600  0.06072412  1
  O2-  O130  1  0.75188735  0.49641977  0.39555953  1
  O2-  O131  1  0.74734471  0.50276991  0.73415789  1
  O2-  O132  1  -0.00083670  0.24019062  0.27306113  1
  O2-  O133  1  0.00566035  0.24467697  0.60606194  1
  O2-  O134  1  0.00644765  0.24835981  0.93948737  1
  O2-  O135  1  0.00167091  0.75039058  0.27508605  1
  O2-  O136  1  -0.00526588  0.74784836  0.59874169  1
  O2-  O137  1  0.00469794  0.74639882  0.94264064  1
  O2-  O138  1  0.50000474  0.25286579  0.27859564  1
  O2-  O139  1  0.49594492  0.25775692  0.60309394  1
  O2-  O140  1  0.49846170  0.24911695  0.93582569  1
  O2-  O141  1  0.49763556  0.75659410  0.27112071  1
  O2-  O142  1  0.50457624  0.74505244  0.60569447  1
  O2-  O143  1  0.49769833  0.75559778  0.94134076  1
  O2-  O144  1  0.07322801  0.17939404  0.09013253  1
  O2-  O145  1  0.08202138  0.18412406  0.42197377  1
  O2-  O146  1  0.07450809  0.17883901  0.75750854  1
  O2-  O147  1  0.07634178  0.67901839  0.09058652  1
  O2-  O148  1  0.07623258  0.67665183  0.41968407  1
  O2-  O149  1  0.07236149  0.68375183  0.76504424  1
  O2-  O150  1  0.57011156  0.17532662  0.09924577  1
  O2-  O151  1  0.56802872  0.17749799  0.42348803  1
  O2-  O152  1  0.56835226  0.17974559  0.76286973  1
  O2-  O153  1  0.57196493  0.67948849  0.09892501  1
  O2-  O154  1  0.56428936  0.68034534  0.43344760  1
  O2-  O155  1  0.56959549  0.67560021  0.75449750  1
  O2-  O156  1  0.18188607  0.43175697  0.24045918  1
  O2-  O157  1  0.18042196  0.43095340  0.56690944  1
  O2-  O158  1  0.17568443  0.42943347  0.91303397  1
  O2-  O159  1  0.17784041  0.92413217  0.24710634  1
  O2-  O160  1  0.18210363  0.92818509  0.57679426  1
  O2-  O161  1  0.18130276  0.92962935  0.90082120  1
  O2-  O162  1  0.67445261  0.42894366  0.23338279  1
  O2-  O163  1  0.67980956  0.42918895  0.57030476  1
  O2-  O164  1  0.68153668  0.42996379  0.90137605  1
  O2-  O165  1  0.68201392  0.92781822  0.23265897  1
  O2-  O166  1  0.67652563  0.93255663  0.57822709  1
  O2-  O167  1  0.67651958  0.92572377  0.90805496  1
  O2-  O168  1  0.42706116  0.31954929  0.09973202  1
  O2-  O169  1  0.42050881  0.31929314  0.42559785  1
  O2-  O170  1  0.42350799  0.31964234  0.75477655  1
  O2-  O171  1  0.42411839  0.81762004  0.09177797  1
  O2-  O172  1  0.42360510  0.82144825  0.41954592  1
  O2-  O173  1  0.43168547  0.81765582  0.76739629  1
  O2-  O174  1  0.92957564  0.31973838  0.09869684  1
  O2-  O175  1  0.93125395  0.32218621  0.43148686  1
  O2-  O176  1  0.93182342  0.31800287  0.76632496  1
  O2-  O177  1  0.93059143  0.82152076  0.10179900  1
  O2-  O178  1  0.93301925  0.82220493  0.42278513  1
  O2-  O179  1  0.93378481  0.82583961  0.76205851  1
  O2-  O180  1  0.31610421  0.07028853  0.23356296  1
  O2-  O181  1  0.32145788  0.06997861  0.56999619  1
  O2-  O182  1  0.32348748  0.07036686  0.91252693  1
  O2-  O183  1  0.32060043  0.57093008  0.24251826  1
  O2-  O184  1  0.32014186  0.57273120  0.57678048  1
  O2-  O185  1  0.31789615  0.57434653  0.91116506  1
  O2-  O186  1  0.81882939  0.07079344  0.23302085  1
  O2-  O187  1  0.81911310  0.07040991  0.56902934  1
  O2-  O188  1  0.82323491  0.06927022  0.90912781  1
  O2-  O189  1  0.82195537  0.57067222  0.23258231  1
  O2-  O190  1  0.82055255  0.56905654  0.57006767  1
  O2-  O191  1  0.82174375  0.57461143  0.91055185  1
  O2-  O192  1  0.05686554  0.08112745  0.27523062  1
  O2-  O193  1  0.05484322  0.08387655  0.60552880  1
  O2-  O194  1  0.04610362  0.08496421  0.93910080  1
  O2-  O195  1  0.04590605  0.58736837  0.26509024  1
  O2-  O196  1  0.04399914  0.58044918  0.59895970  1
  O2-  O197  1  0.05233691  0.58460836  0.93937120  1
  O2-  O198  1  0.53774442  0.08696249  0.27154554  1
  O2-  O199  1  0.53673989  0.08581552  0.59574192  1
  O2-  O200  1  0.54414714  0.07783105  0.93194283  1
  O2-  O201  1  0.53440447  0.58424767  0.26633934  1
  O2-  O202  1  0.54380150  0.58127076  0.60348931  1
  O2-  O203  1  0.53662792  0.58534915  0.93044659  1
  O2-  O204  1  0.16420199  0.21148687  0.26603598  1
  O2-  O205  1  0.16952955  0.20650775  0.60812363  1
  O2-  O206  1  0.16712339  0.20011833  0.93937550  1
  O2-  O207  1  0.16449779  0.70621703  0.26669133  1
  O2-  O208  1  0.16638223  0.70874259  0.59501496  1
  O2-  O209  1  0.16814942  0.70571159  0.93924319  1
  O2-  O210  1  0.66068332  0.20261083  0.26972201  1
  O2-  O211  1  0.66607400  0.21107885  0.59613130  1
  O2-  O212  1  0.66847600  0.20642103  0.93130839  1
  O2-  O213  1  0.66772784  0.70939369  0.26641376  1
  O2-  O214  1  0.66563013  0.69944361  0.60328386  1
  O2-  O215  1  0.66611026  0.70967290  0.92810432  1
  O2-  O216  1  0.08707115  0.46030583  0.06709243  1
  O2-  O217  1  0.08762322  0.45854399  0.39128750  1
  O2-  O218  1  0.08474903  0.46369778  0.73689661  1
  O2-  O219  1  0.08461190  0.96233882  0.07178325  1
  O2-  O220  1  0.08429994  0.94921915  0.39907907  1
  O2-  O221  1  0.08694523  0.95289899  0.72815123  1
  O2-  O222  1  0.58069049  0.45892309  0.06412157  1
  O2-  O223  1  0.57793249  0.45779804  0.40142354  1
  O2-  O224  1  0.57700792  0.45116502  0.73431664  1
  O2-  O225  1  0.58649630  0.95154245  0.06194660  1
  O2-  O226  1  0.57836029  0.95140072  0.39718748  1
  O2-  O227  1  0.58727304  0.96071604  0.73101334  1
  O2-  O228  1  0.20225067  0.33557444  0.06539755  1
  O2-  O229  1  0.20862640  0.34018051  0.39383664  1
  O2-  O230  1  0.20829959  0.33549871  0.73880059  1
  O2-  O231  1  0.20858934  0.83318557  0.07101275  1
  O2-  O232  1  0.20335558  0.83088762  0.39766187  1
  O2-  O233  1  0.20817408  0.83374420  0.72689637  1
  O2-  O234  1  0.71163429  0.33247404  0.06634261  1
  O2-  O235  1  0.70009441  0.32824205  0.39679399  1
  O2-  O236  1  0.71060694  0.33005454  0.73485170  1
  O2-  O237  1  0.71021734  0.83532814  0.05923059  1
  O2-  O238  1  0.70642446  0.83025966  0.40148182  1
  O2-  O239  1  0.69487029  0.83166541  0.72570702  1
  O2-  O240  1  0.44895869  0.41433114  0.27494287  1
  O2-  O241  1  0.44448205  0.41874077  0.60598749  1
  O2-  O242  1  0.44920972  0.42057426  0.93215766  1
  O2-  O243  1  0.44831038  0.91830775  0.26932021  1
  O2-  O244  1  0.46275596  0.91553171  0.59864419  1
  O2-  O245  1  0.44800533  0.91543054  0.94264126  1
  O2-  O246  1  0.96364035  0.41386564  0.26199161  1
  O2-  O247  1  0.96314772  0.41535650  0.60089727  1
  O2-  O248  1  0.96135893  0.41889711  0.93367586  1
  O2-  O249  1  0.95886473  0.91399458  0.27097014  1
  O2-  O250  1  0.96127623  0.92109089  0.59481305  1
  O2-  O251  1  0.96427333  0.91856833  0.93568385  1
  O2-  O252  1  0.33563654  0.29007054  0.27082491  1
  O2-  O253  1  0.33138580  0.29362597  0.60487370  1
  O2-  O254  1  0.32663838  0.29586135  0.93472454  1
  O2-  O255  1  0.33305178  0.79490762  0.26797332  1
  O2-  O256  1  0.33609689  0.79125116  0.59575237  1
  O2-  O257  1  0.33396327  0.79061634  0.93980140  1
  O2-  O258  1  0.83042300  0.28916439  0.26449690  1
  O2-  O259  1  0.83479766  0.28604565  0.59956817  1
  O2-  O260  1  0.83539188  0.28805148  0.93064399  1
  O2-  O261  1  0.83854930  0.79347354  0.27161946  1
  O2-  O262  1  0.82598718  0.80157012  0.59834043  1
  O2-  O263  1  0.83601717  0.79574705  0.92943552  1
  O2-  O264  1  0.41682264  0.04578665  0.06459877  1
  O2-  O265  1  0.41435984  0.04180211  0.40194068  1
  O2-  O266  1  0.41929613  0.03587370  0.73612177  1
  O2-  O267  1  0.41232845  0.54277377  0.06360452  1
  O2-  O268  1  0.40996207  0.54366411  0.39810218  1
  O2-  O269  1  0.41519008  0.55150659  0.72921674  1
  O2-  O270  1  0.91186206  0.04412990  0.06326355  1
  O2-  O271  1  0.92187622  0.04802662  0.39819653  1
  O2-  O272  1  0.92144375  0.04288915  0.73440091  1
  O2-  O273  1  0.91778350  0.55167393  0.06020991  1
  O2-  O274  1  0.92311436  0.54346445  0.39670831  1
  O2-  O275  1  0.91950902  0.54494397  0.73593666  1
  O2-  O276  1  0.29626429  0.16547357  0.06385751  1
  O2-  O277  1  0.28595896  0.16633171  0.40217977  1
  O2-  O278  1  0.29398817  0.16552415  0.73987913  1
  O2-  O279  1  0.29099752  0.65980592  0.06791672  1
  O2-  O280  1  0.29375426  0.66492049  0.39362172  1
  O2-  O281  1  0.29308455  0.66750106  0.72784982  1
  O2-  O282  1  0.79069737  0.16207942  0.06041812  1
  O2-  O283  1  0.79023894  0.16881116  0.39983830  1
  O2-  O284  1  0.78683440  0.16355532  0.73584079  1
  O2-  O285  1  0.79577192  0.66925650  0.05915333  1
  O2-  O286  1  0.79557382  0.66756847  0.39993730  1
  O2-  O287  1  0.79629602  0.67401835  0.73281849  1
