# generated using pymatgen
data_Ca2Al2SiO7
_symmetry_space_group_name_H-M   'P 1'
_cell_length_a   15.45280497
_cell_length_b   15.45291743
_cell_length_c   15.27941919
_cell_angle_alpha   90.01476703
_cell_angle_beta   90.00086951
_cell_angle_gamma   90.00896634
_symmetry_Int_Tables_number   1
_chemical_formula_structural   Ca2Al2SiO7
_chemical_formula_sum   'Ca48 Al48 Si24 O168'
_cell_volume   3648.58638536
_cell_formula_units_Z   24
loop_
 _symmetry_equiv_pos_site_id
 _symmetry_equiv_pos_as_xyz
  1  'x, y, z'
loop_
 _atom_type_symbol
 _atom_type_oxidation_number
  Ca2+  2.0
  Al0+  0.0
  Si0+  0.0
  O2-  -2.0
loop_
 _atom_site_type_symbol
 _atom_site_label
 _atom_site_symmetry_multiplicity
 _atom_site_fract_x
 _atom_site_fract_y
 _atom_site_fract_z
 _atom_site_occupancy
  Ca2+  Ca0  1  0.16667198  0.07579157  0.16488690  1
  Ca2+  Ca1  1  0.16910771  0.06925926  0.50762882  1
  Ca2+  Ca2  1  0.17385537  0.07560725  0.84045453  1
  Ca2+  Ca3  1  0.15623694  0.57347030  0.17345057  1
  Ca2+  Ca4  1  0.15675691  0.57492104  0.49966341  1
  Ca2+  Ca5  1  0.16559762  0.57079007  0.83477478  1
  Ca2+  Ca6  1  0.67438800  0.07830268  0.17079698  1
  Ca2+  Ca7  1  0.67329429  0.07753156  0.50297746  1
  Ca2+  Ca8  1  0.68233854  0.08763173  0.83599265  1
  Ca2+  Ca9  1  0.67056075  0.58359124  0.16919318  1
  Ca2+  Ca10  1  0.67547818  0.58003171  0.50327276  1
  Ca2+  Ca11  1  0.66171072  0.57345454  0.83832850  1
  Ca2+  Ca12  1  0.08055533  0.33205865  0.16154752  1
  Ca2+  Ca13  1  0.07530298  0.33777390  0.49365304  1
  Ca2+  Ca14  1  0.08494183  0.32661973  0.82704078  1
  Ca2+  Ca15  1  0.08478483  0.83500401  0.16668876  1
  Ca2+  Ca16  1  0.07707790  0.83361066  0.49114234  1
  Ca2+  Ca17  1  0.08370143  0.83781106  0.82639052  1
  Ca2+  Ca18  1  0.58164465  0.33509868  0.15964935  1
  Ca2+  Ca19  1  0.57977403  0.33538372  0.50215329  1
  Ca2+  Ca20  1  0.57869717  0.33594015  0.82365330  1
  Ca2+  Ca21  1  0.58128868  0.83201874  0.16379789  1
  Ca2+  Ca22  1  0.57137092  0.84297251  0.49319336  1
  Ca2+  Ca23  1  0.57819587  0.82680274  0.82738862  1
  Ca2+  Ca24  1  0.31907266  0.41763247  0.16983176  1
  Ca2+  Ca25  1  0.32062431  0.41529564  0.50778674  1
  Ca2+  Ca26  1  0.32202815  0.40758220  0.83521902  1
  Ca2+  Ca27  1  0.32535409  0.91729785  0.17308770  1
  Ca2+  Ca28  1  0.32510852  0.91340658  0.50822494  1
  Ca2+  Ca29  1  0.32711021  0.92233559  0.83636162  1
  Ca2+  Ca30  1  0.83140336  0.42153827  0.17409393  1
  Ca2+  Ca31  1  0.83802493  0.42171866  0.50586464  1
  Ca2+  Ca32  1  0.82107996  0.40777655  0.83464967  1
  Ca2+  Ca33  1  0.83174215  0.92033342  0.17402491  1
  Ca2+  Ca34  1  0.83269608  0.91461665  0.50577705  1
  Ca2+  Ca35  1  0.84435450  0.92975542  0.83452195  1
  Ca2+  Ca36  1  0.41598979  0.16525161  0.16158725  1
  Ca2+  Ca37  1  0.41073382  0.16860841  0.50207071  1
  Ca2+  Ca38  1  0.41301602  0.16701039  0.82626516  1
  Ca2+  Ca39  1  0.42039056  0.67395734  0.16242825  1
  Ca2+  Ca40  1  0.41550555  0.67913438  0.49603069  1
  Ca2+  Ca41  1  0.42155233  0.66975957  0.82842554  1
  Ca2+  Ca42  1  0.92274095  0.16953120  0.16015187  1
  Ca2+  Ca43  1  0.91197036  0.17753549  0.49914430  1
  Ca2+  Ca44  1  0.92228560  0.16508706  0.82716357  1
  Ca2+  Ca45  1  0.91697976  0.66948597  0.17204336  1
  Ca2+  Ca46  1  0.92131483  0.67480933  0.49028233  1
  Ca2+  Ca47  1  0.91948694  0.67693907  0.82632264  1
  Al0+  Al48  1  0.00085230  0.00287020  0.00460072  1
  Al0+  Al49  1  0.00133796  0.00293715  0.33407064  1
  Al0+  Al50  1  0.00007774  -0.00049321  0.66771387  1
  Al0+  Al51  1  -0.00307848  0.50202401  0.00065312  1
  Al0+  Al52  1  -0.00308172  0.50018925  0.33319097  1
  Al0+  Al53  1  -0.00050787  0.50030565  0.67066080  1
  Al0+  Al54  1  0.50092988  0.00157694  -0.00027230  1
  Al0+  Al55  1  0.50173561  0.00190487  0.33129758  1
  Al0+  Al56  1  0.50147102  -0.00094589  0.66647726  1
  Al0+  Al57  1  0.49943826  0.50065736  0.00046605  1
  Al0+  Al58  1  0.49868025  0.49965357  0.33240557  1
  Al0+  Al59  1  0.50073065  0.49899689  0.66280636  1
  Al0+  Al60  1  0.24834403  0.24914327  0.00473893  1
  Al0+  Al61  1  0.25011384  0.25103279  0.33660778  1
  Al0+  Al62  1  0.25072557  0.24816153  0.66719775  1
  Al0+  Al63  1  0.24905510  0.74934618  0.00037150  1
  Al0+  Al64  1  0.25082685  0.74924620  0.32709805  1
  Al0+  Al65  1  0.25127795  0.74625611  0.66710002  1
  Al0+  Al66  1  0.74840671  0.25095381  0.00983451  1
  Al0+  Al67  1  0.74833020  0.25012981  0.32832534  1
  Al0+  Al68  1  0.75070427  0.24924703  0.66894269  1
  Al0+  Al69  1  0.74938984  0.74930939  -0.00790452  1
  Al0+  Al70  1  0.74937840  0.74993865  0.33916401  1
  Al0+  Al71  1  0.75117785  0.74886000  0.66371856  1
  Al0+  Al72  1  0.32306554  0.07133897  0.01626498  1
  Al0+  Al73  1  0.07003857  0.67966481  0.31774671  1
  Al0+  Al74  1  0.81900987  0.56948789  0.34763772  1
  Al0+  Al75  1  0.17754326  0.42994211  0.01358934  1
  Al0+  Al76  1  0.92735718  0.82386604  0.31800522  1
  Al0+  Al77  1  0.17898954  0.43008752  0.34757310  1
  Al0+  Al78  1  0.82123768  0.07112865  0.01540975  1
  Al0+  Al79  1  0.93106742  0.82262598  0.65317774  1
  Al0+  Al80  1  0.43049992  0.82015143  0.65379791  1
  Al0+  Al81  1  0.07012213  0.18057780  0.98560389  1
  Al0+  Al82  1  0.42947765  0.82234567  0.31816074  1
  Al0+  Al83  1  0.67998951  0.92970092  0.34613452  1
  Al0+  Al84  1  0.42783429  0.32030509  0.65285990  1
  Al0+  Al85  1  0.67791338  0.43080236  0.01455771  1
  Al0+  Al86  1  0.68018625  0.43067322  0.67860250  1
  Al0+  Al87  1  0.81984944  0.06976261  0.67857127  1
  Al0+  Al88  1  0.17906090  0.92575443  0.68091573  1
  Al0+  Al89  1  0.32259888  0.06995654  0.68094050  1
  Al0+  Al90  1  0.57066302  0.67915950  0.98563421  1
  Al0+  Al91  1  0.92902580  0.31973629  0.65533955  1
  Al0+  Al92  1  0.17920035  0.92738649  0.01672182  1
  Al0+  Al93  1  0.17779388  0.42900943  0.68003571  1
  Al0+  Al94  1  0.17992998  0.92828383  0.34763252  1
  Al0+  Al95  1  0.92836829  0.32082964  0.31884332  1
  Si0+  Si96  1  0.82249619  0.57339046  0.68572013  1
  Si0+  Si97  1  0.57020835  0.18019810  0.31636962  1
  Si0+  Si98  1  0.57280203  0.67638498  0.64716570  1
  Si0+  Si99  1  0.93013356  0.82134682  0.98578745  1
  Si0+  Si100  1  0.42955131  0.31957167  0.98652979  1
  Si0+  Si101  1  0.57364139  0.17832187  0.65013279  1
  Si0+  Si102  1  0.32423602  0.57167992  0.34961629  1
  Si0+  Si103  1  0.67555519  0.42594397  0.35066683  1
  Si0+  Si104  1  0.92625620  0.32331715  0.98371335  1
  Si0+  Si105  1  0.07221716  0.67679506  0.65111810  1
  Si0+  Si106  1  0.42726422  0.82317903  0.98238356  1
  Si0+  Si107  1  0.82087997  0.57526082  0.01618277  1
  Si0+  Si108  1  0.07152001  0.67684055  0.98351183  1
  Si0+  Si109  1  0.32357419  0.07178871  0.35071746  1
  Si0+  Si110  1  0.57308419  0.17925671  0.98495029  1
  Si0+  Si111  1  0.07279970  0.17789399  0.64936540  1
  Si0+  Si112  1  0.07412783  0.17944211  0.31680766  1
  Si0+  Si113  1  0.82248543  0.07377445  0.35000351  1
  Si0+  Si114  1  0.42773512  0.32164792  0.31722559  1
  Si0+  Si115  1  0.57189525  0.67695763  0.31765593  1
  Si0+  Si116  1  0.32174889  0.57172616  0.01635630  1
  Si0+  Si117  1  0.67770205  0.92578874  0.68388197  1
  Si0+  Si118  1  0.32346166  0.57051994  0.68275420  1
  Si0+  Si119  1  0.67913897  0.92656218  0.01355149  1
  O2-  O120  1  0.25494111  -0.00388775  0.06595830  1
  O2-  O121  1  0.25615662  0.00196285  0.39386797  1
  O2-  O122  1  0.25121434  -0.00226712  0.73056163  1
  O2-  O123  1  0.24928044  0.50737358  0.06083282  1
  O2-  O124  1  0.25361998  0.50520004  0.39394976  1
  O2-  O125  1  0.25612757  0.50025478  0.72689298  1
  O2-  O126  1  0.74711752  -0.00537331  0.05947345  1
  O2-  O127  1  0.75930442  -0.00049586  0.39333047  1
  O2-  O128  1  0.74861198  -0.00787556  0.72768835  1
  O2-  O129  1  0.75385416  0.50434157  0.05961718  1
  O2-  O130  1  0.74480579  0.49352187  0.39411093  1
  O2-  O131  1  0.75335354  0.50473280  0.72912727  1
  O2-  O132  1  0.00361145  0.24684666  0.27268615  1
  O2-  O133  1  0.00600697  0.24904612  0.60570879  1
  O2-  O134  1  -0.00381689  0.25666673  0.93872701  1
  O2-  O135  1  0.00170516  0.75511863  0.26630910  1
  O2-  O136  1  0.00741311  0.74931140  0.60801033  1
  O2-  O137  1  0.00362029  0.75204611  0.94346227  1
  O2-  O138  1  0.49947563  0.25194202  0.27424570  1
  O2-  O139  1  0.50138129  0.24398082  0.60589312  1
  O2-  O140  1  0.50026647  0.24847967  0.94320396  1
  O2-  O141  1  0.50434976  0.74655226  0.27288704  1
  O2-  O142  1  0.50737762  0.74853659  0.60423755  1
  O2-  O143  1  0.49626942  0.75405522  0.93883318  1
  O2-  O144  1  0.06859130  0.18186970  0.09890323  1
  O2-  O145  1  0.07503015  0.18062796  0.42232943  1
  O2-  O146  1  0.07161148  0.17857555  0.75519827  1
  O2-  O147  1  0.06997658  0.67332094  0.08797889  1
  O2-  O148  1  0.06736906  0.67848884  0.43143482  1
  O2-  O149  1  0.06981684  0.67495335  0.75736168  1
  O2-  O150  1  0.57323754  0.18044557  0.09025154  1
  O2-  O151  1  0.57173613  0.18044205  0.42129086  1
  O2-  O152  1  0.57592127  0.18120855  0.75588700  1
  O2-  O153  1  0.57063189  0.68120279  0.09883421  1
  O2-  O154  1  0.56890592  0.67431955  0.42298214  1
  O2-  O155  1  0.57115532  0.67526524  0.75306769  1
  O2-  O156  1  0.18117671  0.42938630  0.23423204  1
  O2-  O157  1  0.17671601  0.43188342  0.56700497  1
  O2-  O158  1  0.17971683  0.42969045  0.90037778  1
  O2-  O159  1  0.18114919  0.93080219  0.23474732  1
  O2-  O160  1  0.17943663  0.92614558  0.56718754  1
  O2-  O161  1  0.17947676  0.92759165  0.90321297  1
  O2-  O162  1  0.67410645  0.42737191  0.24496524  1
  O2-  O163  1  0.68068805  0.43210282  0.56558060  1
  O2-  O164  1  0.67677215  0.42981004  0.90139842  1
  O2-  O165  1  0.67901669  0.93322185  0.23258949  1
  O2-  O166  1  0.67659771  0.92863668  0.57823167  1
  O2-  O167  1  0.67975392  0.92742114  0.90800819  1
  O2-  O168  1  0.43192018  0.31939440  0.09210282  1
  O2-  O169  1  0.42793950  0.32127222  0.42209883  1
  O2-  O170  1  0.42966169  0.32091392  0.76632651  1
  O2-  O171  1  0.42910289  0.82238574  0.08803243  1
  O2-  O172  1  0.43057122  0.82186324  0.43138959  1
  O2-  O173  1  0.43292340  0.81678121  0.76705290  1
  O2-  O174  1  0.92774962  0.32281566  0.08945941  1
  O2-  O175  1  0.92783559  0.31966647  0.43229995  1
  O2-  O176  1  0.92747765  0.31661042  0.76840520  1
  O2-  O177  1  0.92624576  0.81885950  0.09045014  1
  O2-  O178  1  0.92801465  0.82124973  0.43147891  1
  O2-  O179  1  0.93136007  0.82118581  0.76714637  1
  O2-  O180  1  0.32408368  0.07279249  0.24516438  1
  O2-  O181  1  0.32071955  0.06925974  0.56710078  1
  O2-  O182  1  0.32328715  0.07107175  0.90308004  1
  O2-  O183  1  0.32893408  0.56682593  0.24398892  1
  O2-  O184  1  0.32311699  0.57112765  0.57726842  1
  O2-  O185  1  0.32265449  0.57004227  0.91065392  1
  O2-  O186  1  0.81833331  0.07504503  0.24424403  1
  O2-  O187  1  0.81601058  0.07167007  0.56568582  1
  O2-  O188  1  0.82070700  0.07132669  0.90208012  1
  O2-  O189  1  0.81620269  0.56869509  0.23412062  1
  O2-  O190  1  0.82218154  0.57274193  0.58023203  1
  O2-  O191  1  0.82078578  0.57705890  0.91070204  1
  O2-  O192  1  0.04903337  0.08620557  0.26995960  1
  O2-  O193  1  0.04361059  0.08549223  0.60337287  1
  O2-  O194  1  0.03781212  0.08382669  0.93229556  1
  O2-  O195  1  0.03428967  0.58333356  0.26414771  1
  O2-  O196  1  0.04111429  0.58496569  0.60455256  1
  O2-  O197  1  0.03937099  0.58702034  0.93338535  1
  O2-  O198  1  0.54180090  0.08998723  0.26619549  1
  O2-  O199  1  0.55170279  0.08354666  0.60480772  1
  O2-  O200  1  0.55013550  0.08632073  0.93699897  1
  O2-  O201  1  0.54551564  0.58334152  0.26990884  1
  O2-  O202  1  0.54502073  0.58458376  0.59903236  1
  O2-  O203  1  0.53719948  0.58287718  0.93122332  1
  O2-  O204  1  0.16742868  0.20732867  0.27059983  1
  O2-  O205  1  0.16678550  0.20054036  0.60368046  1
  O2-  O206  1  0.16756989  0.21160366  0.93289989  1
  O2-  O207  1  0.17002883  0.69979910  0.26420180  1
  O2-  O208  1  0.16788480  0.69439982  0.60686328  1
  O2-  O209  1  0.16515555  0.69970512  0.93676803  1
  O2-  O210  1  0.66093124  0.20732539  0.26587791  1
  O2-  O211  1  0.66430399  0.20919249  0.60133590  1
  O2-  O212  1  0.66472293  0.21038449  0.93892921  1
  O2-  O213  1  0.66553874  0.70272211  0.27290713  1
  O2-  O214  1  0.66804635  0.69833181  0.60324174  1
  O2-  O215  1  0.66598747  0.70787463  0.92707563  1
  O2-  O216  1  0.07944030  0.45974638  0.06538773  1
  O2-  O217  1  0.08226102  0.46146404  0.39972921  1
  O2-  O218  1  0.08335229  0.46172580  0.73736674  1
  O2-  O219  1  0.08268876  0.96008075  0.07019578  1
  O2-  O220  1  0.08307771  0.96076959  0.40095167  1
  O2-  O221  1  0.08111171  0.95551197  0.73340731  1
  O2-  O222  1  0.58166159  0.46238279  0.06927747  1
  O2-  O223  1  0.58130919  0.45197717  0.39579981  1
  O2-  O224  1  0.58260961  0.46052630  0.73201734  1
  O2-  O225  1  0.58552855  0.95202569  0.05957165  1
  O2-  O226  1  0.58559661  0.96807730  0.40070303  1
  O2-  O227  1  0.58539681  0.95244939  0.73129015  1
  O2-  O228  1  0.21138355  0.33588793  0.06940331  1
  O2-  O229  1  0.21119517  0.33425448  0.40241794  1
  O2-  O230  1  0.20870361  0.33200056  0.73247299  1
  O2-  O231  1  0.20305251  0.82652286  0.06750819  1
  O2-  O232  1  0.20939918  0.82944672  0.39726735  1
  O2-  O233  1  0.20597459  0.82624937  0.73274491  1
  O2-  O234  1  0.70576637  0.33545815  0.07213724  1
  O2-  O235  1  0.69935449  0.33097859  0.39392979  1
  O2-  O236  1  0.71040162  0.33447007  0.73364866  1
  O2-  O237  1  0.70504176  0.83244080  0.05821533  1
  O2-  O238  1  0.70182146  0.83250576  0.40208202  1
  O2-  O239  1  0.70041650  0.83010578  0.72704604  1
  O2-  O240  1  0.45481751  0.41349730  0.26878572  1
  O2-  O241  1  0.46018815  0.41561360  0.59658930  1
  O2-  O242  1  0.45694413  0.41150026  0.93965229  1
  O2-  O243  1  0.46271474  0.91851187  0.26451163  1
  O2-  O244  1  0.45994478  0.91720051  0.59924491  1
  O2-  O245  1  0.45413237  0.91688154  0.93707751  1
  O2-  O246  1  0.95830004  0.41672543  0.26430646  1
  O2-  O247  1  0.95724869  0.41861070  0.60424485  1
  O2-  O248  1  0.94669938  0.41892819  0.93919667  1
  O2-  O249  1  0.95219165  0.92472996  0.26792541  1
  O2-  O250  1  0.95741176  0.91971459  0.59852651  1
  O2-  O251  1  0.95783559  0.91418821  0.94094821  1
  O2-  O252  1  0.33616885  0.29268144  0.26964525  1
  O2-  O253  1  0.33173050  0.28973609  0.59705634  1
  O2-  O254  1  0.33727091  0.29163597  0.94089390  1
  O2-  O255  1  0.33529872  0.79023107  0.26102948  1
  O2-  O256  1  0.33460945  0.78561963  0.59987207  1
  O2-  O257  1  0.33366840  0.79602076  0.93709418  1
  O2-  O258  1  0.83111250  0.29173691  0.26409358  1
  O2-  O259  1  0.83355161  0.28680812  0.59995830  1
  O2-  O260  1  0.83115738  0.29468296  0.94230307  1
  O2-  O261  1  0.82816454  0.79209949  0.26743222  1
  O2-  O262  1  0.83342858  0.79198821  0.60039561  1
  O2-  O263  1  0.84009917  0.79244004  0.93474136  1
  O2-  O264  1  0.42443412  0.04851097  0.06750007  1
  O2-  O265  1  0.41845213  0.04943667  0.39497539  1
  O2-  O266  1  0.42275346  0.04492368  0.73273013  1
  O2-  O267  1  0.41323892  0.54237748  0.06456859  1
  O2-  O268  1  0.41670531  0.54420652  0.39803585  1
  O2-  O269  1  0.41785119  0.54630991  0.72760695  1
  O2-  O270  1  0.91629062  0.04133749  0.07107808  1
  O2-  O271  1  0.91829849  0.05757389  0.39364502  1
  O2-  O272  1  0.91629433  0.04072752  0.73375502  1
  O2-  O273  1  0.91430218  0.55136995  0.06305923  1
  O2-  O274  1  0.91391587  0.53741281  0.40319332  1
  O2-  O275  1  0.91541166  0.54904675  0.73305337  1
  O2-  O276  1  0.29235473  0.16820470  0.07119453  1
  O2-  O277  1  0.29756176  0.16576281  0.39627235  1
  O2-  O278  1  0.29559690  0.16861337  0.73376593  1
  O2-  O279  1  0.30089029  0.66679737  0.06093723  1
  O2-  O280  1  0.30105228  0.66669441  0.39232093  1
  O2-  O281  1  0.29669177  0.66197586  0.73259885  1
  O2-  O282  1  0.78791775  0.16527132  0.07230774  1
  O2-  O283  1  0.78777410  0.16541381  0.39543062  1
  O2-  O284  1  0.78611518  0.16380996  0.73589822  1
  O2-  O285  1  0.79117998  0.66786977  0.06215338  1
  O2-  O286  1  0.78859552  0.66465756  0.40452519  1
  O2-  O287  1  0.79608775  0.66729117  0.73153218  1
