# generated using pymatgen
data_Ca2Al2SiO7
_symmetry_space_group_name_H-M   'P 1'
_cell_length_a   15.45880785
_cell_length_b   15.45765143
_cell_length_c   15.28439464
_cell_angle_alpha   89.99726556
_cell_angle_beta   89.99992775
_cell_angle_gamma   89.98898878
_symmetry_Int_Tables_number   1
_chemical_formula_structural   Ca2Al2SiO7
_chemical_formula_sum   'Ca48 Al48 Si24 O168'
_cell_volume   3652.31092919
_cell_formula_units_Z   24
loop_
 _symmetry_equiv_pos_site_id
 _symmetry_equiv_pos_as_xyz
  1  'x, y, z'
loop_
 _atom_type_symbol
 _atom_type_oxidation_number
  Ca2+  2.0
  Al0+  0.0
  Si0+  0.0
  O2-  -2.0
loop_
 _atom_site_type_symbol
 _atom_site_label
 _atom_site_symmetry_multiplicity
 _atom_site_fract_x
 _atom_site_fract_y
 _atom_site_fract_z
 _atom_site_occupancy
  Ca2+  Ca0  1  0.17135991  0.07855727  0.17477359  1
  Ca2+  Ca1  1  0.16960791  0.07932445  0.50533977  1
  Ca2+  Ca2  1  0.18324875  0.07946381  0.83839910  1
  Ca2+  Ca3  1  0.17233700  0.57630039  0.16849276  1
  Ca2+  Ca4  1  0.17006615  0.58009138  0.49860366  1
  Ca2+  Ca5  1  0.16671028  0.58491174  0.84240549  1
  Ca2+  Ca6  1  0.66324678  0.09078059  0.16844228  1
  Ca2+  Ca7  1  0.67103074  0.09108956  0.50832868  1
  Ca2+  Ca8  1  0.66714543  0.08801690  0.83433030  1
  Ca2+  Ca9  1  0.67267699  0.57610493  0.17746619  1
  Ca2+  Ca10  1  0.65923725  0.57004488  0.50667201  1
  Ca2+  Ca11  1  0.65992542  0.57763523  0.83275530  1
  Ca2+  Ca12  1  0.07659737  0.34619724  0.16440340  1
  Ca2+  Ca13  1  0.07859932  0.32535505  0.48676877  1
  Ca2+  Ca14  1  0.07763260  0.34108742  0.83326142  1
  Ca2+  Ca15  1  0.08977927  0.82807508  0.16405364  1
  Ca2+  Ca16  1  0.08411187  0.83249438  0.49767857  1
  Ca2+  Ca17  1  0.08296290  0.82069429  0.82610397  1
  Ca2+  Ca18  1  0.57947633  0.32791532  0.16932267  1
  Ca2+  Ca19  1  0.58362767  0.32734142  0.49182350  1
  Ca2+  Ca20  1  0.58320612  0.32399515  0.82716981  1
  Ca2+  Ca21  1  0.56915169  0.83154518  0.16172957  1
  Ca2+  Ca22  1  0.56955948  0.83256153  0.49708835  1
  Ca2+  Ca23  1  0.57275264  0.82492459  0.82544516  1
  Ca2+  Ca24  1  0.32936908  0.42765032  0.17794870  1
  Ca2+  Ca25  1  0.33392479  0.41574315  0.49967102  1
  Ca2+  Ca26  1  0.32336465  0.42759451  0.84585547  1
  Ca2+  Ca27  1  0.33390437  0.91872836  0.17017214  1
  Ca2+  Ca28  1  0.33396797  0.91791437  0.50159088  1
  Ca2+  Ca29  1  0.34757078  0.92368432  0.83556446  1
  Ca2+  Ca30  1  0.83172812  0.40836195  0.17185573  1
  Ca2+  Ca31  1  0.82203074  0.40856926  0.50187607  1
  Ca2+  Ca32  1  0.82770935  0.41338071  0.83568475  1
  Ca2+  Ca33  1  0.82792147  0.91949987  0.17395056  1
  Ca2+  Ca34  1  0.83230313  0.92429874  0.51156210  1
  Ca2+  Ca35  1  0.83581021  0.91919234  0.83246089  1
  Ca2+  Ca36  1  0.42390681  0.16798926  0.16222640  1
  Ca2+  Ca37  1  0.42703586  0.16879216  0.49311003  1
  Ca2+  Ca38  1  0.42417881  0.16028720  0.82787736  1
  Ca2+  Ca39  1  0.39941297  0.67548610  0.16520786  1
  Ca2+  Ca40  1  0.41574595  0.67274131  0.49614573  1
  Ca2+  Ca41  1  0.41241622  0.67677692  0.82737888  1
  Ca2+  Ca42  1  0.92828173  0.17742481  0.16807128  1
  Ca2+  Ca43  1  0.92048968  0.16882152  0.49142508  1
  Ca2+  Ca44  1  0.91625192  0.17047001  0.83073616  1
  Ca2+  Ca45  1  0.92641015  0.66469780  0.15838954  1
  Ca2+  Ca46  1  0.92088194  0.66996156  0.50218291  1
  Ca2+  Ca47  1  0.92970913  0.66930492  0.82536510  1
  Al0+  Al48  1  -0.00125872  0.00287838  0.00168154  1
  Al0+  Al49  1  -0.00045344  -0.00019867  0.33242342  1
  Al0+  Al50  1  0.00063354  0.00041499  0.67183985  1
  Al0+  Al51  1  -0.00283692  0.50140187  -0.00658741  1
  Al0+  Al52  1  0.00070485  0.50207625  0.33444312  1
  Al0+  Al53  1  -0.00245059  0.49966467  0.66079887  1
  Al0+  Al54  1  0.50191542  -0.00059912  -0.00295677  1
  Al0+  Al55  1  0.50070284  -0.00298856  0.32593912  1
  Al0+  Al56  1  0.50239630  -0.00006325  0.66169461  1
  Al0+  Al57  1  0.50000961  0.49946114  0.00678823  1
  Al0+  Al58  1  0.50281399  0.50031275  0.33812654  1
  Al0+  Al59  1  0.49714086  0.49899513  0.67189127  1
  Al0+  Al60  1  0.24885471  0.24918879  0.00838353  1
  Al0+  Al61  1  0.25246838  0.24920036  0.33040136  1
  Al0+  Al62  1  0.24881705  0.24952204  0.67394320  1
  Al0+  Al63  1  0.24889068  0.75169024  -0.00716262  1
  Al0+  Al64  1  0.24908213  0.75160925  0.33837350  1
  Al0+  Al65  1  0.24849168  0.74889286  0.65825494  1
  Al0+  Al66  1  0.75130500  0.24939898  -0.00648532  1
  Al0+  Al67  1  0.75262450  0.24989300  0.32947485  1
  Al0+  Al68  1  0.74935719  0.24998258  0.67326147  1
  Al0+  Al69  1  0.74808681  0.75054786  0.00120632  1
  Al0+  Al70  1  0.74951296  0.75127265  0.33545195  1
  Al0+  Al71  1  0.75115843  0.74792630  0.66093026  1
  Al0+  Al72  1  0.42802749  0.81778950  0.31722582  1
  Al0+  Al73  1  0.56843495  0.18180041  0.98386908  1
  Al0+  Al74  1  0.17815529  0.42662162  0.34964486  1
  Al0+  Al75  1  0.06849651  0.68224959  0.98742454  1
  Al0+  Al76  1  0.68261530  0.42893695  0.34615528  1
  Al0+  Al77  1  0.93190757  0.31951934  0.98384862  1
  Al0+  Al78  1  0.82193497  0.07082333  0.68165240  1
  Al0+  Al79  1  0.57175329  0.17885272  0.31829488  1
  Al0+  Al80  1  0.32113253  0.57332325  0.01422333  1
  Al0+  Al81  1  0.07389265  0.17612064  0.32014446  1
  Al0+  Al82  1  0.92993550  0.82352342  0.65185109  1
  Al0+  Al83  1  0.57082712  0.18150147  0.65329811  1
  Al0+  Al84  1  0.07109382  0.67682041  0.64709545  1
  Al0+  Al85  1  0.32080593  0.57122618  0.35101961  1
  Al0+  Al86  1  0.43010612  0.82157595  0.64902276  1
  Al0+  Al87  1  0.57079408  0.67445050  0.65212557  1
  Al0+  Al88  1  0.67778350  0.42968386  0.68238338  1
  Al0+  Al89  1  0.43007958  0.81834444  0.98573434  1
  Al0+  Al90  1  0.17528918  0.43013319  0.01418028  1
  Al0+  Al91  1  0.42856600  0.32416028  0.31902690  1
  Al0+  Al92  1  0.32245370  0.06982297  0.67852918  1
  Al0+  Al93  1  0.32417897  0.06986422  0.01494530  1
  Al0+  Al94  1  0.17884484  0.93138140  0.34701613  1
  Al0+  Al95  1  0.93204255  0.32195221  0.31967823  1
  Si0+  Si96  1  0.42542932  0.32430702  0.98465055  1
  Si0+  Si97  1  0.06953485  0.68129745  0.31737648  1
  Si0+  Si98  1  0.92391386  0.82470467  0.98542674  1
  Si0+  Si99  1  0.57348261  0.67799066  0.31667386  1
  Si0+  Si100  1  0.67990840  0.42682829  0.01563133  1
  Si0+  Si101  1  0.31844372  0.57129598  0.68210637  1
  Si0+  Si102  1  0.17632376  0.42867919  0.68138733  1
  Si0+  Si103  1  0.67753767  0.92730842  0.34897064  1
  Si0+  Si104  1  0.17695712  0.92976490  0.01460250  1
  Si0+  Si105  1  0.07442605  0.17489055  0.98165119  1
  Si0+  Si106  1  0.82344939  0.57606239  0.35135305  1
  Si0+  Si107  1  0.57551041  0.67562192  0.98544449  1
  Si0+  Si108  1  0.42474768  0.32132481  0.65406032  1
  Si0+  Si109  1  0.81861899  0.57146715  0.01270919  1
  Si0+  Si110  1  0.17872447  0.92683772  0.68418697  1
  Si0+  Si111  1  0.68052208  0.92908507  0.01508903  1
  Si0+  Si112  1  0.81860564  0.06855697  0.34682981  1
  Si0+  Si113  1  0.82096795  0.07257874  0.01756665  1
  Si0+  Si114  1  0.92857022  0.31897541  0.65164567  1
  Si0+  Si115  1  0.67914115  0.92597189  0.68290959  1
  Si0+  Si116  1  0.32548991  0.07146683  0.34863759  1
  Si0+  Si117  1  0.82282880  0.57163325  0.68380566  1
  Si0+  Si118  1  0.92714165  0.82215201  0.31796465  1
  Si0+  Si119  1  0.07262451  0.18004194  0.65518751  1
  O2-  O120  1  0.24457584  -0.00104052  0.05936146  1
  O2-  O121  1  0.25113820  0.00877026  0.39303070  1
  O2-  O122  1  0.25153824  -0.00841108  0.72740158  1
  O2-  O123  1  0.25359735  0.49613058  0.06281081  1
  O2-  O124  1  0.25307293  0.49473378  0.40145249  1
  O2-  O125  1  0.24545681  0.50157965  0.72347406  1
  O2-  O126  1  0.75321420  -0.00191304  0.05897721  1
  O2-  O127  1  0.74639462  0.00011444  0.39079843  1
  O2-  O128  1  0.74915976  -0.00656974  0.72813115  1
  O2-  O129  1  0.74592426  0.50338371  0.05626243  1
  O2-  O130  1  0.75602543  0.50528887  0.39340256  1
  O2-  O131  1  0.75028385  0.50737391  0.72908975  1
  O2-  O132  1  0.01111240  0.25691423  0.27009715  1
  O2-  O133  1  0.00034705  0.24861437  0.61117667  1
  O2-  O134  1  0.00989138  0.24789216  0.93728458  1
  O2-  O135  1  -0.00428295  0.74994201  0.27476403  1
  O2-  O136  1  0.00154417  0.75287880  0.59927788  1
  O2-  O137  1  -0.00536607  0.75876561  0.94197734  1
  O2-  O138  1  0.49722406  0.24844943  0.26897661  1
  O2-  O139  1  0.49431750  0.25431599  0.60868958  1
  O2-  O140  1  0.49169834  0.25470600  0.93748227  1
  O2-  O141  1  0.50152315  0.74153077  0.27027485  1
  O2-  O142  1  0.50157794  0.74790087  0.60057782  1
  O2-  O143  1  0.50120799  0.73841195  0.94239612  1
  O2-  O144  1  0.06898494  0.16789494  0.08649907  1
  O2-  O145  1  0.06633352  0.17287147  0.43432992  1
  O2-  O146  1  0.07339284  0.18326245  0.76025285  1
  O2-  O147  1  0.06623276  0.68335218  0.10076064  1
  O2-  O148  1  0.06761882  0.68235597  0.42214018  1
  O2-  O149  1  0.06947375  0.67604280  0.76103044  1
  O2-  O150  1  0.57065590  0.18335161  0.09662290  1
  O2-  O151  1  0.57408762  0.17930495  0.43188218  1
  O2-  O152  1  0.57047119  0.18207557  0.76653508  1
  O2-  O153  1  0.58558558  0.68088115  0.09027365  1
  O2-  O154  1  0.57605056  0.68206956  0.42179304  1
  O2-  O155  1  0.56694759  0.67527619  0.76642347  1
  O2-  O156  1  0.17372182  0.43507220  0.23666228  1
  O2-  O157  1  0.17751323  0.42544268  0.57685409  1
  O2-  O158  1  0.17498082  0.43471787  0.89968375  1
  O2-  O159  1  0.17892847  0.92972307  0.23356098  1
  O2-  O160  1  0.17538133  0.93120290  0.57866843  1
  O2-  O161  1  0.17444760  0.93092778  0.90922777  1
  O2-  O162  1  0.68615247  0.43006273  0.23244968  1
  O2-  O163  1  0.68149781  0.42712855  0.56957536  1
  O2-  O164  1  0.68116790  0.42707327  0.91043838  1
  O2-  O165  1  0.68136255  0.92389129  0.24354861  1
  O2-  O166  1  0.67984058  0.92877945  0.57719241  1
  O2-  O167  1  0.68272323  0.92746173  0.91032972  1
  O2-  O168  1  0.43047016  0.32510301  0.08973190  1
  O2-  O169  1  0.43199579  0.32200053  0.43323580  1
  O2-  O170  1  0.42459610  0.32011170  0.75985082  1
  O2-  O171  1  0.43073462  0.81846829  0.09876922  1
  O2-  O172  1  0.43056536  0.81971689  0.42975785  1
  O2-  O173  1  0.43227412  0.82071034  0.76291401  1
  O2-  O174  1  0.92955836  0.31826274  0.09650947  1
  O2-  O175  1  0.92749897  0.31580958  0.43340671  1
  O2-  O176  1  0.92988229  0.31984964  0.75701257  1
  O2-  O177  1  0.92083011  0.82222122  0.09129736  1
  O2-  O178  1  0.92683730  0.82356732  0.42247482  1
  O2-  O179  1  0.93252921  0.82229784  0.76599179  1
  O2-  O180  1  0.32759658  0.06564046  0.24297893  1
  O2-  O181  1  0.31821816  0.07306684  0.56586897  1
  O2-  O182  1  0.32535919  0.06612391  0.90146023  1
  O2-  O183  1  0.31496447  0.57414505  0.23752706  1
  O2-  O184  1  0.31999423  0.56915842  0.57742145  1
  O2-  O185  1  0.31882769  0.57373370  0.90002511  1
  O2-  O186  1  0.81846026  0.06542408  0.24143630  1
  O2-  O187  1  0.82102191  0.07237321  0.56821863  1
  O2-  O188  1  0.82123712  0.07196678  0.91254611  1
  O2-  O189  1  0.82144523  0.58081699  0.24519375  1
  O2-  O190  1  0.82609588  0.56757707  0.57850661  1
  O2-  O191  1  0.81805196  0.57216144  0.90792592  1
  O2-  O192  1  0.03441487  0.08230158  0.26342388  1
  O2-  O193  1  0.04682905  0.08698355  0.61048642  1
  O2-  O194  1  0.04229572  0.08366286  0.93288058  1
  O2-  O195  1  0.04272305  0.58963816  0.26971432  1
  O2-  O196  1  0.03750959  0.58023712  0.59306367  1
  O2-  O197  1  0.03345071  0.58882813  0.93021845  1
  O2-  O198  1  0.54731542  0.07954132  0.26470976  1
  O2-  O199  1  0.54583765  0.08429051  0.59912920  1
  O2-  O200  1  0.54156281  0.08363699  0.93117100  1
  O2-  O201  1  0.55530288  0.58217229  0.27368654  1
  O2-  O202  1  0.53931746  0.57613768  0.60086047  1
  O2-  O203  1  0.55585411  0.57865604  0.94444950  1
  O2-  O204  1  0.17594841  0.18981036  0.27173772  1
  O2-  O205  1  0.16341420  0.20932515  0.60701114  1
  O2-  O206  1  0.17090916  0.19529294  0.93976443  1
  O2-  O207  1  0.15976772  0.71439065  0.27161133  1
  O2-  O208  1  0.16869563  0.70268936  0.59307689  1
  O2-  O209  1  0.16262217  0.71284645  0.92913701  1
  O2-  O210  1  0.66910271  0.20957401  0.26420115  1
  O2-  O211  1  0.66817275  0.21433285  0.60211202  1
  O2-  O212  1  0.66481682  0.21371916  0.92977499  1
  O2-  O213  1  0.66646058  0.70816769  0.26969305  1
  O2-  O214  1  0.67166938  0.69463505  0.60169247  1
  O2-  O215  1  0.66601763  0.70685634  0.93471968  1
  O2-  O216  1  0.07773891  0.46626598  0.06472169  1
  O2-  O217  1  0.07969355  0.45839215  0.40297282  1
  O2-  O218  1  0.08271841  0.45622545  0.72584822  1
  O2-  O219  1  0.08213684  0.95243250  0.06159530  1
  O2-  O220  1  0.08060373  0.95926147  0.40066348  1
  O2-  O221  1  0.08740689  0.95529044  0.73342325  1
  O2-  O222  1  0.58704477  0.44804485  0.06348093  1
  O2-  O223  1  0.58710679  0.45740531  0.40268353  1
  O2-  O224  1  0.58063722  0.45726538  0.73844008  1
  O2-  O225  1  0.59046498  0.96006620  0.06323213  1
  O2-  O226  1  0.58459570  0.95320575  0.39372468  1
  O2-  O227  1  0.58650666  0.95438616  0.72893902  1
  O2-  O228  1  0.19059592  0.32806729  0.06355314  1
  O2-  O229  1  0.20124615  0.32488922  0.39937107  1
  O2-  O230  1  0.20342543  0.33849081  0.73284219  1
  O2-  O231  1  0.20455365  0.83631806  0.05914125  1
  O2-  O232  1  0.21058447  0.83699647  0.40366142  1
  O2-  O233  1  0.20057580  0.83027976  0.72539689  1
  O2-  O234  1  0.71630319  0.33715281  0.06102301  1
  O2-  O235  1  0.71679991  0.33258428  0.39961665  1
  O2-  O236  1  0.71396948  0.33617807  0.73932372  1
  O2-  O237  1  0.70648610  0.83733661  0.06517170  1
  O2-  O238  1  0.70704655  0.83710680  0.39853775  1
  O2-  O239  1  0.70346270  0.83108134  0.72782286  1
  O2-  O240  1  0.46191323  0.42180755  0.26673237  1
  O2-  O241  1  0.44856400  0.41552210  0.61003310  1
  O2-  O242  1  0.45238269  0.41871390  0.93927608  1
  O2-  O243  1  0.46219241  0.91216525  0.26106683  1
  O2-  O244  1  0.46111124  0.91833878  0.59453761  1
  O2-  O245  1  0.46868088  0.91209723  0.93171588  1
  O2-  O246  1  0.95188417  0.42367726  0.26835901  1
  O2-  O247  1  0.95310940  0.41046169  0.60339273  1
  O2-  O248  1  0.95771146  0.41647179  0.92750505  1
  O2-  O249  1  0.95551949  0.91254322  0.26829871  1
  O2-  O250  1  0.95746637  0.92347179  0.60086552  1
  O2-  O251  1  0.94639276  0.92025410  0.94232125  1
  O2-  O252  1  0.32880046  0.30305991  0.26632978  1
  O2-  O253  1  0.33095223  0.29521882  0.60864801  1
  O2-  O254  1  0.32916431  0.30206672  0.94263476  1
  O2-  O255  1  0.32989776  0.78823761  0.26551301  1
  O2-  O256  1  0.33100125  0.79569083  0.59790999  1
  O2-  O257  1  0.33343727  0.79391359  0.92920768  1
  O2-  O258  1  0.83792122  0.28545122  0.26329326  1
  O2-  O259  1  0.83704458  0.28820513  0.60696370  1
  O2-  O260  1  0.83754081  0.28412557  0.92791691  1
  O2-  O261  1  0.83411837  0.79626418  0.27086391  1
  O2-  O262  1  0.83156052  0.79709712  0.59794940  1
  O2-  O263  1  0.83130930  0.79738848  0.93825019  1
  O2-  O264  1  0.41976343  0.03446972  0.06803050  1
  O2-  O265  1  0.41736401  0.03792061  0.39449473  1
  O2-  O266  1  0.42055995  0.03987123  0.73098847  1
  O2-  O267  1  0.42176845  0.55274948  0.06763585  1
  O2-  O268  1  0.42192424  0.54931834  0.40115711  1
  O2-  O269  1  0.40861144  0.54370558  0.73268153  1
  O2-  O270  1  0.91340710  0.04808537  0.06581929  1
  O2-  O271  1  0.90935318  0.03851031  0.39461758  1
  O2-  O272  1  0.91846893  0.04277468  0.73884794  1
  O2-  O273  1  0.90920817  0.54101266  0.06044465  1
  O2-  O274  1  0.91743993  0.55296470  0.39611953  1
  O2-  O275  1  0.91469836  0.53937061  0.73115442  1
  O2-  O276  1  0.29896402  0.16743278  0.06918837  1
  O2-  O277  1  0.30966236  0.16788614  0.39135438  1
  O2-  O278  1  0.28872222  0.16422215  0.73709149  1
  O2-  O279  1  0.28577487  0.67117812  0.06418516  1
  O2-  O280  1  0.28604911  0.66727817  0.40489141  1
  O2-  O281  1  0.29050579  0.66461779  0.72674244  1
  O2-  O282  1  0.78755114  0.16310065  0.06329826  1
  O2-  O283  1  0.79290934  0.16087524  0.39341530  1
  O2-  O284  1  0.78843796  0.16498068  0.73883996  1
  O2-  O285  1  0.79465968  0.66411910  0.06203706  1
  O2-  O286  1  0.79669244  0.66909247  0.39881280  1
  O2-  O287  1  0.80394438  0.66779699  0.72755104  1
