# generated using pymatgen
data_Ca2Al2SiO7
_symmetry_space_group_name_H-M   'P 1'
_cell_length_a   15.46917632
_cell_length_b   15.46830225
_cell_length_c   15.29091104
_cell_angle_alpha   89.98190304
_cell_angle_beta   90.00555819
_cell_angle_gamma   90.04510890
_symmetry_Int_Tables_number   1
_chemical_formula_structural   Ca2Al2SiO7
_chemical_formula_sum   'Ca48 Al48 Si24 O168'
_cell_volume   3658.83683500
_cell_formula_units_Z   24
loop_
 _symmetry_equiv_pos_site_id
 _symmetry_equiv_pos_as_xyz
  1  'x, y, z'
loop_
 _atom_type_symbol
 _atom_type_oxidation_number
  Ca2+  2.0
  Al0+  0.0
  Si0+  0.0
  O2-  -2.0
loop_
 _atom_site_type_symbol
 _atom_site_label
 _atom_site_symmetry_multiplicity
 _atom_site_fract_x
 _atom_site_fract_y
 _atom_site_fract_z
 _atom_site_occupancy
  Ca2+  Ca0  1  0.16861025  0.08016412  0.17414905  1
  Ca2+  Ca1  1  0.16363844  0.08688005  0.49828638  1
  Ca2+  Ca2  1  0.16591685  0.08287749  0.84270011  1
  Ca2+  Ca3  1  0.16882129  0.57443777  0.17329326  1
  Ca2+  Ca4  1  0.16645876  0.56673996  0.50490751  1
  Ca2+  Ca5  1  0.16762455  0.56910625  0.84423574  1
  Ca2+  Ca6  1  0.68059357  0.07917365  0.17661976  1
  Ca2+  Ca7  1  0.67635444  0.07541528  0.50868376  1
  Ca2+  Ca8  1  0.67983640  0.08778469  0.83705263  1
  Ca2+  Ca9  1  0.67186860  0.58488405  0.17564583  1
  Ca2+  Ca10  1  0.67466251  0.59213811  0.50369928  1
  Ca2+  Ca11  1  0.67031372  0.58655902  0.82904654  1
  Ca2+  Ca12  1  0.09218455  0.32478802  0.16481781  1
  Ca2+  Ca13  1  0.08388800  0.32572583  0.49917017  1
  Ca2+  Ca14  1  0.08605675  0.32358589  0.82581411  1
  Ca2+  Ca15  1  0.09304572  0.82933813  0.15950510  1
  Ca2+  Ca16  1  0.08182654  0.83304956  0.49227290  1
  Ca2+  Ca17  1  0.09073557  0.82623051  0.83420851  1
  Ca2+  Ca18  1  0.57886611  0.33246264  0.16282727  1
  Ca2+  Ca19  1  0.57297942  0.33796470  0.49722379  1
  Ca2+  Ca20  1  0.57149027  0.33236636  0.82559305  1
  Ca2+  Ca21  1  0.58587967  0.83167133  0.16815861  1
  Ca2+  Ca22  1  0.59390600  0.82799703  0.49408101  1
  Ca2+  Ca23  1  0.58321422  0.82956016  0.82337422  1
  Ca2+  Ca24  1  0.32101972  0.42526805  0.16994401  1
  Ca2+  Ca25  1  0.32334538  0.41403585  0.50184264  1
  Ca2+  Ca26  1  0.32290876  0.41612348  0.83771651  1
  Ca2+  Ca27  1  0.32157890  0.92581357  0.16946991  1
  Ca2+  Ca28  1  0.32841442  0.92026569  0.49656816  1
  Ca2+  Ca29  1  0.32725505  0.92490848  0.84281410  1
  Ca2+  Ca30  1  0.83310220  0.42414038  0.17308105  1
  Ca2+  Ca31  1  0.84131666  0.42797860  0.50661016  1
  Ca2+  Ca32  1  0.84221167  0.41952622  0.83022650  1
  Ca2+  Ca33  1  0.83381651  0.92848155  0.17255651  1
  Ca2+  Ca34  1  0.82720809  0.92780310  0.50155253  1
  Ca2+  Ca35  1  0.83051397  0.92811482  0.83183473  1
  Ca2+  Ca36  1  0.41284739  0.16029898  0.16361454  1
  Ca2+  Ca37  1  0.41138307  0.17150314  0.49551039  1
  Ca2+  Ca38  1  0.41100134  0.17223553  0.82614587  1
  Ca2+  Ca39  1  0.41535703  0.66153270  0.16378159  1
  Ca2+  Ca40  1  0.42933972  0.66406743  0.49029174  1
  Ca2+  Ca41  1  0.42011714  0.66526963  0.82658137  1
  Ca2+  Ca42  1  0.92679351  0.16000171  0.16198754  1
  Ca2+  Ca43  1  0.92390783  0.16255688  0.49576762  1
  Ca2+  Ca44  1  0.92607510  0.16717968  0.82562329  1
  Ca2+  Ca45  1  0.92244126  0.67012055  0.16202249  1
  Ca2+  Ca46  1  0.91069736  0.66675509  0.49440720  1
  Ca2+  Ca47  1  0.92223074  0.66579821  0.82878664  1
  Al0+  Al48  1  -0.00275635  -0.00152955  0.00128194  1
  Al0+  Al49  1  -0.00071420  -0.00042838  0.33530270  1
  Al0+  Al50  1  0.00022370  -0.00306813  0.66737144  1
  Al0+  Al51  1  -0.00123886  0.50028192  0.00132311  1
  Al0+  Al52  1  -0.00067884  0.49983532  0.33972242  1
  Al0+  Al53  1  0.00171988  0.49836052  0.67322567  1
  Al0+  Al54  1  0.50163789  -0.00220593  0.00045827  1
  Al0+  Al55  1  0.49820435  -0.00162605  0.33799530  1
  Al0+  Al56  1  0.49775181  -0.00152202  0.66938147  1
  Al0+  Al57  1  0.50133634  0.49872818  0.00055376  1
  Al0+  Al58  1  0.50026131  0.50026500  0.32823995  1
  Al0+  Al59  1  0.50101039  0.50170332  0.65679348  1
  Al0+  Al60  1  0.25086454  0.25173241  0.00219050  1
  Al0+  Al61  1  0.24912354  0.25087514  0.33418982  1
  Al0+  Al62  1  0.24950087  0.24998365  0.66198511  1
  Al0+  Al63  1  0.25347229  0.75029628  -0.00160801  1
  Al0+  Al64  1  0.25298616  0.75047724  0.33942939  1
  Al0+  Al65  1  0.25166566  0.74973927  0.66421608  1
  Al0+  Al66  1  0.74951980  0.25108805  0.00391161  1
  Al0+  Al67  1  0.74943712  0.25231022  0.33591832  1
  Al0+  Al68  1  0.74988580  0.25284528  0.66725385  1
  Al0+  Al69  1  0.75000829  0.74971294  -0.00286482  1
  Al0+  Al70  1  0.75049624  0.75000018  0.33180185  1
  Al0+  Al71  1  0.75121723  0.75016642  0.67252769  1
  Al0+  Al72  1  0.17618968  0.42901730  0.01594281  1
  Al0+  Al73  1  0.57091458  0.68272206  0.65186088  1
  Al0+  Al74  1  0.82066803  0.56990825  0.68224030  1
  Al0+  Al75  1  0.82210492  0.07426375  0.34887726  1
  Al0+  Al76  1  0.32220399  0.07255164  0.01262010  1
  Al0+  Al77  1  0.32364956  0.57135106  0.34948541  1
  Al0+  Al78  1  0.67807952  0.92962363  0.68298677  1
  Al0+  Al79  1  0.07221659  0.67912506  0.98761032  1
  Al0+  Al80  1  0.92824432  0.32285377  0.65208920  1
  Al0+  Al81  1  0.17800727  0.92897372  0.01219992  1
  Al0+  Al82  1  0.17864385  0.42927277  0.35069040  1
  Al0+  Al83  1  0.42922158  0.32000931  0.65208523  1
  Al0+  Al84  1  0.17774527  0.92837765  0.34895390  1
  Al0+  Al85  1  0.06948666  0.17632223  0.65102503  1
  Al0+  Al86  1  0.81981272  0.07203492  0.01452298  1
  Al0+  Al87  1  0.81932225  0.56985921  0.34502434  1
  Al0+  Al88  1  0.57085819  0.68099547  0.31658176  1
  Al0+  Al89  1  0.32032902  0.07188949  0.34958111  1
  Al0+  Al90  1  0.82224362  0.07388755  0.68289700  1
  Al0+  Al91  1  0.18105830  0.42829111  0.68268730  1
  Al0+  Al92  1  0.07064322  0.17961700  0.98830712  1
  Al0+  Al93  1  0.32350295  0.57072287  0.01231342  1
  Al0+  Al94  1  0.06849994  0.18017580  0.31754166  1
  Al0+  Al95  1  0.67944940  0.92946137  0.34645514  1
  Si0+  Si96  1  0.81995781  0.57210620  0.01474832  1
  Si0+  Si97  1  0.67848484  0.42987187  0.01434007  1
  Si0+  Si98  1  0.31848198  0.07038313  0.68048125  1
  Si0+  Si99  1  0.57210357  0.67765342  0.98324435  1
  Si0+  Si100  1  0.07236364  0.67806176  0.65207517  1
  Si0+  Si101  1  0.92656252  0.32485978  0.31638827  1
  Si0+  Si102  1  0.67834699  0.92607639  0.01666340  1
  Si0+  Si103  1  0.43108879  0.32027235  0.98577673  1
  Si0+  Si104  1  0.93048878  0.81814170  0.65172533  1
  Si0+  Si105  1  0.07227958  0.67844091  0.32138431  1
  Si0+  Si106  1  0.42599540  0.82401199  0.64739685  1
  Si0+  Si107  1  0.57109923  0.17752724  0.31956247  1
  Si0+  Si108  1  0.42612521  0.82352350  0.31322750  1
  Si0+  Si109  1  0.92993608  0.81961298  0.31840104  1
  Si0+  Si110  1  0.92553819  0.82090779  0.98093601  1
  Si0+  Si111  1  0.67650750  0.42762855  0.34968420  1
  Si0+  Si112  1  0.17858362  0.92554402  0.68232565  1
  Si0+  Si113  1  0.57186522  0.17637340  0.65127530  1
  Si0+  Si114  1  0.92465629  0.32248707  0.98485804  1
  Si0+  Si115  1  0.57244164  0.17817122  0.98678611  1
  Si0+  Si116  1  0.43098464  0.82128298  0.98362155  1
  Si0+  Si117  1  0.32311407  0.57189819  0.68135494  1
  Si0+  Si118  1  0.42930309  0.32018887  0.31489579  1
  Si0+  Si119  1  0.67399818  0.42907633  0.68280616  1
  O2-  O120  1  0.24443769  0.00638567  0.06156524  1
  O2-  O121  1  0.24685280  0.00211135  0.40049275  1
  O2-  O122  1  0.24817806  -0.00123312  0.72236851  1
  O2-  O123  1  0.24526336  0.50601267  0.06241455  1
  O2-  O124  1  0.25013298  0.50234375  0.40030590  1
  O2-  O125  1  0.25512177  0.50466788  0.72780373  1
  O2-  O126  1  0.74563770  -0.00411586  0.05982455  1
  O2-  O127  1  0.74535453  0.00633708  0.39639796  1
  O2-  O128  1  0.74497756  0.00643353  0.73271959  1
  O2-  O129  1  0.74979916  0.50040628  0.05627734  1
  O2-  O130  1  0.74635405  0.49475617  0.39299805  1
  O2-  O131  1  0.74707371  0.49295667  0.72808327  1
  O2-  O132  1  -0.00811956  0.25401309  0.27114277  1
  O2-  O133  1  -0.00591525  0.24576996  0.60202372  1
  O2-  O134  1  -0.00446501  0.25513157  0.94285803  1
  O2-  O135  1  0.00494396  0.75205571  0.27706249  1
  O2-  O136  1  0.00187394  0.74817441  0.60820632  1
  O2-  O137  1  -0.00176178  0.75457937  0.93879324  1
  O2-  O138  1  0.49995342  0.24739261  0.27407418  1
  O2-  O139  1  0.50515865  0.24597250  0.60534622  1
  O2-  O140  1  0.49705224  0.24394795  0.94364219  1
  O2-  O141  1  0.49456171  0.75362311  0.26896611  1
  O2-  O142  1  0.49714723  0.75765282  0.60437133  1
  O2-  O143  1  0.50113613  0.74856264  0.94166010  1
  O2-  O144  1  0.07004929  0.18001625  0.10124773  1
  O2-  O145  1  0.06770822  0.18033629  0.43021775  1
  O2-  O146  1  0.07186411  0.17636381  0.76510323  1
  O2-  O147  1  0.06839602  0.67888898  0.10103947  1
  O2-  O148  1  0.06813831  0.67868264  0.42665332  1
  O2-  O149  1  0.07263556  0.68053525  0.75736198  1
  O2-  O150  1  0.57405307  0.18144107  0.09190596  1
  O2-  O151  1  0.57075025  0.18083887  0.42437551  1
  O2-  O152  1  0.56839236  0.17792630  0.75751958  1
  O2-  O153  1  0.57502881  0.67767664  0.08794814  1
  O2-  O154  1  0.57315694  0.68296227  0.42933302  1
  O2-  O155  1  0.56817983  0.68186468  0.76583003  1
  O2-  O156  1  0.17885120  0.43071825  0.23710722  1
  O2-  O157  1  0.18167562  0.42901028  0.57007723  1
  O2-  O158  1  0.17962179  0.42728532  0.90227001  1
  O2-  O159  1  0.17904132  0.92734389  0.23557568  1
  O2-  O160  1  0.17920293  0.92151862  0.57778685  1
  O2-  O161  1  0.18276002  0.92799206  0.89808382  1
  O2-  O162  1  0.67709411  0.42768797  0.24329994  1
  O2-  O163  1  0.67012010  0.43236104  0.57771365  1
  O2-  O164  1  0.67480650  0.43021360  0.90972022  1
  O2-  O165  1  0.68310393  0.93007917  0.23233348  1
  O2-  O166  1  0.68193154  0.92913970  0.56983635  1
  O2-  O167  1  0.67813178  0.92539310  0.91135890  1
  O2-  O168  1  0.43623141  0.32334376  0.09057206  1
  O2-  O169  1  0.43154037  0.32088338  0.42007580  1
  O2-  O170  1  0.42977244  0.31843731  0.76586760  1
  O2-  O171  1  0.43322231  0.82361340  0.08812437  1
  O2-  O172  1  0.42604712  0.82379258  0.41865512  1
  O2-  O173  1  0.42364584  0.82213665  0.75331028  1
  O2-  O174  1  0.91926851  0.32281408  0.09019405  1
  O2-  O175  1  0.92748675  0.32738511  0.42141234  1
  O2-  O176  1  0.93333558  0.32367191  0.76607669  1
  O2-  O177  1  0.91931316  0.81673274  0.08636598  1
  O2-  O178  1  0.92851937  0.81696986  0.42370882  1
  O2-  O179  1  0.93249438  0.81741001  0.75694224  1
  O2-  O180  1  0.32035335  0.07012083  0.23605355  1
  O2-  O181  1  0.31971016  0.06950748  0.57589175  1
  O2-  O182  1  0.32426202  0.07014974  0.89858543  1
  O2-  O183  1  0.32163249  0.56854040  0.23569273  1
  O2-  O184  1  0.32038873  0.57206596  0.57628383  1
  O2-  O185  1  0.32750410  0.56560116  0.89855965  1
  O2-  O186  1  0.82138104  0.07149129  0.23491728  1
  O2-  O187  1  0.82236931  0.06958227  0.56985345  1
  O2-  O188  1  0.81757988  0.07362739  0.90177018  1
  O2-  O189  1  0.81864086  0.56943377  0.23124010  1
  O2-  O190  1  0.81923084  0.57203094  0.56943343  1
  O2-  O191  1  0.81891723  0.57274625  0.90985484  1
  O2-  O192  1  0.03840900  0.08160088  0.26589476  1
  O2-  O193  1  0.04508690  0.07562352  0.60014264  1
  O2-  O194  1  0.04032228  0.08158874  0.93581736  1
  O2-  O195  1  0.04043573  0.58752834  0.27437173  1
  O2-  O196  1  0.04366609  0.58595412  0.60769624  1
  O2-  O197  1  0.03817497  0.58301196  0.93328550  1
  O2-  O198  1  0.54438350  0.08497675  0.27292552  1
  O2-  O199  1  0.54440178  0.08271235  0.60680056  1
  O2-  O200  1  0.55151215  0.08418594  0.94086321  1
  O2-  O201  1  0.54369123  0.58268868  0.26226294  1
  O2-  O202  1  0.54320079  0.58691556  0.59541087  1
  O2-  O203  1  0.54481945  0.58520200  0.93651648  1
  O2-  O204  1  0.16622217  0.21233740  0.26558101  1
  O2-  O205  1  0.16644124  0.20835560  0.59775130  1
  O2-  O206  1  0.16874408  0.20923774  0.93506048  1
  O2-  O207  1  0.16597736  0.70344059  0.27670795  1
  O2-  O208  1  0.16420664  0.70539120  0.60447497  1
  O2-  O209  1  0.16920155  0.70817335  0.93224642  1
  O2-  O210  1  0.66294927  0.20684880  0.27127939  1
  O2-  O211  1  0.66647127  0.19927687  0.60727034  1
  O2-  O212  1  0.66157640  0.21291202  0.93790931  1
  O2-  O213  1  0.66719730  0.71369605  0.26129790  1
  O2-  O214  1  0.66949200  0.71348951  0.60186558  1
  O2-  O215  1  0.66377530  0.70561083  0.93478786  1
  O2-  O216  1  0.07658659  0.45387954  0.06808939  1
  O2-  O217  1  0.08124239  0.45828285  0.40440923  1
  O2-  O218  1  0.08634104  0.45996018  0.73849905  1
  O2-  O219  1  0.07648352  0.94541178  0.06188218  1
  O2-  O220  1  0.07883808  0.95312701  0.40138115  1
  O2-  O221  1  0.08639113  0.94945650  0.72974585  1
  O2-  O222  1  0.58869549  0.45875465  0.06487853  1
  O2-  O223  1  0.58318849  0.45463229  0.39355568  1
  O2-  O224  1  0.58238125  0.46137521  0.73049107  1
  O2-  O225  1  0.58467665  0.94941304  0.06260938  1
  O2-  O226  1  0.57932808  0.94872715  0.39787222  1
  O2-  O227  1  0.57641711  0.95038672  0.73382128  1
  O2-  O228  1  0.21144820  0.33376134  0.06962112  1
  O2-  O229  1  0.21070400  0.33256669  0.40262625  1
  O2-  O230  1  0.21544043  0.33160994  0.73430278  1
  O2-  O231  1  0.21243330  0.83245335  0.06477410  1
  O2-  O232  1  0.20710144  0.83118129  0.40411851  1
  O2-  O233  1  0.20933413  0.83412610  0.73024287  1
  O2-  O234  1  0.70467750  0.33903158  0.06450680  1
  O2-  O235  1  0.69683054  0.33389789  0.39661468  1
  O2-  O236  1  0.69222512  0.33369597  0.72835940  1
  O2-  O237  1  0.70495708  0.83191822  0.06145965  1
  O2-  O238  1  0.71485492  0.83350544  0.39863537  1
  O2-  O239  1  0.71235375  0.83416934  0.73830176  1
  O2-  O240  1  0.46058948  0.41012086  0.26545165  1
  O2-  O241  1  0.46007372  0.41521485  0.59556898  1
  O2-  O242  1  0.46627141  0.40907909  0.93615193  1
  O2-  O243  1  0.45333808  0.91717147  0.26719943  1
  O2-  O244  1  0.44795510  0.91907793  0.60304851  1
  O2-  O245  1  0.46083569  0.91208293  0.93343868  1
  O2-  O246  1  0.95436826  0.41866215  0.27003406  1
  O2-  O247  1  0.96186960  0.42094214  0.60064127  1
  O2-  O248  1  0.94749244  0.41757433  0.94037005  1
  O2-  O249  1  0.95392083  0.91220337  0.27133282  1
  O2-  O250  1  0.95798116  0.90923103  0.60341027  1
  O2-  O251  1  0.94707350  0.91550268  0.93616132  1
  O2-  O252  1  0.33748874  0.29320028  0.26838616  1
  O2-  O253  1  0.33547974  0.28618137  0.59587661  1
  O2-  O254  1  0.33849820  0.29735078  0.93837549  1
  O2-  O255  1  0.33220465  0.79707744  0.26761743  1
  O2-  O256  1  0.33331002  0.79668299  0.59986474  1
  O2-  O257  1  0.34001360  0.79586430  0.93320147  1
  O2-  O258  1  0.83000944  0.30502379  0.27212200  1
  O2-  O259  1  0.82489643  0.30792860  0.60349326  1
  O2-  O260  1  0.83094799  0.29690950  0.93752358  1
  O2-  O261  1  0.84140718  0.78660556  0.26791024  1
  O2-  O262  1  0.83939510  0.78756727  0.60572408  1
  O2-  O263  1  0.83428073  0.78998950  0.93145854  1
  O2-  O264  1  0.42024719  0.04019376  0.06508727  1
  O2-  O265  1  0.41813777  0.04389199  0.40368751  1
  O2-  O266  1  0.41056986  0.04504613  0.72922712  1
  O2-  O267  1  0.42004340  0.53701031  0.06689358  1
  O2-  O268  1  0.42245988  0.53964740  0.39918337  1
  O2-  O269  1  0.41817972  0.54653393  0.72386684  1
  O2-  O270  1  0.91480208  0.03893006  0.06889187  1
  O2-  O271  1  0.91666142  0.03848441  0.40230820  1
  O2-  O272  1  0.91846900  0.03626485  0.73556578  1
  O2-  O273  1  0.91113980  0.54600721  0.06319099  1
  O2-  O274  1  0.91478354  0.54272974  0.40192163  1
  O2-  O275  1  0.91671303  0.54018539  0.73818582  1
  O2-  O276  1  0.30333929  0.17283605  0.06357486  1
  O2-  O277  1  0.29394316  0.17075606  0.40087872  1
  O2-  O278  1  0.29065575  0.16201830  0.72732610  1
  O2-  O279  1  0.30514824  0.67206820  0.06102719  1
  O2-  O280  1  0.30369568  0.67124898  0.40088463  1
  O2-  O281  1  0.29926570  0.66684297  0.72653133  1
  O2-  O282  1  0.78718966  0.16763089  0.06944335  1
  O2-  O283  1  0.79820551  0.17428674  0.39935842  1
  O2-  O284  1  0.79743075  0.17437595  0.73431059  1
  O2-  O285  1  0.79013371  0.66347563  0.06170238  1
  O2-  O286  1  0.78741534  0.66549624  0.39865417  1
  O2-  O287  1  0.78809856  0.66429960  0.73913585  1
