# generated using pymatgen
data_Ca2Al2SiO7
_symmetry_space_group_name_H-M   'P 1'
_cell_length_a   15.46061966
_cell_length_b   15.46027212
_cell_length_c   15.28614478
_cell_angle_alpha   90.01335087
_cell_angle_beta   90.00805223
_cell_angle_gamma   89.98350782
_symmetry_Int_Tables_number   1
_chemical_formula_structural   Ca2Al2SiO7
_chemical_formula_sum   'Ca48 Al48 Si24 O168'
_cell_volume   3653.77638759
_cell_formula_units_Z   24
loop_
 _symmetry_equiv_pos_site_id
 _symmetry_equiv_pos_as_xyz
  1  'x, y, z'
loop_
 _atom_type_symbol
 _atom_type_oxidation_number
  Ca2+  2.0
  Al0+  0.0
  Si0+  0.0
  O2-  -2.0
loop_
 _atom_site_type_symbol
 _atom_site_label
 _atom_site_symmetry_multiplicity
 _atom_site_fract_x
 _atom_site_fract_y
 _atom_site_fract_z
 _atom_site_occupancy
  Ca2+  Ca0  1  0.17590518  0.08593887  0.16622098  1
  Ca2+  Ca1  1  0.16956442  0.08089969  0.50999934  1
  Ca2+  Ca2  1  0.17099041  0.08332797  0.83554957  1
  Ca2+  Ca3  1  0.16924247  0.57012531  0.17022013  1
  Ca2+  Ca4  1  0.16940282  0.57774011  0.50287978  1
  Ca2+  Ca5  1  0.16958919  0.57725921  0.84268965  1
  Ca2+  Ca6  1  0.66180209  0.07497122  0.17171352  1
  Ca2+  Ca7  1  0.66433144  0.07386369  0.50235123  1
  Ca2+  Ca8  1  0.66164613  0.07131641  0.84121592  1
  Ca2+  Ca9  1  0.66528343  0.58543252  0.16412756  1
  Ca2+  Ca10  1  0.66084363  0.58590860  0.50323543  1
  Ca2+  Ca11  1  0.66814576  0.58159462  0.84302364  1
  Ca2+  Ca12  1  0.08049408  0.33754620  0.15891364  1
  Ca2+  Ca13  1  0.08031925  0.32992282  0.49879801  1
  Ca2+  Ca14  1  0.07498299  0.33201677  0.83062430  1
  Ca2+  Ca15  1  0.07308014  0.83134600  0.15841546  1
  Ca2+  Ca16  1  0.07641658  0.84356839  0.50161760  1
  Ca2+  Ca17  1  0.07104428  0.83983734  0.82734471  1
  Ca2+  Ca18  1  0.57917341  0.32193864  0.15541380  1
  Ca2+  Ca19  1  0.57585576  0.32494832  0.48692259  1
  Ca2+  Ca20  1  0.58716535  0.32842451  0.83484533  1
  Ca2+  Ca21  1  0.58854618  0.82797712  0.15738521  1
  Ca2+  Ca22  1  0.59220809  0.82668392  0.49891592  1
  Ca2+  Ca23  1  0.58105981  0.82857138  0.82975477  1
  Ca2+  Ca24  1  0.32605965  0.40279893  0.16948955  1
  Ca2+  Ca25  1  0.33194085  0.41273403  0.50010233  1
  Ca2+  Ca26  1  0.32754791  0.41431854  0.84423972  1
  Ca2+  Ca27  1  0.34446493  0.92353195  0.16313601  1
  Ca2+  Ca28  1  0.32840416  0.91487900  0.51109737  1
  Ca2+  Ca29  1  0.33322604  0.91572544  0.84007537  1
  Ca2+  Ca30  1  0.82796064  0.41760402  0.16158789  1
  Ca2+  Ca31  1  0.83223533  0.41819424  0.50547736  1
  Ca2+  Ca32  1  0.83309041  0.42239090  0.84594197  1
  Ca2+  Ca33  1  0.82170781  0.91945633  0.17096842  1
  Ca2+  Ca34  1  0.82427589  0.92080823  0.50434968  1
  Ca2+  Ca35  1  0.82462647  0.90977789  0.83896017  1
  Ca2+  Ca36  1  0.42484672  0.17119929  0.16021495  1
  Ca2+  Ca37  1  0.42343180  0.17031376  0.49209055  1
  Ca2+  Ca38  1  0.41827675  0.16564973  0.84145878  1
  Ca2+  Ca39  1  0.42933458  0.67405867  0.15852886  1
  Ca2+  Ca40  1  0.42711820  0.67406976  0.49742327  1
  Ca2+  Ca41  1  0.42739897  0.67523499  0.82933444  1
  Ca2+  Ca42  1  0.91580492  0.16948654  0.16018275  1
  Ca2+  Ca43  1  0.91930304  0.16479773  0.49929760  1
  Ca2+  Ca44  1  0.91791302  0.18098446  0.82645712  1
  Ca2+  Ca45  1  0.91444691  0.67031248  0.15693128  1
  Ca2+  Ca46  1  0.91450699  0.67557131  0.50114323  1
  Ca2+  Ca47  1  0.90940895  0.67618155  0.83449139  1
  Al0+  Al48  1  0.00104379  -0.00062024  -0.00384923  1
  Al0+  Al49  1  -0.00094323  0.00148362  0.33415629  1
  Al0+  Al50  1  0.00081193  0.00209895  0.66355409  1
  Al0+  Al51  1  0.00079492  0.50008416  0.00476510  1
  Al0+  Al52  1  0.00117549  0.49987966  0.33972128  1
  Al0+  Al53  1  -0.00067176  0.50026274  0.66365122  1
  Al0+  Al54  1  0.49899554  0.00038463  0.00177407  1
  Al0+  Al55  1  0.49895695  -0.00080533  0.33774495  1
  Al0+  Al56  1  0.49876164  0.00091561  0.66797591  1
  Al0+  Al57  1  0.49922686  0.49919082  -0.00239732  1
  Al0+  Al58  1  0.49719660  0.50300723  0.32612486  1
  Al0+  Al59  1  0.49974634  0.50069905  0.66402528  1
  Al0+  Al60  1  0.25107666  0.24748128  0.00475154  1
  Al0+  Al61  1  0.24673760  0.24834249  0.33725487  1
  Al0+  Al62  1  0.24941688  0.25012098  0.66452852  1
  Al0+  Al63  1  0.24897274  0.74843475  -0.00006987  1
  Al0+  Al64  1  0.24911428  0.74782338  0.33295399  1
  Al0+  Al65  1  0.25030456  0.74920868  0.66938802  1
  Al0+  Al66  1  0.75138560  0.25005644  -0.00568758  1
  Al0+  Al67  1  0.75218094  0.25087524  0.33390097  1
  Al0+  Al68  1  0.74916537  0.25072858  0.66138953  1
  Al0+  Al69  1  0.75167931  0.74979242  0.00092717  1
  Al0+  Al70  1  0.75090280  0.75017669  0.33375064  1
  Al0+  Al71  1  0.75165000  0.74938939  0.66234726  1
  Al0+  Al72  1  0.92996006  0.82129075  0.98760363  1
  Al0+  Al73  1  0.57213223  0.68135507  0.31693411  1
  Al0+  Al74  1  0.42676201  0.31993721  0.31860114  1
  Al0+  Al75  1  0.18116867  0.42944322  0.01277561  1
  Al0+  Al76  1  0.67845108  0.92849766  0.34996905  1
  Al0+  Al77  1  0.93050678  0.32119582  0.98847171  1
  Al0+  Al78  1  0.67671049  0.42652371  0.01415504  1
  Al0+  Al79  1  0.07128017  0.18101381  0.65115185  1
  Al0+  Al80  1  0.57121881  0.67948535  0.65071320  1
  Al0+  Al81  1  0.92991426  0.82108812  0.65182657  1
  Al0+  Al82  1  0.42814885  0.82208803  0.98566621  1
  Al0+  Al83  1  0.92751731  0.32312585  0.64942500  1
  Al0+  Al84  1  0.57308571  0.17777514  0.31868469  1
  Al0+  Al85  1  0.82280538  0.07353921  0.34879507  1
  Al0+  Al86  1  0.42739555  0.32039535  0.98487911  1
  Al0+  Al87  1  0.17843955  0.92887386  0.68108352  1
  Al0+  Al88  1  0.81997592  0.57085117  0.01489141  1
  Al0+  Al89  1  0.57257582  0.17820106  0.98395753  1
  Al0+  Al90  1  0.42787362  0.82275097  0.65171871  1
  Al0+  Al91  1  0.68030918  0.92924129  0.68253495  1
  Al0+  Al92  1  0.57281825  0.67889732  0.98452099  1
  Al0+  Al93  1  0.17952233  0.42839908  0.35071605  1
  Al0+  Al94  1  0.31960572  0.06840526  0.01459201  1
  Al0+  Al95  1  0.68030127  0.93025033  0.01230626  1
  Si0+  Si96  1  0.32216362  0.56996168  0.68237779  1
  Si0+  Si97  1  0.07113888  0.67711839  0.31892616  1
  Si0+  Si98  1  0.17964134  0.42938713  0.68222026  1
  Si0+  Si99  1  0.07161821  0.67717570  0.98482479  1
  Si0+  Si100  1  0.67745704  0.43051356  0.34646257  1
  Si0+  Si101  1  0.17799033  0.92734723  0.34674597  1
  Si0+  Si102  1  0.82159237  0.07390173  0.68435945  1
  Si0+  Si103  1  0.31912559  0.06921168  0.34990362  1
  Si0+  Si104  1  0.93003988  0.32407215  0.31735479  1
  Si0+  Si105  1  0.06920833  0.17845397  0.31706952  1
  Si0+  Si106  1  0.82450706  0.07295016  0.01282244  1
  Si0+  Si107  1  0.07339573  0.67693001  0.65024595  1
  Si0+  Si108  1  0.17562635  0.92590256  0.01739315  1
  Si0+  Si109  1  0.32298832  0.57379921  0.01752916  1
  Si0+  Si110  1  0.93136439  0.82058495  0.31838341  1
  Si0+  Si111  1  0.32199969  0.57345842  0.35193439  1
  Si0+  Si112  1  0.42406140  0.82159653  0.31736577  1
  Si0+  Si113  1  0.42908594  0.32168004  0.65220807  1
  Si0+  Si114  1  0.32194442  0.07417019  0.68455717  1
  Si0+  Si115  1  0.82134700  0.57064634  0.35026976  1
  Si0+  Si116  1  0.82125676  0.56954527  0.68044355  1
  Si0+  Si117  1  0.57077635  0.17859600  0.65120810  1
  Si0+  Si118  1  0.07339988  0.17737803  0.98438029  1
  Si0+  Si119  1  0.67734515  0.42842189  0.67879489  1
  O2-  O120  1  0.24673076  -0.00869398  0.06249846  1
  O2-  O121  1  0.25200224  -0.00605456  0.39044878  1
  O2-  O122  1  0.25535431  0.00188371  0.72625187  1
  O2-  O123  1  0.25831218  0.50074826  0.06149468  1
  O2-  O124  1  0.25689432  0.50084453  0.39690023  1
  O2-  O125  1  0.24990716  0.50006056  0.72488945  1
  O2-  O126  1  0.75439777  0.00660434  0.05786295  1
  O2-  O127  1  0.74752786  0.00471437  0.39861837  1
  O2-  O128  1  0.75456636  0.00471800  0.72959439  1
  O2-  O129  1  0.74636094  0.50065121  0.06548221  1
  O2-  O130  1  0.74774376  0.50157974  0.39154521  1
  O2-  O131  1  0.75100140  0.49697357  0.72013358  1
  O2-  O132  1  -0.00177165  0.24973894  0.27596894  1
  O2-  O133  1  -0.00178921  0.25054481  0.59845684  1
  O2-  O134  1  0.00287837  0.24456527  0.94166172  1
  O2-  O135  1  0.00163794  0.74877838  0.27630931  1
  O2-  O136  1  0.00833408  0.74902588  0.60520115  1
  O2-  O137  1  0.00647440  0.74846732  0.94039259  1
  O2-  O138  1  0.50302160  0.25231442  0.26981735  1
  O2-  O139  1  0.50012628  0.25093732  0.61011143  1
  O2-  O140  1  0.50357371  0.25379540  0.93346580  1
  O2-  O141  1  0.49826544  0.75872279  0.27435631  1
  O2-  O142  1  0.50263357  0.75480429  0.60014473  1
  O2-  O143  1  0.50022598  0.75073733  0.93564885  1
  O2-  O144  1  0.07232703  0.17645070  0.09051623  1
  O2-  O145  1  0.07029430  0.17800237  0.42191429  1
  O2-  O146  1  0.07337160  0.18543783  0.76450367  1
  O2-  O147  1  0.07070575  0.67787038  0.09097690  1
  O2-  O148  1  0.07072165  0.67725560  0.42407757  1
  O2-  O149  1  0.07140839  0.67258106  0.75537207  1
  O2-  O150  1  0.57095986  0.17665107  0.09736473  1
  O2-  O151  1  0.56902770  0.17970349  0.43332389  1
  O2-  O152  1  0.57217190  0.17945673  0.75574775  1
  O2-  O153  1  0.57212041  0.68262327  0.09838648  1
  O2-  O154  1  0.57119026  0.68046383  0.43007878  1
  O2-  O155  1  0.56987392  0.67525943  0.76322057  1
  O2-  O156  1  0.17686275  0.43043233  0.23797597  1
  O2-  O157  1  0.18148019  0.43010143  0.57691175  1
  O2-  O158  1  0.18028137  0.43185472  0.89914365  1
  O2-  O159  1  0.17533261  0.92885980  0.24195261  1
  O2-  O160  1  0.18038987  0.93122381  0.56695764  1
  O2-  O161  1  0.17306108  0.92808887  0.91216966  1
  O2-  O162  1  0.68063063  0.42971935  0.24218945  1
  O2-  O163  1  0.67627556  0.42973661  0.57312509  1
  O2-  O164  1  0.68149345  0.42666449  0.89991931  1
  O2-  O165  1  0.68158861  0.92654969  0.23655184  1
  O2-  O166  1  0.68198745  0.93079190  0.56940027  1
  O2-  O167  1  0.68173823  0.92944138  0.89909579  1
  O2-  O168  1  0.42463446  0.31422596  0.09798648  1
  O2-  O169  1  0.42831601  0.31720072  0.43344182  1
  O2-  O170  1  0.42771966  0.32316575  0.75656926  1
  O2-  O171  1  0.42887156  0.82025654  0.09978071  1
  O2-  O172  1  0.41720963  0.81783422  0.42258906  1
  O2-  O173  1  0.42703503  0.81944470  0.76457359  1
  O2-  O174  1  0.93291085  0.32037224  0.10200180  1
  O2-  O175  1  0.93234023  0.32665504  0.42236778  1
  O2-  O176  1  0.92996234  0.32561312  0.76270042  1
  O2-  O177  1  0.93255113  0.82092775  0.10128827  1
  O2-  O178  1  0.93342127  0.81977932  0.42364747  1
  O2-  O179  1  0.92908323  0.81747038  0.76451183  1
  O2-  O180  1  0.31737824  0.07049493  0.24508490  1
  O2-  O181  1  0.32030779  0.07703574  0.57846182  1
  O2-  O182  1  0.31525884  0.07002902  0.90168813  1
  O2-  O183  1  0.31731797  0.57887604  0.24720255  1
  O2-  O184  1  0.32180880  0.56739647  0.57705266  1
  O2-  O185  1  0.31760148  0.57528822  0.91162509  1
  O2-  O186  1  0.82974280  0.06851722  0.23548507  1
  O2-  O187  1  0.81889092  0.07366358  0.57862686  1
  O2-  O188  1  0.82631601  0.07118550  0.90734087  1
  O2-  O189  1  0.82540063  0.57066845  0.24595119  1
  O2-  O190  1  0.82219514  0.56903311  0.57471239  1
  O2-  O191  1  0.82245309  0.56960089  0.90100357  1
  O2-  O192  1  0.04272083  0.08669102  0.26863663  1
  O2-  O193  1  0.04579047  0.08258654  0.59686673  1
  O2-  O194  1  0.05143135  0.08352750  0.93761684  1
  O2-  O195  1  0.04101839  0.58547988  0.27279632  1
  O2-  O196  1  0.04353451  0.58575253  0.60055350  1
  O2-  O197  1  0.04378391  0.58487562  0.93820776  1
  O2-  O198  1  0.54160752  0.07858147  0.26974072  1
  O2-  O199  1  0.54055005  0.08814369  0.60310673  1
  O2-  O200  1  0.53683907  0.08238018  0.93093948  1
  O2-  O201  1  0.54049805  0.58573974  0.26231717  1
  O2-  O202  1  0.53835392  0.58181006  0.59609438  1
  O2-  O203  1  0.54685468  0.57947162  0.93318094  1
  O2-  O204  1  0.16085024  0.20715955  0.27049732  1
  O2-  O205  1  0.16900126  0.21149185  0.59567287  1
  O2-  O206  1  0.16543276  0.20587108  0.93870020  1
  O2-  O207  1  0.16281882  0.70317000  0.27067003  1
  O2-  O208  1  0.16816630  0.69800925  0.60510195  1
  O2-  O209  1  0.16585516  0.69819645  0.93872153  1
  O2-  O210  1  0.67345445  0.20296127  0.26894386  1
  O2-  O211  1  0.66176211  0.20538005  0.60185740  1
  O2-  O212  1  0.67098611  0.20268317  0.92913673  1
  O2-  O213  1  0.67081627  0.70911417  0.26559172  1
  O2-  O214  1  0.67018246  0.70467271  0.59710405  1
  O2-  O215  1  0.67135074  0.70688741  0.93304566  1
  O2-  O216  1  0.08723287  0.46352281  0.07003872  1
  O2-  O217  1  0.08503601  0.46388224  0.40711873  1
  O2-  O218  1  0.08672613  0.45773184  0.72681653  1
  O2-  O219  1  0.08337513  0.95583173  0.06531056  1
  O2-  O220  1  0.08797724  0.95940267  0.39524803  1
  O2-  O221  1  0.08172856  0.96174241  0.73380615  1
  O2-  O222  1  0.57637516  0.44963050  0.06523167  1
  O2-  O223  1  0.58410331  0.45813097  0.39186817  1
  O2-  O224  1  0.58609561  0.45716502  0.72641317  1
  O2-  O225  1  0.58385383  0.95909469  0.06665816  1
  O2-  O226  1  0.57821200  0.95160945  0.40303283  1
  O2-  O227  1  0.58223939  0.96041631  0.73331339  1
  O2-  O228  1  0.20818322  0.33247018  0.06788226  1
  O2-  O229  1  0.20754176  0.33105177  0.40533785  1
  O2-  O230  1  0.20814392  0.33752594  0.72821946  1
  O2-  O231  1  0.19596961  0.83036438  0.06210394  1
  O2-  O232  1  0.20084977  0.83362772  0.39330676  1
  O2-  O233  1  0.20341044  0.83021909  0.73397904  1
  O2-  O234  1  0.71043904  0.32872452  0.06630730  1
  O2-  O235  1  0.70573139  0.33920492  0.39557130  1
  O2-  O236  1  0.70206028  0.33499847  0.72422158  1
  O2-  O237  1  0.71485971  0.83561561  0.06691456  1
  O2-  O238  1  0.71447099  0.83163071  0.40298537  1
  O2-  O239  1  0.71350958  0.83117129  0.73189866  1
  O2-  O240  1  0.44432584  0.42151962  0.26973774  1
  O2-  O241  1  0.45651098  0.41254871  0.60265566  1
  O2-  O242  1  0.44566337  0.42143899  0.93415309  1
  O2-  O243  1  0.44468670  0.91819010  0.27689696  1
  O2-  O244  1  0.44903465  0.92413525  0.60144923  1
  O2-  O245  1  0.45303710  0.92096897  0.93436474  1
  O2-  O246  1  0.96296551  0.41505151  0.27163819  1
  O2-  O247  1  0.95797688  0.42081526  0.59525021  1
  O2-  O248  1  0.96474558  0.41718056  0.93541977  1
  O2-  O249  1  0.96145176  0.91170517  0.27163444  1
  O2-  O250  1  0.95955214  0.91768717  0.59750330  1
  O2-  O251  1  0.95991276  0.91693253  0.93107646  1
  O2-  O252  1  0.32813773  0.28620108  0.26985893  1
  O2-  O253  1  0.33752150  0.29367606  0.60405356  1
  O2-  O254  1  0.33020398  0.28528829  0.93180971  1
  O2-  O255  1  0.33215428  0.79238894  0.26869497  1
  O2-  O256  1  0.32948221  0.79025015  0.59941219  1
  O2-  O257  1  0.32774198  0.79473040  0.93525966  1
  O2-  O258  1  0.83702916  0.30054575  0.27151203  1
  O2-  O259  1  0.82851107  0.29674216  0.59576673  1
  O2-  O260  1  0.83560641  0.29369914  0.93061688  1
  O2-  O261  1  0.84017801  0.79139769  0.27229269  1
  O2-  O262  1  0.83715302  0.78504933  0.59422119  1
  O2-  O263  1  0.83605522  0.78710239  0.93235105  1
  O2-  O264  1  0.41509173  0.03908564  0.07130637  1
  O2-  O265  1  0.41122862  0.04637704  0.39909505  1
  O2-  O266  1  0.41611112  0.05261822  0.73003790  1
  O2-  O267  1  0.41810559  0.55356112  0.06085720  1
  O2-  O268  1  0.41693268  0.55047985  0.39679303  1
  O2-  O269  1  0.41305575  0.53942415  0.72963318  1
  O2-  O270  1  0.91836926  0.04673496  0.05946057  1
  O2-  O271  1  0.92000919  0.04008598  0.40396691  1
  O2-  O272  1  0.91714906  0.05180062  0.72653333  1
  O2-  O273  1  0.91762867  0.54139340  0.07012350  1
  O2-  O274  1  0.91156869  0.54080176  0.40056467  1
  O2-  O275  1  0.91372906  0.54329721  0.72749237  1
  O2-  O276  1  0.28522229  0.16190776  0.07258849  1
  O2-  O277  1  0.28569626  0.15825213  0.39969056  1
  O2-  O278  1  0.29161304  0.16671147  0.73092184  1
  O2-  O279  1  0.29226547  0.66505171  0.06662221  1
  O2-  O280  1  0.28955865  0.66446490  0.40128739  1
  O2-  O281  1  0.29502947  0.66101384  0.73067760  1
  O2-  O282  1  0.80237498  0.16749386  0.05772664  1
  O2-  O283  1  0.80226180  0.17469752  0.40089160  1
  O2-  O284  1  0.79507931  0.16901974  0.72768234  1
  O2-  O285  1  0.79388539  0.66878191  0.06988547  1
  O2-  O286  1  0.79520759  0.66295713  0.39779222  1
  O2-  O287  1  0.79331417  0.66124597  0.72663648  1
