# generated using pymatgen
data_Ca2Al2SiO7
_symmetry_space_group_name_H-M   'P 1'
_cell_length_a   15.45356069
_cell_length_b   15.45370802
_cell_length_c   15.28005994
_cell_angle_alpha   89.98703466
_cell_angle_beta   90.00545073
_cell_angle_gamma   90.00320201
_symmetry_Int_Tables_number   1
_chemical_formula_structural   Ca2Al2SiO7
_chemical_formula_sum   'Ca48 Al48 Si24 O168'
_cell_volume   3649.10456889
_cell_formula_units_Z   24
loop_
 _symmetry_equiv_pos_site_id
 _symmetry_equiv_pos_as_xyz
  1  'x, y, z'
loop_
 _atom_type_symbol
 _atom_type_oxidation_number
  Ca2+  2.0
  Al0+  0.0
  Si0+  0.0
  O2-  -2.0
loop_
 _atom_site_type_symbol
 _atom_site_label
 _atom_site_symmetry_multiplicity
 _atom_site_fract_x
 _atom_site_fract_y
 _atom_site_fract_z
 _atom_site_occupancy
  Ca2+  Ca0  1  0.17573915  0.09054052  0.16801276  1
  Ca2+  Ca1  1  0.17644814  0.08315625  0.51173929  1
  Ca2+  Ca2  1  0.17389655  0.09074452  0.83778810  1
  Ca2+  Ca3  1  0.16736009  0.58681069  0.17355115  1
  Ca2+  Ca4  1  0.17128810  0.58017361  0.50476390  1
  Ca2+  Ca5  1  0.16242221  0.57761876  0.83707743  1
  Ca2+  Ca6  1  0.66790579  0.07540940  0.16525103  1
  Ca2+  Ca7  1  0.66065969  0.07193479  0.50644580  1
  Ca2+  Ca8  1  0.66495979  0.07605676  0.84516334  1
  Ca2+  Ca9  1  0.66996908  0.57958163  0.16871236  1
  Ca2+  Ca10  1  0.67880763  0.58748955  0.50752422  1
  Ca2+  Ca11  1  0.66817112  0.58225904  0.83935013  1
  Ca2+  Ca12  1  0.07314497  0.32864766  0.15649939  1
  Ca2+  Ca13  1  0.09071934  0.33062265  0.50244136  1
  Ca2+  Ca14  1  0.08107170  0.32424038  0.83126194  1
  Ca2+  Ca15  1  0.07866718  0.82053911  0.15628968  1
  Ca2+  Ca16  1  0.08453753  0.82957514  0.49439724  1
  Ca2+  Ca17  1  0.07799625  0.83584746  0.83106683  1
  Ca2+  Ca18  1  0.57757720  0.33105649  0.15690060  1
  Ca2+  Ca19  1  0.57660491  0.32356561  0.49509316  1
  Ca2+  Ca20  1  0.59088600  0.31890570  0.83154891  1
  Ca2+  Ca21  1  0.58883197  0.83093018  0.16089167  1
  Ca2+  Ca22  1  0.58862850  0.83281742  0.50066202  1
  Ca2+  Ca23  1  0.59371243  0.82705557  0.82855875  1
  Ca2+  Ca24  1  0.33373141  0.42316014  0.17458294  1
  Ca2+  Ca25  1  0.33257957  0.41872088  0.50100725  1
  Ca2+  Ca26  1  0.32567961  0.41227418  0.83431731  1
  Ca2+  Ca27  1  0.33612323  0.93058276  0.16979344  1
  Ca2+  Ca28  1  0.32674679  0.92705969  0.50774548  1
  Ca2+  Ca29  1  0.32840871  0.92743462  0.83497312  1
  Ca2+  Ca30  1  0.82756538  0.41523574  0.16634676  1
  Ca2+  Ca31  1  0.83809498  0.43113400  0.50415539  1
  Ca2+  Ca32  1  0.83094576  0.42075995  0.84081477  1
  Ca2+  Ca33  1  0.82678345  0.91293603  0.16274150  1
  Ca2+  Ca34  1  0.82137675  0.91367275  0.50474050  1
  Ca2+  Ca35  1  0.82501665  0.92056254  0.84197638  1
  Ca2+  Ca36  1  0.41728826  0.16840954  0.16247567  1
  Ca2+  Ca37  1  0.41452681  0.16574026  0.49797857  1
  Ca2+  Ca38  1  0.42494495  0.15669741  0.83018317  1
  Ca2+  Ca39  1  0.42042552  0.66947459  0.15848622  1
  Ca2+  Ca40  1  0.42166761  0.66576420  0.49487550  1
  Ca2+  Ca41  1  0.43146569  0.66885600  0.82888492  1
  Ca2+  Ca42  1  0.92070442  0.16952005  0.15098555  1
  Ca2+  Ca43  1  0.92587718  0.16491016  0.49963333  1
  Ca2+  Ca44  1  0.91976983  0.16703985  0.83141460  1
  Ca2+  Ca45  1  0.92309430  0.66817514  0.16088689  1
  Ca2+  Ca46  1  0.91957580  0.66327727  0.49366826  1
  Ca2+  Ca47  1  0.91402746  0.67259246  0.83319656  1
  Al0+  Al48  1  0.00125148  -0.00182658  -0.00303947  1
  Al0+  Al49  1  -0.00156105  -0.00094285  0.33056742  1
  Al0+  Al50  1  -0.00142919  -0.00021635  0.66115758  1
  Al0+  Al51  1  -0.00001841  0.49916191  -0.00572142  1
  Al0+  Al52  1  -0.00032518  0.49841885  0.33238785  1
  Al0+  Al53  1  0.00044845  0.50184048  0.67547970  1
  Al0+  Al54  1  0.49719907  0.00025462  0.00627358  1
  Al0+  Al55  1  0.49993639  -0.00116746  0.34151732  1
  Al0+  Al56  1  0.49908450  -0.00234610  0.66926308  1
  Al0+  Al57  1  0.49896839  0.50102747  -0.00106570  1
  Al0+  Al58  1  0.49942851  0.49796175  0.33413166  1
  Al0+  Al59  1  0.50234135  0.50026057  0.66039140  1
  Al0+  Al60  1  0.24877460  0.25272281  0.00362625  1
  Al0+  Al61  1  0.25162308  0.25106485  0.33236347  1
  Al0+  Al62  1  0.25016691  0.25230548  0.67054282  1
  Al0+  Al63  1  0.25107277  0.75000009  -0.00548200  1
  Al0+  Al64  1  0.25194633  0.74993554  0.33274261  1
  Al0+  Al65  1  0.25105071  0.75099426  0.67044344  1
  Al0+  Al66  1  0.74812137  0.25080801  0.00120610  1
  Al0+  Al67  1  0.75036094  0.24735790  0.33465519  1
  Al0+  Al68  1  0.75004133  0.25189681  0.65549839  1
  Al0+  Al69  1  0.75122616  0.74852013  -0.00262791  1
  Al0+  Al70  1  0.75059129  0.74939464  0.34009546  1
  Al0+  Al71  1  0.75161059  0.75002522  0.66948238  1
  Al0+  Al72  1  0.82284888  0.07147936  0.01297698  1
  Al0+  Al73  1  0.07326357  0.67829213  0.98227620  1
  Al0+  Al74  1  0.68044034  0.93138568  0.68174048  1
  Al0+  Al75  1  0.07081761  0.18022191  0.65226101  1
  Al0+  Al76  1  0.92574529  0.32022065  0.98435031  1
  Al0+  Al77  1  0.56772418  0.17908246  0.98960530  1
  Al0+  Al78  1  0.32227640  0.57275431  0.34594867  1
  Al0+  Al79  1  0.31848626  0.07201417  0.34861115  1
  Al0+  Al80  1  0.81977468  0.56760155  0.34525160  1
  Al0+  Al81  1  0.57099482  0.17638345  0.65247607  1
  Al0+  Al82  1  0.17527528  0.92747308  0.68149950  1
  Al0+  Al83  1  0.67731678  0.42894393  0.01241195  1
  Al0+  Al84  1  0.07161191  0.67919532  0.32199875  1
  Al0+  Al85  1  0.07270615  0.17878585  0.98593097  1
  Al0+  Al86  1  0.57011970  0.67946123  0.98846987  1
  Al0+  Al87  1  0.68135755  0.93017156  0.34868913  1
  Al0+  Al88  1  0.31948410  0.07147797  0.68324660  1
  Al0+  Al89  1  0.67874018  0.92689278  0.01531780  1
  Al0+  Al90  1  0.31865745  0.07181846  0.01605269  1
  Al0+  Al91  1  0.92878863  0.82061534  0.98387134  1
  Al0+  Al92  1  0.57239224  0.67966256  0.65056121  1
  Al0+  Al93  1  0.82035540  0.57061079  0.68305270  1
  Al0+  Al94  1  0.18102310  0.43138020  0.68145028  1
  Al0+  Al95  1  0.43014083  0.32022726  0.31855666  1
  Si0+  Si96  1  0.42987144  0.82133802  0.31918681  1
  Si0+  Si97  1  0.32570700  0.57304284  0.68373738  1
  Si0+  Si98  1  0.17803057  0.42946245  0.34857804  1
  Si0+  Si99  1  0.17802393  0.92533183  0.01753141  1
  Si0+  Si100  1  0.67636198  0.42500621  0.35108524  1
  Si0+  Si101  1  0.07091725  0.17883133  0.31908462  1
  Si0+  Si102  1  0.92853053  0.32079583  0.31911131  1
  Si0+  Si103  1  0.07180133  0.67837431  0.65163487  1
  Si0+  Si104  1  0.82494905  0.07438088  0.35163574  1
  Si0+  Si105  1  0.57228464  0.67967888  0.31958440  1
  Si0+  Si106  1  0.42799838  0.82382252  0.98304917  1
  Si0+  Si107  1  0.32058324  0.57146000  0.01349786  1
  Si0+  Si108  1  0.82164257  0.07507140  0.67987082  1
  Si0+  Si109  1  0.57168769  0.17515909  0.31603299  1
  Si0+  Si110  1  0.92900305  0.32520549  0.64783888  1
  Si0+  Si111  1  0.42723010  0.32385754  0.98314217  1
  Si0+  Si112  1  0.82248862  0.57068440  0.01728119  1
  Si0+  Si113  1  0.17816692  0.43108291  0.01698724  1
  Si0+  Si114  1  0.92945350  0.82015989  0.64935525  1
  Si0+  Si115  1  0.17680509  0.92797039  0.34698979  1
  Si0+  Si116  1  0.42712558  0.82031876  0.64839460  1
  Si0+  Si117  1  0.42762133  0.32204832  0.64998537  1
  Si0+  Si118  1  0.67738447  0.42708246  0.68086064  1
  Si0+  Si119  1  0.92595904  0.82129802  0.31680259  1
  O2-  O120  1  0.24264047  -0.00242306  0.06285556  1
  O2-  O121  1  0.24011909  0.00024711  0.39307696  1
  O2-  O122  1  0.24330124  0.00280151  0.73183021  1
  O2-  O123  1  0.24714309  0.50431463  0.05827190  1
  O2-  O124  1  0.24565523  0.49981069  0.39212325  1
  O2-  O125  1  0.25645399  0.50568682  0.72860731  1
  O2-  O126  1  0.75132633  -0.00079796  0.06443117  1
  O2-  O127  1  0.75554304  0.00615855  0.39479156  1
  O2-  O128  1  0.74918077  0.01220727  0.72558017  1
  O2-  O129  1  0.75296961  0.50229440  0.06071032  1
  O2-  O130  1  0.74554669  0.49346414  0.39470717  1
  O2-  O131  1  0.74541521  0.49499493  0.72651658  1
  O2-  O132  1  -0.00458292  0.24544775  0.27764847  1
  O2-  O133  1  -0.00372015  0.25482619  0.60324650  1
  O2-  O134  1  -0.00439677  0.24536827  0.93590792  1
  O2-  O135  1  -0.00146759  0.75530419  0.27499407  1
  O2-  O136  1  0.00437030  0.75197901  0.60790562  1
  O2-  O137  1  0.00225601  0.75061465  0.93217759  1
  O2-  O138  1  0.50631032  0.24715045  0.27209332  1
  O2-  O139  1  0.49559770  0.25164896  0.60688765  1
  O2-  O140  1  0.49398096  0.25365342  0.93984994  1
  O2-  O141  1  0.50000864  0.74909933  0.27681291  1
  O2-  O142  1  0.49515355  0.75114567  0.60263019  1
  O2-  O143  1  0.50062788  0.75836926  0.94045772  1
  O2-  O144  1  0.07431398  0.18490737  0.10047408  1
  O2-  O145  1  0.07122663  0.18049687  0.42432025  1
  O2-  O146  1  0.06993378  0.18198569  0.76448737  1
  O2-  O147  1  0.07337673  0.67801096  0.09661707  1
  O2-  O148  1  0.07065342  0.67948537  0.43550500  1
  O2-  O149  1  0.06985718  0.67777038  0.75611168  1
  O2-  O150  1  0.56560484  0.18035125  0.10291981  1
  O2-  O151  1  0.57008513  0.17610506  0.42186774  1
  O2-  O152  1  0.57229013  0.17740011  0.76544796  1
  O2-  O153  1  0.56683305  0.67786209  0.10235042  1
  O2-  O154  1  0.57228214  0.68193154  0.42467060  1
  O2-  O155  1  0.57120760  0.67985716  0.76355959  1
  O2-  O156  1  0.17747417  0.42992065  0.24300121  1
  O2-  O157  1  0.18162250  0.43355768  0.56772056  1
  O2-  O158  1  0.18056798  0.42970494  0.91202971  1
  O2-  O159  1  0.17861755  0.92780377  0.24164782  1
  O2-  O160  1  0.17809009  0.92685753  0.56698427  1
  O2-  O161  1  0.18193903  0.92334858  0.91237787  1
  O2-  O162  1  0.67654051  0.42587928  0.24543573  1
  O2-  O163  1  0.67892974  0.42851685  0.57492020  1
  O2-  O164  1  0.67658704  0.43109971  0.89939546  1
  O2-  O165  1  0.68169143  0.92817303  0.23608320  1
  O2-  O166  1  0.68304379  0.93006572  0.56815513  1
  O2-  O167  1  0.67925591  0.92802932  0.90200689  1
  O2-  O168  1  0.42814160  0.32561489  0.08911922  1
  O2-  O169  1  0.42975990  0.31957547  0.43167060  1
  O2-  O170  1  0.42835345  0.32488193  0.75529771  1
  O2-  O171  1  0.42513753  0.82050751  0.08934016  1
  O2-  O172  1  0.42905920  0.82047282  0.42409297  1
  O2-  O173  1  0.42696192  0.81841161  0.75376125  1
  O2-  O174  1  0.92966587  0.32225050  0.09901301  1
  O2-  O175  1  0.93097112  0.32312243  0.42414840  1
  O2-  O176  1  0.92741435  0.32462886  0.75283668  1
  O2-  O177  1  0.92908633  0.81575012  0.09819040  1
  O2-  O178  1  0.92587783  0.82080194  0.42273685  1
  O2-  O179  1  0.92792255  0.81930703  0.75380121  1
  O2-  O180  1  0.31816672  0.07166762  0.23557572  1
  O2-  O181  1  0.31816093  0.07016077  0.56909246  1
  O2-  O182  1  0.31965534  0.07100937  0.90357367  1
  O2-  O183  1  0.32216350  0.57210612  0.23264893  1
  O2-  O184  1  0.32393795  0.57241926  0.57773074  1
  O2-  O185  1  0.32197582  0.56820225  0.90862172  1
  O2-  O186  1  0.82670590  0.07707496  0.24664377  1
  O2-  O187  1  0.82252423  0.07086195  0.57376819  1
  O2-  O188  1  0.81969776  0.07200322  0.89925428  1
  O2-  O189  1  0.81862741  0.56724861  0.23254543  1
  O2-  O190  1  0.82208485  0.56991709  0.56918537  1
  O2-  O191  1  0.82085541  0.57024635  0.91169279  1
  O2-  O192  1  0.04826699  0.08503568  0.27266154  1
  O2-  O193  1  0.04024397  0.08420803  0.59507467  1
  O2-  O194  1  0.05507723  0.07762082  0.93660392  1
  O2-  O195  1  0.04042128  0.58240759  0.26801213  1
  O2-  O196  1  0.04054822  0.58693190  0.60519159  1
  O2-  O197  1  0.04487439  0.58012319  0.93028658  1
  O2-  O198  1  0.54200215  0.08182521  0.27263405  1
  O2-  O199  1  0.53852335  0.07970209  0.59911727  1
  O2-  O200  1  0.53610628  0.08205128  0.93708086  1
  O2-  O201  1  0.54670724  0.58617100  0.27498693  1
  O2-  O202  1  0.54526895  0.58241927  0.59470330  1
  O2-  O203  1  0.53415598  0.58553189  0.93197619  1
  O2-  O204  1  0.16117331  0.21068086  0.27178079  1
  O2-  O205  1  0.16744994  0.21487359  0.59924977  1
  O2-  O206  1  0.16852403  0.21637399  0.93327864  1
  O2-  O207  1  0.16893021  0.70809219  0.26746773  1
  O2-  O208  1  0.16633596  0.70236107  0.60667020  1
  O2-  O209  1  0.17251882  0.70334978  0.92914408  1
  O2-  O210  1  0.66819396  0.19638825  0.27357320  1
  O2-  O211  1  0.66612675  0.20702976  0.59326942  1
  O2-  O212  1  0.66360767  0.20982155  0.93548313  1
  O2-  O213  1  0.66389358  0.70957270  0.27319840  1
  O2-  O214  1  0.66878608  0.71449819  0.59790468  1
  O2-  O215  1  0.66752183  0.70391815  0.93458977  1
  O2-  O216  1  0.08517059  0.45740553  0.06307355  1
  O2-  O217  1  0.08471653  0.45288458  0.39595771  1
  O2-  O218  1  0.08627215  0.46227717  0.73780541  1
  O2-  O219  1  0.08255256  0.94441460  0.06167432  1
  O2-  O220  1  0.08038891  0.94723842  0.39085505  1
  O2-  O221  1  0.07401276  0.95112019  0.72914880  1
  O2-  O222  1  0.58113793  0.46229445  0.06757967  1
  O2-  O223  1  0.58318009  0.45029545  0.39726913  1
  O2-  O224  1  0.58312001  0.45151933  0.72524470  1
  O2-  O225  1  0.58027029  0.95424471  0.06897659  1
  O2-  O226  1  0.58522672  0.95913644  0.40496306  1
  O2-  O227  1  0.58153146  0.95308237  0.73326824  1
  O2-  O228  1  0.20752135  0.34138695  0.06749392  1
  O2-  O229  1  0.20735742  0.33720980  0.39528980  1
  O2-  O230  1  0.21219188  0.33656039  0.73774662  1
  O2-  O231  1  0.20856747  0.83214769  0.06361937  1
  O2-  O232  1  0.20689675  0.83616298  0.39436046  1
  O2-  O233  1  0.20553280  0.83003745  0.73574829  1
  O2-  O234  1  0.70637316  0.33389126  0.07013512  1
  O2-  O235  1  0.70113560  0.33039476  0.39611144  1
  O2-  O236  1  0.70365328  0.33209078  0.72376555  1
  O2-  O237  1  0.70918651  0.82798197  0.06770022  1
  O2-  O238  1  0.71330686  0.83461611  0.40495719  1
  O2-  O239  1  0.71706952  0.83659909  0.73411652  1
  O2-  O240  1  0.45912449  0.41791010  0.26401819  1
  O2-  O241  1  0.45392903  0.41478863  0.60089045  1
  O2-  O242  1  0.45216376  0.41671244  0.93591393  1
  O2-  O243  1  0.46008259  0.91308159  0.27283242  1
  O2-  O244  1  0.45413566  0.91332611  0.60216655  1
  O2-  O245  1  0.44948289  0.91853875  0.93961784  1
  O2-  O246  1  0.95952069  0.41003352  0.26881423  1
  O2-  O247  1  0.96073777  0.41863439  0.60390752  1
  O2-  O248  1  0.95731710  0.41684614  0.93055206  1
  O2-  O249  1  0.94639315  0.91651586  0.27104851  1
  O2-  O250  1  0.95198257  0.91210657  0.59873525  1
  O2-  O251  1  0.95402456  0.91911140  0.93019170  1
  O2-  O252  1  0.33304201  0.29094007  0.26370549  1
  O2-  O253  1  0.33394574  0.29752705  0.60353563  1
  O2-  O254  1  0.33247589  0.29955317  0.94008109  1
  O2-  O255  1  0.33867860  0.79496858  0.26962409  1
  O2-  O256  1  0.33297625  0.79493672  0.60153204  1
  O2-  O257  1  0.33729479  0.79416896  0.93370527  1
  O2-  O258  1  0.83426343  0.29735576  0.27388024  1
  O2-  O259  1  0.83594163  0.30379028  0.59773018  1
  O2-  O260  1  0.82658420  0.29703784  0.93199987  1
  O2-  O261  1  0.83399409  0.78979624  0.27140356  1
  O2-  O262  1  0.83988375  0.78624917  0.60098053  1
  O2-  O263  1  0.83206429  0.78940743  0.92924415  1
  O2-  O264  1  0.41298260  0.03902431  0.07371069  1
  O2-  O265  1  0.41356838  0.03867966  0.40315665  1
  O2-  O266  1  0.41608609  0.03745862  0.73555661  1
  O2-  O267  1  0.41061705  0.54146579  0.06331954  1
  O2-  O268  1  0.41767351  0.53962519  0.40149447  1
  O2-  O269  1  0.42012270  0.54597142  0.72721700  1
  O2-  O270  1  0.92257252  0.04442520  0.06575042  1
  O2-  O271  1  0.91904139  0.04745945  0.39763436  1
  O2-  O272  1  0.91442186  0.04626537  0.72437916  1
  O2-  O273  1  0.91671278  0.54359481  0.06160958  1
  O2-  O274  1  0.91618818  0.53529135  0.40043105  1
  O2-  O275  1  0.91578410  0.54169084  0.73870131  1
  O2-  O276  1  0.28839737  0.16937286  0.07022497  1
  O2-  O277  1  0.28916682  0.16947234  0.40159325  1
  O2-  O278  1  0.29626690  0.17116605  0.73442009  1
  O2-  O279  1  0.29643159  0.66512453  0.05960981  1
  O2-  O280  1  0.29421125  0.66943483  0.40144878  1
  O2-  O281  1  0.30236341  0.66674451  0.72943064  1
  O2-  O282  1  0.79390231  0.16943939  0.06719734  1
  O2-  O283  1  0.80185166  0.16824732  0.39948516  1
  O2-  O284  1  0.80253174  0.17263689  0.71933084  1
  O2-  O285  1  0.79664168  0.66375727  0.06320746  1
  O2-  O286  1  0.79025602  0.66311256  0.40224769  1
  O2-  O287  1  0.78786961  0.66585557  0.73677748  1
