# generated using pymatgen
data_Ca2Al2SiO7
_symmetry_space_group_name_H-M   'P 1'
_cell_length_a   15.46117481
_cell_length_b   15.46023163
_cell_length_c   15.28601239
_cell_angle_alpha   89.99390514
_cell_angle_beta   89.99406414
_cell_angle_gamma   90.00201301
_symmetry_Int_Tables_number   1
_chemical_formula_structural   Ca2Al2SiO7
_chemical_formula_sum   'Ca48 Al48 Si24 O168'
_cell_volume   3653.86661430
_cell_formula_units_Z   24
loop_
 _symmetry_equiv_pos_site_id
 _symmetry_equiv_pos_as_xyz
  1  'x, y, z'
loop_
 _atom_type_symbol
 _atom_type_oxidation_number
  Ca2+  2.0
  Al0+  0.0
  Si0+  0.0
  O2-  -2.0
loop_
 _atom_site_type_symbol
 _atom_site_label
 _atom_site_symmetry_multiplicity
 _atom_site_fract_x
 _atom_site_fract_y
 _atom_site_fract_z
 _atom_site_occupancy
  Ca2+  Ca0  1  0.17456109  0.07693035  0.16966055  1
  Ca2+  Ca1  1  0.17216004  0.08247636  0.50486070  1
  Ca2+  Ca2  1  0.17760784  0.08688585  0.83456450  1
  Ca2+  Ca3  1  0.17816145  0.57712127  0.17943744  1
  Ca2+  Ca4  1  0.18113005  0.57579291  0.50228317  1
  Ca2+  Ca5  1  0.17517783  0.58566615  0.83327731  1
  Ca2+  Ca6  1  0.67134445  0.08337088  0.17045967  1
  Ca2+  Ca7  1  0.66724706  0.08487064  0.50727756  1
  Ca2+  Ca8  1  0.66096342  0.06948225  0.83800549  1
  Ca2+  Ca9  1  0.66017481  0.58156118  0.16608246  1
  Ca2+  Ca10  1  0.65893192  0.58415479  0.50388484  1
  Ca2+  Ca11  1  0.66540137  0.58304526  0.84236123  1
  Ca2+  Ca12  1  0.07661024  0.34170768  0.16592166  1
  Ca2+  Ca13  1  0.08020557  0.33076780  0.49418078  1
  Ca2+  Ca14  1  0.07875214  0.32494543  0.82688314  1
  Ca2+  Ca15  1  0.08465155  0.83676136  0.16532650  1
  Ca2+  Ca16  1  0.07802462  0.84092737  0.49582999  1
  Ca2+  Ca17  1  0.07151961  0.83519960  0.82715066  1
  Ca2+  Ca18  1  0.57372789  0.33037611  0.16378955  1
  Ca2+  Ca19  1  0.57981284  0.31944844  0.49187026  1
  Ca2+  Ca20  1  0.58173973  0.32851894  0.83313347  1
  Ca2+  Ca21  1  0.58301687  0.82349785  0.15858554  1
  Ca2+  Ca22  1  0.58011198  0.82644704  0.50116518  1
  Ca2+  Ca23  1  0.58394467  0.82887539  0.82656043  1
  Ca2+  Ca24  1  0.33453470  0.41789085  0.17666941  1
  Ca2+  Ca25  1  0.34666280  0.42644935  0.49856971  1
  Ca2+  Ca26  1  0.33977747  0.42280590  0.83715289  1
  Ca2+  Ca27  1  0.33459466  0.91914008  0.16868156  1
  Ca2+  Ca28  1  0.33021953  0.91837600  0.50854290  1
  Ca2+  Ca29  1  0.34809678  0.92702304  0.83474170  1
  Ca2+  Ca30  1  0.82598720  0.41731613  0.16863102  1
  Ca2+  Ca31  1  0.83401418  0.41571161  0.50091108  1
  Ca2+  Ca32  1  0.82196554  0.42390579  0.84450533  1
  Ca2+  Ca33  1  0.82565039  0.92699120  0.16810790  1
  Ca2+  Ca34  1  0.82590242  0.92078044  0.50598971  1
  Ca2+  Ca35  1  0.82084431  0.91638992  0.83871290  1
  Ca2+  Ca36  1  0.41317896  0.17609149  0.16126014  1
  Ca2+  Ca37  1  0.42769512  0.16353070  0.49586731  1
  Ca2+  Ca38  1  0.41552466  0.16950185  0.82669195  1
  Ca2+  Ca39  1  0.42449966  0.66894899  0.15953500  1
  Ca2+  Ca40  1  0.42275481  0.66377243  0.49608018  1
  Ca2+  Ca41  1  0.42678600  0.67875268  0.82651215  1
  Ca2+  Ca42  1  0.91219164  0.16526655  0.16665731  1
  Ca2+  Ca43  1  0.92215980  0.16770402  0.49062426  1
  Ca2+  Ca44  1  0.92321413  0.15872466  0.82837747  1
  Ca2+  Ca45  1  0.92017683  0.66330835  0.16031143  1
  Ca2+  Ca46  1  0.91607562  0.67630698  0.49824198  1
  Ca2+  Ca47  1  0.91276979  0.67078742  0.82831247  1
  Al0+  Al48  1  0.00106490  -0.00017389  0.00203271  1
  Al0+  Al49  1  -0.00183424  0.00115871  0.33858939  1
  Al0+  Al50  1  0.00068331  0.00096680  0.65740247  1
  Al0+  Al51  1  -0.00014102  0.49922274  -0.00148038  1
  Al0+  Al52  1  0.00060867  0.50078759  0.33442264  1
  Al0+  Al53  1  0.00009195  0.50055656  0.66779861  1
  Al0+  Al54  1  0.49936615  0.00121763  0.01012020  1
  Al0+  Al55  1  0.50219509  -0.00337615  0.32938679  1
  Al0+  Al56  1  0.50027760  -0.00029961  0.66590255  1
  Al0+  Al57  1  0.49975677  0.49949744  -0.00375778  1
  Al0+  Al58  1  0.50273370  0.49890391  0.33039523  1
  Al0+  Al59  1  0.50030485  0.50060826  0.67092643  1
  Al0+  Al60  1  0.24884442  0.24972271  -0.00050551  1
  Al0+  Al61  1  0.24796738  0.24764846  0.33422828  1
  Al0+  Al62  1  0.24726526  0.25112467  0.66447633  1
  Al0+  Al63  1  0.24948606  0.74985336  -0.00544880  1
  Al0+  Al64  1  0.24868412  0.74984140  0.34230898  1
  Al0+  Al65  1  0.24814617  0.74895047  0.67005004  1
  Al0+  Al66  1  0.74974205  0.25222202  0.00550539  1
  Al0+  Al67  1  0.75257564  0.25077147  0.33022347  1
  Al0+  Al68  1  0.75037393  0.25170044  0.66593516  1
  Al0+  Al69  1  0.75286103  0.75012639  0.00522910  1
  Al0+  Al70  1  0.75040088  0.75129242  0.32883249  1
  Al0+  Al71  1  0.75084751  0.75058140  0.66130118  1
  Al0+  Al72  1  0.57099577  0.67990169  0.31809410  1
  Al0+  Al73  1  0.32430959  0.56877007  0.34763918  1
  Al0+  Al74  1  0.82340057  0.07090635  0.01350187  1
  Al0+  Al75  1  0.17708464  0.42662724  0.34873433  1
  Al0+  Al76  1  0.42863638  0.31828029  0.31981335  1
  Al0+  Al77  1  0.81713574  0.07175636  0.34946212  1
  Al0+  Al78  1  0.67587874  0.42973971  0.01750245  1
  Al0+  Al79  1  0.57296358  0.17576648  0.31684983  1
  Al0+  Al80  1  0.57063139  0.17907755  0.65629875  1
  Al0+  Al81  1  0.32253674  0.57114071  0.68401866  1
  Al0+  Al82  1  0.42766830  0.82226731  0.65126847  1
  Al0+  Al83  1  0.31986089  0.07032261  0.67861383  1
  Al0+  Al84  1  0.17986635  0.92988199  0.34726862  1
  Al0+  Al85  1  0.57274661  0.68088128  0.98432027  1
  Al0+  Al86  1  0.42710416  0.82342002  0.98528590  1
  Al0+  Al87  1  0.92960757  0.82025426  0.65230981  1
  Al0+  Al88  1  0.07126085  0.18000651  0.65165978  1
  Al0+  Al89  1  0.93143768  0.32256094  0.31823836  1
  Al0+  Al90  1  0.42710674  0.31948039  0.98483103  1
  Al0+  Al91  1  0.67706904  0.92812300  0.01661525  1
  Al0+  Al92  1  0.57073542  0.67821371  0.65133453  1
  Al0+  Al93  1  0.82244912  0.57109039  0.01521340  1
  Al0+  Al94  1  0.32082103  0.07209443  0.01360847  1
  Al0+  Al95  1  0.68040770  0.92954214  0.67860798  1
  Si0+  Si96  1  0.92809648  0.32325576  0.65133656  1
  Si0+  Si97  1  0.92794618  0.32219730  0.98413704  1
  Si0+  Si98  1  0.82280613  0.07375509  0.68126318  1
  Si0+  Si99  1  0.42759842  0.32257988  0.65135849  1
  Si0+  Si100  1  0.92977592  0.82237013  0.31579869  1
  Si0+  Si101  1  0.07043519  0.68071965  0.31964658  1
  Si0+  Si102  1  0.17602488  0.42924670  0.68557109  1
  Si0+  Si103  1  0.17737917  0.92719356  0.01387055  1
  Si0+  Si104  1  0.93181795  0.82124239  0.98707644  1
  Si0+  Si105  1  0.67828526  0.92551129  0.35189796  1
  Si0+  Si106  1  0.42415456  0.82048113  0.31766281  1
  Si0+  Si107  1  0.07209695  0.67598097  0.64847736  1
  Si0+  Si108  1  0.68125975  0.43041495  0.34947521  1
  Si0+  Si109  1  0.32435710  0.07125049  0.34991794  1
  Si0+  Si110  1  0.17917375  0.42863935  0.01319596  1
  Si0+  Si111  1  0.57350459  0.17882003  0.98456055  1
  Si0+  Si112  1  0.06939878  0.17891488  0.98581464  1
  Si0+  Si113  1  0.82102804  0.57072175  0.67923503  1
  Si0+  Si114  1  0.07149016  0.67610321  0.98438396  1
  Si0+  Si115  1  0.17494680  0.92811150  0.68419761  1
  Si0+  Si116  1  0.07070965  0.17571590  0.31416609  1
  Si0+  Si117  1  0.31892886  0.57124336  0.01340753  1
  Si0+  Si118  1  0.82214588  0.57314698  0.34944052  1
  Si0+  Si119  1  0.67936891  0.42760958  0.68106553  1
  O2-  O120  1  0.25078907  -0.00905126  0.05706106  1
  O2-  O121  1  0.25683206  0.00143651  0.39414887  1
  O2-  O122  1  0.24692499  -0.00661512  0.72768729  1
  O2-  O123  1  0.24969295  0.49896150  0.05617034  1
  O2-  O124  1  0.25536098  0.49251627  0.39742182  1
  O2-  O125  1  0.24686035  0.49549775  0.72994802  1
  O2-  O126  1  0.74728927  0.00396197  0.06401563  1
  O2-  O127  1  0.73978503  0.00059431  0.39655272  1
  O2-  O128  1  0.75381200  0.00639857  0.72553089  1
  O2-  O129  1  0.74775452  0.50326693  0.06662891  1
  O2-  O130  1  0.75063278  0.50340952  0.39262511  1
  O2-  O131  1  0.74972862  0.50063515  0.72109013  1
  O2-  O132  1  0.00732275  0.24942129  0.26974605  1
  O2-  O133  1  -0.00555361  0.25327619  0.60672855  1
  O2-  O134  1  -0.00515634  0.24674827  0.94309713  1
  O2-  O135  1  0.00135688  0.75167958  0.27364267  1
  O2-  O136  1  0.00722189  0.74832881  0.60449359  1
  O2-  O137  1  -0.00033567  0.74711654  0.94402372  1
  O2-  O138  1  0.49593956  0.24307906  0.26781852  1
  O2-  O139  1  0.49441306  0.25184168  0.60857236  1
  O2-  O140  1  0.50188506  0.24417910  0.93915615  1
  O2-  O141  1  0.49352147  0.75259198  0.27367617  1
  O2-  O142  1  0.49540852  0.74646572  0.60095343  1
  O2-  O143  1  0.50381544  0.75623210  0.93533537  1
  O2-  O144  1  0.07033984  0.17939964  0.09052967  1
  O2-  O145  1  0.06694437  0.17435415  0.41967622  1
  O2-  O146  1  0.06970450  0.18070343  0.76561706  1
  O2-  O147  1  0.07313252  0.67501658  0.08959753  1
  O2-  O148  1  0.06692288  0.68130756  0.42440595  1
  O2-  O149  1  0.06820136  0.67383812  0.75447928  1
  O2-  O150  1  0.57325252  0.18248339  0.08990052  1
  O2-  O151  1  0.57297658  0.17855786  0.43109382  1
  O2-  O152  1  0.57170750  0.18122484  0.76927749  1
  O2-  O153  1  0.56822935  0.67983021  0.09803268  1
  O2-  O154  1  0.57287162  0.68097300  0.43103875  1
  O2-  O155  1  0.57378034  0.67809068  0.76435236  1
  O2-  O156  1  0.17408666  0.43397388  0.23464006  1
  O2-  O157  1  0.17074404  0.43187702  0.58071099  1
  O2-  O158  1  0.17767268  0.42954102  0.90806907  1
  O2-  O159  1  0.17939987  0.93055876  0.23363039  1
  O2-  O160  1  0.17360244  0.93101490  0.57859963  1
  O2-  O161  1  0.16876563  0.93010101  0.90912882  1
  O2-  O162  1  0.68171397  0.43163281  0.24482838  1
  O2-  O163  1  0.68127572  0.42538278  0.57585139  1
  O2-  O164  1  0.68017254  0.42782341  0.90315937  1
  O2-  O165  1  0.68352250  0.92242259  0.24672425  1
  O2-  O166  1  0.68288999  0.92917693  0.56563830  1
  O2-  O167  1  0.68020428  0.92753376  0.90252986  1
  O2-  O168  1  0.42321153  0.31884747  0.09748405  1
  O2-  O169  1  0.43456903  0.31990706  0.43359231  1
  O2-  O170  1  0.42887317  0.32211822  0.75723282  1
  O2-  O171  1  0.42052846  0.81586242  0.09882560  1
  O2-  O172  1  0.42371524  0.82068026  0.42303652  1
  O2-  O173  1  0.43284127  0.82322968  0.76446787  1
  O2-  O174  1  0.93232676  0.32672060  0.08876577  1
  O2-  O175  1  0.93187066  0.32218242  0.43170758  1
  O2-  O176  1  0.92924324  0.32467123  0.75703824  1
  O2-  O177  1  0.93696299  0.82284636  0.09217479  1
  O2-  O178  1  0.92964729  0.82003321  0.42089862  1
  O2-  O179  1  0.92948672  0.81762244  0.76595056  1
  O2-  O180  1  0.32084492  0.07102431  0.24415387  1
  O2-  O181  1  0.31799871  0.06986480  0.56565227  1
  O2-  O182  1  0.31669262  0.07604612  0.90051872  1
  O2-  O183  1  0.32063814  0.57082880  0.23349971  1
  O2-  O184  1  0.32340391  0.56765837  0.57116814  1
  O2-  O185  1  0.31499987  0.57069540  0.90841955  1
  O2-  O186  1  0.81948152  0.06811208  0.23653175  1
  O2-  O187  1  0.82110861  0.07455388  0.57574973  1
  O2-  O188  1  0.82952404  0.06547483  0.89996463  1
  O2-  O189  1  0.82429034  0.57222946  0.24480146  1
  O2-  O190  1  0.82378803  0.56856788  0.57398351  1
  O2-  O191  1  0.82640056  0.56776703  0.90105043  1
  O2-  O192  1  0.03786158  0.08418480  0.26768813  1
  O2-  O193  1  0.04345862  0.08467035  0.59461024  1
  O2-  O194  1  0.04374533  0.08650469  0.93785241  1
  O2-  O195  1  0.04119881  0.58997306  0.27095482  1
  O2-  O196  1  0.04147296  0.58403961  0.60170004  1
  O2-  O197  1  0.04351985  0.58530103  0.93452964  1
  O2-  O198  1  0.55291550  0.07446538  0.26650201  1
  O2-  O199  1  0.54161797  0.08396033  0.59997526  1
  O2-  O200  1  0.55012801  0.08271131  0.94419769  1
  O2-  O201  1  0.54354323  0.58242477  0.26512587  1
  O2-  O202  1  0.54381359  0.57774890  0.60074195  1
  O2-  O203  1  0.54296892  0.58250769  0.93239919  1
  O2-  O204  1  0.16680992  0.19376381  0.27091049  1
  O2-  O205  1  0.16578507  0.21277594  0.59502519  1
  O2-  O206  1  0.15839622  0.21167353  0.93608959  1
  O2-  O207  1  0.16299562  0.70800901  0.27329812  1
  O2-  O208  1  0.16722622  0.69676686  0.60520781  1
  O2-  O209  1  0.16128603  0.70470450  0.93376371  1
  O2-  O210  1  0.66958248  0.20991612  0.26518985  1
  O2-  O211  1  0.66709546  0.21174232  0.60157394  1
  O2-  O212  1  0.66689213  0.20682154  0.93850913  1
  O2-  O213  1  0.66782765  0.71107929  0.26391305  1
  O2-  O214  1  0.66847552  0.70675673  0.59711870  1
  O2-  O215  1  0.67521479  0.70399754  0.93648116  1
  O2-  O216  1  0.08739425  0.45752160  0.05997026  1
  O2-  O217  1  0.08141779  0.46260786  0.40354252  1
  O2-  O218  1  0.08315994  0.45740836  0.73430690  1
  O2-  O219  1  0.08764145  0.95808542  0.06541216  1
  O2-  O220  1  0.08398823  0.96255227  0.40177702  1
  O2-  O221  1  0.08166361  0.95877543  0.72926628  1
  O2-  O222  1  0.57675711  0.45759606  0.06916188  1
  O2-  O223  1  0.58992741  0.45726371  0.39745185  1
  O2-  O224  1  0.58823948  0.45336918  0.72973726  1
  O2-  O225  1  0.57949907  0.95151031  0.07278681  1
  O2-  O226  1  0.58108487  0.94229829  0.39335631  1
  O2-  O227  1  0.58469013  0.96033080  0.73327081  1
  O2-  O228  1  0.20427471  0.33705834  0.06117251  1
  O2-  O229  1  0.19452230  0.32440317  0.39752065  1
  O2-  O230  1  0.19888186  0.33438973  0.72984409  1
  O2-  O231  1  0.19787711  0.83112950  0.05797068  1
  O2-  O232  1  0.20324922  0.83310743  0.40454737  1
  O2-  O233  1  0.19092186  0.83169227  0.72803741  1
  O2-  O234  1  0.70721903  0.33323775  0.07193377  1
  O2-  O235  1  0.71284774  0.33971961  0.39665314  1
  O2-  O236  1  0.71006962  0.33783496  0.73173225  1
  O2-  O237  1  0.71138931  0.83237362  0.07098970  1
  O2-  O238  1  0.71327379  0.83473263  0.39866889  1
  O2-  O239  1  0.71588096  0.83334608  0.73138936  1
  O2-  O240  1  0.46061303  0.41545558  0.26621946  1
  O2-  O241  1  0.45779447  0.41502250  0.60675924  1
  O2-  O242  1  0.45821191  0.41563672  0.93039678  1
  O2-  O243  1  0.44841440  0.91410275  0.27099716  1
  O2-  O244  1  0.45830472  0.91887208  0.59681253  1
  O2-  O245  1  0.45040617  0.92635903  0.94031291  1
  O2-  O246  1  0.96162704  0.41996025  0.26418430  1
  O2-  O247  1  0.95536137  0.41658844  0.60472323  1
  O2-  O248  1  0.96120470  0.41124647  0.93339154  1
  O2-  O249  1  0.96002422  0.91402406  0.27022224  1
  O2-  O250  1  0.95823672  0.91593039  0.59561285  1
  O2-  O251  1  0.96401813  0.91086733  0.93757944  1
  O2-  O252  1  0.32696360  0.29594207  0.26935525  1
  O2-  O253  1  0.33235949  0.30278087  0.60741140  1
  O2-  O254  1  0.32989092  0.28954749  0.93018131  1
  O2-  O255  1  0.32934277  0.79535057  0.27350719  1
  O2-  O256  1  0.32491363  0.79926212  0.60478064  1
  O2-  O257  1  0.32941753  0.79379215  0.92966221  1
  O2-  O258  1  0.83596906  0.29176191  0.26340252  1
  O2-  O259  1  0.83410798  0.30120231  0.60498076  1
  O2-  O260  1  0.83428310  0.29960921  0.93877116  1
  O2-  O261  1  0.83932823  0.79342742  0.26759602  1
  O2-  O262  1  0.83693943  0.78550077  0.59392629  1
  O2-  O263  1  0.83967753  0.79580106  0.94051672  1
  O2-  O264  1  0.41642716  0.04948039  0.07188295  1
  O2-  O265  1  0.41962616  0.04651002  0.39275900  1
  O2-  O266  1  0.41662747  0.04205145  0.73321741  1
  O2-  O267  1  0.41127234  0.54451703  0.05804950  1
  O2-  O268  1  0.42306726  0.54029751  0.40060575  1
  O2-  O269  1  0.41800535  0.53905660  0.73974541  1
  O2-  O270  1  0.92012576  0.03859422  0.06934522  1
  O2-  O271  1  0.91276218  0.03756685  0.40360334  1
  O2-  O272  1  0.91762014  0.04619449  0.72349083  1
  O2-  O273  1  0.92090538  0.53881401  0.06780063  1
  O2-  O274  1  0.91309154  0.54468853  0.39817396  1
  O2-  O275  1  0.91268116  0.54373725  0.72853443  1
  O2-  O276  1  0.28075046  0.16548115  0.06884158  1
  O2-  O277  1  0.29821616  0.16421443  0.39636230  1
  O2-  O278  1  0.28626926  0.16757783  0.73134851  1
  O2-  O279  1  0.28792042  0.66246626  0.06021284  1
  O2-  O280  1  0.29072521  0.66441424  0.40279408  1
  O2-  O281  1  0.28869991  0.66699742  0.73861946  1
  O2-  O282  1  0.80177276  0.17145385  0.06426315  1
  O2-  O283  1  0.79326429  0.17104159  0.40171826  1
  O2-  O284  1  0.80171751  0.16887818  0.72671129  1
  O2-  O285  1  0.80449840  0.67100351  0.06804663  1
  O2-  O286  1  0.79530575  0.66632167  0.39476816  1
  O2-  O287  1  0.79467043  0.66287551  0.72547680  1
