# generated using pymatgen
data_Ca2Al2SiO7
_symmetry_space_group_name_H-M   'P 1'
_cell_length_a   15.45972795
_cell_length_b   15.45882030
_cell_length_c   15.28427747
_cell_angle_alpha   89.98636492
_cell_angle_beta   89.98698713
_cell_angle_gamma   89.99352349
_symmetry_Int_Tables_number   1
_chemical_formula_structural   Ca2Al2SiO7
_chemical_formula_sum   'Ca48 Al48 Si24 O168'
_cell_volume   3652.77635472
_cell_formula_units_Z   24
loop_
 _symmetry_equiv_pos_site_id
 _symmetry_equiv_pos_as_xyz
  1  'x, y, z'
loop_
 _atom_type_symbol
 _atom_type_oxidation_number
  Ca2+  2.0
  Al0+  0.0
  Si0+  0.0
  O2-  -2.0
loop_
 _atom_site_type_symbol
 _atom_site_label
 _atom_site_symmetry_multiplicity
 _atom_site_fract_x
 _atom_site_fract_y
 _atom_site_fract_z
 _atom_site_occupancy
  Ca2+  Ca0  1  0.17795747  0.08027101  0.17048352  1
  Ca2+  Ca1  1  0.17852598  0.08229486  0.50397469  1
  Ca2+  Ca2  1  0.17839007  0.08139943  0.83789887  1
  Ca2+  Ca3  1  0.16821151  0.57581463  0.16993555  1
  Ca2+  Ca4  1  0.16833648  0.58219973  0.50407307  1
  Ca2+  Ca5  1  0.17733989  0.58299611  0.83881150  1
  Ca2+  Ca6  1  0.67179191  0.08446465  0.16765005  1
  Ca2+  Ca7  1  0.67081037  0.08385571  0.50965410  1
  Ca2+  Ca8  1  0.67562554  0.08911029  0.83700170  1
  Ca2+  Ca9  1  0.66712533  0.58725278  0.16471808  1
  Ca2+  Ca10  1  0.66130996  0.58563913  0.50424443  1
  Ca2+  Ca11  1  0.66673911  0.58018288  0.84349732  1
  Ca2+  Ca12  1  0.07592828  0.34426510  0.16232420  1
  Ca2+  Ca13  1  0.07900102  0.33465534  0.49026497  1
  Ca2+  Ca14  1  0.07941979  0.33954860  0.83664918  1
  Ca2+  Ca15  1  0.08699784  0.82508536  0.16499887  1
  Ca2+  Ca16  1  0.08371253  0.82338414  0.50053397  1
  Ca2+  Ca17  1  0.07639159  0.82748671  0.82419509  1
  Ca2+  Ca18  1  0.57740173  0.33577689  0.16352474  1
  Ca2+  Ca19  1  0.56754085  0.32829690  0.50091850  1
  Ca2+  Ca20  1  0.57889381  0.33115169  0.82659780  1
  Ca2+  Ca21  1  0.57471833  0.82396997  0.16299768  1
  Ca2+  Ca22  1  0.57888723  0.82225780  0.49433270  1
  Ca2+  Ca23  1  0.58060711  0.82066488  0.83282052  1
  Ca2+  Ca24  1  0.32417220  0.41969094  0.17236006  1
  Ca2+  Ca25  1  0.33174218  0.41723081  0.50557347  1
  Ca2+  Ca26  1  0.33319198  0.42726823  0.83866646  1
  Ca2+  Ca27  1  0.34978869  0.92529595  0.16932288  1
  Ca2+  Ca28  1  0.34229627  0.92510744  0.50223149  1
  Ca2+  Ca29  1  0.34323604  0.92666213  0.83821210  1
  Ca2+  Ca30  1  0.82981126  0.41571722  0.16493540  1
  Ca2+  Ca31  1  0.83175324  0.41591465  0.50116049  1
  Ca2+  Ca32  1  0.82479302  0.42282056  0.84684886  1
  Ca2+  Ca33  1  0.83389720  0.92262420  0.16909159  1
  Ca2+  Ca34  1  0.83306804  0.92062350  0.51101216  1
  Ca2+  Ca35  1  0.83557180  0.92455849  0.83689410  1
  Ca2+  Ca36  1  0.40766259  0.17047056  0.16402041  1
  Ca2+  Ca37  1  0.41061232  0.17229310  0.49627621  1
  Ca2+  Ca38  1  0.41885996  0.17178418  0.82434558  1
  Ca2+  Ca39  1  0.42152218  0.67370796  0.15533118  1
  Ca2+  Ca40  1  0.42482683  0.66599691  0.49281789  1
  Ca2+  Ca41  1  0.42285186  0.65957075  0.82855221  1
  Ca2+  Ca42  1  0.91676160  0.17847301  0.15789563  1
  Ca2+  Ca43  1  0.91729394  0.17131241  0.49525060  1
  Ca2+  Ca44  1  0.91099287  0.17023814  0.83046448  1
  Ca2+  Ca45  1  0.92307801  0.65872964  0.16215933  1
  Ca2+  Ca46  1  0.92840272  0.66944754  0.49756463  1
  Ca2+  Ca47  1  0.92206091  0.66748923  0.82523138  1
  Al0+  Al48  1  0.00221167  0.00144835  0.00501537  1
  Al0+  Al49  1  0.00217873  0.00029651  0.33565677  1
  Al0+  Al50  1  -0.00057861  0.00193138  0.66709343  1
  Al0+  Al51  1  -0.00167433  0.49981208  -0.00122491  1
  Al0+  Al52  1  -0.00106162  0.50058273  0.33103747  1
  Al0+  Al53  1  -0.00114120  0.49963191  0.66314492  1
  Al0+  Al54  1  0.50212924  0.00013958  0.00006872  1
  Al0+  Al55  1  0.50467619  -0.00036589  0.33674503  1
  Al0+  Al56  1  0.50410868  -0.00170505  0.66968971  1
  Al0+  Al57  1  0.49955662  0.49917762  0.00442413  1
  Al0+  Al58  1  0.50189131  0.49676061  0.32634847  1
  Al0+  Al59  1  0.49834563  0.49792027  0.66199557  1
  Al0+  Al60  1  0.24768371  0.24810320  0.00550285  1
  Al0+  Al61  1  0.24863783  0.24926750  0.33759663  1
  Al0+  Al62  1  0.24637158  0.25002970  0.66885568  1
  Al0+  Al63  1  0.24959287  0.75270947  -0.00287942  1
  Al0+  Al64  1  0.24965815  0.75153944  0.32550110  1
  Al0+  Al65  1  0.24988711  0.74936222  0.66694265  1
  Al0+  Al66  1  0.75083010  0.25129661  0.00434677  1
  Al0+  Al67  1  0.75009536  0.25220469  0.33163953  1
  Al0+  Al68  1  0.74829270  0.25010025  0.66597881  1
  Al0+  Al69  1  0.74961749  0.75094968  0.00118357  1
  Al0+  Al70  1  0.75109625  0.75099823  0.33163881  1
  Al0+  Al71  1  0.75008408  0.75092938  0.65968704  1
  Al0+  Al72  1  0.82225691  0.07119201  0.01514779  1
  Al0+  Al73  1  0.07030579  0.67968604  0.31765589  1
  Al0+  Al74  1  0.57261944  0.67702765  0.31629498  1
  Al0+  Al75  1  0.57198081  0.17762167  0.65342716  1
  Al0+  Al76  1  0.32244783  0.06893384  0.01342727  1
  Al0+  Al77  1  0.32254836  0.07071416  0.68101666  1
  Al0+  Al78  1  0.32092452  0.56994303  0.67728433  1
  Al0+  Al79  1  0.32182012  0.57354593  0.01546597  1
  Al0+  Al80  1  0.92901870  0.31988571  0.31856753  1
  Al0+  Al81  1  0.42650374  0.31796167  0.31820519  1
  Al0+  Al82  1  0.92934510  0.32044643  0.98412350  1
  Al0+  Al83  1  0.56962499  0.67756934  0.65299897  1
  Al0+  Al84  1  0.17815685  0.43147299  0.34851436  1
  Al0+  Al85  1  0.42994991  0.82239363  0.31932670  1
  Al0+  Al86  1  0.67736566  0.42820981  0.01565400  1
  Al0+  Al87  1  0.82039354  0.57342347  0.01373404  1
  Al0+  Al88  1  0.56991768  0.67734911  0.98343344  1
  Al0+  Al89  1  0.17933914  0.42989076  0.01428776  1
  Al0+  Al90  1  0.42590244  0.31905451  0.65365009  1
  Al0+  Al91  1  0.92925237  0.82287104  0.65260615  1
  Al0+  Al92  1  0.42812657  0.82272832  0.98198882  1
  Al0+  Al93  1  0.82045607  0.07174440  0.68028061  1
  Al0+  Al94  1  0.07281829  0.67725985  0.65208767  1
  Al0+  Al95  1  0.32166800  0.06861206  0.34833721  1
  Si0+  Si96  1  0.17388356  0.42749656  0.68334623  1
  Si0+  Si97  1  0.67970897  0.92468311  0.68532117  1
  Si0+  Si98  1  0.67953599  0.92858270  0.01819789  1
  Si0+  Si99  1  0.68236152  0.92884065  0.35037198  1
  Si0+  Si100  1  0.07050461  0.17908689  0.65171510  1
  Si0+  Si101  1  0.17841203  0.92839182  0.68298026  1
  Si0+  Si102  1  0.82133181  0.07239973  0.34872731  1
  Si0+  Si103  1  0.42786559  0.82275202  0.65100564  1
  Si0+  Si104  1  0.07181101  0.17680316  0.98206173  1
  Si0+  Si105  1  0.67951044  0.43068930  0.67896486  1
  Si0+  Si106  1  0.92934106  0.82413859  0.98699888  1
  Si0+  Si107  1  0.17607536  0.92563474  0.35218869  1
  Si0+  Si108  1  0.17681044  0.92805179  0.01689123  1
  Si0+  Si109  1  0.92866866  0.82386363  0.31606356  1
  Si0+  Si110  1  0.67799922  0.42752054  0.35164078  1
  Si0+  Si111  1  0.06953905  0.67884807  0.98377067  1
  Si0+  Si112  1  0.92783361  0.32051996  0.65207668  1
  Si0+  Si113  1  0.81980653  0.57141998  0.35007304  1
  Si0+  Si114  1  0.42589004  0.31925489  0.98674891  1
  Si0+  Si115  1  0.82134066  0.57135469  0.67838671  1
  Si0+  Si116  1  0.32298059  0.57228577  0.34775310  1
  Si0+  Si117  1  0.07193415  0.17684316  0.31639460  1
  Si0+  Si118  1  0.57260214  0.17831886  0.31665089  1
  Si0+  Si119  1  0.57153457  0.18001861  0.98677855  1
  O2-  O120  1  0.25115360  -0.00895789  0.06014334  1
  O2-  O121  1  0.24863438  -0.00860299  0.39467217  1
  O2-  O122  1  0.25081147  -0.00712759  0.72789852  1
  O2-  O123  1  0.25089036  0.50090839  0.06596883  1
  O2-  O124  1  0.25453098  0.50454954  0.39485072  1
  O2-  O125  1  0.24401278  0.49638519  0.72373201  1
  O2-  O126  1  0.74940485  -0.00387078  0.06355361  1
  O2-  O127  1  0.75384104  -0.00025245  0.39266025  1
  O2-  O128  1  0.74668327  -0.00344203  0.72787992  1
  O2-  O129  1  0.74715454  0.50326603  0.06479547  1
  O2-  O130  1  0.74581673  0.50301424  0.39282130  1
  O2-  O131  1  0.74855716  0.50333262  0.72128061  1
  O2-  O132  1  0.00326683  0.24498155  0.27193768  1
  O2-  O133  1  0.00028216  0.25131680  0.60973019  1
  O2-  O134  1  0.00287283  0.24486209  0.93658349  1
  O2-  O135  1  -0.00344063  0.75582806  0.27050403  1
  O2-  O136  1  0.00084601  0.75037556  0.60312408  1
  O2-  O137  1  -0.00235375  0.75092068  0.94405263  1
  O2-  O138  1  0.49997266  0.24163276  0.27133527  1
  O2-  O139  1  0.49257484  0.24122236  0.60367383  1
  O2-  O140  1  0.49923125  0.24992674  0.94501450  1
  O2-  O141  1  0.49496656  0.74422813  0.26899036  1
  O2-  O142  1  0.49335333  0.75099373  0.60706300  1
  O2-  O143  1  0.49418991  0.74502078  0.93225530  1
  O2-  O144  1  0.07029335  0.17482032  0.08749724  1
  O2-  O145  1  0.06894437  0.17614913  0.42253462  1
  O2-  O146  1  0.07094384  0.17821621  0.75659178  1
  O2-  O147  1  0.06840970  0.67924089  0.08904645  1
  O2-  O148  1  0.06806355  0.67974259  0.43062534  1
  O2-  O149  1  0.06924189  0.67697074  0.76586951  1
  O2-  O150  1  0.57135886  0.17940311  0.09208295  1
  O2-  O151  1  0.57542731  0.18043286  0.42203275  1
  O2-  O152  1  0.57590256  0.18401487  0.76708078  1
  O2-  O153  1  0.57169387  0.68193772  0.09653928  1
  O2-  O154  1  0.57309331  0.67990052  0.43048315  1
  O2-  O155  1  0.57212084  0.67652457  0.76544910  1
  O2-  O156  1  0.17720159  0.43317733  0.23592110  1
  O2-  O157  1  0.17080481  0.42703167  0.57774383  1
  O2-  O158  1  0.18038848  0.43144898  0.90024039  1
  O2-  O159  1  0.16826131  0.92967187  0.24715397  1
  O2-  O160  1  0.17726977  0.93096145  0.57740304  1
  O2-  O161  1  0.17027021  0.93188680  0.91157957  1
  O2-  O162  1  0.68050462  0.42270377  0.24723151  1
  O2-  O163  1  0.68185056  0.43017549  0.57359692  1
  O2-  O164  1  0.67959002  0.42623207  0.90120571  1
  O2-  O165  1  0.68423252  0.93055144  0.24531052  1
  O2-  O166  1  0.68177291  0.92421888  0.57943185  1
  O2-  O167  1  0.68128140  0.92922673  0.91272118  1
  O2-  O168  1  0.42526235  0.31592679  0.09192676  1
  O2-  O169  1  0.42762552  0.31795686  0.43132390  1
  O2-  O170  1  0.42940026  0.32078296  0.76761205  1
  O2-  O171  1  0.43364543  0.82492436  0.09528201  1
  O2-  O172  1  0.43397191  0.82338108  0.43330944  1
  O2-  O173  1  0.43025438  0.82374308  0.75624303  1
  O2-  O174  1  0.93020616  0.31893692  0.09705678  1
  O2-  O175  1  0.92804229  0.31703731  0.43259620  1
  O2-  O176  1  0.92704830  0.32096620  0.75682524  1
  O2-  O177  1  0.93278142  0.82586742  0.09223114  1
  O2-  O178  1  0.92864353  0.82407180  0.42140517  1
  O2-  O179  1  0.93045811  0.82226649  0.76669184  1
  O2-  O180  1  0.31991700  0.06794534  0.23524965  1
  O2-  O181  1  0.31926016  0.07022885  0.56790589  1
  O2-  O182  1  0.32095331  0.07071232  0.90023031  1
  O2-  O183  1  0.32030664  0.57010728  0.24250591  1
  O2-  O184  1  0.32179781  0.56828679  0.56402099  1
  O2-  O185  1  0.32075596  0.57075512  0.90136468  1
  O2-  O186  1  0.81980620  0.07154522  0.24367155  1
  O2-  O187  1  0.81928479  0.07241865  0.56664447  1
  O2-  O188  1  0.82059073  0.07037369  0.90203093  1
  O2-  O189  1  0.82057447  0.57102122  0.24534660  1
  O2-  O190  1  0.82295512  0.56766707  0.57307827  1
  O2-  O191  1  0.82152762  0.57192600  0.89935518  1
  O2-  O192  1  0.04705736  0.08270536  0.27077116  1
  O2-  O193  1  0.04158612  0.08881348  0.60228227  1
  O2-  O194  1  0.04622480  0.08292767  0.93618836  1
  O2-  O195  1  0.03473253  0.58521373  0.26341471  1
  O2-  O196  1  0.04106792  0.58022851  0.59735555  1
  O2-  O197  1  0.04039515  0.58848017  0.93539238  1
  O2-  O198  1  0.55423245  0.08249081  0.27315762  1
  O2-  O199  1  0.55519086  0.07521560  0.60458019  1
  O2-  O200  1  0.54683690  0.08803741  0.93890722  1
  O2-  O201  1  0.55463295  0.57587963  0.26669086  1
  O2-  O202  1  0.53995176  0.58182325  0.59704076  1
  O2-  O203  1  0.54575443  0.57591102  0.93380961  1
  O2-  O204  1  0.16547791  0.20188086  0.27194329  1
  O2-  O205  1  0.16136317  0.20636476  0.60238621  1
  O2-  O206  1  0.16521104  0.20433423  0.93599659  1
  O2-  O207  1  0.16575775  0.70879745  0.26098435  1
  O2-  O208  1  0.17060127  0.70602685  0.59794824  1
  O2-  O209  1  0.16089355  0.70715969  0.93621732  1
  O2-  O210  1  0.66430236  0.20907732  0.26910878  1
  O2-  O211  1  0.66717686  0.21283184  0.59677090  1
  O2-  O212  1  0.66315765  0.20930523  0.94017054  1
  O2-  O213  1  0.67021316  0.71152882  0.26507408  1
  O2-  O214  1  0.66549151  0.70865772  0.59736990  1
  O2-  O215  1  0.66930043  0.70977154  0.93234544  1
  O2-  O216  1  0.08074055  0.46001260  0.06509177  1
  O2-  O217  1  0.08064491  0.46275853  0.40183529  1
  O2-  O218  1  0.08013072  0.45430357  0.72964948  1
  O2-  O219  1  0.08709452  0.95837267  0.06889138  1
  O2-  O220  1  0.08426340  0.95521813  0.40202338  1
  O2-  O221  1  0.08642237  0.95913282  0.72992192  1
  O2-  O222  1  0.57892136  0.45131554  0.06963606  1
  O2-  O223  1  0.58460733  0.45188767  0.39788556  1
  O2-  O224  1  0.58714548  0.45609727  0.72532017  1
  O2-  O225  1  0.58797245  0.95853284  0.06535883  1
  O2-  O226  1  0.59233408  0.95704042  0.40054986  1
  O2-  O227  1  0.58606739  0.94637669  0.73224457  1
  O2-  O228  1  0.20312597  0.33068374  0.06748535  1
  O2-  O229  1  0.20492621  0.33317314  0.40167354  1
  O2-  O230  1  0.19590650  0.33351840  0.72989993  1
  O2-  O231  1  0.19613346  0.83259318  0.06065677  1
  O2-  O232  1  0.19854491  0.83015605  0.39529388  1
  O2-  O233  1  0.19757675  0.83301677  0.72783095  1
  O2-  O234  1  0.70994143  0.33249005  0.07169808  1
  O2-  O235  1  0.71204820  0.33767306  0.40043620  1
  O2-  O236  1  0.70972473  0.34011131  0.72699798  1
  O2-  O237  1  0.70516422  0.83606063  0.06578294  1
  O2-  O238  1  0.71077904  0.83707726  0.39819773  1
  O2-  O239  1  0.70980527  0.83227979  0.73172402  1
  O2-  O240  1  0.45912899  0.41279928  0.26311563  1
  O2-  O241  1  0.46129615  0.41297307  0.59629411  1
  O2-  O242  1  0.45236379  0.41201782  0.94144044  1
  O2-  O243  1  0.46800485  0.91875610  0.26715293  1
  O2-  O244  1  0.45783307  0.91511564  0.60459530  1
  O2-  O245  1  0.46437943  0.91992076  0.92966276  1
  O2-  O246  1  0.95847199  0.41653186  0.26595159  1
  O2-  O247  1  0.95343133  0.41215168  0.60294855  1
  O2-  O248  1  0.96009841  0.41678339  0.92884826  1
  O2-  O249  1  0.95374663  0.91874917  0.27147316  1
  O2-  O250  1  0.95760997  0.92151086  0.59937484  1
  O2-  O251  1  0.96023877  0.91539425  0.93961996  1
  O2-  O252  1  0.32937500  0.28686541  0.26588797  1
  O2-  O253  1  0.32513754  0.29626623  0.60273892  1
  O2-  O254  1  0.33478773  0.28887654  0.93982907  1
  O2-  O255  1  0.32859889  0.80740903  0.26785264  1
  O2-  O256  1  0.33239199  0.80315898  0.60707185  1
  O2-  O257  1  0.32575199  0.80558940  0.93227034  1
  O2-  O258  1  0.83287424  0.28836419  0.26444182  1
  O2-  O259  1  0.83729622  0.29092837  0.60329061  1
  O2-  O260  1  0.83201089  0.28824631  0.93197480  1
  O2-  O261  1  0.83524456  0.79937438  0.26992657  1
  O2-  O262  1  0.83249800  0.79536511  0.59636662  1
  O2-  O263  1  0.83606778  0.80135603  0.94123980  1
  O2-  O264  1  0.42034364  0.04221671  0.06730888  1
  O2-  O265  1  0.42046005  0.04147799  0.40101520  1
  O2-  O266  1  0.42129093  0.04392728  0.73324557  1
  O2-  O267  1  0.41952970  0.54664086  0.06845537  1
  O2-  O268  1  0.41822684  0.54539079  0.39035211  1
  O2-  O269  1  0.41642189  0.53505394  0.73196735  1
  O2-  O270  1  0.91863571  0.04161985  0.07020983  1
  O2-  O271  1  0.91489413  0.04784566  0.39477077  1
  O2-  O272  1  0.91776583  0.04378360  0.73449674  1
  O2-  O273  1  0.91732812  0.54122921  0.06668792  1
  O2-  O274  1  0.90993657  0.53919483  0.39808391  1
  O2-  O275  1  0.91222837  0.54142470  0.72669439  1
  O2-  O276  1  0.28675400  0.16268711  0.06952750  1
  O2-  O277  1  0.28653578  0.16344762  0.40328005  1
  O2-  O278  1  0.28730215  0.16649173  0.73443647  1
  O2-  O279  1  0.29323314  0.67350967  0.06456382  1
  O2-  O280  1  0.29827735  0.66797506  0.39010957  1
  O2-  O281  1  0.29348656  0.66735244  0.73215985  1
  O2-  O282  1  0.78917022  0.16588182  0.07021950  1
  O2-  O283  1  0.79121315  0.16404386  0.39528834  1
  O2-  O284  1  0.78770664  0.16826050  0.73436460  1
  O2-  O285  1  0.79723924  0.67274341  0.06798830  1
  O2-  O286  1  0.79556601  0.66513351  0.39636454  1
  O2-  O287  1  0.79751498  0.66530921  0.72231432  1
