# generated using pymatgen
data_Ca2Al2SiO7
_symmetry_space_group_name_H-M   'P 1'
_cell_length_a   15.45392312
_cell_length_b   15.45460527
_cell_length_c   15.28114033
_cell_angle_alpha   89.99801351
_cell_angle_beta   89.99733999
_cell_angle_gamma   90.00270939
_symmetry_Int_Tables_number   1
_chemical_formula_structural   Ca2Al2SiO7
_chemical_formula_sum   'Ca48 Al48 Si24 O168'
_cell_volume   3649.66016561
_cell_formula_units_Z   24
loop_
 _symmetry_equiv_pos_site_id
 _symmetry_equiv_pos_as_xyz
  1  'x, y, z'
loop_
 _atom_type_symbol
 _atom_type_oxidation_number
  Ca2+  2.0
  Al0+  0.0
  Si0+  0.0
  O2-  -2.0
loop_
 _atom_site_type_symbol
 _atom_site_label
 _atom_site_symmetry_multiplicity
 _atom_site_fract_x
 _atom_site_fract_y
 _atom_site_fract_z
 _atom_site_occupancy
  Ca2+  Ca0  1  0.16948318  0.07538644  0.17447624  1
  Ca2+  Ca1  1  0.17023203  0.09141478  0.50334731  1
  Ca2+  Ca2  1  0.16287187  0.07633983  0.83734491  1
  Ca2+  Ca3  1  0.16880305  0.59026659  0.16827114  1
  Ca2+  Ca4  1  0.16983887  0.58094886  0.50721450  1
  Ca2+  Ca5  1  0.17491601  0.58881297  0.83781611  1
  Ca2+  Ca6  1  0.66923621  0.08173390  0.16925759  1
  Ca2+  Ca7  1  0.67188837  0.06899559  0.50741478  1
  Ca2+  Ca8  1  0.67668425  0.08089025  0.83603690  1
  Ca2+  Ca9  1  0.67386923  0.58013503  0.18077486  1
  Ca2+  Ca10  1  0.66526015  0.57733507  0.50116544  1
  Ca2+  Ca11  1  0.66739624  0.57651203  0.83335873  1
  Ca2+  Ca12  1  0.07596903  0.32611630  0.16140515  1
  Ca2+  Ca13  1  0.08307347  0.32704600  0.49863234  1
  Ca2+  Ca14  1  0.07221605  0.32877451  0.82234249  1
  Ca2+  Ca15  1  0.09005920  0.82287313  0.16199213  1
  Ca2+  Ca16  1  0.07317661  0.82777982  0.49643691  1
  Ca2+  Ca17  1  0.08265264  0.83176548  0.83064260  1
  Ca2+  Ca18  1  0.58607612  0.32921933  0.16112626  1
  Ca2+  Ca19  1  0.58756123  0.33692602  0.49784508  1
  Ca2+  Ca20  1  0.58836858  0.32688612  0.82945704  1
  Ca2+  Ca21  1  0.57596805  0.83624555  0.16750690  1
  Ca2+  Ca22  1  0.57776824  0.83478116  0.49160564  1
  Ca2+  Ca23  1  0.57148382  0.83659562  0.82516705  1
  Ca2+  Ca24  1  0.33496734  0.42608722  0.16998951  1
  Ca2+  Ca25  1  0.32543208  0.42598048  0.51284338  1
  Ca2+  Ca26  1  0.32558727  0.42922536  0.83489496  1
  Ca2+  Ca27  1  0.33424225  0.91601959  0.16872142  1
  Ca2+  Ca28  1  0.33777402  0.91743046  0.50052495  1
  Ca2+  Ca29  1  0.32842621  0.90883632  0.83983600  1
  Ca2+  Ca30  1  0.83011334  0.41993029  0.17326028  1
  Ca2+  Ca31  1  0.82689022  0.41977860  0.50328914  1
  Ca2+  Ca32  1  0.83211613  0.40495348  0.83445221  1
  Ca2+  Ca33  1  0.82754295  0.92368436  0.17326645  1
  Ca2+  Ca34  1  0.82321025  0.91482911  0.51044002  1
  Ca2+  Ca35  1  0.83986192  0.92862480  0.83465860  1
  Ca2+  Ca36  1  0.42276954  0.16359545  0.16377108  1
  Ca2+  Ca37  1  0.41573855  0.16827200  0.49217003  1
  Ca2+  Ca38  1  0.42716850  0.16269287  0.83033185  1
  Ca2+  Ca39  1  0.42063732  0.67592934  0.16127011  1
  Ca2+  Ca40  1  0.42070541  0.67554151  0.49461998  1
  Ca2+  Ca41  1  0.40950979  0.67372418  0.82911103  1
  Ca2+  Ca42  1  0.91556893  0.17112653  0.16011308  1
  Ca2+  Ca43  1  0.92403831  0.16604161  0.50255373  1
  Ca2+  Ca44  1  0.91542251  0.17120747  0.82385531  1
  Ca2+  Ca45  1  0.92672503  0.66079480  0.16429041  1
  Ca2+  Ca46  1  0.91624521  0.66819385  0.49351296  1
  Ca2+  Ca47  1  0.92425809  0.67342980  0.82787304  1
  Al0+  Al48  1  0.00004042  -0.00086185  0.01263945  1
  Al0+  Al49  1  0.00164570  -0.00022524  0.32956895  1
  Al0+  Al50  1  0.00101220  -0.00105711  0.66056376  1
  Al0+  Al51  1  0.00016845  0.49905665  -0.00973008  1
  Al0+  Al52  1  -0.00039026  0.49964368  0.33304440  1
  Al0+  Al53  1  -0.00076137  0.49810394  0.66543077  1
  Al0+  Al54  1  0.50009921  -0.00010164  -0.00940802  1
  Al0+  Al55  1  0.49905510  0.00259461  0.33699140  1
  Al0+  Al56  1  0.50018795  -0.00024272  0.66532662  1
  Al0+  Al57  1  0.49917121  0.50051018  0.00453197  1
  Al0+  Al58  1  0.49920608  0.50116845  0.33330112  1
  Al0+  Al59  1  0.50053684  0.50018781  0.67650989  1
  Al0+  Al60  1  0.25018132  0.25099257  -0.00023012  1
  Al0+  Al61  1  0.24988432  0.24951766  0.33004196  1
  Al0+  Al62  1  0.25156110  0.25100631  0.67095514  1
  Al0+  Al63  1  0.25057249  0.74953838  0.00164022  1
  Al0+  Al64  1  0.24858510  0.75227247  0.32845274  1
  Al0+  Al65  1  0.25176259  0.75230038  0.66326450  1
  Al0+  Al66  1  0.74939661  0.24820087  -0.00223221  1
  Al0+  Al67  1  0.75031621  0.25007468  0.33761015  1
  Al0+  Al68  1  0.75080826  0.24925850  0.66676243  1
  Al0+  Al69  1  0.74951070  0.74925068  0.00034007  1
  Al0+  Al70  1  0.74907066  0.75054697  0.33625586  1
  Al0+  Al71  1  0.74720353  0.74774303  0.66931221  1
  Al0+  Al72  1  0.43016787  0.82335023  0.31679411  1
  Al0+  Al73  1  0.93022028  0.31828780  0.98655961  1
  Al0+  Al74  1  0.92658208  0.32206698  0.64785461  1
  Al0+  Al75  1  0.42938189  0.82125958  0.65051835  1
  Al0+  Al76  1  0.43152313  0.81840649  0.98532987  1
  Al0+  Al77  1  0.31937724  0.57037544  0.01701901  1
  Al0+  Al78  1  0.06879002  0.67860131  0.32039546  1
  Al0+  Al79  1  0.92774424  0.82004752  0.65497166  1
  Al0+  Al80  1  0.31879704  0.07061469  0.34606365  1
  Al0+  Al81  1  0.18010441  0.92976434  0.01395078  1
  Al0+  Al82  1  0.56910949  0.18072712  0.98600394  1
  Al0+  Al83  1  0.67637590  0.92577910  0.68369902  1
  Al0+  Al84  1  0.82196023  0.06728942  0.68020786  1
  Al0+  Al85  1  0.31912138  0.57318092  0.68101364  1
  Al0+  Al86  1  0.57176738  0.67777759  0.31832760  1
  Al0+  Al87  1  0.81957094  0.07120529  0.01524849  1
  Al0+  Al88  1  0.07032067  0.68072425  0.98514368  1
  Al0+  Al89  1  0.07275964  0.17897528  0.31699799  1
  Al0+  Al90  1  0.07305002  0.17858752  0.65256094  1
  Al0+  Al91  1  0.67939750  0.93107718  0.34564757  1
  Al0+  Al92  1  0.82295032  0.57102518  0.34779495  1
  Al0+  Al93  1  0.17674616  0.42713154  0.68229530  1
  Al0+  Al94  1  0.67704604  0.42810318  0.34774137  1
  Al0+  Al95  1  0.68093918  0.42940251  0.68249709  1
  Si0+  Si96  1  0.57069043  0.17954959  0.64942713  1
  Si0+  Si97  1  0.57090764  0.18081852  0.32100791  1
  Si0+  Si98  1  0.92607740  0.82351407  0.98599837  1
  Si0+  Si99  1  0.32226004  0.07288117  0.68209481  1
  Si0+  Si100  1  0.07215210  0.67888720  0.65084096  1
  Si0+  Si101  1  0.82480179  0.07259138  0.35112170  1
  Si0+  Si102  1  0.92784830  0.31993505  0.31645699  1
  Si0+  Si103  1  0.68070162  0.42903478  0.01467545  1
  Si0+  Si104  1  0.17558251  0.42787741  0.01734104  1
  Si0+  Si105  1  0.18011025  0.42883803  0.34605985  1
  Si0+  Si106  1  0.42656612  0.32560832  0.98256093  1
  Si0+  Si107  1  0.18043207  0.93045163  0.67884467  1
  Si0+  Si108  1  0.17755039  0.92656359  0.35238712  1
  Si0+  Si109  1  0.82369615  0.57281801  0.68540712  1
  Si0+  Si110  1  0.57439906  0.67530229  0.98278566  1
  Si0+  Si111  1  0.82235575  0.57182204  0.01311109  1
  Si0+  Si112  1  0.57089329  0.67493266  0.65119418  1
  Si0+  Si113  1  0.07301393  0.17493932  0.98541020  1
  Si0+  Si114  1  0.32423207  0.07316779  0.01439493  1
  Si0+  Si115  1  0.43085023  0.32133728  0.65383612  1
  Si0+  Si116  1  0.67589292  0.92780853  0.01590280  1
  Si0+  Si117  1  0.92577828  0.82264038  0.31598830  1
  Si0+  Si118  1  0.31984569  0.57305857  0.34769479  1
  Si0+  Si119  1  0.42789185  0.32224387  0.31956206  1
  O2-  O120  1  0.25222536  0.00857075  0.05864619  1
  O2-  O121  1  0.24425833  -0.00244711  0.39592186  1
  O2-  O122  1  0.25076355  0.00189378  0.72232126  1
  O2-  O123  1  0.24610609  0.49356919  0.06401462  1
  O2-  O124  1  0.24882571  0.50182583  0.38911309  1
  O2-  O125  1  0.24345177  0.50467757  0.73116902  1
  O2-  O126  1  0.74672808  -0.00604075  0.06093853  1
  O2-  O127  1  0.75870456  0.00070755  0.39299409  1
  O2-  O128  1  0.75195094  -0.00563054  0.73276792  1
  O2-  O129  1  0.74876784  0.50311863  0.05574246  1
  O2-  O130  1  0.74776203  0.50160761  0.39672648  1
  O2-  O131  1  0.75848611  0.50061268  0.73035700  1
  O2-  O132  1  -0.00618329  0.24925149  0.27091393  1
  O2-  O133  1  0.00266621  0.25203939  0.60140859  1
  O2-  O134  1  0.00587801  0.24394944  0.94082460  1
  O2-  O135  1  -0.00635522  0.75266679  0.27231730  1
  O2-  O136  1  -0.00215008  0.74133037  0.60686811  1
  O2-  O137  1  -0.00537208  0.75534042  0.94073824  1
  O2-  O138  1  0.50354211  0.25539042  0.27828338  1
  O2-  O139  1  0.49987077  0.25087632  0.60736430  1
  O2-  O140  1  0.49272004  0.25428548  0.93867295  1
  O2-  O141  1  0.50096572  0.75009646  0.26689606  1
  O2-  O142  1  0.50654546  0.74784318  0.60717734  1
  O2-  O143  1  0.50743189  0.74505025  0.93811363  1
  O2-  O144  1  0.07263009  0.17760757  0.09116881  1
  O2-  O145  1  0.07583879  0.18354420  0.42949497  1
  O2-  O146  1  0.07288760  0.17648811  0.76638176  1
  O2-  O147  1  0.06849161  0.68022928  0.09838050  1
  O2-  O148  1  0.06974750  0.67971708  0.43355073  1
  O2-  O149  1  0.07396447  0.68366141  0.75651433  1
  O2-  O150  1  0.56859294  0.18248934  0.09986666  1
  O2-  O151  1  0.56806180  0.18066671  0.42598960  1
  O2-  O152  1  0.56891078  0.18008322  0.75477122  1
  O2-  O153  1  0.57469054  0.67434170  0.08811046  1
  O2-  O154  1  0.56732757  0.67529585  0.43179552  1
  O2-  O155  1  0.56869516  0.67320463  0.75709070  1
  O2-  O156  1  0.18216070  0.42845982  0.24076141  1
  O2-  O157  1  0.18235752  0.42679973  0.56779625  1
  O2-  O158  1  0.17708602  0.42870714  0.91234242  1
  O2-  O159  1  0.17915627  0.92672147  0.24669458  1
  O2-  O160  1  0.18188938  0.92933890  0.57396856  1
  O2-  O161  1  0.17986550  0.93066988  0.90015287  1
  O2-  O162  1  0.67978529  0.42504560  0.23358640  1
  O2-  O163  1  0.67760631  0.43225619  0.56990409  1
  O2-  O164  1  0.68154980  0.42834909  0.90965634  1
  O2-  O165  1  0.67896800  0.93634222  0.23203380  1
  O2-  O166  1  0.67545485  0.92978196  0.56985759  1
  O2-  O167  1  0.67583021  0.92935460  0.91079780  1
  O2-  O168  1  0.42862698  0.32653226  0.08866111  1
  O2-  O169  1  0.42479527  0.32105392  0.42466642  1
  O2-  O170  1  0.43262939  0.31824350  0.75890599  1
  O2-  O171  1  0.43332016  0.81982931  0.09814157  1
  O2-  O172  1  0.43071088  0.82176330  0.43035100  1
  O2-  O173  1  0.42696042  0.82014024  0.76377175  1
  O2-  O174  1  0.93014663  0.31861977  0.10016127  1
  O2-  O175  1  0.92849977  0.32050600  0.42138437  1
  O2-  O176  1  0.92617585  0.31650532  0.76170122  1
  O2-  O177  1  0.92396851  0.82094705  0.09146034  1
  O2-  O178  1  0.92808474  0.82281299  0.42173781  1
  O2-  O179  1  0.93387901  0.82134785  0.76838296  1
  O2-  O180  1  0.31949663  0.07139464  0.23290433  1
  O2-  O181  1  0.32261468  0.07506429  0.57698876  1
  O2-  O182  1  0.32455366  0.07246758  0.90867974  1
  O2-  O183  1  0.31974000  0.57061180  0.24244853  1
  O2-  O184  1  0.31897269  0.57124802  0.56672543  1
  O2-  O185  1  0.31784537  0.57057653  0.90426833  1
  O2-  O186  1  0.82131979  0.07481354  0.24507959  1
  O2-  O187  1  0.82007125  0.06577921  0.56649537  1
  O2-  O188  1  0.82044963  0.07128605  0.90259311  1
  O2-  O189  1  0.82506113  0.56594726  0.23333832  1
  O2-  O190  1  0.82163998  0.57413361  0.58006171  1
  O2-  O191  1  0.82086031  0.57310748  0.90834104  1
  O2-  O192  1  0.04716797  0.08015870  0.26457285  1
  O2-  O193  1  0.04506028  0.08163545  0.59615126  1
  O2-  O194  1  0.04692302  0.07975676  0.94384402  1
  O2-  O195  1  0.04046645  0.58144498  0.26486418  1
  O2-  O196  1  0.05352457  0.58261732  0.60827591  1
  O2-  O197  1  0.04087615  0.58535716  0.92870211  1
  O2-  O198  1  0.53829155  0.09187201  0.27160005  1
  O2-  O199  1  0.54075338  0.08854926  0.60216742  1
  O2-  O200  1  0.53952478  0.08611211  0.92774819  1
  O2-  O201  1  0.54310024  0.57900947  0.26433770  1
  O2-  O202  1  0.54004489  0.58233613  0.60567423  1
  O2-  O203  1  0.54697037  0.58123380  0.93827238  1
  O2-  O204  1  0.16744300  0.21334211  0.26065942  1
  O2-  O205  1  0.17335981  0.20763047  0.60183767  1
  O2-  O206  1  0.16865381  0.19661048  0.94097995  1
  O2-  O207  1  0.16417003  0.71123560  0.26444180  1
  O2-  O208  1  0.16294117  0.71045936  0.60269966  1
  O2-  O209  1  0.16582395  0.71469254  0.93225673  1
  O2-  O210  1  0.66417193  0.20508319  0.27393921  1
  O2-  O211  1  0.66185988  0.20742547  0.60248214  1
  O2-  O212  1  0.66356712  0.21434514  0.93045067  1
  O2-  O213  1  0.67160455  0.70421122  0.26677645  1
  O2-  O214  1  0.66639585  0.69403929  0.60712076  1
  O2-  O215  1  0.66913933  0.69766295  0.93685325  1
  O2-  O216  1  0.08187581  0.45612227  0.06181606  1
  O2-  O217  1  0.08792277  0.45432006  0.39285077  1
  O2-  O218  1  0.07555390  0.44793223  0.73161826  1
  O2-  O219  1  0.08480896  0.95487040  0.07370947  1
  O2-  O220  1  0.08197329  0.94994524  0.39539916  1
  O2-  O221  1  0.08890388  0.95735238  0.72669257  1
  O2-  O222  1  0.58728832  0.45190866  0.06136782  1
  O2-  O223  1  0.57712930  0.45373025  0.40000812  1
  O2-  O224  1  0.58613526  0.46050630  0.74066295  1
  O2-  O225  1  0.58292025  0.95871994  0.06032439  1
  O2-  O226  1  0.58565929  0.96729691  0.40135807  1
  O2-  O227  1  0.57931831  0.96128711  0.73575596  1
  O2-  O228  1  0.19865530  0.33232967  0.06257256  1
  O2-  O229  1  0.21157556  0.33850248  0.39330769  1
  O2-  O230  1  0.21173250  0.33209154  0.73855259  1
  O2-  O231  1  0.21524139  0.83540519  0.06895584  1
  O2-  O232  1  0.20489327  0.83360406  0.39877861  1
  O2-  O233  1  0.20981622  0.83960259  0.72738066  1
  O2-  O234  1  0.71106915  0.33825220  0.06216270  1
  O2-  O235  1  0.70551382  0.33013819  0.40224489  1
  O2-  O236  1  0.70897633  0.33135506  0.73523559  1
  O2-  O237  1  0.69832984  0.83245334  0.06083124  1
  O2-  O238  1  0.70363907  0.83331350  0.39963506  1
  O2-  O239  1  0.69610464  0.82488829  0.73428957  1
  O2-  O240  1  0.45213432  0.41454271  0.27126098  1
  O2-  O241  1  0.45916204  0.41394454  0.60846979  1
  O2-  O242  1  0.45537476  0.41818130  0.93670109  1
  O2-  O243  1  0.46070702  0.92253916  0.26575860  1
  O2-  O244  1  0.45792350  0.91936782  0.59784122  1
  O2-  O245  1  0.45761659  0.91510735  0.92893987  1
  O2-  O246  1  0.95641196  0.41251336  0.26982907  1
  O2-  O247  1  0.95101803  0.42234738  0.59646456  1
  O2-  O248  1  0.95784212  0.41382801  0.92930222  1
  O2-  O249  1  0.95184560  0.91605995  0.26923702  1
  O2-  O250  1  0.96221034  0.91260503  0.59626000  1
  O2-  O251  1  0.95485073  0.91786450  0.94360689  1
  O2-  O252  1  0.33951475  0.29061719  0.26785582  1
  O2-  O253  1  0.33896728  0.29419940  0.60641857  1
  O2-  O254  1  0.33126303  0.30368832  0.93818975  1
  O2-  O255  1  0.33090516  0.79640371  0.26532522  1
  O2-  O256  1  0.33357218  0.79052492  0.59458529  1
  O2-  O257  1  0.33513542  0.78505397  0.93301988  1
  O2-  O258  1  0.83303663  0.29503059  0.27101052  1
  O2-  O259  1  0.82879315  0.29074164  0.59523162  1
  O2-  O260  1  0.83422943  0.28622744  0.93306376  1
  O2-  O261  1  0.83148147  0.80047404  0.27078686  1
  O2-  O262  1  0.82894923  0.79211696  0.60359675  1
  O2-  O263  1  0.83256212  0.79880071  0.93882564  1
  O2-  O264  1  0.41720307  0.04327440  0.05965521  1
  O2-  O265  1  0.41466109  0.04266377  0.40284860  1
  O2-  O266  1  0.41380648  0.04401140  0.72882110  1
  O2-  O267  1  0.41660038  0.53980165  0.07175297  1
  O2-  O268  1  0.41106298  0.54463657  0.39483668  1
  O2-  O269  1  0.41460789  0.54113929  0.73730147  1
  O2-  O270  1  0.91506200  0.04379125  0.07332019  1
  O2-  O271  1  0.92044716  0.04961046  0.39334780  1
  O2-  O272  1  0.92153108  0.03903617  0.73193667  1
  O2-  O273  1  0.91415215  0.54019917  0.05819423  1
  O2-  O274  1  0.92014079  0.54023571  0.40241266  1
  O2-  O275  1  0.91926645  0.55201407  0.72914080  1
  O2-  O276  1  0.30541742  0.16952442  0.05909159  1
  O2-  O277  1  0.28899389  0.16842584  0.39980326  1
  O2-  O278  1  0.29788209  0.16387059  0.73245112  1
  O2-  O279  1  0.28604105  0.66525679  0.07153706  1
  O2-  O280  1  0.29101429  0.66523294  0.39293229  1
  O2-  O281  1  0.29059996  0.67228542  0.73306500  1
  O2-  O282  1  0.78334568  0.16623072  0.07008851  1
  O2-  O283  1  0.79712772  0.16494607  0.39760730  1
  O2-  O284  1  0.79027912  0.16513035  0.73184370  1
  O2-  O285  1  0.79812046  0.66426799  0.06203381  1
  O2-  O286  1  0.79890271  0.67059497  0.39941903  1
  O2-  O287  1  0.79483430  0.66424760  0.73457945  1
