# generated using pymatgen
data_Ca2Al2SiO7
_symmetry_space_group_name_H-M   'P 1'
_cell_length_a   15.46481749
_cell_length_b   15.46561638
_cell_length_c   15.28862775
_cell_angle_alpha   90.02318154
_cell_angle_beta   90.00829752
_cell_angle_gamma   90.01546599
_symmetry_Int_Tables_number   1
_chemical_formula_structural   Ca2Al2SiO7
_chemical_formula_sum   'Ca48 Al48 Si24 O168'
_cell_volume   3656.62549581
_cell_formula_units_Z   24
loop_
 _symmetry_equiv_pos_site_id
 _symmetry_equiv_pos_as_xyz
  1  'x, y, z'
loop_
 _atom_type_symbol
 _atom_type_oxidation_number
  Ca2+  2.0
  Al0+  0.0
  Si0+  0.0
  O2-  -2.0
loop_
 _atom_site_type_symbol
 _atom_site_label
 _atom_site_symmetry_multiplicity
 _atom_site_fract_x
 _atom_site_fract_y
 _atom_site_fract_z
 _atom_site_occupancy
  Ca2+  Ca0  1  0.17319738  0.07413735  0.17791041  1
  Ca2+  Ca1  1  0.17507202  0.07945775  0.50321838  1
  Ca2+  Ca2  1  0.17206758  0.07304622  0.83526032  1
  Ca2+  Ca3  1  0.16498824  0.57154312  0.17100435  1
  Ca2+  Ca4  1  0.17404438  0.58002275  0.50269561  1
  Ca2+  Ca5  1  0.17640325  0.58119196  0.83500699  1
  Ca2+  Ca6  1  0.66023788  0.07393914  0.17348577  1
  Ca2+  Ca7  1  0.65641842  0.07273241  0.50084127  1
  Ca2+  Ca8  1  0.66411738  0.06884565  0.83447675  1
  Ca2+  Ca9  1  0.67057983  0.58565904  0.16992051  1
  Ca2+  Ca10  1  0.66787608  0.57121166  0.51150305  1
  Ca2+  Ca11  1  0.67338350  0.59212775  0.83557732  1
  Ca2+  Ca12  1  0.08685321  0.33178638  0.16535075  1
  Ca2+  Ca13  1  0.07281874  0.33147744  0.48832984  1
  Ca2+  Ca14  1  0.07837007  0.33724467  0.82678318  1
  Ca2+  Ca15  1  0.08512935  0.83742258  0.16209217  1
  Ca2+  Ca16  1  0.08726176  0.83673474  0.49540179  1
  Ca2+  Ca17  1  0.08360166  0.83847259  0.82734655  1
  Ca2+  Ca18  1  0.58951361  0.32748124  0.16938476  1
  Ca2+  Ca19  1  0.58830176  0.32850689  0.49104618  1
  Ca2+  Ca20  1  0.58845675  0.32904046  0.82559883  1
  Ca2+  Ca21  1  0.57315813  0.83769412  0.15909654  1
  Ca2+  Ca22  1  0.57342795  0.83640766  0.49545989  1
  Ca2+  Ca23  1  0.57768501  0.82730021  0.82697926  1
  Ca2+  Ca24  1  0.32267228  0.41654892  0.17281726  1
  Ca2+  Ca25  1  0.32703954  0.41955570  0.50564823  1
  Ca2+  Ca26  1  0.33442575  0.42764156  0.83653383  1
  Ca2+  Ca27  1  0.32896106  0.91450117  0.17522124  1
  Ca2+  Ca28  1  0.33223286  0.92364387  0.50489923  1
  Ca2+  Ca29  1  0.33127748  0.91257255  0.83311455  1
  Ca2+  Ca30  1  0.83023256  0.42224017  0.17359278  1
  Ca2+  Ca31  1  0.82746448  0.41342193  0.50585305  1
  Ca2+  Ca32  1  0.83096576  0.42519483  0.83143202  1
  Ca2+  Ca33  1  0.81788850  0.91554752  0.17152367  1
  Ca2+  Ca34  1  0.81850729  0.91632479  0.50443168  1
  Ca2+  Ca35  1  0.81679428  0.90646531  0.83528277  1
  Ca2+  Ca36  1  0.41805706  0.16207618  0.17154940  1
  Ca2+  Ca37  1  0.41808358  0.16063483  0.49390321  1
  Ca2+  Ca38  1  0.41342422  0.16802817  0.82949767  1
  Ca2+  Ca39  1  0.42382709  0.68031261  0.15832919  1
  Ca2+  Ca40  1  0.41630296  0.67604527  0.49961838  1
  Ca2+  Ca41  1  0.42362016  0.67636665  0.82311717  1
  Ca2+  Ca42  1  0.92200054  0.17165420  0.16783024  1
  Ca2+  Ca43  1  0.92196583  0.17738384  0.48971520  1
  Ca2+  Ca44  1  0.91964755  0.17416142  0.82247992  1
  Ca2+  Ca45  1  0.91668281  0.66545651  0.16268030  1
  Ca2+  Ca46  1  0.91556094  0.66457067  0.50075482  1
  Ca2+  Ca47  1  0.91687928  0.65958675  0.82968228  1
  Al0+  Al48  1  0.00113231  0.00196362  0.00078417  1
  Al0+  Al49  1  -0.00174058  0.00019698  0.33041485  1
  Al0+  Al50  1  0.00031157  -0.00014030  0.66715738  1
  Al0+  Al51  1  -0.00132923  0.50039134  0.00655885  1
  Al0+  Al52  1  0.00014257  0.50175457  0.33294566  1
  Al0+  Al53  1  -0.00219840  0.49962170  0.66324770  1
  Al0+  Al54  1  0.49935745  0.00215192  -0.00185172  1
  Al0+  Al55  1  0.49837644  -0.00010907  0.33139450  1
  Al0+  Al56  1  0.49858104  0.00066717  0.67282869  1
  Al0+  Al57  1  0.50220943  0.49886974  -0.00161704  1
  Al0+  Al58  1  0.50197970  0.50116805  0.33503147  1
  Al0+  Al59  1  0.49895698  0.49778590  0.67090441  1
  Al0+  Al60  1  0.24954779  0.24923384  0.00142913  1
  Al0+  Al61  1  0.24940803  0.25010222  0.33742601  1
  Al0+  Al62  1  0.24926068  0.24707917  0.66967720  1
  Al0+  Al63  1  0.24995987  0.74947232  -0.00016924  1
  Al0+  Al64  1  0.24926172  0.74896902  0.33030286  1
  Al0+  Al65  1  0.24941721  0.74824696  0.66956507  1
  Al0+  Al66  1  0.75192934  0.25139498  -0.00269856  1
  Al0+  Al67  1  0.75066829  0.25101058  0.32542786  1
  Al0+  Al68  1  0.75082621  0.24946750  0.66527279  1
  Al0+  Al69  1  0.75128704  0.75069059  0.00709310  1
  Al0+  Al70  1  0.75093304  0.75023898  0.33806795  1
  Al0+  Al71  1  0.75115696  0.74741273  0.66869883  1
  Al0+  Al72  1  0.42946463  0.81970998  0.31976234  1
  Al0+  Al73  1  0.67823650  0.92986928  0.34724504  1
  Al0+  Al74  1  0.57319924  0.67704758  0.65020056  1
  Al0+  Al75  1  0.17805826  0.92811457  0.68170607  1
  Al0+  Al76  1  0.67881569  0.92847448  0.67995860  1
  Al0+  Al77  1  0.32161332  0.07181578  0.68460637  1
  Al0+  Al78  1  0.68008302  0.42920675  0.34560944  1
  Al0+  Al79  1  0.42746008  0.82233639  0.98272095  1
  Al0+  Al80  1  0.92948430  0.32309654  0.31442867  1
  Al0+  Al81  1  0.67965920  0.93176479  0.01429834  1
  Al0+  Al82  1  0.17651520  0.92648019  0.34773990  1
  Al0+  Al83  1  0.18064622  0.43053047  0.01215020  1
  Al0+  Al84  1  0.93009015  0.32040661  0.65218187  1
  Al0+  Al85  1  0.32067042  0.06987937  0.34798816  1
  Al0+  Al86  1  0.42888277  0.82139326  0.64946582  1
  Al0+  Al87  1  0.17882941  0.42932818  0.34812079  1
  Al0+  Al88  1  0.57389930  0.67908717  0.98549004  1
  Al0+  Al89  1  0.32141323  0.57024149  0.67959752  1
  Al0+  Al90  1  0.67818803  0.42584112  0.68184577  1
  Al0+  Al91  1  0.56940544  0.17964036  0.32036152  1
  Al0+  Al92  1  0.17920861  0.92850355  0.01453675  1
  Al0+  Al93  1  0.07283685  0.17840101  0.31691736  1
  Al0+  Al94  1  0.82097650  0.56969494  0.68157520  1
  Al0+  Al95  1  0.81899801  0.56996851  0.01568002  1
  Si0+  Si96  1  0.57233422  0.18075501  0.98353417  1
  Si0+  Si97  1  0.32256253  0.57193367  0.34812309  1
  Si0+  Si98  1  0.82143462  0.07264268  0.34815669  1
  Si0+  Si99  1  0.42607906  0.32096360  0.65307509  1
  Si0+  Si100  1  0.32493407  0.57206831  0.01732400  1
  Si0+  Si101  1  0.82267963  0.07567131  0.01604496  1
  Si0+  Si102  1  0.67718362  0.42473407  0.01784184  1
  Si0+  Si103  1  0.93103916  0.82189977  0.98624372  1
  Si0+  Si104  1  0.42763938  0.32573838  0.31803781  1
  Si0+  Si105  1  0.57395650  0.67728779  0.31782049  1
  Si0+  Si106  1  0.06958382  0.67713041  0.98565995  1
  Si0+  Si107  1  0.93044083  0.32230958  0.98280832  1
  Si0+  Si108  1  0.32122058  0.07314876  0.01838895  1
  Si0+  Si109  1  0.82236395  0.57281434  0.35156494  1
  Si0+  Si110  1  0.92651668  0.82130619  0.31817063  1
  Si0+  Si111  1  0.17745189  0.42832475  0.68068726  1
  Si0+  Si112  1  0.56999836  0.18021351  0.65297865  1
  Si0+  Si113  1  0.42707049  0.31997636  0.98601548  1
  Si0+  Si114  1  0.07040504  0.68020523  0.31759593  1
  Si0+  Si115  1  0.07057979  0.67852365  0.65203292  1
  Si0+  Si116  1  0.07164786  0.17956271  0.98250280  1
  Si0+  Si117  1  0.07237734  0.17623097  0.64938257  1
  Si0+  Si118  1  0.82227820  0.07088578  0.68127265  1
  Si0+  Si119  1  0.92876022  0.82208019  0.65214498  1
  O2-  O120  1  0.25746192  -0.00089266  0.06050177  1
  O2-  O121  1  0.24710434  -0.00077125  0.39722722  1
  O2-  O122  1  0.25130306  -0.00235734  0.73298193  1
  O2-  O123  1  0.25625216  0.50305654  0.06123116  1
  O2-  O124  1  0.25728756  0.50018453  0.39333399  1
  O2-  O125  1  0.24842277  0.49321690  0.72633579  1
  O2-  O126  1  0.75319726  0.00824851  0.06055119  1
  O2-  O127  1  0.75221753  0.00556074  0.39384178  1
  O2-  O128  1  0.75624227  0.00083305  0.72707141  1
  O2-  O129  1  0.74139314  0.49788710  0.06092482  1
  O2-  O130  1  0.75392833  0.50329932  0.39344854  1
  O2-  O131  1  0.74499178  0.50234877  0.73227187  1
  O2-  O132  1  0.00388219  0.25298509  0.26457560  1
  O2-  O133  1  0.00525097  0.24644450  0.60599798  1
  O2-  O134  1  0.00037441  0.25045343  0.93984397  1
  O2-  O135  1  0.00072594  0.75320473  0.27603973  1
  O2-  O136  1  0.00135747  0.75210359  0.61062573  1
  O2-  O137  1  0.00415446  0.75322366  0.94305127  1
  O2-  O138  1  0.49615149  0.25651812  0.27367952  1
  O2-  O139  1  0.49936187  0.25199979  0.61149588  1
  O2-  O140  1  0.50161153  0.25278260  0.94254505  1
  O2-  O141  1  0.50619369  0.74647932  0.27365037  1
  O2-  O142  1  0.50317748  0.75087806  0.59980008  1
  O2-  O143  1  0.49945117  0.74853146  0.93538174  1
  O2-  O144  1  0.07143216  0.18010578  0.08713678  1
  O2-  O145  1  0.06906546  0.17933777  0.43046130  1
  O2-  O146  1  0.07024814  0.17681279  0.75558265  1
  O2-  O147  1  0.06667539  0.67577797  0.09098077  1
  O2-  O148  1  0.06998620  0.67846598  0.42263863  1
  O2-  O149  1  0.06905294  0.67595758  0.75735890  1
  O2-  O150  1  0.57331630  0.18077192  0.08846748  1
  O2-  O151  1  0.56892620  0.18001248  0.43360101  1
  O2-  O152  1  0.57112290  0.18180521  0.75857409  1
  O2-  O153  1  0.57231208  0.68054579  0.09957908  1
  O2-  O154  1  0.57344343  0.67605969  0.42294158  1
  O2-  O155  1  0.57274156  0.68048723  0.76382585  1
  O2-  O156  1  0.17972267  0.43204936  0.23460298  1
  O2-  O157  1  0.17843669  0.43050800  0.57533455  1
  O2-  O158  1  0.18075186  0.43278179  0.89886347  1
  O2-  O159  1  0.17926041  0.92662771  0.23389150  1
  O2-  O160  1  0.17508540  0.93058491  0.56877333  1
  O2-  O161  1  0.17418796  0.93221744  0.90206572  1
  O2-  O162  1  0.68059299  0.43166762  0.23228361  1
  O2-  O163  1  0.68163741  0.42279782  0.56830478  1
  O2-  O164  1  0.68050125  0.41854369  0.91287058  1
  O2-  O165  1  0.67987754  0.93041673  0.23399929  1
  O2-  O166  1  0.67910340  0.93163300  0.56689569  1
  O2-  O167  1  0.68240235  0.93212832  0.90116520  1
  O2-  O168  1  0.42506891  0.31827397  0.09084971  1
  O2-  O169  1  0.42888552  0.32809357  0.42347971  1
  O2-  O170  1  0.42456162  0.31913485  0.75854034  1
  O2-  O171  1  0.42842652  0.82211637  0.09674977  1
  O2-  O172  1  0.42869202  0.81917719  0.43246496  1
  O2-  O173  1  0.42933282  0.81989959  0.76298804  1
  O2-  O174  1  0.93027786  0.32127017  0.08740233  1
  O2-  O175  1  0.92968195  0.32143754  0.42800131  1
  O2-  O176  1  0.93300688  0.31984558  0.76614405  1
  O2-  O177  1  0.93158512  0.82075564  0.09154235  1
  O2-  O178  1  0.92367493  0.81901135  0.42315991  1
  O2-  O179  1  0.92915789  0.82263575  0.75745108  1
  O2-  O180  1  0.32159372  0.06769669  0.23408843  1
  O2-  O181  1  0.32103729  0.07456645  0.57173113  1
  O2-  O182  1  0.31782688  0.07837331  0.91318111  1
  O2-  O183  1  0.31969858  0.57070141  0.24240838  1
  O2-  O184  1  0.31734905  0.56913792  0.56642798  1
  O2-  O185  1  0.32269595  0.56994621  0.91164954  1
  O2-  O186  1  0.82102078  0.06907835  0.24219298  1
  O2-  O187  1  0.82185560  0.06964739  0.57579360  1
  O2-  O188  1  0.82158127  0.07766381  0.91044325  1
  O2-  O189  1  0.82151030  0.57463465  0.24566732  1
  O2-  O190  1  0.82456515  0.56712687  0.56838751  1
  O2-  O191  1  0.82361181  0.56711737  0.90336702  1
  O2-  O192  1  0.04080888  0.08069129  0.26243181  1
  O2-  O193  1  0.04524789  0.08338933  0.60313415  1
  O2-  O194  1  0.04236384  0.08820964  0.93449988  1
  O2-  O195  1  0.03952049  0.59014222  0.26781689  1
  O2-  O196  1  0.03993749  0.58887671  0.60169416  1
  O2-  O197  1  0.03568278  0.58741133  0.93778508  1
  O2-  O198  1  0.53601033  0.08532737  0.26329616  1
  O2-  O199  1  0.54077204  0.08847061  0.60726533  1
  O2-  O200  1  0.54397890  0.09000547  0.93479119  1
  O2-  O201  1  0.54898839  0.58379653  0.27023752  1
  O2-  O202  1  0.54264584  0.57667519  0.60182041  1
  O2-  O203  1  0.55316551  0.57677591  0.93603658  1
  O2-  O204  1  0.17242101  0.20602723  0.26540857  1
  O2-  O205  1  0.16696798  0.20047455  0.60553106  1
  O2-  O206  1  0.16316951  0.20870089  0.93526230  1
  O2-  O207  1  0.16171367  0.70390270  0.26728542  1
  O2-  O208  1  0.16220909  0.70384950  0.60388842  1
  O2-  O209  1  0.16362241  0.69804326  0.94015103  1
  O2-  O210  1  0.66483668  0.20845956  0.26246572  1
  O2-  O211  1  0.66190158  0.20574306  0.60512424  1
  O2-  O212  1  0.66433790  0.20827688  0.93536856  1
  O2-  O213  1  0.66891835  0.70281200  0.27403048  1
  O2-  O214  1  0.67442571  0.70023237  0.60024060  1
  O2-  O215  1  0.67316831  0.71076258  0.93580790  1
  O2-  O216  1  0.08598830  0.46307989  0.06830891  1
  O2-  O217  1  0.08352868  0.46518278  0.40080365  1
  O2-  O218  1  0.08544114  0.45853430  0.72655826  1
  O2-  O219  1  0.08231939  0.96146325  0.06779498  1
  O2-  O220  1  0.07503053  0.95037583  0.39612208  1
  O2-  O221  1  0.07917951  0.95780961  0.73538887  1
  O2-  O222  1  0.58107310  0.44314405  0.06142625  1
  O2-  O223  1  0.58258708  0.45609097  0.40011752  1
  O2-  O224  1  0.57727599  0.44406990  0.73271630  1
  O2-  O225  1  0.58266056  0.96457391  0.06605142  1
  O2-  O226  1  0.58291973  0.96298221  0.39987855  1
  O2-  O227  1  0.58562805  0.96303119  0.73641319  1
  O2-  O228  1  0.21083746  0.33362298  0.06579937  1
  O2-  O229  1  0.20532794  0.33298251  0.40274048  1
  O2-  O230  1  0.19820908  0.33346606  0.72562664  1
  O2-  O231  1  0.20272371  0.82866991  0.06581070  1
  O2-  O232  1  0.20295788  0.82645367  0.39774918  1
  O2-  O233  1  0.20155406  0.82845899  0.73380810  1
  O2-  O234  1  0.70882984  0.33283473  0.06497788  1
  O2-  O235  1  0.71026663  0.33092342  0.39609390  1
  O2-  O236  1  0.71231670  0.32901518  0.73610915  1
  O2-  O237  1  0.71376194  0.83777505  0.07029634  1
  O2-  O238  1  0.71164508  0.83463563  0.40181618  1
  O2-  O239  1  0.71229554  0.83301290  0.73357232  1
  O2-  O240  1  0.45351085  0.41863611  0.26959961  1
  O2-  O241  1  0.44894974  0.41354879  0.60602844  1
  O2-  O242  1  0.45036963  0.41326899  0.93927758  1
  O2-  O243  1  0.46041885  0.91531266  0.26469877  1
  O2-  O244  1  0.45756264  0.92225376  0.60147072  1
  O2-  O245  1  0.45499909  0.92229619  0.93246701  1
  O2-  O246  1  0.95697196  0.42315314  0.26401975  1
  O2-  O247  1  0.96022959  0.41620240  0.59689296  1
  O2-  O248  1  0.96182938  0.41398453  0.93750639  1
  O2-  O249  1  0.94878439  0.91348324  0.26911388  1
  O2-  O250  1  0.95431462  0.91415003  0.60393123  1
  O2-  O251  1  0.95538565  0.91470776  0.93880873  1
  O2-  O252  1  0.33398532  0.29916599  0.27268577  1
  O2-  O253  1  0.33433983  0.29185489  0.60540893  1
  O2-  O254  1  0.33716440  0.28864362  0.93614769  1
  O2-  O255  1  0.33347223  0.78675473  0.26460269  1
  O2-  O256  1  0.32951492  0.78921525  0.60018926  1
  O2-  O257  1  0.32782551  0.79353223  0.93150745  1
  O2-  O258  1  0.83300652  0.29269463  0.25857853  1
  O2-  O259  1  0.83398980  0.28749828  0.59843327  1
  O2-  O260  1  0.83834319  0.29547484  0.93503123  1
  O2-  O261  1  0.83635264  0.78892282  0.26877285  1
  O2-  O262  1  0.83837116  0.79214987  0.60337931  1
  O2-  O263  1  0.83986596  0.79058375  0.94028914  1
  O2-  O264  1  0.41759838  0.05401208  0.06029382  1
  O2-  O265  1  0.41816785  0.04006970  0.40107565  1
  O2-  O266  1  0.41964034  0.04731796  0.73964258  1
  O2-  O267  1  0.41873206  0.54645391  0.06237419  1
  O2-  O268  1  0.41715532  0.55147335  0.39328151  1
  O2-  O269  1  0.41542742  0.53892895  0.73744353  1
  O2-  O270  1  0.91605112  0.04929779  0.06147476  1
  O2-  O271  1  0.91422500  0.04649150  0.39452598  1
  O2-  O272  1  0.91616134  0.04885676  0.72803525  1
  O2-  O273  1  0.91385717  0.53710677  0.07238676  1
  O2-  O274  1  0.91671788  0.54906955  0.39579384  1
  O2-  O275  1  0.91886572  0.53714652  0.73517454  1
  O2-  O276  1  0.29086854  0.16447177  0.06633129  1
  O2-  O277  1  0.29764122  0.16967054  0.40040786  1
  O2-  O278  1  0.29069508  0.16958231  0.74004110  1
  O2-  O279  1  0.29780283  0.66511898  0.06262757  1
  O2-  O280  1  0.28989975  0.66267638  0.39498455  1
  O2-  O281  1  0.28611256  0.66319932  0.73681299  1
  O2-  O282  1  0.79810230  0.16958961  0.06210546  1
  O2-  O283  1  0.79719733  0.16738141  0.39072841  1
  O2-  O284  1  0.79419173  0.16312501  0.72855763  1
  O2-  O285  1  0.79315784  0.66670478  0.07226356  1
  O2-  O286  1  0.79867424  0.66602020  0.39863702  1
  O2-  O287  1  0.80016526  0.66954504  0.73532059  1
