# generated using pymatgen
data_Ca2Al2SiO7
_symmetry_space_group_name_H-M   'P 1'
_cell_length_a   15.45791319
_cell_length_b   15.45638670
_cell_length_c   15.28226878
_cell_angle_alpha   89.99760092
_cell_angle_beta   89.98873616
_cell_angle_gamma   89.99529177
_symmetry_Int_Tables_number   1
_chemical_formula_structural   Ca2Al2SiO7
_chemical_formula_sum   'Ca48 Al48 Si24 O168'
_cell_volume   3651.29281390
_cell_formula_units_Z   24
loop_
 _symmetry_equiv_pos_site_id
 _symmetry_equiv_pos_as_xyz
  1  'x, y, z'
loop_
 _atom_type_symbol
 _atom_type_oxidation_number
  Ca2+  2.0
  Al0+  0.0
  Si0+  0.0
  O2-  -2.0
loop_
 _atom_site_type_symbol
 _atom_site_label
 _atom_site_symmetry_multiplicity
 _atom_site_fract_x
 _atom_site_fract_y
 _atom_site_fract_z
 _atom_site_occupancy
  Ca2+  Ca0  1  0.18129995  0.08192226  0.17289379  1
  Ca2+  Ca1  1  0.17662962  0.07609209  0.50909700  1
  Ca2+  Ca2  1  0.18016148  0.08149533  0.83740009  1
  Ca2+  Ca3  1  0.15874377  0.58275108  0.16499150  1
  Ca2+  Ca4  1  0.16120378  0.58042555  0.50769870  1
  Ca2+  Ca5  1  0.15881173  0.57393483  0.83638114  1
  Ca2+  Ca6  1  0.67409101  0.08776568  0.16741870  1
  Ca2+  Ca7  1  0.67481437  0.08664116  0.50371370  1
  Ca2+  Ca8  1  0.67349812  0.09624452  0.83708313  1
  Ca2+  Ca9  1  0.65633798  0.57748581  0.16708608  1
  Ca2+  Ca10  1  0.67699852  0.58051874  0.50921274  1
  Ca2+  Ca11  1  0.67052577  0.57789775  0.84141741  1
  Ca2+  Ca12  1  0.07685614  0.33397511  0.16389631  1
  Ca2+  Ca13  1  0.07309777  0.33668467  0.49886175  1
  Ca2+  Ca14  1  0.08096680  0.33613772  0.82539744  1
  Ca2+  Ca15  1  0.08151305  0.82523749  0.16327104  1
  Ca2+  Ca16  1  0.08537974  0.82467162  0.49479119  1
  Ca2+  Ca17  1  0.08952503  0.82256319  0.82706174  1
  Ca2+  Ca18  1  0.57740695  0.32931745  0.15939853  1
  Ca2+  Ca19  1  0.57146768  0.32610187  0.49936357  1
  Ca2+  Ca20  1  0.58073175  0.32499795  0.82703399  1
  Ca2+  Ca21  1  0.57349328  0.83225925  0.15932839  1
  Ca2+  Ca22  1  0.57838540  0.83387627  0.49546297  1
  Ca2+  Ca23  1  0.57915117  0.83334174  0.83565686  1
  Ca2+  Ca24  1  0.32612193  0.41433460  0.17200196  1
  Ca2+  Ca25  1  0.32890147  0.41379982  0.50766763  1
  Ca2+  Ca26  1  0.32155064  0.40903347  0.83647987  1
  Ca2+  Ca27  1  0.34426149  0.92429872  0.17066081  1
  Ca2+  Ca28  1  0.33247054  0.92479582  0.50626796  1
  Ca2+  Ca29  1  0.33356486  0.92357558  0.83568913  1
  Ca2+  Ca30  1  0.82532142  0.41464652  0.16940502  1
  Ca2+  Ca31  1  0.83886422  0.41893843  0.50756666  1
  Ca2+  Ca32  1  0.83102538  0.41981475  0.83576740  1
  Ca2+  Ca33  1  0.83645324  0.92601815  0.17419708  1
  Ca2+  Ca34  1  0.83989611  0.92615799  0.50412177  1
  Ca2+  Ca35  1  0.83272323  0.93100169  0.83795359  1
  Ca2+  Ca36  1  0.41874466  0.16592760  0.15989496  1
  Ca2+  Ca37  1  0.41072993  0.17200840  0.49772779  1
  Ca2+  Ca38  1  0.42512290  0.16444294  0.82529742  1
  Ca2+  Ca39  1  0.41802270  0.68145063  0.15805753  1
  Ca2+  Ca40  1  0.41617857  0.67474982  0.49275514  1
  Ca2+  Ca41  1  0.41903821  0.66958797  0.83449703  1
  Ca2+  Ca42  1  0.90973312  0.16875857  0.16398350  1
  Ca2+  Ca43  1  0.91070217  0.17447219  0.49575042  1
  Ca2+  Ca44  1  0.91217926  0.17225681  0.82499822  1
  Ca2+  Ca45  1  0.92537954  0.67186167  0.16453902  1
  Ca2+  Ca46  1  0.92713518  0.66915964  0.49460508  1
  Ca2+  Ca47  1  0.92545854  0.66215515  0.82606997  1
  Al0+  Al48  1  0.00212135  0.00179125  0.00460819  1
  Al0+  Al49  1  0.00226911  0.00013053  0.33540426  1
  Al0+  Al50  1  -0.00000665  -0.00120209  0.67649298  1
  Al0+  Al51  1  -0.00183760  0.50050792  0.00221918  1
  Al0+  Al52  1  -0.00185997  0.49764285  0.32445064  1
  Al0+  Al53  1  0.00050807  0.50064041  0.66632659  1
  Al0+  Al54  1  0.50225832  0.00149418  -0.00511323  1
  Al0+  Al55  1  0.50298164  0.00076050  0.33540179  1
  Al0+  Al56  1  0.50291462  -0.00144713  0.66473719  1
  Al0+  Al57  1  0.49768694  0.50129094  0.00089068  1
  Al0+  Al58  1  0.49761432  0.49655176  0.33324460  1
  Al0+  Al59  1  0.50040546  0.49994846  0.66267785  1
  Al0+  Al60  1  0.24677350  0.24961363  0.01005789  1
  Al0+  Al61  1  0.24885727  0.25091853  0.33477932  1
  Al0+  Al62  1  0.24919493  0.24957983  0.67108730  1
  Al0+  Al63  1  0.24791715  0.74951060  -0.00911926  1
  Al0+  Al64  1  0.25231014  0.74833876  0.32392067  1
  Al0+  Al65  1  0.25116988  0.74842990  0.66535364  1
  Al0+  Al66  1  0.74849927  0.25342427  0.00483537  1
  Al0+  Al67  1  0.74856436  0.25047929  0.33442088  1
  Al0+  Al68  1  0.74816780  0.25099738  0.66057765  1
  Al0+  Al69  1  0.75095349  0.75206677  -0.00271065  1
  Al0+  Al70  1  0.75151578  0.74830913  0.33044280  1
  Al0+  Al71  1  0.75178214  0.75062551  0.67172223  1
  Al0+  Al72  1  0.92848340  0.82380866  0.31919633  1
  Al0+  Al73  1  0.42651417  0.31998806  0.31787269  1
  Al0+  Al74  1  0.57085467  0.18274447  0.98718784  1
  Al0+  Al75  1  0.32276538  0.07102324  0.34817139  1
  Al0+  Al76  1  0.42912790  0.82281067  0.98185095  1
  Al0+  Al77  1  0.06692361  0.67941125  0.98255336  1
  Al0+  Al78  1  0.93064523  0.31961697  0.65490976  1
  Al0+  Al79  1  0.82180934  0.57074389  0.67912353  1
  Al0+  Al80  1  0.17738119  0.42976570  0.01646854  1
  Al0+  Al81  1  0.81897513  0.07270065  0.67984136  1
  Al0+  Al82  1  0.67750943  0.43155893  0.01320613  1
  Al0+  Al83  1  0.43203481  0.82198708  0.32106771  1
  Al0+  Al84  1  0.57225755  0.67681549  0.98456405  1
  Al0+  Al85  1  0.17917490  0.92567723  0.68171934  1
  Al0+  Al86  1  0.82117288  0.07210235  0.01453388  1
  Al0+  Al87  1  0.18000135  0.43068631  0.67794312  1
  Al0+  Al88  1  0.57137564  0.17703461  0.64895987  1
  Al0+  Al89  1  0.07157400  0.67798973  0.31652984  1
  Al0+  Al90  1  0.07026216  0.68014961  0.65256130  1
  Al0+  Al91  1  0.92762927  0.31858626  0.31753974  1
  Al0+  Al92  1  0.42601826  0.32066006  0.65317008  1
  Al0+  Al93  1  0.32248338  0.06858295  0.01439022  1
  Al0+  Al94  1  0.32249845  0.07094466  0.68230766  1
  Al0+  Al95  1  0.82205299  0.07077003  0.34820223  1
  Si0+  Si96  1  0.57111739  0.17958903  0.31538391  1
  Si0+  Si97  1  0.67672451  0.42899219  0.35088013  1
  Si0+  Si98  1  0.17700383  0.43079105  0.34893654  1
  Si0+  Si99  1  0.07235362  0.17909856  0.98612896  1
  Si0+  Si100  1  0.92906112  0.31900890  0.98535547  1
  Si0+  Si101  1  0.17927938  0.92596040  0.01793765  1
  Si0+  Si102  1  0.42368534  0.32180131  0.98550201  1
  Si0+  Si103  1  0.32038850  0.57338741  0.01681532  1
  Si0+  Si104  1  0.67693269  0.42969363  0.68173034  1
  Si0+  Si105  1  0.67931971  0.92748184  0.01701033  1
  Si0+  Si106  1  0.07264453  0.17792432  0.31777849  1
  Si0+  Si107  1  0.82095267  0.56918645  0.34714822  1
  Si0+  Si108  1  0.57283715  0.67579274  0.31953697  1
  Si0+  Si109  1  0.32533637  0.57270824  0.68237304  1
  Si0+  Si110  1  0.82155398  0.57374194  0.01823399  1
  Si0+  Si111  1  0.92823353  0.82665153  0.98174011  1
  Si0+  Si112  1  0.32096873  0.57086479  0.34693094  1
  Si0+  Si113  1  0.67794987  0.92623706  0.68468465  1
  Si0+  Si114  1  0.43067590  0.81885793  0.65049901  1
  Si0+  Si115  1  0.18028856  0.92532737  0.34818159  1
  Si0+  Si116  1  0.57421406  0.67823193  0.65165055  1
  Si0+  Si117  1  0.92700572  0.82388437  0.65223662  1
  Si0+  Si118  1  0.67967714  0.92574649  0.34924425  1
  Si0+  Si119  1  0.07214782  0.17489019  0.65280240  1
  O2-  O120  1  0.25078833  -0.00867199  0.06278865  1
  O2-  O121  1  0.24899942  -0.00598117  0.39262680  1
  O2-  O122  1  0.24954427  -0.00061547  0.73176058  1
  O2-  O123  1  0.25346591  0.50353137  0.06275500  1
  O2-  O124  1  0.24763866  0.50275638  0.39013239  1
  O2-  O125  1  0.25880934  0.50128588  0.72505983  1
  O2-  O126  1  0.75022079  -0.00617139  0.06136941  1
  O2-  O127  1  0.75189203  -0.00919685  0.39346370  1
  O2-  O128  1  0.74426037  -0.00174768  0.72708887  1
  O2-  O129  1  0.74691905  0.51106655  0.06211307  1
  O2-  O130  1  0.74758812  0.50125734  0.39119309  1
  O2-  O131  1  0.74501065  0.49858808  0.72610243  1
  O2-  O132  1  -0.00067696  0.24098129  0.27138560  1
  O2-  O133  1  0.00202754  0.24172208  0.60736584  1
  O2-  O134  1  -0.00049174  0.24785622  0.94305497  1
  O2-  O135  1  0.00115693  0.75291333  0.26854940  1
  O2-  O136  1  -0.00232612  0.75749824  0.60735664  1
  O2-  O137  1  -0.00647089  0.75557228  0.93630957  1
  O2-  O138  1  0.49878210  0.24399167  0.27063648  1
  O2-  O139  1  0.49410120  0.24537276  0.60152283  1
  O2-  O140  1  0.49317985  0.25471612  0.94110849  1
  O2-  O141  1  0.50722148  0.74703362  0.27567559  1
  O2-  O142  1  0.50237109  0.74774001  0.60851415  1
  O2-  O143  1  0.50092329  0.74879469  0.93342999  1
  O2-  O144  1  0.07251485  0.18090398  0.09133150  1
  O2-  O145  1  0.07373690  0.18142705  0.42329243  1
  O2-  O146  1  0.07134515  0.17781545  0.75875512  1
  O2-  O147  1  0.06494858  0.68004021  0.09560485  1
  O2-  O148  1  0.07036368  0.67616367  0.43022977  1
  O2-  O149  1  0.06746463  0.67816920  0.76535642  1
  O2-  O150  1  0.57141356  0.18434014  0.10048843  1
  O2-  O151  1  0.57234546  0.18194389  0.42063667  1
  O2-  O152  1  0.57354197  0.18197189  0.76265286  1
  O2-  O153  1  0.56873541  0.67842351  0.09867098  1
  O2-  O154  1  0.57188317  0.67579841  0.42562283  1
  O2-  O155  1  0.57372306  0.67784466  0.75620518  1
  O2-  O156  1  0.17752297  0.43106481  0.24374558  1
  O2-  O157  1  0.17782388  0.43403633  0.56453614  1
  O2-  O158  1  0.17636034  0.42932111  0.90346069  1
  O2-  O159  1  0.18080492  0.92671567  0.24249649  1
  O2-  O160  1  0.18246349  0.92466818  0.56749398  1
  O2-  O161  1  0.17816633  0.92911822  0.91260554  1
  O2-  O162  1  0.67590936  0.42993541  0.24561707  1
  O2-  O163  1  0.67651360  0.43312673  0.57572126  1
  O2-  O164  1  0.68276915  0.42970756  0.90028980  1
  O2-  O165  1  0.67746587  0.92671432  0.24387524  1
  O2-  O166  1  0.67913014  0.92165290  0.57901840  1
  O2-  O167  1  0.68065851  0.92692886  0.91147672  1
  O2-  O168  1  0.42495466  0.31983761  0.09152413  1
  O2-  O169  1  0.42751641  0.32230855  0.43054800  1
  O2-  O170  1  0.42840396  0.32300657  0.76676408  1
  O2-  O171  1  0.43156466  0.82283043  0.09583557  1
  O2-  O172  1  0.43230403  0.81912707  0.43457145  1
  O2-  O173  1  0.43140683  0.81799565  0.75516303  1
  O2-  O174  1  0.92914711  0.31781662  0.09069554  1
  O2-  O175  1  0.92998575  0.32199401  0.43055563  1
  O2-  O176  1  0.93085879  0.31991311  0.76832835  1
  O2-  O177  1  0.93043088  0.82676179  0.08747513  1
  O2-  O178  1  0.92863672  0.82136081  0.43289633  1
  O2-  O179  1  0.92513150  0.82174791  0.75772090  1
  O2-  O180  1  0.32268732  0.06988414  0.23488226  1
  O2-  O181  1  0.32044112  0.06874584  0.56831788  1
  O2-  O182  1  0.32041013  0.07001954  0.90176246  1
  O2-  O183  1  0.32328383  0.56913978  0.24214866  1
  O2-  O184  1  0.32521432  0.57498355  0.57627940  1
  O2-  O185  1  0.32043069  0.57188299  0.91121018  1
  O2-  O186  1  0.81730459  0.07203830  0.23504421  1
  O2-  O187  1  0.81878962  0.07130015  0.56666885  1
  O2-  O188  1  0.81929858  0.07418289  0.90150675  1
  O2-  O189  1  0.81948194  0.56764214  0.24216352  1
  O2-  O190  1  0.82035489  0.56998617  0.56537075  1
  O2-  O191  1  0.82422887  0.56897260  0.91260100  1
  O2-  O192  1  0.05461833  0.08225014  0.27343227  1
  O2-  O193  1  0.04890677  0.07963761  0.60933671  1
  O2-  O194  1  0.04862197  0.08578814  0.94028477  1
  O2-  O195  1  0.03808012  0.58207227  0.26170309  1
  O2-  O196  1  0.03537938  0.58554639  0.59751800  1
  O2-  O197  1  0.03306855  0.58200054  0.93124361  1
  O2-  O198  1  0.55101517  0.08396740  0.27172491  1
  O2-  O199  1  0.55154895  0.07568158  0.59795043  1
  O2-  O200  1  0.54684692  0.08549114  0.93259068  1
  O2-  O201  1  0.54354395  0.58312122  0.27419060  1
  O2-  O202  1  0.54908432  0.58664200  0.60226569  1
  O2-  O203  1  0.54313279  0.57840244  0.93101465  1
  O2-  O204  1  0.16318379  0.21012650  0.26913989  1
  O2-  O205  1  0.16519509  0.20134833  0.60682334  1
  O2-  O206  1  0.16323476  0.21038246  0.93904575  1
  O2-  O207  1  0.17009241  0.70229588  0.26189871  1
  O2-  O208  1  0.16875227  0.70652265  0.59896890  1
  O2-  O209  1  0.16413928  0.70553811  0.92824465  1
  O2-  O210  1  0.66272236  0.21092495  0.26884043  1
  O2-  O211  1  0.66622543  0.21183574  0.59243912  1
  O2-  O212  1  0.66635088  0.21925555  0.93390986  1
  O2-  O213  1  0.66727603  0.69539288  0.27325901  1
  O2-  O214  1  0.66600454  0.70812849  0.60452904  1
  O2-  O215  1  0.67220974  0.70306395  0.93297475  1
  O2-  O216  1  0.08103063  0.46271939  0.07055880  1
  O2-  O217  1  0.08370085  0.45875095  0.39343917  1
  O2-  O218  1  0.08576287  0.46533256  0.73389641  1
  O2-  O219  1  0.08710924  0.95456594  0.06587567  1
  O2-  O220  1  0.08699467  0.94956057  0.39548277  1
  O2-  O221  1  0.08046863  0.94788133  0.73664453  1
  O2-  O222  1  0.57936269  0.45801643  0.06831212  1
  O2-  O223  1  0.58477748  0.45643302  0.39870075  1
  O2-  O224  1  0.58362753  0.45550152  0.72807177  1
  O2-  O225  1  0.58654485  0.95654978  0.06229289  1
  O2-  O226  1  0.58867395  0.95547856  0.39897705  1
  O2-  O227  1  0.58360680  0.94841842  0.72986031  1
  O2-  O228  1  0.20553070  0.33423932  0.07419122  1
  O2-  O229  1  0.20452033  0.33927535  0.39626041  1
  O2-  O230  1  0.20454660  0.33353374  0.73420171  1
  O2-  O231  1  0.20120914  0.82995376  0.06014377  1
  O2-  O232  1  0.20683503  0.83037170  0.39126917  1
  O2-  O233  1  0.21146831  0.82809024  0.73450108  1
  O2-  O234  1  0.71400497  0.33928812  0.07217587  1
  O2-  O235  1  0.70630472  0.33815873  0.39794056  1
  O2-  O236  1  0.70396561  0.33621359  0.72554491  1
  O2-  O237  1  0.70093420  0.83256526  0.06332182  1
  O2-  O238  1  0.69976832  0.82967145  0.39411177  1
  O2-  O239  1  0.70533820  0.83465489  0.73435782  1
  O2-  O240  1  0.45870307  0.41643532  0.26380864  1
  O2-  O241  1  0.45613472  0.41905543  0.59816678  1
  O2-  O242  1  0.44516452  0.41711284  0.94252395  1
  O2-  O243  1  0.46489831  0.91793254  0.26723904  1
  O2-  O244  1  0.45948712  0.90988641  0.60237183  1
  O2-  O245  1  0.46186570  0.91889456  0.92747121  1
  O2-  O246  1  0.95992918  0.41246534  0.25975702  1
  O2-  O247  1  0.96517542  0.41439016  0.59936156  1
  O2-  O248  1  0.95684793  0.41156603  0.94028979  1
  O2-  O249  1  0.95577246  0.92290644  0.26672205  1
  O2-  O250  1  0.95092590  0.91898632  0.60856244  1
  O2-  O251  1  0.95640319  0.92048638  0.93710547  1
  O2-  O252  1  0.32847203  0.29289546  0.26540485  1
  O2-  O253  1  0.32612451  0.29528285  0.60073501  1
  O2-  O254  1  0.32896873  0.29476746  0.94305749  1
  O2-  O255  1  0.33791449  0.79103945  0.26323818  1
  O2-  O256  1  0.34013134  0.78944411  0.60182582  1
  O2-  O257  1  0.33115739  0.79451802  0.92880969  1
  O2-  O258  1  0.82961156  0.29026798  0.26484977  1
  O2-  O259  1  0.83388283  0.29387561  0.59898089  1
  O2-  O260  1  0.83722455  0.29162254  0.93900778  1
  O2-  O261  1  0.83039115  0.79447019  0.26467823  1
  O2-  O262  1  0.83358173  0.79721393  0.60583558  1
  O2-  O263  1  0.83291103  0.80597878  0.93772418  1
  O2-  O264  1  0.42112753  0.04040437  0.06598987  1
  O2-  O265  1  0.42026279  0.04215892  0.40111942  1
  O2-  O266  1  0.42206097  0.04063312  0.73140052  1
  O2-  O267  1  0.41454299  0.55192953  0.06357879  1
  O2-  O268  1  0.41178029  0.54176203  0.39677432  1
  O2-  O269  1  0.42039609  0.55077612  0.72727410  1
  O2-  O270  1  0.91947539  0.04584165  0.06842024  1
  O2-  O271  1  0.92114940  0.04638163  0.40093542  1
  O2-  O272  1  0.91507089  0.04482845  0.73662238  1
  O2-  O273  1  0.91124643  0.54033961  0.06715231  1
  O2-  O274  1  0.91231027  0.53675607  0.39273774  1
  O2-  O275  1  0.91554926  0.53583178  0.73471907  1
  O2-  O276  1  0.28763012  0.16306827  0.07081666  1
  O2-  O277  1  0.28836160  0.16748596  0.40070231  1
  O2-  O278  1  0.29528020  0.16889526  0.73615105  1
  O2-  O279  1  0.29140575  0.66729880  0.06087687  1
  O2-  O280  1  0.29635273  0.66452525  0.39281272  1
  O2-  O281  1  0.29820986  0.66483974  0.72937879  1
  O2-  O282  1  0.78650688  0.16718199  0.06921376  1
  O2-  O283  1  0.78657793  0.16685985  0.40121015  1
  O2-  O284  1  0.78699732  0.17030825  0.73185004  1
  O2-  O285  1  0.80365374  0.67076179  0.06021393  1
  O2-  O286  1  0.79717917  0.66236877  0.39440155  1
  O2-  O287  1  0.79375774  0.66702611  0.73490449  1
