# generated using pymatgen
data_Ca2Al2SiO7
_symmetry_space_group_name_H-M   'P 1'
_cell_length_a   15.47107954
_cell_length_b   15.47572017
_cell_length_c   15.29553680
_cell_angle_alpha   90.00243896
_cell_angle_beta   90.00661548
_cell_angle_gamma   90.02607077
_symmetry_Int_Tables_number   1
_chemical_formula_structural   Ca2Al2SiO7
_chemical_formula_sum   'Ca48 Al48 Si24 O168'
_cell_volume   3662.15027984
_cell_formula_units_Z   24
loop_
 _symmetry_equiv_pos_site_id
 _symmetry_equiv_pos_as_xyz
  1  'x, y, z'
loop_
 _atom_type_symbol
 _atom_type_oxidation_number
  Ca2+  2.0
  Al0+  0.0
  Si0+  0.0
  O2-  -2.0
loop_
 _atom_site_type_symbol
 _atom_site_label
 _atom_site_symmetry_multiplicity
 _atom_site_fract_x
 _atom_site_fract_y
 _atom_site_fract_z
 _atom_site_occupancy
  Ca2+  Ca0  1  0.16803207  0.06839585  0.17032875  1
  Ca2+  Ca1  1  0.16711637  0.07461033  0.49905040  1
  Ca2+  Ca2  1  0.17058604  0.07565126  0.84207043  1
  Ca2+  Ca3  1  0.17980086  0.59261251  0.17166699  1
  Ca2+  Ca4  1  0.17497730  0.59031073  0.50542768  1
  Ca2+  Ca5  1  0.17440407  0.58315675  0.83345466  1
  Ca2+  Ca6  1  0.67245446  0.07170958  0.17657325  1
  Ca2+  Ca7  1  0.66512375  0.07403394  0.50272426  1
  Ca2+  Ca8  1  0.66021927  0.07705065  0.83029415  1
  Ca2+  Ca9  1  0.67463203  0.59274152  0.17105497  1
  Ca2+  Ca10  1  0.67338460  0.58613242  0.50283208  1
  Ca2+  Ca11  1  0.66609871  0.57536637  0.84484745  1
  Ca2+  Ca12  1  0.07973447  0.33565642  0.16311314  1
  Ca2+  Ca13  1  0.07834946  0.33726565  0.49113230  1
  Ca2+  Ca14  1  0.08660391  0.34258597  0.82825891  1
  Ca2+  Ca15  1  0.08156289  0.83171445  0.16291172  1
  Ca2+  Ca16  1  0.08566137  0.82130829  0.49265883  1
  Ca2+  Ca17  1  0.07776351  0.82977083  0.83054411  1
  Ca2+  Ca18  1  0.58891797  0.33067339  0.16211224  1
  Ca2+  Ca19  1  0.59434988  0.32824037  0.49929126  1
  Ca2+  Ca20  1  0.59204195  0.32987364  0.82605052  1
  Ca2+  Ca21  1  0.57985651  0.82217779  0.16151365  1
  Ca2+  Ca22  1  0.57401628  0.83331457  0.49231047  1
  Ca2+  Ca23  1  0.57439717  0.82380979  0.82853127  1
  Ca2+  Ca24  1  0.33108245  0.43153392  0.16804230  1
  Ca2+  Ca25  1  0.32861224  0.43403890  0.50853300  1
  Ca2+  Ca26  1  0.32624742  0.43069711  0.84132024  1
  Ca2+  Ca27  1  0.32461444  0.89859470  0.16960067  1
  Ca2+  Ca28  1  0.33104386  0.90358399  0.50104855  1
  Ca2+  Ca29  1  0.33244310  0.91074197  0.83875495  1
  Ca2+  Ca30  1  0.83092335  0.42817413  0.16844755  1
  Ca2+  Ca31  1  0.83330992  0.42097360  0.49928367  1
  Ca2+  Ca32  1  0.82334562  0.42489145  0.83836591  1
  Ca2+  Ca33  1  0.82900928  0.91672069  0.17668279  1
  Ca2+  Ca34  1  0.81617761  0.91430075  0.50074547  1
  Ca2+  Ca35  1  0.82769523  0.91213940  0.83833637  1
  Ca2+  Ca36  1  0.41484470  0.17126427  0.16353600  1
  Ca2+  Ca37  1  0.42218413  0.17113431  0.49983840  1
  Ca2+  Ca38  1  0.42238386  0.17307636  0.82532789  1
  Ca2+  Ca39  1  0.42341079  0.66903609  0.16468122  1
  Ca2+  Ca40  1  0.41826040  0.67172814  0.49197791  1
  Ca2+  Ca41  1  0.40778551  0.67324193  0.83297779  1
  Ca2+  Ca42  1  0.90899235  0.17286541  0.16588541  1
  Ca2+  Ca43  1  0.91304377  0.17416254  0.49035718  1
  Ca2+  Ca44  1  0.92056368  0.17016684  0.82849165  1
  Ca2+  Ca45  1  0.92059711  0.66417332  0.16142271  1
  Ca2+  Ca46  1  0.93021261  0.65783027  0.49280606  1
  Ca2+  Ca47  1  0.92009534  0.66583434  0.83390974  1
  Al0+  Al48  1  0.00113348  0.00116215  -0.00161863  1
  Al0+  Al49  1  0.00264811  0.00143430  0.34322157  1
  Al0+  Al50  1  -0.00160729  0.00183773  0.66402544  1
  Al0+  Al51  1  -0.00257758  0.49770213  0.00252861  1
  Al0+  Al52  1  -0.00166126  0.49816919  0.32507446  1
  Al0+  Al53  1  -0.00008143  0.50046160  0.66550208  1
  Al0+  Al54  1  0.50087230  0.00156941  -0.00259216  1
  Al0+  Al55  1  0.49667289  0.00221097  0.33150000  1
  Al0+  Al56  1  0.50004229  0.00147766  0.66247094  1
  Al0+  Al57  1  0.49824651  0.49551011  0.00448129  1
  Al0+  Al58  1  0.49957139  0.49874006  0.33443786  1
  Al0+  Al59  1  0.50006168  0.50163824  0.67512273  1
  Al0+  Al60  1  0.25048221  0.24764920  0.00299964  1
  Al0+  Al61  1  0.24911162  0.24810985  0.33178357  1
  Al0+  Al62  1  0.24974291  0.24824557  0.66637358  1
  Al0+  Al63  1  0.24870585  0.74955590  0.00298718  1
  Al0+  Al64  1  0.24923917  0.74847409  0.33517489  1
  Al0+  Al65  1  0.24732927  0.75095089  0.66460888  1
  Al0+  Al66  1  0.75191619  0.25025528  -0.00033351  1
  Al0+  Al67  1  0.75122018  0.24993505  0.32958286  1
  Al0+  Al68  1  0.75237376  0.24973884  0.66514767  1
  Al0+  Al69  1  0.75012044  0.75011843  -0.00528543  1
  Al0+  Al70  1  0.75109887  0.74949641  0.34273584  1
  Al0+  Al71  1  0.74941636  0.75264889  0.67282830  1
  Al0+  Al72  1  0.42856955  0.82024696  0.98478514  1
  Al0+  Al73  1  0.67648480  0.92788199  0.34746111  1
  Al0+  Al74  1  0.43023861  0.81904281  0.65296586  1
  Al0+  Al75  1  0.42863282  0.82139778  0.31812991  1
  Al0+  Al76  1  0.57111712  0.18210566  0.65167845  1
  Al0+  Al77  1  0.06637346  0.68131402  0.65380736  1
  Al0+  Al78  1  0.32125797  0.56987249  0.34863102  1
  Al0+  Al79  1  0.82223977  0.57103615  0.34743670  1
  Al0+  Al80  1  0.67810510  0.42645212  0.01559115  1
  Al0+  Al81  1  0.57109147  0.67562715  0.98491366  1
  Al0+  Al82  1  0.67682294  0.93012036  0.68314461  1
  Al0+  Al83  1  0.32068444  0.57464660  0.68253556  1
  Al0+  Al84  1  0.06972913  0.67930541  0.31809270  1
  Al0+  Al85  1  0.31980376  0.57227382  0.01796325  1
  Al0+  Al86  1  0.18193011  0.92853910  0.34883792  1
  Al0+  Al87  1  0.17804416  0.42813632  0.67834688  1
  Al0+  Al88  1  0.92901532  0.31940263  0.31615591  1
  Al0+  Al89  1  0.17920482  0.92964439  0.01175915  1
  Al0+  Al90  1  0.92952874  0.82318630  0.98815810  1
  Al0+  Al91  1  0.82087887  0.07264075  0.34805072  1
  Al0+  Al92  1  0.68121309  0.42928743  0.67818354  1
  Al0+  Al93  1  0.17823741  0.42616986  0.01638248  1
  Al0+  Al94  1  0.81841655  0.57324519  0.01499670  1
  Al0+  Al95  1  0.57376856  0.67755524  0.32128552  1
  Si0+  Si96  1  0.42684161  0.32418375  0.65111283  1
  Si0+  Si97  1  0.82219792  0.07050891  0.01258304  1
  Si0+  Si98  1  0.07333315  0.17581390  0.64986074  1
  Si0+  Si99  1  0.42725165  0.32075125  0.31864816  1
  Si0+  Si100  1  0.82313635  0.57279557  0.68295713  1
  Si0+  Si101  1  0.32096224  0.07130216  0.68134078  1
  Si0+  Si102  1  0.07341259  0.17634949  0.31465719  1
  Si0+  Si103  1  0.17815348  0.42711088  0.34719997  1
  Si0+  Si104  1  0.07110499  0.67648341  0.98388990  1
  Si0+  Si105  1  0.93216997  0.31902599  0.65166237  1
  Si0+  Si106  1  0.92903049  0.32025511  0.98133594  1
  Si0+  Si107  1  0.67867023  0.93046934  0.01310295  1
  Si0+  Si108  1  0.57343601  0.18054650  0.98435651  1
  Si0+  Si109  1  0.57473412  0.67565639  0.65179661  1
  Si0+  Si110  1  0.92911171  0.82355443  0.32154642  1
  Si0+  Si111  1  0.17802968  0.93064670  0.68154747  1
  Si0+  Si112  1  0.42694309  0.31817050  0.98525022  1
  Si0+  Si113  1  0.82159149  0.07189018  0.68456486  1
  Si0+  Si114  1  0.32426758  0.07059068  0.01627794  1
  Si0+  Si115  1  0.07113917  0.17969862  0.98443694  1
  Si0+  Si116  1  0.32173446  0.07644882  0.35216053  1
  Si0+  Si117  1  0.92514912  0.82573036  0.64814480  1
  Si0+  Si118  1  0.67825543  0.42749438  0.34903668  1
  Si0+  Si119  1  0.57049888  0.17999735  0.31689625  1
  O2-  O120  1  0.26076808  -0.00300354  0.05895370  1
  O2-  O121  1  0.25878127  0.00215086  0.39518174  1
  O2-  O122  1  0.24921563  0.00140721  0.72390904  1
  O2-  O123  1  0.24420123  0.50246870  0.06699355  1
  O2-  O124  1  0.24534383  0.49501262  0.39322866  1
  O2-  O125  1  0.25182919  0.49715751  0.72896314  1
  O2-  O126  1  0.75339220  -0.00193371  0.05476362  1
  O2-  O127  1  0.74923109  0.00044907  0.39738829  1
  O2-  O128  1  0.75582435  0.00150232  0.72999722  1
  O2-  O129  1  0.74255629  0.50491224  0.06506558  1
  O2-  O130  1  0.74334551  0.49954535  0.39283776  1
  O2-  O131  1  0.74843201  0.50997899  0.72557853  1
  O2-  O132  1  0.00315142  0.24297214  0.27015700  1
  O2-  O133  1  0.00673530  0.25145290  0.60965708  1
  O2-  O134  1  0.00506029  0.25400745  0.93940082  1
  O2-  O135  1  -0.00574041  0.75427825  0.27359264  1
  O2-  O136  1  -0.00949944  0.75412288  0.60496892  1
  O2-  O137  1  0.00223800  0.74637801  0.94122051  1
  O2-  O138  1  0.49922113  0.25062414  0.27516899  1
  O2-  O139  1  0.50014644  0.26085759  0.60502778  1
  O2-  O140  1  0.50338544  0.25262613  0.94268247  1
  O2-  O141  1  0.50486999  0.75261693  0.27093563  1
  O2-  O142  1  0.50486326  0.74333573  0.60833691  1
  O2-  O143  1  0.49705619  0.74550601  0.93378634  1
  O2-  O144  1  0.06818446  0.17787465  0.08900843  1
  O2-  O145  1  0.07594402  0.17968589  0.42044962  1
  O2-  O146  1  0.07136004  0.17050243  0.75494417  1
  O2-  O147  1  0.07071235  0.67815186  0.08936788  1
  O2-  O148  1  0.06996657  0.67957482  0.43148737  1
  O2-  O149  1  0.06531911  0.68340450  0.76707175  1
  O2-  O150  1  0.57390706  0.17941676  0.08948673  1
  O2-  O151  1  0.57131469  0.18160444  0.42193321  1
  O2-  O152  1  0.56888502  0.18235170  0.76516104  1
  O2-  O153  1  0.57461805  0.68135868  0.09810078  1
  O2-  O154  1  0.57198193  0.67575994  0.43511056  1
  O2-  O155  1  0.57685508  0.67724173  0.75708877  1
  O2-  O156  1  0.18196310  0.42529237  0.24198256  1
  O2-  O157  1  0.17762257  0.42731342  0.56487543  1
  O2-  O158  1  0.18268538  0.42409228  0.90283977  1
  O2-  O159  1  0.18032222  0.93101799  0.23571518  1
  O2-  O160  1  0.17865328  0.93232736  0.57669906  1
  O2-  O161  1  0.17701336  0.93464602  0.89824324  1
  O2-  O162  1  0.68034026  0.42380073  0.24393557  1
  O2-  O163  1  0.68701565  0.42576133  0.56532062  1
  O2-  O164  1  0.68511113  0.42097272  0.90200438  1
  O2-  O165  1  0.67877412  0.93002372  0.23323432  1
  O2-  O166  1  0.67643168  0.93294106  0.57051120  1
  O2-  O167  1  0.67742407  0.93481956  0.90803573  1
  O2-  O168  1  0.42455449  0.31224001  0.09040124  1
  O2-  O169  1  0.42602449  0.31808929  0.42361564  1
  O2-  O170  1  0.42450205  0.31780398  0.75650711  1
  O2-  O171  1  0.43239158  0.82297198  0.09755855  1
  O2-  O172  1  0.42952205  0.81870536  0.43205884  1
  O2-  O173  1  0.42922933  0.82039393  0.76589178  1
  O2-  O174  1  0.92574995  0.31580457  0.08583477  1
  O2-  O175  1  0.93067413  0.31887765  0.43002364  1
  O2-  O176  1  0.93190291  0.31616490  0.75688973  1
  O2-  O177  1  0.93163493  0.82880674  0.10091596  1
  O2-  O178  1  0.93206277  0.82201141  0.42710671  1
  O2-  O179  1  0.92867474  0.82919042  0.75389942  1
  O2-  O180  1  0.31819999  0.08456067  0.24706640  1
  O2-  O181  1  0.31935944  0.07441294  0.57659817  1
  O2-  O182  1  0.32222005  0.07463797  0.91048023  1
  O2-  O183  1  0.32211071  0.56846070  0.23605199  1
  O2-  O184  1  0.31897939  0.57453115  0.56892751  1
  O2-  O185  1  0.31716130  0.57197449  0.90431890  1
  O2-  O186  1  0.81781315  0.07203726  0.23372411  1
  O2-  O187  1  0.82116997  0.07361330  0.57961438  1
  O2-  O188  1  0.82203287  0.07211377  0.90741776  1
  O2-  O189  1  0.82362250  0.57021599  0.23491481  1
  O2-  O190  1  0.82604508  0.56911729  0.57741046  1
  O2-  O191  1  0.82092768  0.56866326  0.90096094  1
  O2-  O192  1  0.04927255  0.08108717  0.27197950  1
  O2-  O193  1  0.04091476  0.08686749  0.59910334  1
  O2-  O194  1  0.03910122  0.09088677  0.93321889  1
  O2-  O195  1  0.04058146  0.58353689  0.26307282  1
  O2-  O196  1  0.03754552  0.58407904  0.59893501  1
  O2-  O197  1  0.04359914  0.58276770  0.93869049  1
  O2-  O198  1  0.54283033  0.08919107  0.26776359  1
  O2-  O199  1  0.53512658  0.08854712  0.59616317  1
  O2-  O200  1  0.54427679  0.08979752  0.93555431  1
  O2-  O201  1  0.54553959  0.57835595  0.26915616  1
  O2-  O202  1  0.55274238  0.58007757  0.60829950  1
  O2-  O203  1  0.54765614  0.57302914  0.93811974  1
  O2-  O204  1  0.16603217  0.20294545  0.26664183  1
  O2-  O205  1  0.16673246  0.19756084  0.60308948  1
  O2-  O206  1  0.16531926  0.20196450  0.93840995  1
  O2-  O207  1  0.16504098  0.71368556  0.26551790  1
  O2-  O208  1  0.16128030  0.71545638  0.59896535  1
  O2-  O209  1  0.16400389  0.70332253  0.93805470  1
  O2-  O210  1  0.66122241  0.20869917  0.26797004  1
  O2-  O211  1  0.66885357  0.21068178  0.59822392  1
  O2-  O212  1  0.66518518  0.20759480  0.93588743  1
  O2-  O213  1  0.67437812  0.70528578  0.27194574  1
  O2-  O214  1  0.66951820  0.70244631  0.60791015  1
  O2-  O215  1  0.66828001  0.70596383  0.92986947  1
  O2-  O216  1  0.07567409  0.44434753  0.06290095  1
  O2-  O217  1  0.08283830  0.45079118  0.38883806  1
  O2-  O218  1  0.08014350  0.45784473  0.73228550  1
  O2-  O219  1  0.08594814  0.96932468  0.06643553  1
  O2-  O220  1  0.08788203  0.96134476  0.40708420  1
  O2-  O221  1  0.08541040  0.96022129  0.72675230  1
  O2-  O222  1  0.57564662  0.43823552  0.06414221  1
  O2-  O223  1  0.58303507  0.44501318  0.39432764  1
  O2-  O224  1  0.58249002  0.44906490  0.73270735  1
  O2-  O225  1  0.58910374  0.96365042  0.06121333  1
  O2-  O226  1  0.57804172  0.96078015  0.39800463  1
  O2-  O227  1  0.58226808  0.96891336  0.73565911  1
  O2-  O228  1  0.20932862  0.32803408  0.06921199  1
  O2-  O229  1  0.20217746  0.33232459  0.39238602  1
  O2-  O230  1  0.20011306  0.32647413  0.72906561  1
  O2-  O231  1  0.20193796  0.83226085  0.06607193  1
  O2-  O232  1  0.21239992  0.83312833  0.40426946  1
  O2-  O233  1  0.20504480  0.83954202  0.72879080  1
  O2-  O234  1  0.71476640  0.32996332  0.06910994  1
  O2-  O235  1  0.70987673  0.33528368  0.39486682  1
  O2-  O236  1  0.71792693  0.33404700  0.73260780  1
  O2-  O237  1  0.70488013  0.83798377  0.05736335  1
  O2-  O238  1  0.70514455  0.83246456  0.40571271  1
  O2-  O239  1  0.70537942  0.83368591  0.73899974  1
  O2-  O240  1  0.45462712  0.41151333  0.27040096  1
  O2-  O241  1  0.44758020  0.42041635  0.60978425  1
  O2-  O242  1  0.44740274  0.41160271  0.93961919  1
  O2-  O243  1  0.44452170  0.92461300  0.26918752  1
  O2-  O244  1  0.45934714  0.91636529  0.59947731  1
  O2-  O245  1  0.45704092  0.92057927  0.93306628  1
  O2-  O246  1  0.96011431  0.41326728  0.25858241  1
  O2-  O247  1  0.95627283  0.41147511  0.60424561  1
  O2-  O248  1  0.95172431  0.41314300  0.93393014  1
  O2-  O249  1  0.95609502  0.91826972  0.27822310  1
  O2-  O250  1  0.95201731  0.91886272  0.60179847  1
  O2-  O251  1  0.96235969  0.91861867  0.93068717  1
  O2-  O252  1  0.33688857  0.28947613  0.26984057  1
  O2-  O253  1  0.33585977  0.29150038  0.60289046  1
  O2-  O254  1  0.33816035  0.28292615  0.93591004  1
  O2-  O255  1  0.33180194  0.78675351  0.26734855  1
  O2-  O256  1  0.33228859  0.79062008  0.60064135  1
  O2-  O257  1  0.32732142  0.79525781  0.93424103  1
  O2-  O258  1  0.83356127  0.28649973  0.26048812  1
  O2-  O259  1  0.84281066  0.28673192  0.60270522  1
  O2-  O260  1  0.83996513  0.28509497  0.93210320  1
  O2-  O261  1  0.83344355  0.80182125  0.27938478  1
  O2-  O262  1  0.82892265  0.80356329  0.60701071  1
  O2-  O263  1  0.83386217  0.79494190  0.93076756  1
  O2-  O264  1  0.42009963  0.05306868  0.06091710  1
  O2-  O265  1  0.41782660  0.05840261  0.39502684  1
  O2-  O266  1  0.41245276  0.04395609  0.72847967  1
  O2-  O267  1  0.41659211  0.53861721  0.07040081  1
  O2-  O268  1  0.41697217  0.53636339  0.40312611  1
  O2-  O269  1  0.41965427  0.55161684  0.73622072  1
  O2-  O270  1  0.91448768  0.04694748  0.05973372  1
  O2-  O271  1  0.92056303  0.05247006  0.40125360  1
  O2-  O272  1  0.91706189  0.04914009  0.72958869  1
  O2-  O273  1  0.91550831  0.53994908  0.06732948  1
  O2-  O274  1  0.91756455  0.53200982  0.39981053  1
  O2-  O275  1  0.91324370  0.53943895  0.73082512  1
  O2-  O276  1  0.29224984  0.16060033  0.06562355  1
  O2-  O277  1  0.28958427  0.16677387  0.40237011  1
  O2-  O278  1  0.29365935  0.16251516  0.73097516  1
  O2-  O279  1  0.29286838  0.67059971  0.07094339  1
  O2-  O280  1  0.28729438  0.66458469  0.40274998  1
  O2-  O281  1  0.28307367  0.67022776  0.73575046  1
  O2-  O282  1  0.79148035  0.16095093  0.06030967  1
  O2-  O283  1  0.78948131  0.17064835  0.40031943  1
  O2-  O284  1  0.79426533  0.16449080  0.73187397  1
  O2-  O285  1  0.79595656  0.67406614  0.06574259  1
  O2-  O286  1  0.79832545  0.66663327  0.40620047  1
  O2-  O287  1  0.80628974  0.66893556  0.72660892  1
