# generated using pymatgen
data_Ca2Al2SiO7
_symmetry_space_group_name_H-M   'P 1'
_cell_length_a   15.45697454
_cell_length_b   15.45730945
_cell_length_c   15.28260948
_cell_angle_alpha   90.00144258
_cell_angle_beta   89.99312612
_cell_angle_gamma   89.99979528
_symmetry_Int_Tables_number   1
_chemical_formula_structural   Ca2Al2SiO7
_chemical_formula_sum   'Ca48 Al48 Si24 O168'
_cell_volume   3651.37052420
_cell_formula_units_Z   24
loop_
 _symmetry_equiv_pos_site_id
 _symmetry_equiv_pos_as_xyz
  1  'x, y, z'
loop_
 _atom_type_symbol
 _atom_type_oxidation_number
  Ca2+  2.0
  Al0+  0.0
  Si0+  0.0
  O2-  -2.0
loop_
 _atom_site_type_symbol
 _atom_site_label
 _atom_site_symmetry_multiplicity
 _atom_site_fract_x
 _atom_site_fract_y
 _atom_site_fract_z
 _atom_site_occupancy
  Ca2+  Ca0  1  0.16731743  0.08161463  0.17216747  1
  Ca2+  Ca1  1  0.16599322  0.08028141  0.50651183  1
  Ca2+  Ca2  1  0.17721306  0.09530271  0.83644181  1
  Ca2+  Ca3  1  0.16583921  0.57472730  0.17306382  1
  Ca2+  Ca4  1  0.15877010  0.57044631  0.50785643  1
  Ca2+  Ca5  1  0.15870750  0.57903094  0.83009283  1
  Ca2+  Ca6  1  0.67360279  0.08002571  0.17290374  1
  Ca2+  Ca7  1  0.67451850  0.08310970  0.50456725  1
  Ca2+  Ca8  1  0.66967272  0.09077632  0.83426326  1
  Ca2+  Ca9  1  0.67729256  0.57899892  0.16975367  1
  Ca2+  Ca10  1  0.67938671  0.58400721  0.50608264  1
  Ca2+  Ca11  1  0.67698039  0.57423606  0.84301699  1
  Ca2+  Ca12  1  0.08049529  0.32286537  0.16205235  1
  Ca2+  Ca13  1  0.08498558  0.32479167  0.49885987  1
  Ca2+  Ca14  1  0.07576106  0.32723225  0.82693911  1
  Ca2+  Ca15  1  0.07633393  0.83516558  0.16226847  1
  Ca2+  Ca16  1  0.08753774  0.82697738  0.49560197  1
  Ca2+  Ca17  1  0.07656341  0.82595297  0.83018521  1
  Ca2+  Ca18  1  0.58615872  0.32706648  0.15706806  1
  Ca2+  Ca19  1  0.58591299  0.32524649  0.50016953  1
  Ca2+  Ca20  1  0.58926354  0.32378775  0.83145857  1
  Ca2+  Ca21  1  0.57458818  0.84118417  0.16334709  1
  Ca2+  Ca22  1  0.57317333  0.84154979  0.49495655  1
  Ca2+  Ca23  1  0.57052923  0.83814125  0.82881382  1
  Ca2+  Ca24  1  0.32597844  0.41701368  0.17376275  1
  Ca2+  Ca25  1  0.31886056  0.41268439  0.50531600  1
  Ca2+  Ca26  1  0.32342937  0.41148340  0.83542719  1
  Ca2+  Ca27  1  0.33094916  0.91936549  0.17012067  1
  Ca2+  Ca28  1  0.33098856  0.91743191  0.50444618  1
  Ca2+  Ca29  1  0.33593766  0.92356295  0.83655603  1
  Ca2+  Ca30  1  0.83800207  0.42233735  0.16401848  1
  Ca2+  Ca31  1  0.84204583  0.42534973  0.50669654  1
  Ca2+  Ca32  1  0.83989736  0.42216869  0.83915233  1
  Ca2+  Ca33  1  0.82929292  0.92123767  0.17713026  1
  Ca2+  Ca34  1  0.83101498  0.93090329  0.50228598  1
  Ca2+  Ca35  1  0.83790070  0.92351958  0.83703075  1
  Ca2+  Ca36  1  0.42314173  0.16364321  0.15824997  1
  Ca2+  Ca37  1  0.41960675  0.16014097  0.50256137  1
  Ca2+  Ca38  1  0.42615029  0.15605732  0.82885269  1
  Ca2+  Ca39  1  0.41623634  0.68059051  0.16094951  1
  Ca2+  Ca40  1  0.41492448  0.68005083  0.49405086  1
  Ca2+  Ca41  1  0.41441190  0.67957752  0.82667319  1
  Ca2+  Ca42  1  0.92795467  0.16559027  0.15821709  1
  Ca2+  Ca43  1  0.92157739  0.16627967  0.49668500  1
  Ca2+  Ca44  1  0.92263127  0.17827946  0.82286891  1
  Ca2+  Ca45  1  0.91105816  0.67000258  0.16162330  1
  Ca2+  Ca46  1  0.91890079  0.65913741  0.50001083  1
  Ca2+  Ca47  1  0.91243294  0.66893545  0.82871043  1
  Al0+  Al48  1  0.00325302  -0.00273125  -0.00906150  1
  Al0+  Al49  1  0.00223111  -0.00105255  0.33741241  1
  Al0+  Al50  1  -0.00082091  -0.00101878  0.66941648  1
  Al0+  Al51  1  0.00154973  0.49950000  0.00364088  1
  Al0+  Al52  1  0.00064829  0.49837950  0.33851823  1
  Al0+  Al53  1  -0.00042187  0.50079396  0.66935014  1
  Al0+  Al54  1  0.49911528  0.00115851  -0.00308709  1
  Al0+  Al55  1  0.49970599  0.00052839  0.33069432  1
  Al0+  Al56  1  0.49868727  0.00015937  0.66062477  1
  Al0+  Al57  1  0.49977147  0.50005052  0.00467209  1
  Al0+  Al58  1  0.50095080  0.50122562  0.33289199  1
  Al0+  Al59  1  0.49939036  0.50126723  0.66596319  1
  Al0+  Al60  1  0.25293297  0.24971003  0.00417953  1
  Al0+  Al61  1  0.25028257  0.24991074  0.33240045  1
  Al0+  Al62  1  0.25013809  0.24939941  0.67247098  1
  Al0+  Al63  1  0.24925557  0.75070739  -0.00364832  1
  Al0+  Al64  1  0.25063922  0.75069302  0.32969126  1
  Al0+  Al65  1  0.24807475  0.74949239  0.65868168  1
  Al0+  Al66  1  0.75108811  0.25055487  -0.00212548  1
  Al0+  Al67  1  0.75101080  0.25304379  0.33424424  1
  Al0+  Al68  1  0.74963258  0.25015108  0.66036227  1
  Al0+  Al69  1  0.74912201  0.75041141  -0.00093930  1
  Al0+  Al70  1  0.74850717  0.74913647  0.34262870  1
  Al0+  Al71  1  0.74754673  0.75099432  0.67085683  1
  Al0+  Al72  1  0.42966983  0.81995251  0.65058863  1
  Al0+  Al73  1  0.17953120  0.92804225  0.34601589  1
  Al0+  Al74  1  0.32114925  0.06967450  0.01495890  1
  Al0+  Al75  1  0.82220211  0.57212866  0.01637828  1
  Al0+  Al76  1  0.81977657  0.56965014  0.34887783  1
  Al0+  Al77  1  0.92640937  0.82022447  0.98810901  1
  Al0+  Al78  1  0.93059679  0.32074855  0.98576521  1
  Al0+  Al79  1  0.06724887  0.68093964  0.65253862  1
  Al0+  Al80  1  0.17990133  0.42925775  0.68272968  1
  Al0+  Al81  1  0.82131178  0.07195738  0.68236580  1
  Al0+  Al82  1  0.42949223  0.82121087  0.31626813  1
  Al0+  Al83  1  0.56998662  0.18025916  0.65098470  1
  Al0+  Al84  1  0.57060643  0.18015558  0.98757136  1
  Al0+  Al85  1  0.18101836  0.42864217  0.34735770  1
  Al0+  Al86  1  0.92954728  0.32149246  0.64984846  1
  Al0+  Al87  1  0.82281718  0.07308493  0.34623043  1
  Al0+  Al88  1  0.07082471  0.17734435  0.31928112  1
  Al0+  Al89  1  0.07314260  0.17809222  0.65088575  1
  Al0+  Al90  1  0.07460979  0.17740174  0.98429440  1
  Al0+  Al91  1  0.42924186  0.82042572  0.98492286  1
  Al0+  Al92  1  0.31960567  0.06805798  0.67990720  1
  Al0+  Al93  1  0.67855616  0.42651045  0.01556025  1
  Al0+  Al94  1  0.81982854  0.57053289  0.68284157  1
  Al0+  Al95  1  0.67687800  0.93010024  0.34801190  1
  Si0+  Si96  1  0.92868246  0.81950217  0.32205337  1
  Si0+  Si97  1  0.32195046  0.57374224  0.68211809  1
  Si0+  Si98  1  0.82361537  0.06997291  0.01186081  1
  Si0+  Si99  1  0.17716531  0.92422836  0.68448520  1
  Si0+  Si100  1  0.32275178  0.57263899  0.34894283  1
  Si0+  Si101  1  0.92858193  0.32357029  0.31558505  1
  Si0+  Si102  1  0.57252568  0.67685951  0.64991022  1
  Si0+  Si103  1  0.32187311  0.07189770  0.34935333  1
  Si0+  Si104  1  0.17800876  0.92580435  0.01592694  1
  Si0+  Si105  1  0.67528961  0.42765625  0.68256247  1
  Si0+  Si106  1  0.67484867  0.42766798  0.35194794  1
  Si0+  Si107  1  0.57154266  0.18098811  0.31751517  1
  Si0+  Si108  1  0.42787383  0.32496373  0.98490810  1
  Si0+  Si109  1  0.07197935  0.67717179  0.98552596  1
  Si0+  Si110  1  0.06995243  0.67692342  0.31823658  1
  Si0+  Si111  1  0.92408101  0.82310585  0.64828823  1
  Si0+  Si112  1  0.42884429  0.32196417  0.31913334  1
  Si0+  Si113  1  0.18080776  0.42939973  0.01692189  1
  Si0+  Si114  1  0.32126569  0.57395878  0.01478262  1
  Si0+  Si115  1  0.67866348  0.93040362  0.01263598  1
  Si0+  Si116  1  0.57127747  0.67664840  0.98371539  1
  Si0+  Si117  1  0.57382561  0.67741015  0.31574060  1
  Si0+  Si118  1  0.42678098  0.32441636  0.65077644  1
  Si0+  Si119  1  0.67697868  0.93058812  0.68465427  1
  O2-  O120  1  0.24402527  -0.00294585  0.06036485  1
  O2-  O121  1  0.25295497  0.00358987  0.39278057  1
  O2-  O122  1  0.24210403  -0.00337422  0.72815999  1
  O2-  O123  1  0.25222201  0.50138414  0.05780782  1
  O2-  O124  1  0.25587413  0.50346603  0.39424666  1
  O2-  O125  1  0.25693323  0.50310594  0.72878910  1
  O2-  O126  1  0.75327057  -0.00197816  0.05471327  1
  O2-  O127  1  0.74827449  0.00323859  0.39645041  1
  O2-  O128  1  0.74797548  -0.00420397  0.73029359  1
  O2-  O129  1  0.75049491  0.49898466  0.06545111  1
  O2-  O130  1  0.74479167  0.49499716  0.39530839  1
  O2-  O131  1  0.74429576  0.49563734  0.72685077  1
  O2-  O132  1  -0.00732878  0.24946084  0.27320538  1
  O2-  O133  1  -0.00100160  0.24700841  0.59960135  1
  O2-  O134  1  0.00008966  0.24689658  0.93548985  1
  O2-  O135  1  -0.00131212  0.74804562  0.27717686  1
  O2-  O136  1  -0.00695805  0.75498649  0.60348327  1
  O2-  O137  1  -0.00091459  0.74236017  0.94348746  1
  O2-  O138  1  0.50183965  0.25366976  0.27586130  1
  O2-  O139  1  0.49621457  0.25706267  0.60544491  1
  O2-  O140  1  0.49838205  0.25815400  0.94177807  1
  O2-  O141  1  0.50568176  0.74662626  0.27074803  1
  O2-  O142  1  0.50356130  0.74422220  0.60419803  1
  O2-  O143  1  0.50234300  0.74430469  0.93807971  1
  O2-  O144  1  0.07291507  0.17789101  0.09862634  1
  O2-  O145  1  0.07335472  0.17873600  0.43175292  1
  O2-  O146  1  0.07399574  0.18252935  0.76419045  1
  O2-  O147  1  0.07526068  0.67837951  0.09149174  1
  O2-  O148  1  0.06986528  0.67640664  0.42308446  1
  O2-  O149  1  0.06768468  0.68256243  0.76590434  1
  O2-  O150  1  0.56884496  0.17887123  0.10125896  1
  O2-  O151  1  0.56996777  0.18115761  0.42248892  1
  O2-  O152  1  0.56870122  0.18005031  0.76406819  1
  O2-  O153  1  0.56970753  0.67855566  0.08944489  1
  O2-  O154  1  0.57075989  0.67545288  0.42118811  1
  O2-  O155  1  0.57042676  0.67711498  0.75548689  1
  O2-  O156  1  0.18287695  0.43092983  0.23377017  1
  O2-  O157  1  0.18205995  0.42986207  0.56950000  1
  O2-  O158  1  0.18131933  0.43039509  0.91203077  1
  O2-  O159  1  0.17911541  0.92731131  0.23280558  1
  O2-  O160  1  0.18018877  0.92225421  0.57861332  1
  O2-  O161  1  0.18018055  0.92007276  0.91087502  1
  O2-  O162  1  0.67192050  0.42762536  0.24668845  1
  O2-  O163  1  0.67248936  0.43095577  0.57675924  1
  O2-  O164  1  0.67559643  0.42890037  0.90228593  1
  O2-  O165  1  0.67810230  0.93161992  0.23351937  1
  O2-  O166  1  0.67710943  0.93212098  0.57909659  1
  O2-  O167  1  0.67722759  0.93145140  0.90768298  1
  O2-  O168  1  0.42652592  0.32420012  0.09103457  1
  O2-  O169  1  0.42848001  0.32123847  0.42403192  1
  O2-  O170  1  0.42796471  0.32655912  0.75619724  1
  O2-  O171  1  0.43005903  0.81994000  0.09809880  1
  O2-  O172  1  0.42927073  0.81994175  0.42918273  1
  O2-  O173  1  0.43082508  0.81943173  0.76391831  1
  O2-  O174  1  0.93368738  0.32032231  0.09989980  1
  O2-  O175  1  0.93046227  0.32632067  0.42075299  1
  O2-  O176  1  0.93100780  0.32212799  0.76343932  1
  O2-  O177  1  0.92749710  0.82213784  0.10197830  1
  O2-  O178  1  0.93089217  0.81850783  0.42679485  1
  O2-  O179  1  0.92495147  0.82095563  0.75424878  1
  O2-  O180  1  0.32299175  0.07125170  0.24354878  1
  O2-  O181  1  0.32073868  0.06562512  0.56656894  1
  O2-  O182  1  0.32320385  0.06705929  0.90214457  1
  O2-  O183  1  0.32087394  0.57121210  0.24277266  1
  O2-  O184  1  0.32096411  0.57294912  0.57652451  1
  O2-  O185  1  0.32072586  0.57501182  0.90988979  1
  O2-  O186  1  0.82207806  0.06985361  0.23162183  1
  O2-  O187  1  0.81943884  0.07055881  0.56925633  1
  O2-  O188  1  0.82090419  0.06916762  0.90696906  1
  O2-  O189  1  0.81986859  0.57050338  0.23599976  1
  O2-  O190  1  0.81864091  0.56931232  0.56947496  1
  O2-  O191  1  0.82063449  0.57199108  0.90315924  1
  O2-  O192  1  0.04280573  0.07894523  0.26625095  1
  O2-  O193  1  0.04804748  0.07629566  0.60321090  1
  O2-  O194  1  0.05475518  0.07751109  0.93224513  1
  O2-  O195  1  0.04147476  0.58514106  0.27087116  1
  O2-  O196  1  0.03591436  0.58475256  0.59884517  1
  O2-  O197  1  0.05067086  0.58251427  0.94095066  1
  O2-  O198  1  0.54233772  0.08995091  0.26951403  1
  O2-  O199  1  0.53615575  0.08584746  0.59500319  1
  O2-  O200  1  0.53704543  0.08592701  0.93133929  1
  O2-  O201  1  0.54847356  0.58356403  0.26863948  1
  O2-  O202  1  0.54931710  0.58290173  0.60275988  1
  O2-  O203  1  0.54571602  0.58245190  0.93910490  1
  O2-  O204  1  0.16743139  0.21107745  0.26521874  1
  O2-  O205  1  0.17227092  0.20876990  0.60014537  1
  O2-  O206  1  0.17326826  0.21074031  0.93554332  1
  O2-  O207  1  0.16186869  0.70374664  0.27020194  1
  O2-  O208  1  0.16329720  0.70862492  0.59515256  1
  O2-  O209  1  0.16308465  0.70576535  0.93592112  1
  O2-  O210  1  0.66425162  0.20780758  0.27074321  1
  O2-  O211  1  0.66462164  0.21089981  0.59356005  1
  O2-  O212  1  0.66719401  0.20833710  0.93291640  1
  O2-  O213  1  0.66840795  0.70306039  0.27192658  1
  O2-  O214  1  0.66597766  0.70429288  0.60433092  1
  O2-  O215  1  0.66433246  0.70247606  0.93753886  1
  O2-  O216  1  0.09057443  0.45802483  0.06662459  1
  O2-  O217  1  0.08615996  0.46051946  0.40223891  1
  O2-  O218  1  0.08587669  0.46542354  0.73716721  1
  O2-  O219  1  0.08287094  0.94944805  0.06056702  1
  O2-  O220  1  0.08399566  0.95443757  0.40312548  1
  O2-  O221  1  0.08135356  0.94286284  0.72827897  1
  O2-  O222  1  0.57912536  0.45357503  0.06996679  1
  O2-  O223  1  0.58112831  0.45309876  0.39881387  1
  O2-  O224  1  0.58124131  0.45254885  0.72930434  1
  O2-  O225  1  0.58866675  0.96251881  0.06112668  1
  O2-  O226  1  0.57880131  0.96062034  0.40021982  1
  O2-  O227  1  0.58400098  0.96036525  0.72926564  1
  O2-  O228  1  0.21117695  0.33917456  0.06604332  1
  O2-  O229  1  0.21485818  0.33314721  0.40118544  1
  O2-  O230  1  0.21224876  0.33472226  0.73918899  1
  O2-  O231  1  0.20574201  0.83293013  0.06387353  1
  O2-  O232  1  0.21124203  0.83088713  0.39927367  1
  O2-  O233  1  0.20770628  0.83149785  0.72987975  1
  O2-  O234  1  0.70760340  0.32809064  0.06957990  1
  O2-  O235  1  0.69930148  0.33372161  0.39735966  1
  O2-  O236  1  0.69983019  0.33287559  0.72488767  1
  O2-  O237  1  0.70148956  0.83735071  0.05973450  1
  O2-  O238  1  0.70156957  0.83219516  0.40259302  1
  O2-  O239  1  0.69689623  0.83537788  0.73024300  1
  O2-  O240  1  0.45251130  0.41566824  0.27222738  1
  O2-  O241  1  0.44884203  0.41893338  0.60351663  1
  O2-  O242  1  0.44814851  0.42017756  0.93982891  1
  O2-  O243  1  0.46027711  0.91831452  0.26229897  1
  O2-  O244  1  0.46237798  0.91448022  0.59477596  1
  O2-  O245  1  0.46341904  0.91522138  0.93086377  1
  O2-  O246  1  0.96130375  0.41520809  0.26882764  1
  O2-  O247  1  0.96175492  0.41949431  0.59909573  1
  O2-  O248  1  0.96155311  0.41975328  0.93541865  1
  O2-  O249  1  0.95753288  0.91052600  0.27379743  1
  O2-  O250  1  0.94935838  0.91709867  0.60406585  1
  O2-  O251  1  0.96030834  0.91280966  0.92838062  1
  O2-  O252  1  0.33865687  0.29282894  0.26903335  1
  O2-  O253  1  0.33436042  0.29485026  0.60523998  1
  O2-  O254  1  0.33527513  0.29714197  0.93901886  1
  O2-  O255  1  0.33357035  0.78800452  0.26097204  1
  O2-  O256  1  0.33391998  0.78874465  0.59556201  1
  O2-  O257  1  0.33281178  0.78948699  0.93101578  1
  O2-  O258  1  0.83202466  0.30549778  0.27188574  1
  O2-  O259  1  0.83019156  0.29799200  0.59673800  1
  O2-  O260  1  0.83142215  0.29696247  0.93362710  1
  O2-  O261  1  0.83536647  0.79207710  0.27696323  1
  O2-  O262  1  0.82918690  0.79834217  0.60487102  1
  O2-  O263  1  0.82978480  0.79362670  0.93174672  1
  O2-  O264  1  0.41725508  0.03573719  0.06918737  1
  O2-  O265  1  0.41539570  0.04548963  0.39450541  1
  O2-  O266  1  0.41627631  0.03352689  0.73228677  1
  O2-  O267  1  0.41290500  0.54945804  0.06423615  1
  O2-  O268  1  0.41753297  0.55027546  0.39373255  1
  O2-  O269  1  0.41727553  0.55328735  0.72746225  1
  O2-  O270  1  0.91672389  0.04102671  0.05619680  1
  O2-  O271  1  0.91843018  0.04056677  0.40110601  1
  O2-  O272  1  0.91784439  0.04134462  0.73723096  1
  O2-  O273  1  0.92156895  0.54538903  0.06977248  1
  O2-  O274  1  0.91633171  0.53849895  0.40242512  1
  O2-  O275  1  0.91617825  0.54125069  0.73666844  1
  O2-  O276  1  0.29620820  0.16778278  0.07005123  1
  O2-  O277  1  0.29877150  0.16611889  0.39434038  1
  O2-  O278  1  0.29556470  0.16576854  0.73515776  1
  O2-  O279  1  0.29014116  0.66471199  0.06332210  1
  O2-  O280  1  0.29589045  0.66603939  0.39335245  1
  O2-  O281  1  0.29122209  0.66632948  0.72768060  1
  O2-  O282  1  0.79594173  0.16129376  0.05940276  1
  O2-  O283  1  0.79659435  0.17265263  0.39738338  1
  O2-  O284  1  0.78702965  0.16918710  0.73281981  1
  O2-  O285  1  0.79128922  0.67107901  0.06853436  1
  O2-  O286  1  0.79031121  0.66489998  0.40600701  1
  O2-  O287  1  0.78967638  0.66844686  0.73544662  1
