# generated using pymatgen
data_Ca2Al2SiO7
_symmetry_space_group_name_H-M   'P 1'
_cell_length_a   15.45690574
_cell_length_b   15.45578593
_cell_length_c   15.28194801
_cell_angle_alpha   89.99548236
_cell_angle_beta   89.98204094
_cell_angle_gamma   90.00870845
_symmetry_Int_Tables_number   1
_chemical_formula_structural   Ca2Al2SiO7
_chemical_formula_sum   'Ca48 Al48 Si24 O168'
_cell_volume   3650.83615484
_cell_formula_units_Z   24
loop_
 _symmetry_equiv_pos_site_id
 _symmetry_equiv_pos_as_xyz
  1  'x, y, z'
loop_
 _atom_type_symbol
 _atom_type_oxidation_number
  Ca2+  2.0
  Al0+  0.0
  Si0+  0.0
  O2-  -2.0
loop_
 _atom_site_type_symbol
 _atom_site_label
 _atom_site_symmetry_multiplicity
 _atom_site_fract_x
 _atom_site_fract_y
 _atom_site_fract_z
 _atom_site_occupancy
  Ca2+  Ca0  1  0.17766988  0.08064465  0.17491131  1
  Ca2+  Ca1  1  0.16714455  0.08132641  0.50042940  1
  Ca2+  Ca2  1  0.17282794  0.08908456  0.83925795  1
  Ca2+  Ca3  1  0.17249444  0.57505658  0.17053684  1
  Ca2+  Ca4  1  0.17469237  0.58738279  0.50653051  1
  Ca2+  Ca5  1  0.16657340  0.57926040  0.83321776  1
  Ca2+  Ca6  1  0.66935756  0.08415274  0.16959279  1
  Ca2+  Ca7  1  0.67609829  0.08322082  0.51001107  1
  Ca2+  Ca8  1  0.66487060  0.08490641  0.83015374  1
  Ca2+  Ca9  1  0.67707701  0.58343727  0.17157203  1
  Ca2+  Ca10  1  0.67934387  0.57474974  0.50856380  1
  Ca2+  Ca11  1  0.67645172  0.57621571  0.83310605  1
  Ca2+  Ca12  1  0.08071841  0.33756576  0.16529734  1
  Ca2+  Ca13  1  0.07133853  0.32824041  0.50002294  1
  Ca2+  Ca14  1  0.08077930  0.33087851  0.82538034  1
  Ca2+  Ca15  1  0.07397280  0.83812210  0.16726379  1
  Ca2+  Ca16  1  0.08001154  0.82845731  0.49389697  1
  Ca2+  Ca17  1  0.07652320  0.82573897  0.82633666  1
  Ca2+  Ca18  1  0.56935429  0.32607240  0.15944258  1
  Ca2+  Ca19  1  0.58589188  0.33087746  0.49694550  1
  Ca2+  Ca20  1  0.58511758  0.32426446  0.82786024  1
  Ca2+  Ca21  1  0.58418547  0.82966904  0.16279097  1
  Ca2+  Ca22  1  0.58127413  0.83746082  0.50344517  1
  Ca2+  Ca23  1  0.57720436  0.83517525  0.82376884  1
  Ca2+  Ca24  1  0.33009193  0.41134467  0.17245276  1
  Ca2+  Ca25  1  0.34021172  0.42734803  0.50309679  1
  Ca2+  Ca26  1  0.32760050  0.41700301  0.83958356  1
  Ca2+  Ca27  1  0.32857547  0.93024929  0.17548904  1
  Ca2+  Ca28  1  0.32900584  0.91820225  0.50357791  1
  Ca2+  Ca29  1  0.33398199  0.92202858  0.83616904  1
  Ca2+  Ca30  1  0.83674684  0.42852646  0.17429148  1
  Ca2+  Ca31  1  0.83584995  0.42022626  0.50949312  1
  Ca2+  Ca32  1  0.83574546  0.42213824  0.83157508  1
  Ca2+  Ca33  1  0.83700250  0.92007228  0.17541570  1
  Ca2+  Ca34  1  0.83365608  0.92696362  0.50516068  1
  Ca2+  Ca35  1  0.83127001  0.91944691  0.83402130  1
  Ca2+  Ca36  1  0.41403694  0.17114806  0.15848284  1
  Ca2+  Ca37  1  0.42453199  0.17100877  0.49370435  1
  Ca2+  Ca38  1  0.42414423  0.16888095  0.83067654  1
  Ca2+  Ca39  1  0.41560365  0.66484529  0.16693161  1
  Ca2+  Ca40  1  0.41148136  0.66951435  0.49672409  1
  Ca2+  Ca41  1  0.41327463  0.67404602  0.82131226  1
  Ca2+  Ca42  1  0.91411915  0.17152506  0.16711442  1
  Ca2+  Ca43  1  0.90920236  0.17386222  0.49643846  1
  Ca2+  Ca44  1  0.92405812  0.17241852  0.81772959  1
  Ca2+  Ca45  1  0.90822468  0.67717800  0.16150351  1
  Ca2+  Ca46  1  0.91894508  0.66547909  0.49384880  1
  Ca2+  Ca47  1  0.91749241  0.66507455  0.82799803  1
  Al0+  Al48  1  -0.00185361  -0.00057632  -0.00502156  1
  Al0+  Al49  1  -0.00016213  -0.00084264  0.33667308  1
  Al0+  Al50  1  0.00235847  -0.00176466  0.66791960  1
  Al0+  Al51  1  0.00138056  0.50198880  0.00947371  1
  Al0+  Al52  1  0.00229933  0.49987792  0.33200143  1
  Al0+  Al53  1  0.00329531  0.50021053  0.66177178  1
  Al0+  Al54  1  0.50098572  -0.00050585  0.00228076  1
  Al0+  Al55  1  0.49972654  -0.00121636  0.33506353  1
  Al0+  Al56  1  0.49908662  0.00107655  0.66042219  1
  Al0+  Al57  1  0.50080471  0.50033459  -0.00430803  1
  Al0+  Al58  1  0.50012010  0.49887822  0.33106658  1
  Al0+  Al59  1  0.50137771  0.50247414  0.67678458  1
  Al0+  Al60  1  0.24923238  0.25107845  0.00504357  1
  Al0+  Al61  1  0.24959446  0.24943414  0.33600264  1
  Al0+  Al62  1  0.25017194  0.25035837  0.66066713  1
  Al0+  Al63  1  0.24761103  0.74923016  0.00111875  1
  Al0+  Al64  1  0.24965770  0.74938131  0.33545851  1
  Al0+  Al65  1  0.24909014  0.75154034  0.66360637  1
  Al0+  Al66  1  0.74883145  0.25044533  -0.00257408  1
  Al0+  Al67  1  0.74948390  0.24979077  0.32837748  1
  Al0+  Al68  1  0.74966055  0.25020009  0.66728867  1
  Al0+  Al69  1  0.74931302  0.75175740  -0.00186897  1
  Al0+  Al70  1  0.74982827  0.74855965  0.33403741  1
  Al0+  Al71  1  0.74800927  0.75103531  0.67319896  1
  Al0+  Al72  1  0.92944519  0.31971725  0.65318319  1
  Al0+  Al73  1  0.81886838  0.57033286  0.01521427  1
  Al0+  Al74  1  0.42569696  0.32136093  0.98331778  1
  Al0+  Al75  1  0.07420882  0.17546421  0.65100317  1
  Al0+  Al76  1  0.57117530  0.17761746  0.98352451  1
  Al0+  Al77  1  0.67875869  0.42715351  0.68230757  1
  Al0+  Al78  1  0.32288338  0.07317891  0.35144195  1
  Al0+  Al79  1  0.42931421  0.82061800  0.65207666  1
  Al0+  Al80  1  0.92820467  0.82166223  0.98427289  1
  Al0+  Al81  1  0.92845669  0.32171238  0.31732350  1
  Al0+  Al82  1  0.67710161  0.93093970  0.68203389  1
  Al0+  Al83  1  0.82203057  0.57133851  0.34688150  1
  Al0+  Al84  1  0.06950807  0.67981879  0.65284003  1
  Al0+  Al85  1  0.42948493  0.32063014  0.32076637  1
  Al0+  Al86  1  0.32055657  0.06862901  0.01206072  1
  Al0+  Al87  1  0.32133530  0.56812848  0.34613841  1
  Al0+  Al88  1  0.82312892  0.07094262  0.68281926  1
  Al0+  Al89  1  0.56985711  0.18056469  0.65126628  1
  Al0+  Al90  1  0.18059932  0.42991454  0.01390644  1
  Al0+  Al91  1  0.82526247  0.57096314  0.68104254  1
  Al0+  Al92  1  0.32021733  0.57288284  0.68070383  1
  Al0+  Al93  1  0.81872434  0.07134598  0.34480409  1
  Al0+  Al94  1  0.17895611  0.92955608  0.34906704  1
  Al0+  Al95  1  0.92927433  0.81940357  0.32148902  1
  Si0+  Si96  1  0.92976204  0.32347768  0.98730797  1
  Si0+  Si97  1  0.17539436  0.92648365  0.01541295  1
  Si0+  Si98  1  0.67704562  0.92545329  0.34926530  1
  Si0+  Si99  1  0.32428350  0.57434668  0.01578784  1
  Si0+  Si100  1  0.57263456  0.67718776  0.65044693  1
  Si0+  Si101  1  0.07453255  0.67785008  0.31383649  1
  Si0+  Si102  1  0.42750408  0.82103484  0.31683823  1
  Si0+  Si103  1  0.67681777  0.42603361  0.01865129  1
  Si0+  Si104  1  0.92538157  0.82123968  0.65019399  1
  Si0+  Si105  1  0.17977591  0.92793424  0.68332542  1
  Si0+  Si106  1  0.07067983  0.17763888  0.31554679  1
  Si0+  Si107  1  0.57160358  0.17594154  0.31570715  1
  Si0+  Si108  1  0.06918875  0.17952950  0.98784702  1
  Si0+  Si109  1  0.67912555  0.42934799  0.34639415  1
  Si0+  Si110  1  0.57007051  0.67913316  0.31874382  1
  Si0+  Si111  1  0.17694796  0.42647017  0.35338332  1
  Si0+  Si112  1  0.18075638  0.42753692  0.68127854  1
  Si0+  Si113  1  0.82268614  0.07210591  0.01423644  1
  Si0+  Si114  1  0.57196973  0.67965443  0.98443257  1
  Si0+  Si115  1  0.67981862  0.92993068  0.01591144  1
  Si0+  Si116  1  0.42841692  0.81926371  0.98808978  1
  Si0+  Si117  1  0.31996346  0.07170317  0.68072061  1
  Si0+  Si118  1  0.07138146  0.67723659  0.98421124  1
  Si0+  Si119  1  0.42805662  0.32492400  0.65086594  1
  O2-  O120  1  0.24557179  -0.00629742  0.05865807  1
  O2-  O121  1  0.25166910  0.00009037  0.40066520  1
  O2-  O122  1  0.24582391  0.00428524  0.72473906  1
  O2-  O123  1  0.25993589  0.50150919  0.05892112  1
  O2-  O124  1  0.24741142  0.49447643  0.39536731  1
  O2-  O125  1  0.25002266  0.49469241  0.72745957  1
  O2-  O126  1  0.75082205  0.00154443  0.05672634  1
  O2-  O127  1  0.74347681  -0.00310268  0.39060540  1
  O2-  O128  1  0.75105108  -0.00056356  0.73448908  1
  O2-  O129  1  0.74549550  0.49454896  0.06338344  1
  O2-  O130  1  0.75290274  0.49137354  0.39176580  1
  O2-  O131  1  0.75360389  0.49808066  0.73059535  1
  O2-  O132  1  0.00348038  0.24724679  0.26946489  1
  O2-  O133  1  -0.00383225  0.24209256  0.60326086  1
  O2-  O134  1  -0.00276996  0.24919336  0.94528223  1
  O2-  O135  1  0.00198502  0.74367469  0.27116116  1
  O2-  O136  1  -0.01003134  0.74913035  0.60601953  1
  O2-  O137  1  0.00359218  0.74669466  0.94004974  1
  O2-  O138  1  0.49840880  0.24062873  0.27301277  1
  O2-  O139  1  0.49863910  0.25916050  0.60571580  1
  O2-  O140  1  0.50011503  0.25138611  0.93439209  1
  O2-  O141  1  0.49991409  0.75117921  0.27475656  1
  O2-  O142  1  0.50342109  0.74498170  0.60516336  1
  O2-  O143  1  0.49350209  0.74383349  0.94459272  1
  O2-  O144  1  0.06722503  0.17759199  0.09285177  1
  O2-  O145  1  0.06937088  0.17847942  0.42069124  1
  O2-  O146  1  0.07757577  0.18036914  0.76562996  1
  O2-  O147  1  0.07355064  0.67808888  0.08952702  1
  O2-  O148  1  0.07608040  0.67938493  0.41935310  1
  O2-  O149  1  0.07096734  0.68220325  0.76645391  1
  O2-  O150  1  0.57074335  0.17684520  0.09745287  1
  O2-  O151  1  0.57351413  0.17769223  0.42103031  1
  O2-  O152  1  0.56527779  0.17829933  0.76417040  1
  O2-  O153  1  0.57366922  0.68253427  0.09018008  1
  O2-  O154  1  0.56956427  0.67920603  0.42326103  1
  O2-  O155  1  0.57026987  0.67927780  0.75643141  1
  O2-  O156  1  0.17759426  0.42807972  0.24715752  1
  O2-  O157  1  0.18214793  0.42815038  0.57602744  1
  O2-  O158  1  0.17838664  0.43150476  0.90081534  1
  O2-  O159  1  0.18100305  0.93156317  0.23459353  1
  O2-  O160  1  0.18216400  0.92516360  0.57868299  1
  O2-  O161  1  0.17701205  0.92574154  0.90974330  1
  O2-  O162  1  0.67811541  0.43362387  0.24062283  1
  O2-  O163  1  0.67707421  0.43042087  0.56821635  1
  O2-  O164  1  0.67855309  0.42678575  0.91349730  1
  O2-  O165  1  0.67660839  0.92381793  0.24298380  1
  O2-  O166  1  0.67772532  0.93250918  0.56833113  1
  O2-  O167  1  0.67740758  0.92834844  0.91156266  1
  O2-  O168  1  0.42612111  0.31881959  0.09727719  1
  O2-  O169  1  0.43647740  0.32459940  0.43357581  1
  O2-  O170  1  0.42428233  0.32063746  0.75627408  1
  O2-  O171  1  0.43070925  0.81888257  0.09345055  1
  O2-  O172  1  0.42747915  0.82047891  0.42153239  1
  O2-  O173  1  0.42888699  0.82049038  0.76619510  1
  O2-  O174  1  0.93095904  0.32201647  0.09259800  1
  O2-  O175  1  0.92767543  0.32097835  0.42963596  1
  O2-  O176  1  0.93475268  0.32170585  0.76773094  1
  O2-  O177  1  0.92853475  0.82305579  0.09766008  1
  O2-  O178  1  0.92916984  0.81762138  0.43405654  1
  O2-  O179  1  0.92913967  0.82174670  0.75618233  1
  O2-  O180  1  0.32213003  0.07103969  0.23718101  1
  O2-  O181  1  0.31975904  0.06962153  0.57606607  1
  O2-  O182  1  0.31949751  0.06685341  0.89858657  1
  O2-  O183  1  0.32076910  0.56792487  0.23263510  1
  O2-  O184  1  0.31931592  0.57260374  0.56752322  1
  O2-  O185  1  0.32073111  0.57961519  0.91068872  1
  O2-  O186  1  0.81740535  0.07000134  0.23067794  1
  O2-  O187  1  0.82141382  0.06968138  0.56905033  1
  O2-  O188  1  0.82526077  0.07084331  0.90986101  1
  O2-  O189  1  0.81685593  0.57422370  0.23338736  1
  O2-  O190  1  0.82339517  0.57021467  0.56731766  1
  O2-  O191  1  0.81941932  0.56868557  0.90258833  1
  O2-  O192  1  0.04440506  0.08424569  0.26952141  1
  O2-  O193  1  0.05384519  0.07382541  0.60222249  1
  O2-  O194  1  0.04449675  0.08788005  0.93805939  1
  O2-  O195  1  0.05334803  0.58267865  0.26953456  1
  O2-  O196  1  0.04757128  0.58268365  0.59661913  1
  O2-  O197  1  0.04362276  0.58380321  0.93925989  1
  O2-  O198  1  0.55054550  0.07978558  0.27157406  1
  O2-  O199  1  0.53575533  0.08664528  0.59472926  1
  O2-  O200  1  0.54162028  0.07824762  0.93263942  1
  O2-  O201  1  0.54069025  0.58925292  0.26811829  1
  O2-  O202  1  0.54773936  0.58280434  0.60637085  1
  O2-  O203  1  0.55294779  0.58569042  0.93821278  1
  O2-  O204  1  0.16528616  0.20315592  0.27059596  1
  O2-  O205  1  0.16977923  0.20812919  0.59431680  1
  O2-  O206  1  0.16070730  0.20892159  0.94160193  1
  O2-  O207  1  0.16682305  0.70713426  0.26601647  1
  O2-  O208  1  0.16336706  0.71666337  0.59743432  1
  O2-  O209  1  0.16557635  0.70184841  0.93714876  1
  O2-  O210  1  0.66278441  0.20472732  0.26610483  1
  O2-  O211  1  0.66756688  0.20790734  0.59864166  1
  O2-  O212  1  0.67060254  0.20478880  0.93089774  1
  O2-  O213  1  0.66072415  0.70856073  0.26887392  1
  O2-  O214  1  0.66618741  0.70426845  0.60485112  1
  O2-  O215  1  0.65939307  0.71546784  0.93505243  1
  O2-  O216  1  0.08755044  0.46423508  0.07355663  1
  O2-  O217  1  0.08416235  0.45419455  0.39869376  1
  O2-  O218  1  0.08833551  0.45550218  0.72790268  1
  O2-  O219  1  0.08183913  0.95481897  0.06015494  1
  O2-  O220  1  0.08157505  0.95711170  0.40326168  1
  O2-  O221  1  0.08673830  0.94881089  0.73125956  1
  O2-  O222  1  0.58209168  0.45308657  0.06264921  1
  O2-  O223  1  0.58838980  0.46075241  0.39389624  1
  O2-  O224  1  0.58302406  0.45788576  0.74052331  1
  O2-  O225  1  0.58858775  0.95620953  0.06633881  1
  O2-  O226  1  0.58226353  0.94709765  0.39410760  1
  O2-  O227  1  0.57786198  0.96178045  0.73333614  1
  O2-  O228  1  0.20716069  0.33388063  0.07152839  1
  O2-  O229  1  0.19898530  0.33216392  0.39771161  1
  O2-  O230  1  0.20579392  0.33334371  0.72761543  1
  O2-  O231  1  0.19838191  0.83230123  0.06199480  1
  O2-  O232  1  0.20768484  0.83093686  0.40070456  1
  O2-  O233  1  0.21400724  0.83942091  0.73318533  1
  O2-  O234  1  0.70111161  0.33171639  0.06418312  1
  O2-  O235  1  0.69860693  0.33314120  0.38845565  1
  O2-  O236  1  0.70510725  0.32933346  0.73631230  1
  O2-  O237  1  0.70830957  0.83867813  0.06461722  1
  O2-  O238  1  0.70325492  0.83298377  0.39614311  1
  O2-  O239  1  0.69935733  0.83146287  0.73633136  1
  O2-  O240  1  0.46308532  0.41538692  0.26328224  1
  O2-  O241  1  0.45253138  0.42124487  0.61037658  1
  O2-  O242  1  0.44911500  0.42256661  0.93336457  1
  O2-  O243  1  0.45539152  0.91318320  0.26908520  1
  O2-  O244  1  0.46033259  0.91525331  0.59520800  1
  O2-  O245  1  0.46059050  0.90921539  0.94047110  1
  O2-  O246  1  0.96153367  0.41837138  0.26300518  1
  O2-  O247  1  0.96340659  0.41533112  0.59807111  1
  O2-  O248  1  0.96211153  0.41489899  0.94287414  1
  O2-  O249  1  0.96137061  0.91615067  0.26668008  1
  O2-  O250  1  0.95601834  0.91356260  0.60494547  1
  O2-  O251  1  0.95858783  0.91750595  0.92813789  1
  O2-  O252  1  0.32993195  0.29466749  0.26962625  1
  O2-  O253  1  0.33612425  0.29857506  0.60207577  1
  O2-  O254  1  0.32690310  0.29114130  0.93216024  1
  O2-  O255  1  0.33680065  0.79120591  0.26839277  1
  O2-  O256  1  0.33407318  0.78870809  0.59709513  1
  O2-  O257  1  0.33416366  0.79712565  0.94183957  1
  O2-  O258  1  0.83211584  0.29128555  0.26106926  1
  O2-  O259  1  0.82985786  0.29706875  0.60120303  1
  O2-  O260  1  0.83643341  0.30034484  0.94176776  1
  O2-  O261  1  0.83161100  0.79000288  0.26635573  1
  O2-  O262  1  0.82893740  0.80197459  0.60821749  1
  O2-  O263  1  0.83149263  0.79110611  0.93115099  1
  O2-  O264  1  0.41600252  0.03618451  0.06787272  1
  O2-  O265  1  0.42199424  0.04390484  0.40200466  1
  O2-  O266  1  0.41007865  0.03896935  0.72745151  1
  O2-  O267  1  0.42086341  0.55516072  0.05862914  1
  O2-  O268  1  0.41858703  0.53861817  0.39966233  1
  O2-  O269  1  0.41720937  0.54958432  0.73667703  1
  O2-  O270  1  0.91419999  0.04279950  0.06206471  1
  O2-  O271  1  0.91459577  0.04142113  0.39860993  1
  O2-  O272  1  0.92271039  0.04277953  0.73511577  1
  O2-  O273  1  0.91531460  0.54297150  0.07106523  1
  O2-  O274  1  0.92172413  0.54651733  0.39569041  1
  O2-  O275  1  0.92451187  0.54252375  0.73281973  1
  O2-  O276  1  0.28831371  0.16389619  0.06705841  1
  O2-  O277  1  0.29550071  0.17147168  0.40386609  1
  O2-  O278  1  0.29453793  0.16519417  0.72654869  1
  O2-  O279  1  0.29493732  0.66652263  0.06486211  1
  O2-  O280  1  0.29243988  0.66561655  0.39853689  1
  O2-  O281  1  0.28489037  0.66862637  0.73405773  1
  O2-  O282  1  0.79551763  0.16482700  0.06095855  1
  O2-  O283  1  0.78777218  0.16843545  0.39738335  1
  O2-  O284  1  0.79595424  0.16963781  0.73442016  1
  O2-  O285  1  0.78363116  0.66761138  0.06661140  1
  O2-  O286  1  0.78648815  0.66558835  0.40145866  1
  O2-  O287  1  0.79561015  0.66886188  0.73448135  1
