# generated using pymatgen
data_Ca2Al2SiO7
_symmetry_space_group_name_H-M   'P 1'
_cell_length_a   15.45952242
_cell_length_b   15.45937815
_cell_length_c   15.28490816
_cell_angle_alpha   89.99204236
_cell_angle_beta   90.01155543
_cell_angle_gamma   90.00063889
_symmetry_Int_Tables_number   1
_chemical_formula_structural   Ca2Al2SiO7
_chemical_formula_sum   'Ca48 Al48 Si24 O168'
_cell_volume   3653.01044783
_cell_formula_units_Z   24
loop_
 _symmetry_equiv_pos_site_id
 _symmetry_equiv_pos_as_xyz
  1  'x, y, z'
loop_
 _atom_type_symbol
 _atom_type_oxidation_number
  Ca2+  2.0
  Al0+  0.0
  Si0+  0.0
  O2-  -2.0
loop_
 _atom_site_type_symbol
 _atom_site_label
 _atom_site_symmetry_multiplicity
 _atom_site_fract_x
 _atom_site_fract_y
 _atom_site_fract_z
 _atom_site_occupancy
  Ca2+  Ca0  1  0.17793688  0.09453689  0.16921648  1
  Ca2+  Ca1  1  0.16969592  0.08463726  0.50475884  1
  Ca2+  Ca2  1  0.17060865  0.08545737  0.83794651  1
  Ca2+  Ca3  1  0.16468116  0.57352551  0.16766562  1
  Ca2+  Ca4  1  0.17726494  0.58055275  0.51063979  1
  Ca2+  Ca5  1  0.17760796  0.57843329  0.83967403  1
  Ca2+  Ca6  1  0.67480749  0.08714799  0.17569710  1
  Ca2+  Ca7  1  0.66220189  0.07384876  0.50120759  1
  Ca2+  Ca8  1  0.66588760  0.07995409  0.84266420  1
  Ca2+  Ca9  1  0.65560193  0.57877368  0.16644104  1
  Ca2+  Ca10  1  0.66458465  0.58138497  0.51277886  1
  Ca2+  Ca11  1  0.65735269  0.57380779  0.83382700  1
  Ca2+  Ca12  1  0.07615116  0.32379023  0.15603118  1
  Ca2+  Ca13  1  0.08163568  0.32035910  0.49559357  1
  Ca2+  Ca14  1  0.08395968  0.32512835  0.83251676  1
  Ca2+  Ca15  1  0.08075413  0.83327156  0.16301653  1
  Ca2+  Ca16  1  0.08489428  0.83575631  0.50101689  1
  Ca2+  Ca17  1  0.08123647  0.83893696  0.82558193  1
  Ca2+  Ca18  1  0.58662829  0.32128641  0.15997006  1
  Ca2+  Ca19  1  0.57822464  0.33426766  0.49902072  1
  Ca2+  Ca20  1  0.58761098  0.32913759  0.82953813  1
  Ca2+  Ca21  1  0.58582961  0.82613928  0.15956405  1
  Ca2+  Ca22  1  0.59145959  0.82591500  0.49775273  1
  Ca2+  Ca23  1  0.57224693  0.82855742  0.82495548  1
  Ca2+  Ca24  1  0.32499311  0.41111129  0.16630893  1
  Ca2+  Ca25  1  0.33868149  0.42214333  0.51033507  1
  Ca2+  Ca26  1  0.33533119  0.41837933  0.83512312  1
  Ca2+  Ca27  1  0.34048994  0.92760401  0.16645323  1
  Ca2+  Ca28  1  0.33164898  0.92244538  0.50720733  1
  Ca2+  Ca29  1  0.33138657  0.91492661  0.83787964  1
  Ca2+  Ca30  1  0.82885344  0.41055039  0.16253833  1
  Ca2+  Ca31  1  0.82389799  0.42464581  0.50941769  1
  Ca2+  Ca32  1  0.82423939  0.41673124  0.83843717  1
  Ca2+  Ca33  1  0.82717255  0.93041304  0.17203084  1
  Ca2+  Ca34  1  0.82061885  0.92051419  0.50111571  1
  Ca2+  Ca35  1  0.82420906  0.92265374  0.83519252  1
  Ca2+  Ca36  1  0.42687142  0.15647936  0.16255200  1
  Ca2+  Ca37  1  0.41928152  0.17107083  0.49567310  1
  Ca2+  Ca38  1  0.41815429  0.17135574  0.83286260  1
  Ca2+  Ca39  1  0.42763377  0.67778947  0.15807195  1
  Ca2+  Ca40  1  0.42600798  0.67005362  0.50047946  1
  Ca2+  Ca41  1  0.42310581  0.67291406  0.82572063  1
  Ca2+  Ca42  1  0.92323801  0.16352215  0.15614293  1
  Ca2+  Ca43  1  0.92766304  0.15648069  0.49550152  1
  Ca2+  Ca44  1  0.92334375  0.16703684  0.83298762  1
  Ca2+  Ca45  1  0.91643990  0.67067575  0.16229792  1
  Ca2+  Ca46  1  0.91140859  0.66736013  0.49963880  1
  Ca2+  Ca47  1  0.91768126  0.66332259  0.82813653  1
  Al0+  Al48  1  0.00001626  -0.00144450  -0.00050449  1
  Al0+  Al49  1  0.00076624  -0.00161582  0.33057620  1
  Al0+  Al50  1  0.00167843  -0.00108706  0.66538275  1
  Al0+  Al51  1  -0.00077114  0.49960900  0.00136602  1
  Al0+  Al52  1  -0.00044482  0.49875372  0.33477973  1
  Al0+  Al53  1  0.00002936  0.49826638  0.66770306  1
  Al0+  Al54  1  0.49840861  -0.00191952  -0.00456525  1
  Al0+  Al55  1  0.49796738  0.00072629  0.33998325  1
  Al0+  Al56  1  0.49879382  0.00093622  0.66800658  1
  Al0+  Al57  1  0.49986494  0.50041850  0.00466928  1
  Al0+  Al58  1  0.49750975  0.50190422  0.32774380  1
  Al0+  Al59  1  0.49963191  0.49963981  0.66822096  1
  Al0+  Al60  1  0.25004665  0.24935663  0.00531902  1
  Al0+  Al61  1  0.24734829  0.25029282  0.33495040  1
  Al0+  Al62  1  0.25081124  0.24974492  0.65728588  1
  Al0+  Al63  1  0.24955454  0.75003181  0.00034774  1
  Al0+  Al64  1  0.25032563  0.74825198  0.33078767  1
  Al0+  Al65  1  0.25008409  0.75096507  0.67081293  1
  Al0+  Al66  1  0.75110352  0.25105325  -0.00030059  1
  Al0+  Al67  1  0.75085522  0.25283060  0.33821557  1
  Al0+  Al68  1  0.75324827  0.25040778  0.66729309  1
  Al0+  Al69  1  0.75145243  0.74814355  -0.00485472  1
  Al0+  Al70  1  0.75091110  0.74954965  0.32966917  1
  Al0+  Al71  1  0.75180181  0.75252596  0.67168782  1
  Al0+  Al72  1  0.42832297  0.82157730  0.98409714  1
  Al0+  Al73  1  0.18026479  0.93105298  0.67958295  1
  Al0+  Al74  1  0.32075261  0.06991590  0.01262735  1
  Al0+  Al75  1  0.67879459  0.92817568  0.34657536  1
  Al0+  Al76  1  0.06933014  0.17923242  0.65161218  1
  Al0+  Al77  1  0.42605326  0.82305686  0.64918097  1
  Al0+  Al78  1  0.67729107  0.93104363  0.68218044  1
  Al0+  Al79  1  0.43130273  0.31977867  0.65490572  1
  Al0+  Al80  1  0.57187378  0.67984280  0.31838649  1
  Al0+  Al81  1  0.31996366  0.07153366  0.34897810  1
  Al0+  Al82  1  0.32097917  0.57078493  0.68030663  1
  Al0+  Al83  1  0.57182955  0.17922099  0.98837404  1
  Al0+  Al84  1  0.56998476  0.17991812  0.32256883  1
  Al0+  Al85  1  0.06934363  0.17782008  0.31708838  1
  Al0+  Al86  1  0.67816862  0.42970718  0.01587831  1
  Al0+  Al87  1  0.17892328  0.42957443  0.01334102  1
  Al0+  Al88  1  0.57224707  0.67703536  0.98212520  1
  Al0+  Al89  1  0.07284032  0.17800766  0.98402705  1
  Al0+  Al90  1  0.67839882  0.42830698  0.68185102  1
  Al0+  Al91  1  0.82263909  0.57226895  0.68204493  1
  Al0+  Al92  1  0.92851867  0.32182837  0.98340880  1
  Al0+  Al93  1  0.82305319  0.07378121  0.34877811  1
  Al0+  Al94  1  0.82002574  0.07052123  0.01193836  1
  Al0+  Al95  1  0.57103944  0.68163801  0.65192596  1
  Si0+  Si96  1  0.67806010  0.92730235  0.01476061  1
  Si0+  Si97  1  0.42721225  0.32345941  0.31547551  1
  Si0+  Si98  1  0.93012895  0.82091606  0.98345669  1
  Si0+  Si99  1  0.31965740  0.57043068  0.34806647  1
  Si0+  Si100  1  0.07121264  0.67711878  0.65314898  1
  Si0+  Si101  1  0.07209994  0.67694373  0.31927960  1
  Si0+  Si102  1  0.82365160  0.07057839  0.68259273  1
  Si0+  Si103  1  0.92950121  0.81916613  0.31758789  1
  Si0+  Si104  1  0.42589968  0.82208128  0.31724013  1
  Si0+  Si105  1  0.07047712  0.67830764  0.98541050  1
  Si0+  Si106  1  0.32148474  0.57372177  0.01993774  1
  Si0+  Si107  1  0.57589277  0.17707093  0.65080993  1
  Si0+  Si108  1  0.17831292  0.92467927  0.34865801  1
  Si0+  Si109  1  0.82166879  0.57088482  0.34670187  1
  Si0+  Si110  1  0.82263222  0.57291907  0.01871552  1
  Si0+  Si111  1  0.17888189  0.42588313  0.68161404  1
  Si0+  Si112  1  0.93020453  0.82079686  0.65074709  1
  Si0+  Si113  1  0.92876604  0.32453378  0.31689951  1
  Si0+  Si114  1  0.92729380  0.32345423  0.64741699  1
  Si0+  Si115  1  0.42738693  0.32145981  0.98695940  1
  Si0+  Si116  1  0.67648492  0.43096965  0.34786201  1
  Si0+  Si117  1  0.17770053  0.43014381  0.35056875  1
  Si0+  Si118  1  0.17678962  0.92625421  0.01781144  1
  Si0+  Si119  1  0.32148089  0.07504508  0.68339156  1
  O2-  O120  1  0.24521997  -0.00470730  0.06058297  1
  O2-  O121  1  0.24487695  -0.00499217  0.39254907  1
  O2-  O122  1  0.25639796  0.00281180  0.72701838  1
  O2-  O123  1  0.25341094  0.50361839  0.06357323  1
  O2-  O124  1  0.25073846  0.49860158  0.39268161  1
  O2-  O125  1  0.24550037  0.49597168  0.72606354  1
  O2-  O126  1  0.74263179  -0.00090437  0.06007122  1
  O2-  O127  1  0.74707586  0.00457687  0.39687317  1
  O2-  O128  1  0.74746160  0.01106310  0.72737852  1
  O2-  O129  1  0.75149649  0.50697036  0.06305064  1
  O2-  O130  1  0.74743725  0.50340387  0.38819832  1
  O2-  O131  1  0.75016555  0.50124436  0.73147064  1
  O2-  O132  1  -0.00922507  0.24979804  0.27304497  1
  O2-  O133  1  -0.00611920  0.25275292  0.60327644  1
  O2-  O134  1  0.00052593  0.24954746  0.93413512  1
  O2-  O135  1  0.00248430  0.74872176  0.27640572  1
  O2-  O136  1  -0.00182832  0.74544828  0.60923863  1
  O2-  O137  1  0.00188887  0.75024048  0.94166883  1
  O2-  O138  1  0.49499694  0.25352033  0.27284923  1
  O2-  O139  1  0.50765711  0.24708104  0.60776808  1
  O2-  O140  1  0.49841157  0.25581425  0.94254912  1
  O2-  O141  1  0.50005334  0.75852014  0.27402422  1
  O2-  O142  1  0.50191072  0.75510921  0.59879260  1
  O2-  O143  1  0.49986184  0.74932915  0.93470897  1
  O2-  O144  1  0.07171496  0.17972603  0.09776687  1
  O2-  O145  1  0.06959630  0.17981282  0.43047412  1
  O2-  O146  1  0.06972902  0.17999547  0.76415713  1
  O2-  O147  1  0.06864073  0.67943341  0.09130856  1
  O2-  O148  1  0.07261761  0.67599073  0.42422611  1
  O2-  O149  1  0.07061400  0.67793774  0.75817257  1
  O2-  O150  1  0.57191619  0.17900741  0.10188403  1
  O2-  O151  1  0.56784899  0.18361011  0.43566014  1
  O2-  O152  1  0.57561028  0.17742096  0.75645590  1
  O2-  O153  1  0.57111002  0.68031255  0.09658877  1
  O2-  O154  1  0.57192332  0.67607659  0.43095783  1
  O2-  O155  1  0.56823271  0.68100269  0.76468828  1
  O2-  O156  1  0.17619571  0.43279674  0.24551923  1
  O2-  O157  1  0.17946783  0.42901231  0.57537760  1
  O2-  O158  1  0.18112660  0.43256085  0.90037652  1
  O2-  O159  1  0.17912094  0.92016978  0.24332324  1
  O2-  O160  1  0.17788559  0.93233603  0.56622891  1
  O2-  O161  1  0.17568404  0.92428326  0.91246203  1
  O2-  O162  1  0.67720531  0.43024344  0.24295615  1
  O2-  O163  1  0.67894917  0.43020115  0.56727977  1
  O2-  O164  1  0.67837411  0.42932417  0.90351759  1
  O2-  O165  1  0.68316294  0.92541439  0.23300701  1
  O2-  O166  1  0.68134795  0.92915454  0.56892399  1
  O2-  O167  1  0.68138464  0.92836880  0.90923514  1
  O2-  O168  1  0.42723188  0.31958361  0.09288207  1
  O2-  O169  1  0.42939527  0.32762060  0.42111183  1
  O2-  O170  1  0.42743953  0.31702215  0.76778905  1
  O2-  O171  1  0.42917909  0.82120211  0.09839458  1
  O2-  O172  1  0.41906176  0.81657231  0.42202796  1
  O2-  O173  1  0.42491057  0.81947887  0.76230412  1
  O2-  O174  1  0.93052328  0.32166765  0.09765754  1
  O2-  O175  1  0.93460686  0.33210626  0.42202363  1
  O2-  O176  1  0.92811378  0.32472733  0.75239923  1
  O2-  O177  1  0.93099954  0.81919692  0.08908533  1
  O2-  O178  1  0.92879433  0.81695673  0.42263859  1
  O2-  O179  1  0.93365842  0.82310899  0.75576753  1
  O2-  O180  1  0.32048096  0.07106811  0.23585429  1
  O2-  O181  1  0.31823751  0.07607259  0.57751587  1
  O2-  O182  1  0.31853995  0.07145674  0.89983474  1
  O2-  O183  1  0.31572236  0.57018736  0.24322926  1
  O2-  O184  1  0.31874857  0.56938383  0.56628463  1
  O2-  O185  1  0.31896902  0.57445719  0.91452120  1
  O2-  O186  1  0.82352569  0.07096749  0.23511036  1
  O2-  O187  1  0.82602629  0.06563164  0.57700560  1
  O2-  O188  1  0.82104436  0.06623252  0.89882172  1
  O2-  O189  1  0.82662572  0.57025258  0.24203329  1
  O2-  O190  1  0.82340780  0.57030071  0.56736364  1
  O2-  O191  1  0.82704437  0.57244549  0.91397290  1
  O2-  O192  1  0.04541917  0.07884035  0.26466934  1
  O2-  O193  1  0.03785107  0.08240600  0.59732640  1
  O2-  O194  1  0.04556304  0.07808030  0.93370492  1
  O2-  O195  1  0.04136523  0.58600136  0.27117463  1
  O2-  O196  1  0.04683845  0.58450385  0.60438206  1
  O2-  O197  1  0.04158820  0.58771780  0.93779994  1
  O2-  O198  1  0.54051818  0.08172305  0.27081168  1
  O2-  O199  1  0.54775319  0.08437421  0.60476579  1
  O2-  O200  1  0.54055199  0.08383168  0.93349897  1
  O2-  O201  1  0.53568764  0.58543634  0.26240320  1
  O2-  O202  1  0.54031165  0.58277215  0.60063239  1
  O2-  O203  1  0.54157193  0.57749474  0.93403258  1
  O2-  O204  1  0.16530113  0.21443889  0.26535775  1
  O2-  O205  1  0.16425498  0.21104068  0.59456363  1
  O2-  O206  1  0.17119144  0.20983227  0.93337649  1
  O2-  O207  1  0.16301823  0.70302424  0.26894063  1
  O2-  O208  1  0.16131557  0.70822070  0.60458780  1
  O2-  O209  1  0.16331686  0.70291210  0.93952045  1
  O2-  O210  1  0.66828271  0.21178600  0.27137592  1
  O2-  O211  1  0.67067399  0.19968369  0.60545901  1
  O2-  O212  1  0.66732784  0.20926861  0.93344502  1
  O2-  O213  1  0.66983936  0.70566335  0.26390044  1
  O2-  O214  1  0.67223723  0.70917354  0.60230894  1
  O2-  O215  1  0.67284038  0.70006441  0.93216044  1
  O2-  O216  1  0.08383265  0.46393612  0.06967103  1
  O2-  O217  1  0.08736768  0.46156611  0.39907669  1
  O2-  O218  1  0.08471002  0.44884310  0.72641748  1
  O2-  O219  1  0.08270314  0.94969905  0.06396750  1
  O2-  O220  1  0.08332721  0.94709864  0.39287460  1
  O2-  O221  1  0.08381545  0.96189978  0.73448000  1
  O2-  O222  1  0.58141564  0.45812293  0.07265255  1
  O2-  O223  1  0.58332715  0.45942908  0.39238702  1
  O2-  O224  1  0.58038214  0.45502165  0.73499693  1
  O2-  O225  1  0.58249583  0.94708661  0.05743652  1
  O2-  O226  1  0.57984940  0.95066744  0.40046071  1
  O2-  O227  1  0.57928260  0.95742046  0.73534372  1
  O2-  O228  1  0.21017353  0.33498638  0.07105820  1
  O2-  O229  1  0.20301429  0.33795761  0.39734426  1
  O2-  O230  1  0.20803679  0.33288792  0.72531612  1
  O2-  O231  1  0.20051525  0.83184573  0.06476662  1
  O2-  O232  1  0.20345205  0.83031125  0.39521941  1
  O2-  O233  1  0.20476593  0.83359050  0.73490116  1
  O2-  O234  1  0.71260654  0.33440267  0.07070328  1
  O2-  O235  1  0.70396750  0.34108151  0.39852525  1
  O2-  O236  1  0.70794892  0.32918330  0.73353717  1
  O2-  O237  1  0.70946663  0.83409638  0.05908348  1
  O2-  O238  1  0.71542019  0.83102001  0.39935420  1
  O2-  O239  1  0.71499853  0.83798671  0.73744688  1
  O2-  O240  1  0.45125564  0.41634219  0.26700354  1
  O2-  O241  1  0.46057034  0.41608649  0.59869307  1
  O2-  O242  1  0.44823668  0.41725969  0.94445787  1
  O2-  O243  1  0.44668975  0.91826604  0.27607007  1
  O2-  O244  1  0.44884196  0.92488029  0.60090887  1
  O2-  O245  1  0.45399319  0.91866442  0.92844137  1
  O2-  O246  1  0.96065027  0.41560893  0.26754211  1
  O2-  O247  1  0.95551106  0.41651335  0.59990868  1
  O2-  O248  1  0.95745128  0.42107986  0.93258171  1
  O2-  O249  1  0.95791824  0.90946651  0.26788477  1
  O2-  O250  1  0.96373981  0.90924109  0.60060303  1
  O2-  O251  1  0.95894450  0.91101401  0.93434028  1
  O2-  O252  1  0.33172261  0.29901583  0.27348541  1
  O2-  O253  1  0.33664226  0.29031859  0.59476254  1
  O2-  O254  1  0.33503112  0.29388985  0.94035656  1
  O2-  O255  1  0.33506218  0.79038304  0.26712984  1
  O2-  O256  1  0.32733198  0.79133926  0.59769537  1
  O2-  O257  1  0.32789550  0.79374374  0.93424565  1
  O2-  O258  1  0.83172900  0.30691295  0.27596258  1
  O2-  O259  1  0.83310329  0.30059655  0.60063693  1
  O2-  O260  1  0.83092120  0.29386173  0.93050850  1
  O2-  O261  1  0.84094335  0.78818677  0.26623877  1
  O2-  O262  1  0.83860882  0.79477053  0.60262330  1
  O2-  O263  1  0.83946492  0.79299252  0.93471160  1
  O2-  O264  1  0.41720908  0.03624110  0.06712669  1
  O2-  O265  1  0.41510145  0.04342287  0.40648007  1
  O2-  O266  1  0.41681120  0.05613268  0.72737678  1
  O2-  O267  1  0.41456449  0.54920575  0.06674531  1
  O2-  O268  1  0.41212869  0.54299436  0.39412340  1
  O2-  O269  1  0.41498943  0.53803625  0.73567127  1
  O2-  O270  1  0.91570783  0.03467609  0.06609341  1
  O2-  O271  1  0.92027811  0.03705344  0.40011941  1
  O2-  O272  1  0.91345042  0.03514984  0.72977943  1
  O2-  O273  1  0.91544958  0.54635016  0.06730492  1
  O2-  O274  1  0.91273059  0.54175180  0.39641452  1
  O2-  O275  1  0.92225436  0.54425791  0.73391338  1
  O2-  O276  1  0.29183709  0.16538343  0.07022205  1
  O2-  O277  1  0.28759162  0.16850176  0.40241708  1
  O2-  O278  1  0.29004640  0.16747493  0.72806601  1
  O2-  O279  1  0.29183309  0.66604797  0.06723945  1
  O2-  O280  1  0.28937175  0.66153820  0.39543068  1
  O2-  O281  1  0.28669007  0.66484880  0.73584927  1
  O2-  O282  1  0.79417917  0.16777009  0.06575817  1
  O2-  O283  1  0.80261537  0.17421998  0.40131078  1
  O2-  O284  1  0.80917796  0.16794031  0.72380026  1
  O2-  O285  1  0.80011235  0.66845048  0.06375487  1
  O2-  O286  1  0.79798254  0.66401343  0.39266555  1
  O2-  O287  1  0.80232569  0.67236848  0.73352405  1
