# generated using pymatgen
data_Ca2Al2SiO7
_symmetry_space_group_name_H-M   'P 1'
_cell_length_a   15.46489995
_cell_length_b   15.46685383
_cell_length_c   15.28878517
_cell_angle_alpha   90.00474615
_cell_angle_beta   89.98540981
_cell_angle_gamma   90.01103605
_symmetry_Int_Tables_number   1
_chemical_formula_structural   Ca2Al2SiO7
_chemical_formula_sum   'Ca48 Al48 Si24 O168'
_cell_volume   3656.97549937
_cell_formula_units_Z   24
loop_
 _symmetry_equiv_pos_site_id
 _symmetry_equiv_pos_as_xyz
  1  'x, y, z'
loop_
 _atom_type_symbol
 _atom_type_oxidation_number
  Ca2+  2.0
  Al0+  0.0
  Si0+  0.0
  O2-  -2.0
loop_
 _atom_site_type_symbol
 _atom_site_label
 _atom_site_symmetry_multiplicity
 _atom_site_fract_x
 _atom_site_fract_y
 _atom_site_fract_z
 _atom_site_occupancy
  Ca2+  Ca0  1  0.17027212  0.07671239  0.17661444  1
  Ca2+  Ca1  1  0.17821602  0.07114589  0.50550329  1
  Ca2+  Ca2  1  0.16702967  0.07865520  0.83427296  1
  Ca2+  Ca3  1  0.17345270  0.59082935  0.17256843  1
  Ca2+  Ca4  1  0.17630206  0.59532389  0.49906385  1
  Ca2+  Ca5  1  0.17854194  0.59084964  0.83469625  1
  Ca2+  Ca6  1  0.66898757  0.07741903  0.17564138  1
  Ca2+  Ca7  1  0.65982318  0.07464704  0.50266144  1
  Ca2+  Ca8  1  0.66246976  0.07817086  0.82971347  1
  Ca2+  Ca9  1  0.67937261  0.58186608  0.16853672  1
  Ca2+  Ca10  1  0.67331467  0.58266939  0.50485942  1
  Ca2+  Ca11  1  0.66887987  0.57052005  0.84306006  1
  Ca2+  Ca12  1  0.07917024  0.32549997  0.15656836  1
  Ca2+  Ca13  1  0.08431297  0.33156211  0.49524654  1
  Ca2+  Ca14  1  0.08098827  0.33065884  0.83396350  1
  Ca2+  Ca15  1  0.07606312  0.83136405  0.16624073  1
  Ca2+  Ca16  1  0.07650703  0.83684783  0.49309991  1
  Ca2+  Ca17  1  0.07174380  0.83621214  0.82705989  1
  Ca2+  Ca18  1  0.58721584  0.32834851  0.16470796  1
  Ca2+  Ca19  1  0.58789617  0.32199546  0.49772737  1
  Ca2+  Ca20  1  0.59064090  0.33020461  0.82499483  1
  Ca2+  Ca21  1  0.57106167  0.83684320  0.16540220  1
  Ca2+  Ca22  1  0.57235220  0.84513803  0.49613989  1
  Ca2+  Ca23  1  0.57170327  0.83408469  0.82549400  1
  Ca2+  Ca24  1  0.33331366  0.43061258  0.17123450  1
  Ca2+  Ca25  1  0.33779191  0.43171942  0.50322420  1
  Ca2+  Ca26  1  0.33784780  0.43175238  0.83853751  1
  Ca2+  Ca27  1  0.32896060  0.91719774  0.17826430  1
  Ca2+  Ca28  1  0.32534161  0.91482631  0.50527177  1
  Ca2+  Ca29  1  0.33313481  0.91612434  0.83205140  1
  Ca2+  Ca30  1  0.83640047  0.42386300  0.16830012  1
  Ca2+  Ca31  1  0.82940682  0.42523499  0.50447286  1
  Ca2+  Ca32  1  0.82405100  0.41842625  0.84386803  1
  Ca2+  Ca33  1  0.82856877  0.90893645  0.17420820  1
  Ca2+  Ca34  1  0.82294493  0.90747094  0.50375680  1
  Ca2+  Ca35  1  0.82845032  0.90795122  0.83599375  1
  Ca2+  Ca36  1  0.42276258  0.15986057  0.16653714  1
  Ca2+  Ca37  1  0.42418097  0.15514299  0.49596835  1
  Ca2+  Ca38  1  0.42223167  0.16869891  0.82198186  1
  Ca2+  Ca39  1  0.40817753  0.67714211  0.16304514  1
  Ca2+  Ca40  1  0.41252536  0.67559680  0.49452428  1
  Ca2+  Ca41  1  0.41056868  0.67460496  0.82811936  1
  Ca2+  Ca42  1  0.92468761  0.17167030  0.15565863  1
  Ca2+  Ca43  1  0.91661044  0.16901138  0.49686800  1
  Ca2+  Ca44  1  0.92085589  0.17006897  0.83479868  1
  Ca2+  Ca45  1  0.91545750  0.67092850  0.16515136  1
  Ca2+  Ca46  1  0.92175939  0.67648278  0.48895016  1
  Ca2+  Ca47  1  0.91075161  0.67436734  0.83077868  1
  Al0+  Al48  1  -0.00009312  -0.00145027  -0.00761070  1
  Al0+  Al49  1  -0.00125491  0.00181489  0.33295810  1
  Al0+  Al50  1  -0.00032194  0.00203797  0.66478210  1
  Al0+  Al51  1  0.00136672  0.49943623  -0.00245101  1
  Al0+  Al52  1  -0.00013775  0.50088485  0.33422114  1
  Al0+  Al53  1  0.00123502  0.50051448  0.66608466  1
  Al0+  Al54  1  0.49925741  -0.00059973  -0.00478310  1
  Al0+  Al55  1  0.50234926  0.00082212  0.32843908  1
  Al0+  Al56  1  0.50103419  0.00061224  0.66749769  1
  Al0+  Al57  1  0.50050942  0.49918631  0.01137064  1
  Al0+  Al58  1  0.50057409  0.49796147  0.33617568  1
  Al0+  Al59  1  0.50109838  0.50001930  0.67412962  1
  Al0+  Al60  1  0.25378378  0.24884691  -0.00443488  1
  Al0+  Al61  1  0.25160394  0.25201285  0.33574267  1
  Al0+  Al62  1  0.25038995  0.25174343  0.66786336  1
  Al0+  Al63  1  0.24813887  0.75332046  -0.00082805  1
  Al0+  Al64  1  0.24821311  0.75066736  0.33343149  1
  Al0+  Al65  1  0.24800418  0.75127483  0.67192636  1
  Al0+  Al66  1  0.75080818  0.24691218  -0.00003708  1
  Al0+  Al67  1  0.74929454  0.24912008  0.32839792  1
  Al0+  Al68  1  0.75064538  0.24998544  0.66494969  1
  Al0+  Al69  1  0.74680701  0.74743850  0.00046550  1
  Al0+  Al70  1  0.74787913  0.74845894  0.33931601  1
  Al0+  Al71  1  0.74883952  0.75060654  0.66810233  1
  Al0+  Al72  1  0.17705179  0.92897913  0.34737507  1
  Al0+  Al73  1  0.92912484  0.32173779  0.98434693  1
  Al0+  Al74  1  0.68182308  0.42895902  0.67890811  1
  Al0+  Al75  1  0.57035241  0.18097234  0.65214108  1
  Al0+  Al76  1  0.68030320  0.92917159  0.34516413  1
  Al0+  Al77  1  0.17668069  0.92942103  0.68436138  1
  Al0+  Al78  1  0.42913396  0.81949883  0.65231757  1
  Al0+  Al79  1  0.92613984  0.82223042  0.31864786  1
  Al0+  Al80  1  0.07048810  0.67900873  0.31785508  1
  Al0+  Al81  1  0.31884133  0.57306928  0.01547191  1
  Al0+  Al82  1  0.92735125  0.82165486  0.65188735  1
  Al0+  Al83  1  0.31992967  0.57083836  0.68070518  1
  Al0+  Al84  1  0.42810230  0.82075524  0.98490181  1
  Al0+  Al85  1  0.07422684  0.17766301  0.98412246  1
  Al0+  Al86  1  0.32194235  0.07092996  0.68279017  1
  Al0+  Al87  1  0.32235463  0.07234156  0.34644048  1
  Al0+  Al88  1  0.67996342  0.92932880  0.68164238  1
  Al0+  Al89  1  0.92648915  0.81811651  0.98625234  1
  Al0+  Al90  1  0.67957638  0.42465456  0.01834411  1
  Al0+  Al91  1  0.56946557  0.17971199  0.31766418  1
  Al0+  Al92  1  0.43032282  0.81915035  0.32107968  1
  Al0+  Al93  1  0.32100366  0.57165583  0.34689402  1
  Al0+  Al94  1  0.82280974  0.57165130  0.01520262  1
  Al0+  Al95  1  0.82132832  0.57016384  0.34886452  1
  Si0+  Si96  1  0.07261843  0.18043931  0.32030770  1
  Si0+  Si97  1  0.93008998  0.32095435  0.65072919  1
  Si0+  Si98  1  0.57101848  0.17851708  0.98342236  1
  Si0+  Si99  1  0.82203782  0.07444020  0.34824872  1
  Si0+  Si100  1  0.18020254  0.42538475  0.01534544  1
  Si0+  Si101  1  0.43109626  0.32218092  0.98571025  1
  Si0+  Si102  1  0.42714178  0.32427018  0.31536203  1
  Si0+  Si103  1  0.17743208  0.42792281  0.34904361  1
  Si0+  Si104  1  0.07104650  0.67796641  0.65035320  1
  Si0+  Si105  1  0.42714081  0.32490066  0.65037247  1
  Si0+  Si106  1  0.92948924  0.32084929  0.31916776  1
  Si0+  Si107  1  0.17587862  0.42697054  0.68444950  1
  Si0+  Si108  1  0.07295111  0.67814716  0.98229666  1
  Si0+  Si109  1  0.57123618  0.67591731  0.65160494  1
  Si0+  Si110  1  0.82259746  0.07364194  0.68371845  1
  Si0+  Si111  1  0.67958313  0.42530264  0.35108006  1
  Si0+  Si112  1  0.82330820  0.57193905  0.68336817  1
  Si0+  Si113  1  0.56968462  0.67662232  0.98503760  1
  Si0+  Si114  1  0.67737116  0.92936067  0.01450401  1
  Si0+  Si115  1  0.17727484  0.93189439  0.01534535  1
  Si0+  Si116  1  0.57209598  0.67325567  0.31729143  1
  Si0+  Si117  1  0.32290872  0.07095562  0.01447290  1
  Si0+  Si118  1  0.82199426  0.06780035  0.01359349  1
  Si0+  Si119  1  0.07313893  0.18003084  0.64886272  1
  O2-  O120  1  0.24916836  0.00297881  0.05622266  1
  O2-  O121  1  0.25192308  -0.00097904  0.39588317  1
  O2-  O122  1  0.25000748  0.00029414  0.73514532  1
  O2-  O123  1  0.24349735  0.49790692  0.06104276  1
  O2-  O124  1  0.24553797  0.49707209  0.39302339  1
  O2-  O125  1  0.24581914  0.49478515  0.72732139  1
  O2-  O126  1  0.75223495  -0.00370278  0.05669271  1
  O2-  O127  1  0.75807981  0.00148582  0.39147601  1
  O2-  O128  1  0.75826668  0.00081887  0.72822717  1
  O2-  O129  1  0.75403660  0.49582406  0.06526047  1
  O2-  O130  1  0.74491640  0.49671193  0.39539630  1
  O2-  O131  1  0.75463384  0.50377310  0.72747993  1
  O2-  O132  1  0.00098600  0.25031031  0.27733458  1
  O2-  O133  1  0.00269115  0.25236327  0.60682648  1
  O2-  O134  1  0.00333847  0.25157390  0.93435207  1
  O2-  O135  1  -0.00180774  0.75085413  0.26796225  1
  O2-  O136  1  0.00181945  0.74619524  0.60696928  1
  O2-  O137  1  -0.00161953  0.74085363  0.93897524  1
  O2-  O138  1  0.49358519  0.25330145  0.27076790  1
  O2-  O139  1  0.49264310  0.25340373  0.60603524  1
  O2-  O140  1  0.50426943  0.25388861  0.94258471  1
  O2-  O141  1  0.50193186  0.74110068  0.27363878  1
  O2-  O142  1  0.50342859  0.74419424  0.60578658  1
  O2-  O143  1  0.49971372  0.74273194  0.93907981  1
  O2-  O144  1  0.07250225  0.17828379  0.09839075  1
  O2-  O145  1  0.07104599  0.18340718  0.42546105  1
  O2-  O146  1  0.07223471  0.18121482  0.75376664  1
  O2-  O147  1  0.07656128  0.68197993  0.08741922  1
  O2-  O148  1  0.06890271  0.67799005  0.43145586  1
  O2-  O149  1  0.06926205  0.67551112  0.75611409  1
  O2-  O150  1  0.56905953  0.17524051  0.08837126  1
  O2-  O151  1  0.57197081  0.18205742  0.43038416  1
  O2-  O152  1  0.57146904  0.18372096  0.76579070  1
  O2-  O153  1  0.57088701  0.68051542  0.09053201  1
  O2-  O154  1  0.57100655  0.67079969  0.42292524  1
  O2-  O155  1  0.57008609  0.67580929  0.75733626  1
  O2-  O156  1  0.17815471  0.42450028  0.24355772  1
  O2-  O157  1  0.17351705  0.42577402  0.57896351  1
  O2-  O158  1  0.18437075  0.42357252  0.90982666  1
  O2-  O159  1  0.17623479  0.93236178  0.23303115  1
  O2-  O160  1  0.17578834  0.93099630  0.57109988  1
  O2-  O161  1  0.17650403  0.93250387  0.91050744  1
  O2-  O162  1  0.68284382  0.42326464  0.24580594  1
  O2-  O163  1  0.68499353  0.42872003  0.56585964  1
  O2-  O164  1  0.67939891  0.42532225  0.90443035  1
  O2-  O165  1  0.67965500  0.93226490  0.23134944  1
  O2-  O166  1  0.67915138  0.93204654  0.56882749  1
  O2-  O167  1  0.67631349  0.93222789  0.90945422  1
  O2-  O168  1  0.42896717  0.31892333  0.09062600  1
  O2-  O169  1  0.42847923  0.32783178  0.42062639  1
  O2-  O170  1  0.42904775  0.32520401  0.75635787  1
  O2-  O171  1  0.42943417  0.82377002  0.09804594  1
  O2-  O172  1  0.43092576  0.81933106  0.43404072  1
  O2-  O173  1  0.43087955  0.81776506  0.76580370  1
  O2-  O174  1  0.93090674  0.31770114  0.09843354  1
  O2-  O175  1  0.92959910  0.31921120  0.42479498  1
  O2-  O176  1  0.93042250  0.31971597  0.75534012  1
  O2-  O177  1  0.92775565  0.82092987  0.09875616  1
  O2-  O178  1  0.92683260  0.82079619  0.43211947  1
  O2-  O179  1  0.92711488  0.81828624  0.76543186  1
  O2-  O180  1  0.31883876  0.07218648  0.23192572  1
  O2-  O181  1  0.32023688  0.07002982  0.56957380  1
  O2-  O182  1  0.32538312  0.07046998  0.90980640  1
  O2-  O183  1  0.31901167  0.56988825  0.23383371  1
  O2-  O184  1  0.31928753  0.57007859  0.56771577  1
  O2-  O185  1  0.31836761  0.57141127  0.90227235  1
  O2-  O186  1  0.82057535  0.07838759  0.24248727  1
  O2-  O187  1  0.82153708  0.07755757  0.57819259  1
  O2-  O188  1  0.82059274  0.06893425  0.90860491  1
  O2-  O189  1  0.82193436  0.56739685  0.23607472  1
  O2-  O190  1  0.82383570  0.56896502  0.57769722  1
  O2-  O191  1  0.81715789  0.57239404  0.90142490  1
  O2-  O192  1  0.04530088  0.08942603  0.27176666  1
  O2-  O193  1  0.04303394  0.08982707  0.60055303  1
  O2-  O194  1  0.04087869  0.08246431  0.92826088  1
  O2-  O195  1  0.04386206  0.57918997  0.26564897  1
  O2-  O196  1  0.04874819  0.58329496  0.60377963  1
  O2-  O197  1  0.05713867  0.58168858  0.93841253  1
  O2-  O198  1  0.54059140  0.08484285  0.25919320  1
  O2-  O199  1  0.54086683  0.08400004  0.59927115  1
  O2-  O200  1  0.53857999  0.08905505  0.93416414  1
  O2-  O201  1  0.54971907  0.57882314  0.27115515  1
  O2-  O202  1  0.54686827  0.58152646  0.60635659  1
  O2-  O203  1  0.54597616  0.58053554  0.94309434  1
  O2-  O204  1  0.16412581  0.20901927  0.27253229  1
  O2-  O205  1  0.16465873  0.20897088  0.60141580  1
  O2-  O206  1  0.17291277  0.20476803  0.93059006  1
  O2-  O207  1  0.16816061  0.70808759  0.26414124  1
  O2-  O208  1  0.16472207  0.70489236  0.60631770  1
  O2-  O209  1  0.16287403  0.71190384  0.93323565  1
  O2-  O210  1  0.66597376  0.21115051  0.26177114  1
  O2-  O211  1  0.66666863  0.21345829  0.59798180  1
  O2-  O212  1  0.66446932  0.20085489  0.93735733  1
  O2-  O213  1  0.66522163  0.70154064  0.27253413  1
  O2-  O214  1  0.66562082  0.70031860  0.60683392  1
  O2-  O215  1  0.66198999  0.70246539  0.93672779  1
  O2-  O216  1  0.08397017  0.44445765  0.05792018  1
  O2-  O217  1  0.08382082  0.45104960  0.39601691  1
  O2-  O218  1  0.08253831  0.45344285  0.73153685  1
  O2-  O219  1  0.08518278  0.96055893  0.06167884  1
  O2-  O220  1  0.07916829  0.96060831  0.40002272  1
  O2-  O221  1  0.07841119  0.96238236  0.73618838  1
  O2-  O222  1  0.58240745  0.45256200  0.07366537  1
  O2-  O223  1  0.58433247  0.44567604  0.39503261  1
  O2-  O224  1  0.58543512  0.45554377  0.73535302  1
  O2-  O225  1  0.58691804  0.96316657  0.06133670  1
  O2-  O226  1  0.58587886  0.96621963  0.39843541  1
  O2-  O227  1  0.58586127  0.96462149  0.73726271  1
  O2-  O228  1  0.21027650  0.33275073  0.06210366  1
  O2-  O229  1  0.20342407  0.33555731  0.39812183  1
  O2-  O230  1  0.19941548  0.33339360  0.73083748  1
  O2-  O231  1  0.20532548  0.84039323  0.06207899  1
  O2-  O232  1  0.20323597  0.83086745  0.40013189  1
  O2-  O233  1  0.20208642  0.83114938  0.73827241  1
  O2-  O234  1  0.70667578  0.32458914  0.06900222  1
  O2-  O235  1  0.71030276  0.33285418  0.39692832  1
  O2-  O236  1  0.71536814  0.33331614  0.73320460  1
  O2-  O237  1  0.70006629  0.83604240  0.05995317  1
  O2-  O238  1  0.70358305  0.83259412  0.40191355  1
  O2-  O239  1  0.70687242  0.83164062  0.73647504  1
  O2-  O240  1  0.45630131  0.41626669  0.26703378  1
  O2-  O241  1  0.45695388  0.41777961  0.60506100  1
  O2-  O242  1  0.45671550  0.41613419  0.94158284  1
  O2-  O243  1  0.46423213  0.91375127  0.26464937  1
  O2-  O244  1  0.46218798  0.91606944  0.60102822  1
  O2-  O245  1  0.46321974  0.91555285  0.92939282  1
  O2-  O246  1  0.95738353  0.41203359  0.27202752  1
  O2-  O247  1  0.95656355  0.41363366  0.60342828  1
  O2-  O248  1  0.95439248  0.42047045  0.93027234  1
  O2-  O249  1  0.95084041  0.92308878  0.26737544  1
  O2-  O250  1  0.95490024  0.92028825  0.60045371  1
  O2-  O251  1  0.95825951  0.91346231  0.93040401  1
  O2-  O252  1  0.33218051  0.30183838  0.27008860  1
  O2-  O253  1  0.33140188  0.30551802  0.60598656  1
  O2-  O254  1  0.34122926  0.29384056  0.93498135  1
  O2-  O255  1  0.33304286  0.79107089  0.26730795  1
  O2-  O256  1  0.33040983  0.78937682  0.60273199  1
  O2-  O257  1  0.33045982  0.79294522  0.93194091  1
  O2-  O258  1  0.83886037  0.29250677  0.27063292  1
  O2-  O259  1  0.84036170  0.29011779  0.60129249  1
  O2-  O260  1  0.83176820  0.28761514  0.93177630  1
  O2-  O261  1  0.82659440  0.79144934  0.26896921  1
  O2-  O262  1  0.82963012  0.79120155  0.59983020  1
  O2-  O263  1  0.82826429  0.78950645  0.93315160  1
  O2-  O264  1  0.41406164  0.03960734  0.06181115  1
  O2-  O265  1  0.42236958  0.04607924  0.39428992  1
  O2-  O266  1  0.42023899  0.04355103  0.73583252  1
  O2-  O267  1  0.41420615  0.54227842  0.07101457  1
  O2-  O268  1  0.41742804  0.53952616  0.40100996  1
  O2-  O269  1  0.41565119  0.54075216  0.73702203  1
  O2-  O270  1  0.91504051  0.04223426  0.05957332  1
  O2-  O271  1  0.91704791  0.05598640  0.39384736  1
  O2-  O272  1  0.91772311  0.05371667  0.72807045  1
  O2-  O273  1  0.92396308  0.54745189  0.06479313  1
  O2-  O274  1  0.91682555  0.53671390  0.40364344  1
  O2-  O275  1  0.91734561  0.54635159  0.72823000  1
  O2-  O276  1  0.30002040  0.16479692  0.06018834  1
  O2-  O277  1  0.29584435  0.17128450  0.39943768  1
  O2-  O278  1  0.29528915  0.17183190  0.73314962  1
  O2-  O279  1  0.28628059  0.67032658  0.06697397  1
  O2-  O280  1  0.28938867  0.66716790  0.40106332  1
  O2-  O281  1  0.28657200  0.66522943  0.73689611  1
  O2-  O282  1  0.79366654  0.15874132  0.06232643  1
  O2-  O283  1  0.79246516  0.16659117  0.39590729  1
  O2-  O284  1  0.79180099  0.16500720  0.73153461  1
  O2-  O285  1  0.78813677  0.66810778  0.06985202  1
  O2-  O286  1  0.79008595  0.66501173  0.40510907  1
  O2-  O287  1  0.79746987  0.66538799  0.72814566  1
