# generated using pymatgen
data_Ca2Al2SiO7
_symmetry_space_group_name_H-M   'P 1'
_cell_length_a   15.45999765
_cell_length_b   15.46035949
_cell_length_c   15.28526545
_cell_angle_alpha   90.00668491
_cell_angle_beta   89.99879403
_cell_angle_gamma   90.00489883
_symmetry_Int_Tables_number   1
_chemical_formula_structural   Ca2Al2SiO7
_chemical_formula_sum   'Ca48 Al48 Si24 O168'
_cell_volume   3653.44010945
_cell_formula_units_Z   24
loop_
 _symmetry_equiv_pos_site_id
 _symmetry_equiv_pos_as_xyz
  1  'x, y, z'
loop_
 _atom_type_symbol
 _atom_type_oxidation_number
  Ca2+  2.0
  Al0+  0.0
  Si0+  0.0
  O2-  -2.0
loop_
 _atom_site_type_symbol
 _atom_site_label
 _atom_site_symmetry_multiplicity
 _atom_site_fract_x
 _atom_site_fract_y
 _atom_site_fract_z
 _atom_site_occupancy
  Ca2+  Ca0  1  0.16596419  0.07984674  0.17158979  1
  Ca2+  Ca1  1  0.16252173  0.07537449  0.50438007  1
  Ca2+  Ca2  1  0.17817637  0.07981811  0.84147152  1
  Ca2+  Ca3  1  0.15963370  0.57718434  0.16468172  1
  Ca2+  Ca4  1  0.17418764  0.57964599  0.50623808  1
  Ca2+  Ca5  1  0.17307123  0.57927693  0.83998196  1
  Ca2+  Ca6  1  0.67073345  0.08191531  0.17266058  1
  Ca2+  Ca7  1  0.66907637  0.09743427  0.49833040  1
  Ca2+  Ca8  1  0.66306538  0.08157432  0.83808920  1
  Ca2+  Ca9  1  0.66822638  0.57229370  0.17238696  1
  Ca2+  Ca10  1  0.67351854  0.57469824  0.49689181  1
  Ca2+  Ca11  1  0.66861434  0.57579430  0.84363796  1
  Ca2+  Ca12  1  0.07313156  0.33271019  0.15921727  1
  Ca2+  Ca13  1  0.07435159  0.32531191  0.49083553  1
  Ca2+  Ca14  1  0.07243597  0.34216506  0.83209583  1
  Ca2+  Ca15  1  0.08259481  0.83270947  0.16323347  1
  Ca2+  Ca16  1  0.08340796  0.83614894  0.49025976  1
  Ca2+  Ca17  1  0.09796159  0.83102437  0.83502000  1
  Ca2+  Ca18  1  0.57714072  0.33687362  0.16269744  1
  Ca2+  Ca19  1  0.57301468  0.32507417  0.49325524  1
  Ca2+  Ca20  1  0.57354381  0.32941546  0.82834326  1
  Ca2+  Ca21  1  0.58895359  0.82618660  0.15676440  1
  Ca2+  Ca22  1  0.57933769  0.83054629  0.49468898  1
  Ca2+  Ca23  1  0.58718282  0.82889137  0.83396626  1
  Ca2+  Ca24  1  0.33132287  0.40956898  0.16724035  1
  Ca2+  Ca25  1  0.33849802  0.41648180  0.50447575  1
  Ca2+  Ca26  1  0.33488096  0.41624731  0.84028934  1
  Ca2+  Ca27  1  0.32361411  0.92330870  0.16833529  1
  Ca2+  Ca28  1  0.32089139  0.92522562  0.50904824  1
  Ca2+  Ca29  1  0.32875099  0.93121742  0.83946736  1
  Ca2+  Ca30  1  0.82490763  0.41412912  0.17522144  1
  Ca2+  Ca31  1  0.83001196  0.40607353  0.49840652  1
  Ca2+  Ca32  1  0.82797573  0.41100570  0.84256626  1
  Ca2+  Ca33  1  0.83115915  0.91932781  0.17457945  1
  Ca2+  Ca34  1  0.83863109  0.92557485  0.49745014  1
  Ca2+  Ca35  1  0.82639661  0.92263744  0.84028797  1
  Ca2+  Ca36  1  0.41870185  0.17454873  0.16284275  1
  Ca2+  Ca37  1  0.42262504  0.16876482  0.49457572  1
  Ca2+  Ca38  1  0.41445628  0.17252905  0.82699631  1
  Ca2+  Ca39  1  0.42494663  0.66930248  0.15884489  1
  Ca2+  Ca40  1  0.41358434  0.66560136  0.49750023  1
  Ca2+  Ca41  1  0.42157266  0.66299251  0.83097161  1
  Ca2+  Ca42  1  0.91768637  0.17140938  0.16922294  1
  Ca2+  Ca43  1  0.92010154  0.17329146  0.48913874  1
  Ca2+  Ca44  1  0.91519841  0.17975490  0.83014902  1
  Ca2+  Ca45  1  0.91526408  0.67098690  0.16269550  1
  Ca2+  Ca46  1  0.91518709  0.67450010  0.49084810  1
  Ca2+  Ca47  1  0.92678525  0.66766118  0.83350599  1
  Al0+  Al48  1  0.00025691  0.00141739  0.00091975  1
  Al0+  Al49  1  -0.00232465  -0.00190834  0.33244575  1
  Al0+  Al50  1  -0.00359212  -0.00173946  0.67520106  1
  Al0+  Al51  1  0.00142661  0.50313417  -0.00565122  1
  Al0+  Al52  1  0.00132039  0.50151177  0.33638733  1
  Al0+  Al53  1  -0.00098028  0.50390843  0.66030900  1
  Al0+  Al54  1  0.50098969  -0.00073085  0.00945350  1
  Al0+  Al55  1  0.49752849  -0.00068342  0.32939444  1
  Al0+  Al56  1  0.50035228  -0.00264644  0.66558038  1
  Al0+  Al57  1  0.50179719  0.50037447  -0.00443856  1
  Al0+  Al58  1  0.50044724  0.50078031  0.33495709  1
  Al0+  Al59  1  0.50273330  0.49940143  0.66652789  1
  Al0+  Al60  1  0.25003056  0.25186434  0.00375133  1
  Al0+  Al61  1  0.25095104  0.24893371  0.32831359  1
  Al0+  Al62  1  0.24607173  0.25039231  0.66636407  1
  Al0+  Al63  1  0.25179876  0.75200126  -0.00069498  1
  Al0+  Al64  1  0.24988016  0.74992998  0.33611919  1
  Al0+  Al65  1  0.25212450  0.74634951  0.67364908  1
  Al0+  Al66  1  0.74908435  0.25049851  0.00040016  1
  Al0+  Al67  1  0.74816822  0.24828012  0.33512335  1
  Al0+  Al68  1  0.74907405  0.25034917  0.66188117  1
  Al0+  Al69  1  0.75150447  0.75088996  -0.00370041  1
  Al0+  Al70  1  0.74988760  0.74852984  0.33388378  1
  Al0+  Al71  1  0.75196336  0.74859487  0.66617960  1
  Al0+  Al72  1  0.82287382  0.57141924  0.34810369  1
  Al0+  Al73  1  0.32311661  0.56714991  0.68142694  1
  Al0+  Al74  1  0.92868422  0.32048195  0.98720088  1
  Al0+  Al75  1  0.17815822  0.43153140  0.01268551  1
  Al0+  Al76  1  0.17900552  0.92873343  0.01793151  1
  Al0+  Al77  1  0.68104416  0.92833027  0.01300922  1
  Al0+  Al78  1  0.92894309  0.81926849  0.32047911  1
  Al0+  Al79  1  0.57222280  0.67949608  0.98578953  1
  Al0+  Al80  1  0.42880541  0.31992392  0.98523999  1
  Al0+  Al81  1  0.32199026  0.07277686  0.68039585  1
  Al0+  Al82  1  0.07195999  0.68143494  0.98592000  1
  Al0+  Al83  1  0.81840671  0.06924820  0.34676023  1
  Al0+  Al84  1  0.32209659  0.07435630  0.01834572  1
  Al0+  Al85  1  0.42580145  0.32188600  0.65249734  1
  Al0+  Al86  1  0.17965173  0.92988001  0.34708612  1
  Al0+  Al87  1  0.67808840  0.42764720  0.35066105  1
  Al0+  Al88  1  0.56896597  0.17604093  0.65224256  1
  Al0+  Al89  1  0.67891227  0.42937647  0.01228409  1
  Al0+  Al90  1  0.92952376  0.32212550  0.65170734  1
  Al0+  Al91  1  0.42972905  0.32344192  0.31612978  1
  Al0+  Al92  1  0.17682097  0.92834360  0.68351658  1
  Al0+  Al93  1  0.07062012  0.17700206  0.31861865  1
  Al0+  Al94  1  0.57082848  0.17711642  0.31532713  1
  Al0+  Al95  1  0.92923661  0.32308156  0.31763268  1
  Si0+  Si96  1  0.32030398  0.57044702  0.34652553  1
  Si0+  Si97  1  0.57172754  0.17647325  0.98458637  1
  Si0+  Si98  1  0.57398403  0.67827989  0.64983343  1
  Si0+  Si99  1  0.82182124  0.07367494  0.01648005  1
  Si0+  Si100  1  0.56982072  0.68096466  0.31934116  1
  Si0+  Si101  1  0.92839085  0.82450991  0.98137278  1
  Si0+  Si102  1  0.06905826  0.17502940  0.65302485  1
  Si0+  Si103  1  0.81844420  0.07209697  0.68232813  1
  Si0+  Si104  1  0.67539420  0.92605846  0.35040822  1
  Si0+  Si105  1  0.42625507  0.82010120  0.31911216  1
  Si0+  Si106  1  0.32365717  0.57174590  0.01646326  1
  Si0+  Si107  1  0.92766442  0.82060529  0.65218356  1
  Si0+  Si108  1  0.07284331  0.68200456  0.65048561  1
  Si0+  Si109  1  0.42973085  0.81777902  0.65240700  1
  Si0+  Si110  1  0.07513662  0.67861737  0.31791059  1
  Si0+  Si111  1  0.07234652  0.17772927  0.98251647  1
  Si0+  Si112  1  0.82162302  0.57403629  0.68364552  1
  Si0+  Si113  1  0.82326444  0.57168803  0.01381212  1
  Si0+  Si114  1  0.42963865  0.82300552  0.98270631  1
  Si0+  Si115  1  0.17461619  0.42922792  0.68101276  1
  Si0+  Si116  1  0.67933115  0.92527050  0.68010139  1
  Si0+  Si117  1  0.32227290  0.07274702  0.35107751  1
  Si0+  Si118  1  0.68295824  0.42948200  0.68257681  1
  Si0+  Si119  1  0.17871892  0.42678168  0.34782112  1
  O2-  O120  1  0.24734283  0.00390297  0.06729173  1
  O2-  O121  1  0.25136056  0.00617662  0.39522957  1
  O2-  O122  1  0.24711672  0.00328247  0.73066066  1
  O2-  O123  1  0.25426346  0.50464323  0.06138318  1
  O2-  O124  1  0.25162628  0.49720002  0.38867324  1
  O2-  O125  1  0.25093559  0.48926875  0.72586070  1
  O2-  O126  1  0.75578692  0.00180654  0.05944182  1
  O2-  O127  1  0.74061993  -0.00288365  0.39567817  1
  O2-  O128  1  0.74525262  0.00144970  0.72173769  1
  O2-  O129  1  0.75523886  0.50310188  0.05775799  1
  O2-  O130  1  0.75650942  0.49479440  0.40009245  1
  O2-  O131  1  0.75535538  0.49916990  0.72585773  1
  O2-  O132  1  0.00277898  0.25287931  0.26780855  1
  O2-  O133  1  0.00489184  0.24731108  0.60758921  1
  O2-  O134  1  0.00369183  0.24687271  0.93816742  1
  O2-  O135  1  0.00200539  0.74279653  0.27487025  1
  O2-  O136  1  0.00512477  0.75670299  0.60999546  1
  O2-  O137  1  0.00123403  0.75986820  0.93727206  1
  O2-  O138  1  0.50174663  0.25177246  0.26597830  1
  O2-  O139  1  0.49258455  0.24442434  0.60372019  1
  O2-  O140  1  0.50100976  0.24222549  0.93958951  1
  O2-  O141  1  0.50209288  0.75454547  0.27665178  1
  O2-  O142  1  0.50103871  0.74746620  0.60780761  1
  O2-  O143  1  0.49853358  0.75459833  0.93743856  1
  O2-  O144  1  0.06963790  0.17728724  0.08780215  1
  O2-  O145  1  0.06902757  0.17780206  0.43308444  1
  O2-  O146  1  0.06539686  0.17458835  0.75851847  1
  O2-  O147  1  0.06780891  0.67972823  0.09881167  1
  O2-  O148  1  0.07962861  0.68205994  0.42383887  1
  O2-  O149  1  0.07103103  0.67990721  0.75542069  1
  O2-  O150  1  0.57369086  0.17828230  0.08958961  1
  O2-  O151  1  0.56600185  0.17628935  0.42908685  1
  O2-  O152  1  0.57253816  0.17780765  0.76600445  1
  O2-  O153  1  0.57061061  0.68074993  0.09913608  1
  O2-  O154  1  0.56764831  0.68185618  0.42501054  1
  O2-  O155  1  0.57628721  0.68017795  0.75473508  1
  O2-  O156  1  0.17632792  0.42974884  0.24290664  1
  O2-  O157  1  0.17180371  0.43481301  0.57530867  1
  O2-  O158  1  0.17666170  0.43479223  0.89938991  1
  O2-  O159  1  0.18296109  0.92588893  0.23480968  1
  O2-  O160  1  0.17637252  0.92815450  0.56957598  1
  O2-  O161  1  0.18350937  0.92967248  0.90434733  1
  O2-  O162  1  0.67522906  0.43309199  0.23714469  1
  O2-  O163  1  0.68359673  0.43189911  0.57789500  1
  O2-  O164  1  0.68040078  0.43010347  0.89843816  1
  O2-  O165  1  0.67859563  0.92289515  0.24504083  1
  O2-  O166  1  0.68230837  0.91805636  0.57561719  1
  O2-  O167  1  0.68231060  0.92887516  0.89902785  1
  O2-  O168  1  0.43176393  0.32244540  0.09770713  1
  O2-  O169  1  0.42929825  0.32458052  0.42980890  1
  O2-  O170  1  0.43114365  0.32447836  0.76591813  1
  O2-  O171  1  0.42996324  0.81926680  0.08863335  1
  O2-  O172  1  0.42604964  0.81654303  0.42466915  1
  O2-  O173  1  0.43294598  0.81678265  0.75714215  1
  O2-  O174  1  0.92821112  0.32026854  0.09945241  1
  O2-  O175  1  0.93304296  0.32004975  0.43168205  1
  O2-  O176  1  0.92830813  0.32208544  0.76519981  1
  O2-  O177  1  0.92462561  0.82166134  0.08659465  1
  O2-  O178  1  0.93074442  0.81939868  0.43434164  1
  O2-  O179  1  0.92128764  0.81665469  0.75673561  1
  O2-  O180  1  0.32315981  0.06936276  0.24589594  1
  O2-  O181  1  0.32286397  0.06748383  0.56691241  1
  O2-  O182  1  0.32264364  0.07275584  0.90428293  1
  O2-  O183  1  0.32018784  0.57445849  0.24184699  1
  O2-  O184  1  0.31970645  0.57159942  0.56784555  1
  O2-  O185  1  0.32331108  0.56984676  0.91067394  1
  O2-  O186  1  0.81914189  0.06496763  0.23385901  1
  O2-  O187  1  0.82170583  0.07031159  0.57765905  1
  O2-  O188  1  0.81963210  0.07374353  0.91006300  1
  O2-  O189  1  0.81753236  0.57573820  0.23473146  1
  O2-  O190  1  0.81863602  0.57985718  0.57929264  1
  O2-  O191  1  0.82191325  0.57112459  0.90743390  1
  O2-  O192  1  0.03739366  0.08083054  0.26522445  1
  O2-  O193  1  0.03816434  0.08168017  0.60842045  1
  O2-  O194  1  0.04690411  0.08398252  0.93572572  1
  O2-  O195  1  0.05430205  0.58324260  0.27478628  1
  O2-  O196  1  0.04190556  0.59278988  0.59974266  1
  O2-  O197  1  0.03838117  0.58823273  0.92631279  1
  O2-  O198  1  0.54298700  0.07747449  0.26314818  1
  O2-  O199  1  0.54987496  0.07461811  0.59994097  1
  O2-  O200  1  0.54951099  0.08013913  0.94212376  1
  O2-  O201  1  0.53850840  0.59093417  0.27190220  1
  O2-  O202  1  0.54721368  0.58669355  0.60257169  1
  O2-  O203  1  0.54008464  0.58529361  0.92825968  1
  O2-  O204  1  0.17031154  0.19985310  0.26724609  1
  O2-  O205  1  0.16383367  0.19449481  0.60719514  1
  O2-  O206  1  0.16613395  0.20399932  0.93843866  1
  O2-  O207  1  0.16658510  0.70810001  0.26956468  1
  O2-  O208  1  0.16681029  0.70538782  0.60505395  1
  O2-  O209  1  0.17027209  0.70890750  0.93196751  1
  O2-  O210  1  0.67151353  0.19973984  0.26649400  1
  O2-  O211  1  0.66560685  0.20998975  0.59867327  1
  O2-  O212  1  0.66455547  0.20345813  0.93702139  1
  O2-  O213  1  0.66161142  0.70644386  0.27196088  1
  O2-  O214  1  0.66457119  0.70974853  0.60174832  1
  O2-  O215  1  0.66832481  0.71057486  0.92950730  1
  O2-  O216  1  0.08274305  0.46746370  0.06650860  1
  O2-  O217  1  0.08892502  0.45605011  0.39866226  1
  O2-  O218  1  0.08394648  0.46560805  0.72772832  1
  O2-  O219  1  0.07728558  0.95210056  0.06608237  1
  O2-  O220  1  0.08192709  0.95763348  0.39985746  1
  O2-  O221  1  0.07643933  0.94924112  0.73665621  1
  O2-  O222  1  0.58400550  0.46499204  0.06571644  1
  O2-  O223  1  0.58271649  0.46620363  0.40510334  1
  O2-  O224  1  0.59179879  0.45999173  0.72923338  1
  O2-  O225  1  0.58511074  0.95275838  0.07001785  1
  O2-  O226  1  0.57901496  0.94708778  0.39330019  1
  O2-  O227  1  0.58626275  0.94709259  0.72704122  1
  O2-  O228  1  0.20440284  0.33515877  0.06734209  1
  O2-  O229  1  0.20573392  0.33459513  0.39458654  1
  O2-  O230  1  0.18673965  0.33216768  0.72349200  1
  O2-  O231  1  0.20985796  0.83008467  0.06945239  1
  O2-  O232  1  0.21346723  0.83373441  0.40251820  1
  O2-  O233  1  0.21033413  0.83070107  0.73460035  1
  O2-  O234  1  0.70788965  0.33286452  0.06595307  1
  O2-  O235  1  0.70128369  0.32818743  0.40293157  1
  O2-  O236  1  0.71043755  0.33715647  0.72892317  1
  O2-  O237  1  0.71277614  0.83130857  0.06624156  1
  O2-  O238  1  0.70252327  0.83325605  0.39763979  1
  O2-  O239  1  0.71334832  0.83600821  0.73018725  1
  O2-  O240  1  0.45698323  0.42364020  0.26536164  1
  O2-  O241  1  0.46116739  0.41916301  0.59942963  1
  O2-  O242  1  0.46212090  0.41585628  0.93095425  1
  O2-  O243  1  0.44741845  0.91268925  0.27181893  1
  O2-  O244  1  0.45717072  0.90834794  0.60265056  1
  O2-  O245  1  0.45790310  0.91680781  0.93897366  1
  O2-  O246  1  0.95523754  0.42392876  0.26874948  1
  O2-  O247  1  0.95627848  0.42024836  0.59842603  1
  O2-  O248  1  0.95899535  0.41715027  0.93198236  1
  O2-  O249  1  0.95930393  0.91369597  0.26447729  1
  O2-  O250  1  0.94858016  0.91586904  0.60882749  1
  O2-  O251  1  0.94841322  0.92017012  0.93671003  1
  O2-  O252  1  0.33070394  0.29655499  0.26441751  1
  O2-  O253  1  0.32305400  0.30459904  0.60344722  1
  O2-  O254  1  0.32972128  0.29444260  0.93332678  1
  O2-  O255  1  0.33781039  0.78512001  0.27029068  1
  O2-  O256  1  0.33839301  0.78635531  0.60576064  1
  O2-  O257  1  0.33701873  0.79746200  0.93545711  1
  O2-  O258  1  0.82962040  0.29417626  0.26975484  1
  O2-  O259  1  0.83422530  0.28859725  0.59821142  1
  O2-  O260  1  0.83267136  0.28739755  0.93154058  1
  O2-  O261  1  0.83166097  0.78930157  0.26667187  1
  O2-  O262  1  0.83912021  0.78626635  0.60169030  1
  O2-  O263  1  0.83734455  0.79429534  0.93166968  1
  O2-  O264  1  0.41875262  0.04273745  0.07260732  1
  O2-  O265  1  0.41497543  0.04220211  0.39692201  1
  O2-  O266  1  0.41994508  0.03923974  0.73307038  1
  O2-  O267  1  0.41735395  0.54612908  0.06148484  1
  O2-  O268  1  0.41219229  0.54652384  0.39589629  1
  O2-  O269  1  0.42232752  0.54301812  0.73407876  1
  O2-  O270  1  0.91640475  0.05131019  0.06060159  1
  O2-  O271  1  0.91286930  0.03370286  0.40272709  1
  O2-  O272  1  0.90705016  0.04220743  0.73483282  1
  O2-  O273  1  0.91717935  0.54912406  0.05843926  1
  O2-  O274  1  0.92424470  0.55377819  0.40077286  1
  O2-  O275  1  0.91644448  0.55089960  0.72695263  1
  O2-  O276  1  0.29521538  0.17256126  0.07078412  1
  O2-  O277  1  0.30026506  0.16802749  0.39470795  1
  O2-  O278  1  0.29591409  0.17272375  0.73206625  1
  O2-  O279  1  0.30082045  0.66671810  0.06035497  1
  O2-  O280  1  0.28977002  0.66025984  0.39772448  1
  O2-  O281  1  0.29083518  0.66167578  0.73851275  1
  O2-  O282  1  0.79285774  0.16502937  0.06370721  1
  O2-  O283  1  0.79119983  0.16543902  0.40340576  1
  O2-  O284  1  0.79016114  0.16397222  0.72946224  1
  O2-  O285  1  0.79778391  0.66607614  0.05745154  1
  O2-  O286  1  0.78712573  0.66763987  0.40413289  1
  O2-  O287  1  0.78974020  0.66350837  0.73396403  1
