# generated using pymatgen
data_Ca2Al2SiO7
_symmetry_space_group_name_H-M   'P 1'
_cell_length_a   15.46172179
_cell_length_b   15.46025756
_cell_length_c   15.28654963
_cell_angle_alpha   89.99524448
_cell_angle_beta   90.00732002
_cell_angle_gamma   89.99155089
_symmetry_Int_Tables_number   1
_chemical_formula_structural   Ca2Al2SiO7
_chemical_formula_sum   'Ca48 Al48 Si24 O168'
_cell_volume   3654.13038990
_cell_formula_units_Z   24
loop_
 _symmetry_equiv_pos_site_id
 _symmetry_equiv_pos_as_xyz
  1  'x, y, z'
loop_
 _atom_type_symbol
 _atom_type_oxidation_number
  Ca2+  2.0
  Al0+  0.0
  Si0+  0.0
  O2-  -2.0
loop_
 _atom_site_type_symbol
 _atom_site_label
 _atom_site_symmetry_multiplicity
 _atom_site_fract_x
 _atom_site_fract_y
 _atom_site_fract_z
 _atom_site_occupancy
  Ca2+  Ca0  1  0.17154763  0.08378151  0.16992421  1
  Ca2+  Ca1  1  0.16790420  0.08406578  0.51243484  1
  Ca2+  Ca2  1  0.16344234  0.08026055  0.82968429  1
  Ca2+  Ca3  1  0.17289447  0.58778995  0.16549847  1
  Ca2+  Ca4  1  0.17265413  0.57256751  0.50866866  1
  Ca2+  Ca5  1  0.17026519  0.57907330  0.84155552  1
  Ca2+  Ca6  1  0.66697472  0.07838969  0.17204377  1
  Ca2+  Ca7  1  0.67353082  0.08376813  0.50653460  1
  Ca2+  Ca8  1  0.67097756  0.08184941  0.84053404  1
  Ca2+  Ca9  1  0.66997177  0.57884351  0.17380015  1
  Ca2+  Ca10  1  0.65713691  0.57911436  0.50217918  1
  Ca2+  Ca11  1  0.67089137  0.58301561  0.83692789  1
  Ca2+  Ca12  1  0.06902712  0.33255288  0.16151639  1
  Ca2+  Ca13  1  0.07929697  0.32923705  0.49895770  1
  Ca2+  Ca14  1  0.07766251  0.32976583  0.82737108  1
  Ca2+  Ca15  1  0.07903615  0.82594204  0.15777264  1
  Ca2+  Ca16  1  0.07361854  0.84413910  0.50225847  1
  Ca2+  Ca17  1  0.07715621  0.82981229  0.82556054  1
  Ca2+  Ca18  1  0.59559209  0.32025415  0.16836667  1
  Ca2+  Ca19  1  0.57964287  0.32398840  0.49250686  1
  Ca2+  Ca20  1  0.58202660  0.31943411  0.82688364  1
  Ca2+  Ca21  1  0.58502821  0.83465249  0.16175800  1
  Ca2+  Ca22  1  0.59968303  0.82428491  0.49812296  1
  Ca2+  Ca23  1  0.58495611  0.83365697  0.82829650  1
  Ca2+  Ca24  1  0.33807617  0.42108296  0.17184424  1
  Ca2+  Ca25  1  0.33327008  0.40839326  0.50955088  1
  Ca2+  Ca26  1  0.32981502  0.41621656  0.83503147  1
  Ca2+  Ca27  1  0.33487760  0.91304934  0.16531888  1
  Ca2+  Ca28  1  0.32421993  0.91849385  0.50578085  1
  Ca2+  Ca29  1  0.32891847  0.90971962  0.83836923  1
  Ca2+  Ca30  1  0.83341958  0.41795633  0.17048602  1
  Ca2+  Ca31  1  0.82845056  0.41332397  0.49693262  1
  Ca2+  Ca32  1  0.83500127  0.42135518  0.84220751  1
  Ca2+  Ca33  1  0.82133560  0.92846720  0.17253472  1
  Ca2+  Ca34  1  0.82499782  0.92634277  0.50787709  1
  Ca2+  Ca35  1  0.82371623  0.92572614  0.83595706  1
  Ca2+  Ca36  1  0.43028179  0.17043159  0.16392482  1
  Ca2+  Ca37  1  0.42693920  0.17450852  0.49659699  1
  Ca2+  Ca38  1  0.43083188  0.16798289  0.82626971  1
  Ca2+  Ca39  1  0.42376884  0.67062843  0.16062819  1
  Ca2+  Ca40  1  0.42998101  0.66843125  0.49777899  1
  Ca2+  Ca41  1  0.42010482  0.66929764  0.83201259  1
  Ca2+  Ca42  1  0.89930921  0.17662672  0.16574953  1
  Ca2+  Ca43  1  0.91858960  0.16119999  0.49669275  1
  Ca2+  Ca44  1  0.91390255  0.16665458  0.82919442  1
  Ca2+  Ca45  1  0.92179757  0.66432621  0.15654710  1
  Ca2+  Ca46  1  0.91389635  0.67723534  0.49987305  1
  Ca2+  Ca47  1  0.91731510  0.67104734  0.82979052  1
  Al0+  Al48  1  -0.00065799  0.00055990  0.00608539  1
  Al0+  Al49  1  0.00012301  -0.00093422  0.33218229  1
  Al0+  Al50  1  -0.00012573  0.00056919  0.66770991  1
  Al0+  Al51  1  0.00041412  0.49863833  -0.00408610  1
  Al0+  Al52  1  0.00307677  0.49981593  0.33182577  1
  Al0+  Al53  1  0.00203087  0.50023368  0.66913606  1
  Al0+  Al54  1  0.49758161  -0.00103177  -0.00530994  1
  Al0+  Al55  1  0.49677148  -0.00200762  0.33626497  1
  Al0+  Al56  1  0.49896751  -0.00107858  0.66355714  1
  Al0+  Al57  1  0.49815023  0.49974028  0.00438683  1
  Al0+  Al58  1  0.50072172  0.50393561  0.33051751  1
  Al0+  Al59  1  0.49975980  0.50213309  0.66287081  1
  Al0+  Al60  1  0.24780134  0.24883087  0.00198118  1
  Al0+  Al61  1  0.24967445  0.25040758  0.32951277  1
  Al0+  Al62  1  0.24714055  0.24997023  0.66736251  1
  Al0+  Al63  1  0.25043628  0.74706108  -0.00288577  1
  Al0+  Al64  1  0.25049598  0.74865391  0.33658477  1
  Al0+  Al65  1  0.25048165  0.74805372  0.66890766  1
  Al0+  Al66  1  0.75008003  0.25086896  -0.00787054  1
  Al0+  Al67  1  0.75146599  0.25212964  0.33524816  1
  Al0+  Al68  1  0.75033831  0.25264543  0.66726440  1
  Al0+  Al69  1  0.75087945  0.74922774  0.00759967  1
  Al0+  Al70  1  0.75325794  0.75078265  0.32922370  1
  Al0+  Al71  1  0.75164646  0.75088690  0.66244594  1
  Al0+  Al72  1  0.82000678  0.07216454  0.34985059  1
  Al0+  Al73  1  0.57402786  0.17675822  0.65035391  1
  Al0+  Al74  1  0.42747765  0.32240921  0.31732960  1
  Al0+  Al75  1  0.07027399  0.67974807  0.98551931  1
  Al0+  Al76  1  0.82211212  0.57014308  0.01224019  1
  Al0+  Al77  1  0.42963595  0.32016360  0.65482570  1
  Al0+  Al78  1  0.17946216  0.92833218  0.68080494  1
  Al0+  Al79  1  0.82093054  0.07324941  0.01633393  1
  Al0+  Al80  1  0.43073583  0.81910455  0.98639826  1
  Al0+  Al81  1  0.67793629  0.92723382  0.68204672  1
  Al0+  Al82  1  0.06716197  0.18022612  0.65486499  1
  Al0+  Al83  1  0.67579057  0.92954168  0.01493387  1
  Al0+  Al84  1  0.32046583  0.57030202  0.01498403  1
  Al0+  Al85  1  0.82013264  0.07331095  0.68290073  1
  Al0+  Al86  1  0.67950705  0.43214269  0.34693727  1
  Al0+  Al87  1  0.57285822  0.68180780  0.31776632  1
  Al0+  Al88  1  0.93094697  0.32102054  0.32059149  1
  Al0+  Al89  1  0.17886493  0.42759728  0.68155686  1
  Al0+  Al90  1  0.57131090  0.17794324  0.31873837  1
  Al0+  Al91  1  0.56951443  0.17983183  0.98594478  1
  Al0+  Al92  1  0.57119805  0.68193911  0.65456399  1
  Al0+  Al93  1  0.93107044  0.82040481  0.65405656  1
  Al0+  Al94  1  0.67636624  0.92750274  0.34969491  1
  Al0+  Al95  1  0.92979209  0.31874495  0.98515041  1
  Si0+  Si96  1  0.32314923  0.57077325  0.68438904  1
  Si0+  Si97  1  0.67766694  0.43094183  0.68106318  1
  Si0+  Si98  1  0.32093142  0.07186333  0.68361159  1
  Si0+  Si99  1  0.42484179  0.32313424  0.98420871  1
  Si0+  Si100  1  0.32036990  0.07086944  0.01430879  1
  Si0+  Si101  1  0.18017624  0.42907257  0.34806140  1
  Si0+  Si102  1  0.07162721  0.67971355  0.31937180  1
  Si0+  Si103  1  0.07483543  0.17576648  0.98323519  1
  Si0+  Si104  1  0.17935860  0.92740621  0.01494529  1
  Si0+  Si105  1  0.32094962  0.57168690  0.35012734  1
  Si0+  Si106  1  0.17819353  0.42697568  0.01874924  1
  Si0+  Si107  1  0.93077904  0.82215528  0.31529162  1
  Si0+  Si108  1  0.07201720  0.17576656  0.31560278  1
  Si0+  Si109  1  0.67770646  0.42871076  0.01486627  1
  Si0+  Si110  1  0.07376219  0.67670840  0.64870060  1
  Si0+  Si111  1  0.92770149  0.32642858  0.64913794  1
  Si0+  Si112  1  0.31903101  0.07289848  0.34855106  1
  Si0+  Si113  1  0.17969206  0.92804751  0.34700267  1
  Si0+  Si114  1  0.42458559  0.82213074  0.64899189  1
  Si0+  Si115  1  0.42366869  0.82006215  0.31746139  1
  Si0+  Si116  1  0.57410211  0.67608669  0.98463532  1
  Si0+  Si117  1  0.92735339  0.82308721  0.98433802  1
  Si0+  Si118  1  0.82152286  0.57125811  0.67944814  1
  Si0+  Si119  1  0.82657813  0.57208633  0.35025374  1
  O2-  O120  1  0.24821948  0.00040080  0.05753015  1
  O2-  O121  1  0.24673329  0.00206011  0.38950965  1
  O2-  O122  1  0.25760661  -0.00176568  0.72904677  1
  O2-  O123  1  0.24906422  0.49301616  0.06383768  1
  O2-  O124  1  0.25623727  0.49433618  0.39119328  1
  O2-  O125  1  0.25358267  0.50252392  0.72751053  1
  O2-  O126  1  0.74776597  0.00165575  0.06472625  1
  O2-  O127  1  0.74482966  0.00318190  0.39896398  1
  O2-  O128  1  0.74281955  0.00588608  0.73148555  1
  O2-  O129  1  0.74451377  0.49935433  0.05920020  1
  O2-  O130  1  0.75393297  0.50804261  0.39473978  1
  O2-  O131  1  0.75243265  0.49879746  0.72224226  1
  O2-  O132  1  0.00114496  0.24218389  0.27261880  1
  O2-  O133  1  -0.00814040  0.25295854  0.60628379  1
  O2-  O134  1  0.00311119  0.24164712  0.94090791  1
  O2-  O135  1  0.00030359  0.74860597  0.27487617  1
  O2-  O136  1  0.00749334  0.74713722  0.60412693  1
  O2-  O137  1  -0.00506697  0.75349309  0.93920661  1
  O2-  O138  1  0.50137591  0.25256303  0.26744125  1
  O2-  O139  1  0.50176993  0.25020685  0.60309278  1
  O2-  O140  1  0.49451904  0.25588767  0.94102280  1
  O2-  O141  1  0.49954001  0.75937265  0.27400113  1
  O2-  O142  1  0.49916096  0.75933898  0.60629013  1
  O2-  O143  1  0.50845444  0.74740006  0.94037570  1
  O2-  O144  1  0.08186079  0.17840742  0.08867930  1
  O2-  O145  1  0.07487521  0.17574050  0.42107463  1
  O2-  O146  1  0.06784184  0.18151107  0.76786452  1
  O2-  O147  1  0.07097918  0.68258035  0.09953988  1
  O2-  O148  1  0.07198819  0.67991383  0.42425983  1
  O2-  O149  1  0.07237062  0.67593387  0.75410072  1
  O2-  O150  1  0.56903452  0.17993357  0.09901718  1
  O2-  O151  1  0.56906322  0.17957083  0.43178797  1
  O2-  O152  1  0.57210210  0.17940213  0.76425330  1
  O2-  O153  1  0.57149889  0.67504666  0.09013174  1
  O2-  O154  1  0.56931467  0.68070748  0.43100314  1
  O2-  O155  1  0.56985830  0.67899957  0.76763943  1
  O2-  O156  1  0.17783251  0.43245685  0.24317138  1
  O2-  O157  1  0.17829409  0.43029849  0.56778140  1
  O2-  O158  1  0.17940153  0.42726244  0.91325649  1
  O2-  O159  1  0.18169842  0.92573825  0.24166736  1
  O2-  O160  1  0.18071604  0.93069014  0.56696323  1
  O2-  O161  1  0.17942335  0.92703560  0.91023436  1
  O2-  O162  1  0.68283242  0.43306545  0.23369814  1
  O2-  O163  1  0.67695627  0.43261964  0.57602393  1
  O2-  O164  1  0.67786054  0.43076546  0.90882835  1
  O2-  O165  1  0.67845044  0.92763882  0.23611690  1
  O2-  O166  1  0.68463727  0.92408801  0.56904758  1
  O2-  O167  1  0.67686526  0.92922009  0.90162264  1
  O2-  O168  1  0.42281143  0.32108143  0.08956156  1
  O2-  O169  1  0.42397657  0.31793533  0.43054217  1
  O2-  O170  1  0.43155462  0.32009677  0.76877171  1
  O2-  O171  1  0.42784946  0.81717911  0.09967005  1
  O2-  O172  1  0.41188792  0.81424645  0.42202264  1
  O2-  O173  1  0.41998912  0.81761484  0.75432756  1
  O2-  O174  1  0.93137910  0.32033820  0.09838199  1
  O2-  O175  1  0.93674252  0.32596924  0.43322382  1
  O2-  O176  1  0.93052509  0.33015194  0.75456591  1
  O2-  O177  1  0.93243602  0.82171494  0.09028385  1
  O2-  O178  1  0.93333703  0.82274435  0.42044462  1
  O2-  O179  1  0.93218353  0.81585570  0.76700194  1
  O2-  O180  1  0.31724104  0.07247272  0.24304062  1
  O2-  O181  1  0.31621529  0.07232381  0.57764039  1
  O2-  O182  1  0.31871741  0.07124348  0.90964248  1
  O2-  O183  1  0.31585600  0.57623791  0.24524599  1
  O2-  O184  1  0.32173732  0.57163857  0.57844074  1
  O2-  O185  1  0.31909224  0.56978783  0.90210423  1
  O2-  O186  1  0.82111793  0.06939638  0.23647682  1
  O2-  O187  1  0.82315200  0.07089997  0.56944288  1
  O2-  O188  1  0.82231155  0.07126416  0.90315041  1
  O2-  O189  1  0.82987877  0.56936733  0.24472712  1
  O2-  O190  1  0.82277296  0.57084533  0.57428202  1
  O2-  O191  1  0.82111497  0.56939270  0.89864295  1
  O2-  O192  1  0.05152137  0.08068300  0.26975040  1
  O2-  O193  1  0.04133016  0.08329932  0.59914353  1
  O2-  O194  1  0.05236038  0.07965556  0.94137438  1
  O2-  O195  1  0.04646749  0.58800208  0.27073513  1
  O2-  O196  1  0.04531198  0.58390904  0.60205330  1
  O2-  O197  1  0.04203340  0.58302895  0.93173221  1
  O2-  O198  1  0.53779552  0.07917207  0.26824696  1
  O2-  O199  1  0.54578773  0.07809950  0.59821575  1
  O2-  O200  1  0.53500710  0.08535924  0.93104178  1
  O2-  O201  1  0.53904587  0.58725560  0.26232741  1
  O2-  O202  1  0.53672544  0.58754152  0.59760783  1
  O2-  O203  1  0.54482461  0.58284635  0.93908717  1
  O2-  O204  1  0.16414673  0.20432841  0.26783044  1
  O2-  O205  1  0.16305321  0.21200267  0.59944955  1
  O2-  O206  1  0.16707084  0.20343030  0.93471931  1
  O2-  O207  1  0.16291060  0.71062346  0.27207602  1
  O2-  O208  1  0.16869945  0.69910833  0.60399694  1
  O2-  O209  1  0.16540694  0.71121731  0.93052173  1
  O2-  O210  1  0.67000901  0.20840505  0.26759239  1
  O2-  O211  1  0.67203170  0.20886602  0.59924556  1
  O2-  O212  1  0.66369774  0.21241681  0.92927444  1
  O2-  O213  1  0.67154050  0.70611040  0.26445498  1
  O2-  O214  1  0.66781403  0.70766632  0.59811699  1
  O2-  O215  1  0.67002685  0.69771054  0.94178725  1
  O2-  O216  1  0.08576213  0.45713904  0.06403012  1
  O2-  O217  1  0.09129356  0.46333275  0.39754812  1
  O2-  O218  1  0.08319294  0.46013971  0.73673183  1
  O2-  O219  1  0.08807388  0.95238613  0.06519242  1
  O2-  O220  1  0.08683897  0.95269534  0.39305141  1
  O2-  O221  1  0.08513342  0.96199526  0.73600501  1
  O2-  O222  1  0.58366132  0.44990047  0.06168038  1
  O2-  O223  1  0.58253214  0.46454664  0.40015713  1
  O2-  O224  1  0.58761905  0.46339855  0.72889283  1
  O2-  O225  1  0.57558278  0.95670292  0.06545525  1
  O2-  O226  1  0.57327463  0.94304459  0.39843639  1
  O2-  O227  1  0.57368380  0.94377491  0.72745114  1
  O2-  O228  1  0.19954986  0.33208130  0.06465615  1
  O2-  O229  1  0.20231670  0.33467813  0.39319443  1
  O2-  O230  1  0.20827447  0.33188589  0.73752344  1
  O2-  O231  1  0.21099049  0.83690412  0.06285399  1
  O2-  O232  1  0.20968923  0.83782645  0.39655653  1
  O2-  O233  1  0.20622757  0.82966874  0.73347344  1
  O2-  O234  1  0.70839446  0.33626127  0.05903074  1
  O2-  O235  1  0.71175719  0.33711450  0.40250739  1
  O2-  O236  1  0.70289644  0.33926144  0.72940575  1
  O2-  O237  1  0.70284723  0.83062060  0.06810768  1
  O2-  O238  1  0.71346225  0.82942495  0.39908592  1
  O2-  O239  1  0.71328755  0.82987833  0.73444266  1
  O2-  O240  1  0.45068530  0.42351649  0.26880774  1
  O2-  O241  1  0.45439718  0.41941078  0.60176903  1
  O2-  O242  1  0.44809731  0.41829452  0.94043410  1
  O2-  O243  1  0.43968221  0.91698336  0.27531100  1
  O2-  O244  1  0.43986607  0.91819295  0.60491519  1
  O2-  O245  1  0.45270473  0.91623481  0.93000155  1
  O2-  O246  1  0.96686647  0.41630315  0.26505362  1
  O2-  O247  1  0.95914807  0.41787509  0.60153786  1
  O2-  O248  1  0.96327172  0.41383295  0.92974834  1
  O2-  O249  1  0.96278041  0.91183503  0.26610160  1
  O2-  O250  1  0.96489784  0.91504080  0.59856912  1
  O2-  O251  1  0.95564886  0.91671183  0.94047125  1
  O2-  O252  1  0.32912314  0.29333054  0.26285410  1
  O2-  O253  1  0.33065339  0.29148604  0.60331963  1
  O2-  O254  1  0.33067880  0.29629802  0.93955169  1
  O2-  O255  1  0.33335680  0.78634786  0.26720706  1
  O2-  O256  1  0.33306484  0.79007817  0.60057160  1
  O2-  O257  1  0.33552644  0.78442471  0.93161327  1
  O2-  O258  1  0.83355474  0.29539585  0.26650173  1
  O2-  O259  1  0.83198333  0.30691040  0.60630536  1
  O2-  O260  1  0.83402618  0.29339499  0.92756677  1
  O2-  O261  1  0.84015071  0.79530816  0.26652441  1
  O2-  O262  1  0.83826685  0.78550120  0.59582398  1
  O2-  O263  1  0.83318712  0.79653658  0.94107153  1
  O2-  O264  1  0.41016506  0.04026648  0.06291165  1
  O2-  O265  1  0.40877452  0.04434791  0.39834926  1
  O2-  O266  1  0.41651881  0.05108772  0.72655468  1
  O2-  O267  1  0.41740701  0.54354216  0.07129447  1
  O2-  O268  1  0.41491434  0.55171981  0.39518364  1
  O2-  O269  1  0.41637876  0.54500568  0.73083772  1
  O2-  O270  1  0.92045724  0.04793820  0.07040715  1
  O2-  O271  1  0.92026135  0.03979389  0.39909129  1
  O2-  O272  1  0.91740200  0.04003901  0.73512299  1
  O2-  O273  1  0.91863934  0.53709018  0.06596795  1
  O2-  O274  1  0.91905594  0.54329964  0.39778877  1
  O2-  O275  1  0.91390850  0.54583823  0.72728707  1
  O2-  O276  1  0.29192596  0.16184994  0.06410925  1
  O2-  O277  1  0.28955522  0.16428820  0.39585733  1
  O2-  O278  1  0.28867767  0.16222850  0.73160517  1
  O2-  O279  1  0.28437958  0.66530026  0.07004064  1
  O2-  O280  1  0.28510129  0.65963936  0.40075889  1
  O2-  O281  1  0.29717325  0.66395421  0.73085105  1
  O2-  O282  1  0.79041843  0.17327468  0.06432495  1
  O2-  O283  1  0.79957181  0.17259506  0.40104268  1
  O2-  O284  1  0.79847886  0.17504784  0.73316654  1
  O2-  O285  1  0.79794723  0.66653527  0.06975861  1
  O2-  O286  1  0.80496814  0.66810328  0.39202345  1
  O2-  O287  1  0.79187564  0.66177832  0.72719155  1
