# generated using pymatgen
data_Ca2Al2SiO7
_symmetry_space_group_name_H-M   'P 1'
_cell_length_a   15.46251799
_cell_length_b   15.46151079
_cell_length_c   15.28623220
_cell_angle_alpha   89.99186168
_cell_angle_beta   89.98549538
_cell_angle_gamma   89.98284481
_symmetry_Int_Tables_number   1
_chemical_formula_structural   Ca2Al2SiO7
_chemical_formula_sum   'Ca48 Al48 Si24 O168'
_cell_volume   3654.53866066
_cell_formula_units_Z   24
loop_
 _symmetry_equiv_pos_site_id
 _symmetry_equiv_pos_as_xyz
  1  'x, y, z'
loop_
 _atom_type_symbol
 _atom_type_oxidation_number
  Ca2+  2.0
  Al0+  0.0
  Si0+  0.0
  O2-  -2.0
loop_
 _atom_site_type_symbol
 _atom_site_label
 _atom_site_symmetry_multiplicity
 _atom_site_fract_x
 _atom_site_fract_y
 _atom_site_fract_z
 _atom_site_occupancy
  Ca2+  Ca0  1  0.18144683  0.07645993  0.17599386  1
  Ca2+  Ca1  1  0.16454153  0.07548012  0.50242942  1
  Ca2+  Ca2  1  0.17095084  0.08163565  0.83854203  1
  Ca2+  Ca3  1  0.17460649  0.58189225  0.17753264  1
  Ca2+  Ca4  1  0.17204633  0.59230990  0.50140286  1
  Ca2+  Ca5  1  0.17591726  0.59085795  0.83247252  1
  Ca2+  Ca6  1  0.67058607  0.08139874  0.17685252  1
  Ca2+  Ca7  1  0.67546370  0.08874432  0.50532094  1
  Ca2+  Ca8  1  0.66996114  0.08465600  0.82991027  1
  Ca2+  Ca9  1  0.66865000  0.58107216  0.17102870  1
  Ca2+  Ca10  1  0.66409084  0.57715395  0.51119823  1
  Ca2+  Ca11  1  0.65738703  0.57950468  0.83144388  1
  Ca2+  Ca12  1  0.08208686  0.33924801  0.16941842  1
  Ca2+  Ca13  1  0.08227679  0.32865628  0.49235434  1
  Ca2+  Ca14  1  0.08418815  0.32380935  0.82697644  1
  Ca2+  Ca15  1  0.07958659  0.83917497  0.17124219  1
  Ca2+  Ca16  1  0.07938960  0.82626649  0.49493089  1
  Ca2+  Ca17  1  0.07525368  0.83073626  0.82510665  1
  Ca2+  Ca18  1  0.57458247  0.32458749  0.16525215  1
  Ca2+  Ca19  1  0.58826755  0.32429051  0.49787117  1
  Ca2+  Ca20  1  0.57783299  0.33057018  0.82705611  1
  Ca2+  Ca21  1  0.56964801  0.83406331  0.16470492  1
  Ca2+  Ca22  1  0.57217119  0.83090076  0.49891548  1
  Ca2+  Ca23  1  0.57016182  0.82672905  0.82601933  1
  Ca2+  Ca24  1  0.33159133  0.42658651  0.17409669  1
  Ca2+  Ca25  1  0.32851495  0.42927007  0.50300375  1
  Ca2+  Ca26  1  0.33827648  0.42939163  0.83976009  1
  Ca2+  Ca27  1  0.33454031  0.92095589  0.17723756  1
  Ca2+  Ca28  1  0.33312155  0.91375675  0.49864487  1
  Ca2+  Ca29  1  0.33714540  0.91885866  0.83926371  1
  Ca2+  Ca30  1  0.83302797  0.41531014  0.17545229  1
  Ca2+  Ca31  1  0.82962420  0.41401100  0.50493631  1
  Ca2+  Ca32  1  0.82430727  0.41723564  0.83262438  1
  Ca2+  Ca33  1  0.83461386  0.91803769  0.17518076  1
  Ca2+  Ca34  1  0.84310486  0.92473300  0.50464572  1
  Ca2+  Ca35  1  0.83917714  0.91767143  0.83464856  1
  Ca2+  Ca36  1  0.41618871  0.16454948  0.16167454  1
  Ca2+  Ca37  1  0.43038762  0.16042281  0.49203606  1
  Ca2+  Ca38  1  0.41640934  0.17339834  0.82770930  1
  Ca2+  Ca39  1  0.40336258  0.67614725  0.16616075  1
  Ca2+  Ca40  1  0.41111028  0.67271690  0.49817890  1
  Ca2+  Ca41  1  0.41190486  0.67415732  0.82466937  1
  Ca2+  Ca42  1  0.91637757  0.16863056  0.17117789  1
  Ca2+  Ca43  1  0.91728102  0.16720641  0.49548608  1
  Ca2+  Ca44  1  0.92423629  0.16350924  0.82263385  1
  Ca2+  Ca45  1  0.92588574  0.67662524  0.16315279  1
  Ca2+  Ca46  1  0.92596213  0.67488466  0.48960824  1
  Ca2+  Ca47  1  0.92292736  0.67931800  0.82302879  1
  Al0+  Al48  1  -0.00019594  0.00099843  -0.00144327  1
  Al0+  Al49  1  0.00124342  0.00229239  0.33609058  1
  Al0+  Al50  1  0.00166589  0.00189132  0.66558311  1
  Al0+  Al51  1  -0.00143361  0.49973379  -0.00322180  1
  Al0+  Al52  1  -0.00078277  0.49895721  0.32807849  1
  Al0+  Al53  1  -0.00035058  0.49941372  0.66756667  1
  Al0+  Al54  1  0.50387668  -0.00140843  -0.00136795  1
  Al0+  Al55  1  0.50370173  -0.00207055  0.32888419  1
  Al0+  Al56  1  0.50174029  0.00169276  0.66136204  1
  Al0+  Al57  1  0.50026024  0.49715945  0.00414576  1
  Al0+  Al58  1  0.50064072  0.49783356  0.33731343  1
  Al0+  Al59  1  0.49872379  0.50032079  0.67338172  1
  Al0+  Al60  1  0.25016190  0.24977218  -0.00022916  1
  Al0+  Al61  1  0.25289434  0.25139432  0.34085926  1
  Al0+  Al62  1  0.24934341  0.25066666  0.66156736  1
  Al0+  Al63  1  0.24775865  0.75019615  0.00036970  1
  Al0+  Al64  1  0.24989396  0.75124344  0.33243980  1
  Al0+  Al65  1  0.24699335  0.75243941  0.66584969  1
  Al0+  Al66  1  0.75050421  0.24999512  0.00078289  1
  Al0+  Al67  1  0.74998874  0.24829992  0.32743695  1
  Al0+  Al68  1  0.74930082  0.24997480  0.67537901  1
  Al0+  Al69  1  0.75062949  0.74988820  -0.00340202  1
  Al0+  Al70  1  0.74919695  0.74927483  0.33037333  1
  Al0+  Al71  1  0.74712494  0.75261912  0.66103716  1
  Al0+  Al72  1  0.93007375  0.31917028  0.32084386  1
  Al0+  Al73  1  0.32024441  0.57134625  0.01455743  1
  Al0+  Al74  1  0.92917030  0.82162714  0.98518889  1
  Al0+  Al75  1  0.82087790  0.06835176  0.68172821  1
  Al0+  Al76  1  0.92828995  0.82377889  0.31760640  1
  Al0+  Al77  1  0.57061908  0.17932232  0.31864361  1
  Al0+  Al78  1  0.17600254  0.42884279  0.34894118  1
  Al0+  Al79  1  0.43079408  0.81807906  0.31900352  1
  Al0+  Al80  1  0.17968016  0.93052630  0.34989598  1
  Al0+  Al81  1  0.32616097  0.07115388  0.34935935  1
  Al0+  Al82  1  0.06976710  0.67786903  0.65181971  1
  Al0+  Al83  1  0.07264326  0.17985357  0.65239126  1
  Al0+  Al84  1  0.32097392  0.57162824  0.34992318  1
  Al0+  Al85  1  0.42876616  0.31952338  0.98709827  1
  Al0+  Al86  1  0.81901343  0.07019995  0.34626247  1
  Al0+  Al87  1  0.07148350  0.67919100  0.31599404  1
  Al0+  Al88  1  0.42779505  0.82037923  0.98691388  1
  Al0+  Al89  1  0.32267285  0.07035360  0.01104201  1
  Al0+  Al90  1  0.56945755  0.67663537  0.65295823  1
  Al0+  Al91  1  0.57069183  0.18204888  0.65407468  1
  Al0+  Al92  1  0.67965164  0.42983736  0.68149673  1
  Al0+  Al93  1  0.31723234  0.57113515  0.68200392  1
  Al0+  Al94  1  0.92772355  0.82285932  0.65101472  1
  Al0+  Al95  1  0.42731185  0.82228091  0.65126522  1
  Si0+  Si96  1  0.07588689  0.17848529  0.31622414  1
  Si0+  Si97  1  0.07069389  0.67593089  0.98161614  1
  Si0+  Si98  1  0.92745285  0.32045785  0.65351339  1
  Si0+  Si99  1  0.17619030  0.42478273  0.68477634  1
  Si0+  Si100  1  0.82035868  0.57148446  0.34614000  1
  Si0+  Si101  1  0.67991012  0.42738640  0.01847465  1
  Si0+  Si102  1  0.92656783  0.32236735  0.98295459  1
  Si0+  Si103  1  0.68124885  0.92770521  0.01470056  1
  Si0+  Si104  1  0.57240802  0.67710262  0.98534854  1
  Si0+  Si105  1  0.68078591  0.42859763  0.34714145  1
  Si0+  Si106  1  0.42720629  0.32374151  0.64938705  1
  Si0+  Si107  1  0.57260291  0.67318105  0.31642701  1
  Si0+  Si108  1  0.32397067  0.07242240  0.68051311  1
  Si0+  Si109  1  0.57426719  0.17756382  0.98178196  1
  Si0+  Si110  1  0.06917997  0.18077467  0.98675917  1
  Si0+  Si111  1  0.67868105  0.92490321  0.35048216  1
  Si0+  Si112  1  0.42810252  0.32286443  0.31811753  1
  Si0+  Si113  1  0.67522013  0.92745274  0.68436130  1
  Si0+  Si114  1  0.82223344  0.07137161  0.01621473  1
  Si0+  Si115  1  0.82259519  0.57505047  0.68216907  1
  Si0+  Si116  1  0.17660872  0.92944151  0.01558218  1
  Si0+  Si117  1  0.18030251  0.93199587  0.68330826  1
  Si0+  Si118  1  0.17613284  0.42690201  0.01500852  1
  Si0+  Si119  1  0.82078694  0.57051757  0.01437317  1
  O2-  O120  1  0.25195361  -0.00803040  0.05773899  1
  O2-  O121  1  0.25153346  0.00291720  0.40064403  1
  O2-  O122  1  0.25367052  0.00160914  0.72462519  1
  O2-  O123  1  0.24361246  0.49674911  0.05829846  1
  O2-  O124  1  0.24565099  0.50243908  0.39926207  1
  O2-  O125  1  0.24270377  0.49531408  0.72931675  1
  O2-  O126  1  0.75150919  -0.00004974  0.05725830  1
  O2-  O127  1  0.75077369  -0.00960573  0.39375497  1
  O2-  O128  1  0.74883148  -0.00869018  0.72957109  1
  O2-  O129  1  0.75108993  0.49897088  0.05939475  1
  O2-  O130  1  0.74777861  0.50282553  0.38932492  1
  O2-  O131  1  0.75179594  0.50833959  0.72810782  1
  O2-  O132  1  0.00846757  0.24907027  0.27186171  1
  O2-  O133  1  -0.00031523  0.25711778  0.60848580  1
  O2-  O134  1  -0.00186208  0.25161988  0.94277076  1
  O2-  O135  1  0.00039611  0.75280874  0.26612339  1
  O2-  O136  1  -0.00809840  0.74362029  0.60287029  1
  O2-  O137  1  0.00351718  0.74698889  0.93915593  1
  O2-  O138  1  0.49021252  0.24821860  0.27288798  1
  O2-  O139  1  0.49478652  0.25398227  0.60547776  1
  O2-  O140  1  0.50172303  0.24298755  0.93936151  1
  O2-  O141  1  0.50294197  0.74024435  0.27185985  1
  O2-  O142  1  0.49757782  0.74756945  0.60272652  1
  O2-  O143  1  0.49881653  0.74097015  0.94234603  1
  O2-  O144  1  0.06714735  0.18075397  0.09139001  1
  O2-  O145  1  0.07267637  0.17849604  0.42162302  1
  O2-  O146  1  0.07214344  0.17994312  0.76667242  1
  O2-  O147  1  0.06793289  0.67127000  0.08654343  1
  O2-  O148  1  0.06739987  0.67834680  0.42918741  1
  O2-  O149  1  0.07042195  0.68223889  0.76614995  1
  O2-  O150  1  0.57804525  0.17970583  0.08723028  1
  O2-  O151  1  0.57482838  0.18408042  0.43146459  1
  O2-  O152  1  0.56888453  0.18303091  0.76762359  1
  O2-  O153  1  0.57782081  0.67989388  0.09080770  1
  O2-  O154  1  0.57450378  0.67196402  0.42142416  1
  O2-  O155  1  0.56660032  0.67735670  0.76725194  1
  O2-  O156  1  0.17828358  0.42995104  0.23445598  1
  O2-  O157  1  0.17718458  0.42145794  0.58003166  1
  O2-  O158  1  0.17496704  0.42539620  0.90945484  1
  O2-  O159  1  0.18039672  0.93344357  0.23541906  1
  O2-  O160  1  0.17860195  0.93287267  0.57895072  1
  O2-  O161  1  0.17308566  0.93335611  0.90975122  1
  O2-  O162  1  0.68191692  0.42945014  0.24148260  1
  O2-  O163  1  0.68412833  0.42704746  0.56831360  1
  O2-  O164  1  0.68086918  0.42601110  0.91359996  1
  O2-  O165  1  0.67849107  0.92674624  0.24402508  1
  O2-  O166  1  0.67186693  0.93099978  0.57937466  1
  O2-  O167  1  0.68124315  0.92817477  0.90987734  1
  O2-  O168  1  0.43152465  0.31894587  0.09996105  1
  O2-  O169  1  0.43415128  0.32682349  0.42323232  1
  O2-  O170  1  0.42770126  0.32151328  0.75571652  1
  O2-  O171  1  0.43023701  0.82177084  0.09964877  1
  O2-  O172  1  0.43311515  0.81862364  0.43142675  1
  O2-  O173  1  0.42843408  0.82275864  0.76564174  1
  O2-  O174  1  0.92439827  0.32285069  0.08775977  1
  O2-  O175  1  0.92533117  0.31611049  0.43357823  1
  O2-  O176  1  0.92814162  0.31786938  0.75992299  1
  O2-  O177  1  0.92892670  0.82193047  0.09765623  1
  O2-  O178  1  0.92694874  0.82041303  0.43040664  1
  O2-  O179  1  0.93255675  0.82326539  0.76541993  1
  O2-  O180  1  0.32471275  0.06900563  0.23487769  1
  O2-  O181  1  0.32407255  0.07162996  0.57617344  1
  O2-  O182  1  0.31878376  0.07197533  0.89748575  1
  O2-  O183  1  0.32221126  0.56837580  0.23586373  1
  O2-  O184  1  0.31711087  0.57043238  0.56968037  1
  O2-  O185  1  0.31978999  0.57103344  0.90137934  1
  O2-  O186  1  0.81607165  0.07155562  0.23225061  1
  O2-  O187  1  0.81910683  0.07161902  0.56918233  1
  O2-  O188  1  0.82304716  0.07290205  0.91126351  1
  O2-  O189  1  0.81771688  0.56994852  0.24034943  1
  O2-  O190  1  0.82342165  0.57057338  0.57675291  1
  O2-  O191  1  0.81978960  0.56828098  0.90953252  1
  O2-  O192  1  0.04683057  0.08684710  0.26866742  1
  O2-  O193  1  0.03890372  0.08564493  0.59837698  1
  O2-  O194  1  0.04018901  0.09016777  0.93728877  1
  O2-  O195  1  0.03996592  0.58186575  0.26197729  1
  O2-  O196  1  0.04989191  0.57580379  0.60320453  1
  O2-  O197  1  0.04318973  0.58331189  0.93338422  1
  O2-  O198  1  0.54688068  0.08164107  0.26385456  1
  O2-  O199  1  0.54436908  0.08590991  0.59876256  1
  O2-  O200  1  0.55493449  0.08234958  0.93752086  1
  O2-  O201  1  0.54996905  0.57831333  0.27071124  1
  O2-  O202  1  0.54457964  0.57623588  0.60305643  1
  O2-  O203  1  0.55199604  0.58048346  0.94403658  1
  O2-  O204  1  0.17099861  0.20303457  0.27258086  1
  O2-  O205  1  0.16864884  0.20689259  0.59641830  1
  O2-  O206  1  0.16034554  0.20811582  0.93773414  1
  O2-  O207  1  0.16973798  0.70701901  0.26355057  1
  O2-  O208  1  0.16470812  0.71351430  0.59888246  1
  O2-  O209  1  0.16434299  0.70216344  0.93686799  1
  O2-  O210  1  0.66303226  0.21668121  0.26027927  1
  O2-  O211  1  0.66770320  0.21629422  0.60340826  1
  O2-  O212  1  0.66675765  0.20888324  0.93548365  1
  O2-  O213  1  0.66564026  0.69945441  0.26848520  1
  O2-  O214  1  0.66807776  0.70147391  0.59906113  1
  O2-  O215  1  0.66373783  0.70589121  0.93606059  1
  O2-  O216  1  0.08043264  0.45073629  0.05914374  1
  O2-  O217  1  0.07433059  0.45108478  0.39793501  1
  O2-  O218  1  0.08070171  0.44575212  0.73065497  1
  O2-  O219  1  0.08578978  0.96282410  0.06359041  1
  O2-  O220  1  0.08193055  0.95999297  0.40346038  1
  O2-  O221  1  0.09044783  0.96437827  0.73274793  1
  O2-  O222  1  0.58902318  0.45401039  0.06772257  1
  O2-  O223  1  0.58891464  0.45121353  0.39590599  1
  O2-  O224  1  0.58346015  0.45785801  0.73895825  1
  O2-  O225  1  0.59014853  0.95563529  0.06390333  1
  O2-  O226  1  0.58706255  0.95447061  0.39639545  1
  O2-  O227  1  0.58427405  0.96081454  0.73305422  1
  O2-  O228  1  0.20130243  0.33370558  0.06174157  1
  O2-  O229  1  0.20378310  0.33117830  0.40335246  1
  O2-  O230  1  0.20433947  0.33116564  0.73164626  1
  O2-  O231  1  0.19379333  0.83341058  0.05868201  1
  O2-  O232  1  0.20718262  0.83196089  0.40088427  1
  O2-  O233  1  0.20564018  0.84043522  0.73242494  1
  O2-  O234  1  0.71030509  0.33593606  0.06598627  1
  O2-  O235  1  0.71433026  0.33830802  0.39281893  1
  O2-  O236  1  0.71415288  0.33697175  0.74154441  1
  O2-  O237  1  0.70957974  0.83603979  0.06227175  1
  O2-  O238  1  0.69860565  0.82928638  0.39461718  1
  O2-  O239  1  0.69452045  0.83154833  0.72911541  1
  O2-  O240  1  0.46191263  0.41324586  0.26898624  1
  O2-  O241  1  0.45521235  0.41683061  0.60621866  1
  O2-  O242  1  0.46403989  0.41533078  0.93333468  1
  O2-  O243  1  0.46616298  0.91262023  0.26295756  1
  O2-  O244  1  0.45853974  0.91927333  0.59826426  1
  O2-  O245  1  0.46386355  0.91554880  0.93220891  1
  O2-  O246  1  0.95499671  0.41547729  0.26236566  1
  O2-  O247  1  0.94533676  0.41630297  0.60992076  1
  O2-  O248  1  0.95187205  0.41422727  0.93432360  1
  O2-  O249  1  0.95692126  0.92344627  0.26625050  1
  O2-  O250  1  0.96387854  0.91864054  0.59993040  1
  O2-  O251  1  0.95931699  0.91929173  0.93228165  1
  O2-  O252  1  0.33198026  0.30475179  0.27478925  1
  O2-  O253  1  0.33355354  0.30104943  0.60376310  1
  O2-  O254  1  0.33166271  0.29168677  0.93192875  1
  O2-  O255  1  0.33382615  0.79146260  0.26429293  1
  O2-  O256  1  0.32842979  0.79629426  0.60088669  1
  O2-  O257  1  0.32871077  0.79575849  0.93469787  1
  O2-  O258  1  0.83659748  0.28427276  0.26157869  1
  O2-  O259  1  0.83512176  0.29033343  0.60916084  1
  O2-  O260  1  0.83481557  0.29336892  0.93586762  1
  O2-  O261  1  0.82904220  0.79446761  0.26488452  1
  O2-  O262  1  0.82564968  0.80736022  0.60257911  1
  O2-  O263  1  0.83299340  0.78998315  0.93052188  1
  O2-  O264  1  0.42238275  0.04531417  0.06170024  1
  O2-  O265  1  0.42485025  0.03919408  0.39917151  1
  O2-  O266  1  0.41626745  0.04624933  0.72821101  1
  O2-  O267  1  0.41707934  0.53971252  0.06794311  1
  O2-  O268  1  0.41935788  0.54008390  0.40219289  1
  O2-  O269  1  0.41322791  0.54017499  0.73776207  1
  O2-  O270  1  0.91437596  0.04466439  0.06325727  1
  O2-  O271  1  0.91786993  0.04851173  0.39851764  1
  O2-  O272  1  0.91870865  0.03952824  0.73615853  1
  O2-  O273  1  0.91279333  0.54209517  0.06131795  1
  O2-  O274  1  0.91082487  0.54078145  0.39243312  1
  O2-  O275  1  0.91484081  0.54710440  0.73142074  1
  O2-  O276  1  0.28834822  0.16571203  0.06586945  1
  O2-  O277  1  0.30663913  0.17198798  0.39980875  1
  O2-  O278  1  0.29484445  0.16541394  0.72619983  1
  O2-  O279  1  0.28889993  0.66843227  0.06752563  1
  O2-  O280  1  0.29463883  0.67083117  0.39997428  1
  O2-  O281  1  0.28460794  0.66854123  0.73515177  1
  O2-  O282  1  0.79413414  0.16398743  0.06269645  1
  O2-  O283  1  0.78236992  0.16572125  0.39870122  1
  O2-  O284  1  0.78787255  0.16310187  0.73947402  1
  O2-  O285  1  0.79197683  0.66226176  0.06146434  1
  O2-  O286  1  0.79501974  0.66380932  0.39304758  1
  O2-  O287  1  0.79879710  0.67023026  0.72607630  1
