# generated using pymatgen
data_Ca2Al2SiO7
_symmetry_space_group_name_H-M   'P 1'
_cell_length_a   15.46457547
_cell_length_b   15.46763453
_cell_length_c   15.28884093
_cell_angle_alpha   90.01632992
_cell_angle_beta   89.99710816
_cell_angle_gamma   89.99751398
_symmetry_Int_Tables_number   1
_chemical_formula_structural   Ca2Al2SiO7
_chemical_formula_sum   'Ca48 Al48 Si24 O168'
_cell_volume   3657.09673056
_cell_formula_units_Z   24
loop_
 _symmetry_equiv_pos_site_id
 _symmetry_equiv_pos_as_xyz
  1  'x, y, z'
loop_
 _atom_type_symbol
 _atom_type_oxidation_number
  Ca2+  2.0
  Al0+  0.0
  Si0+  0.0
  O2-  -2.0
loop_
 _atom_site_type_symbol
 _atom_site_label
 _atom_site_symmetry_multiplicity
 _atom_site_fract_x
 _atom_site_fract_y
 _atom_site_fract_z
 _atom_site_occupancy
  Ca2+  Ca0  1  0.16842492  0.08459388  0.16973593  1
  Ca2+  Ca1  1  0.16660468  0.07933031  0.50518136  1
  Ca2+  Ca2  1  0.17316706  0.08387672  0.83269297  1
  Ca2+  Ca3  1  0.16882731  0.57484717  0.17578449  1
  Ca2+  Ca4  1  0.16193708  0.56745428  0.50353280  1
  Ca2+  Ca5  1  0.16234851  0.57415346  0.83454895  1
  Ca2+  Ca6  1  0.67395163  0.07241807  0.17556121  1
  Ca2+  Ca7  1  0.66867153  0.08225818  0.49798033  1
  Ca2+  Ca8  1  0.67756615  0.07526336  0.84708837  1
  Ca2+  Ca9  1  0.66985568  0.57755025  0.17075022  1
  Ca2+  Ca10  1  0.67016809  0.58870235  0.50146298  1
  Ca2+  Ca11  1  0.65982864  0.58063871  0.83723190  1
  Ca2+  Ca12  1  0.08556458  0.32166703  0.16405747  1
  Ca2+  Ca13  1  0.09230836  0.32315748  0.49424584  1
  Ca2+  Ca14  1  0.08772227  0.32031186  0.82843857  1
  Ca2+  Ca15  1  0.07088961  0.84366569  0.16551002  1
  Ca2+  Ca16  1  0.07416108  0.84735297  0.49514231  1
  Ca2+  Ca17  1  0.07127284  0.84292116  0.82775801  1
  Ca2+  Ca18  1  0.57672132  0.32995366  0.16125054  1
  Ca2+  Ca19  1  0.57378545  0.32259882  0.48732914  1
  Ca2+  Ca20  1  0.57926065  0.33534261  0.83212590  1
  Ca2+  Ca21  1  0.58383824  0.83810071  0.16127419  1
  Ca2+  Ca22  1  0.57915921  0.83481320  0.49875073  1
  Ca2+  Ca23  1  0.57447588  0.83815376  0.82906921  1
  Ca2+  Ca24  1  0.33243989  0.41082756  0.17167888  1
  Ca2+  Ca25  1  0.32392860  0.40833330  0.50129965  1
  Ca2+  Ca26  1  0.33023520  0.41442584  0.83693155  1
  Ca2+  Ca27  1  0.33016721  0.92298860  0.17222390  1
  Ca2+  Ca28  1  0.32077306  0.92227692  0.51202635  1
  Ca2+  Ca29  1  0.33639910  0.92535202  0.83915963  1
  Ca2+  Ca30  1  0.82925177  0.42259544  0.17211642  1
  Ca2+  Ca31  1  0.83860778  0.42666342  0.50191506  1
  Ca2+  Ca32  1  0.82442944  0.42076512  0.84168146  1
  Ca2+  Ca33  1  0.82930591  0.92041518  0.17206278  1
  Ca2+  Ca34  1  0.83476151  0.91731120  0.49757498  1
  Ca2+  Ca35  1  0.83150361  0.91662052  0.84211137  1
  Ca2+  Ca36  1  0.41860707  0.17368961  0.16290660  1
  Ca2+  Ca37  1  0.41825900  0.16716128  0.49274343  1
  Ca2+  Ca38  1  0.40908528  0.16678255  0.83295827  1
  Ca2+  Ca39  1  0.41694202  0.67671983  0.15917485  1
  Ca2+  Ca40  1  0.41976414  0.67076016  0.50100154  1
  Ca2+  Ca41  1  0.42231714  0.68237804  0.82696064  1
  Ca2+  Ca42  1  0.92720829  0.14960809  0.16413250  1
  Ca2+  Ca43  1  0.92885625  0.16232755  0.49238210  1
  Ca2+  Ca44  1  0.92952724  0.15707486  0.83165916  1
  Ca2+  Ca45  1  0.91144801  0.67680943  0.16673632  1
  Ca2+  Ca46  1  0.91611547  0.67782059  0.49313170  1
  Ca2+  Ca47  1  0.91413275  0.68054247  0.82896559  1
  Al0+  Al48  1  0.00220400  -0.00172611  -0.00768128  1
  Al0+  Al49  1  -0.00077244  0.00026279  0.33126138  1
  Al0+  Al50  1  0.00077901  0.00215500  0.66161063  1
  Al0+  Al51  1  -0.00012070  0.49754030  0.00070070  1
  Al0+  Al52  1  0.00108391  0.49985302  0.34129931  1
  Al0+  Al53  1  -0.00239518  0.50145501  0.67486640  1
  Al0+  Al54  1  0.49984906  0.00248037  0.00456080  1
  Al0+  Al55  1  0.50106852  0.00009124  0.33326517  1
  Al0+  Al56  1  0.50073280  0.00144509  0.66624672  1
  Al0+  Al57  1  0.49804802  0.49945729  0.00068556  1
  Al0+  Al58  1  0.49940029  0.50207015  0.33032382  1
  Al0+  Al59  1  0.49962646  0.50009855  0.66158249  1
  Al0+  Al60  1  0.25036204  0.24865631  -0.00443027  1
  Al0+  Al61  1  0.24967563  0.24995216  0.32878517  1
  Al0+  Al62  1  0.24932596  0.24962525  0.67052998  1
  Al0+  Al63  1  0.24985557  0.74776478  -0.00501126  1
  Al0+  Al64  1  0.24919853  0.74891990  0.33818173  1
  Al0+  Al65  1  0.24706821  0.74773533  0.66687279  1
  Al0+  Al66  1  0.75203137  0.25116304  0.00905924  1
  Al0+  Al67  1  0.75048414  0.24978963  0.33368315  1
  Al0+  Al68  1  0.75050946  0.25203951  0.66728235  1
  Al0+  Al69  1  0.75071048  0.74821693  -0.00132332  1
  Al0+  Al70  1  0.74911256  0.74948614  0.33672473  1
  Al0+  Al71  1  0.75058914  0.75072538  0.66022689  1
  Al0+  Al72  1  0.82564136  0.06972396  0.01390919  1
  Al0+  Al73  1  0.06976722  0.17979020  0.98433432  1
  Al0+  Al74  1  0.42950878  0.32054836  0.31810537  1
  Al0+  Al75  1  0.67752331  0.92802504  0.35145423  1
  Al0+  Al76  1  0.17605210  0.92750755  0.68253765  1
  Al0+  Al77  1  0.82175759  0.07176366  0.35005011  1
  Al0+  Al78  1  0.07024907  0.18292320  0.65118814  1
  Al0+  Al79  1  0.92972897  0.81915080  0.31853628  1
  Al0+  Al80  1  0.57382038  0.17620261  0.31627719  1
  Al0+  Al81  1  0.67907169  0.92767365  0.01353853  1
  Al0+  Al82  1  0.93173215  0.82074845  0.65070236  1
  Al0+  Al83  1  0.06862280  0.17994568  0.31850576  1
  Al0+  Al84  1  0.42870754  0.82431107  0.98843755  1
  Al0+  Al85  1  0.56973051  0.67914454  0.65079350  1
  Al0+  Al86  1  0.31988085  0.07161808  0.01584464  1
  Al0+  Al87  1  0.81973114  0.56974123  0.34769974  1
  Al0+  Al88  1  0.42638708  0.82439557  0.65079571  1
  Al0+  Al89  1  0.18187239  0.42827416  0.34546380  1
  Al0+  Al90  1  0.17926341  0.92878510  0.34499049  1
  Al0+  Al91  1  0.17949205  0.42956146  0.68261059  1
  Al0+  Al92  1  0.67679303  0.42958500  0.01405172  1
  Al0+  Al93  1  0.43078918  0.32040718  0.98362051  1
  Al0+  Al94  1  0.93037898  0.81781760  0.98640345  1
  Al0+  Al95  1  0.32251115  0.06961235  0.68162230  1
  Si0+  Si96  1  0.82048652  0.07284444  0.68072904  1
  Si0+  Si97  1  0.57440463  0.17956054  0.98364213  1
  Si0+  Si98  1  0.92665068  0.32529504  0.98344895  1
  Si0+  Si99  1  0.17980818  0.42833033  0.01508766  1
  Si0+  Si100  1  0.07260910  0.67528033  0.31824219  1
  Si0+  Si101  1  0.17956073  0.92530334  0.01513060  1
  Si0+  Si102  1  0.67799526  0.42936695  0.68003576  1
  Si0+  Si103  1  0.31961234  0.57124361  0.01432468  1
  Si0+  Si104  1  0.07074226  0.67293283  0.64985767  1
  Si0+  Si105  1  0.07316089  0.67329242  0.98337434  1
  Si0+  Si106  1  0.42651662  0.82027204  0.31950911  1
  Si0+  Si107  1  0.32396797  0.57382474  0.35110792  1
  Si0+  Si108  1  0.81833296  0.57312731  0.68363416  1
  Si0+  Si109  1  0.82307767  0.57123461  0.01639610  1
  Si0+  Si110  1  0.57526310  0.17983770  0.65360505  1
  Si0+  Si111  1  0.68052314  0.92928418  0.68106016  1
  Si0+  Si112  1  0.32477533  0.57096501  0.68447465  1
  Si0+  Si113  1  0.67560425  0.42875263  0.35088841  1
  Si0+  Si114  1  0.92820259  0.32590068  0.31807761  1
  Si0+  Si115  1  0.92569805  0.32407717  0.65137444  1
  Si0+  Si116  1  0.57060463  0.67839348  0.98602181  1
  Si0+  Si117  1  0.32095890  0.07157377  0.34813951  1
  Si0+  Si118  1  0.42990531  0.31961368  0.65240790  1
  Si0+  Si119  1  0.57054268  0.68024783  0.31663577  1
  O2-  O120  1  0.24930380  -0.00788779  0.06047373  1
  O2-  O121  1  0.25561496  0.00073209  0.39267185  1
  O2-  O122  1  0.25478808  -0.00710636  0.73147409  1
  O2-  O123  1  0.24790788  0.50167988  0.05748050  1
  O2-  O124  1  0.25699569  0.50245263  0.39317486  1
  O2-  O125  1  0.25287885  0.50576150  0.72964585  1
  O2-  O126  1  0.75101281  -0.00006056  0.06275320  1
  O2-  O127  1  0.74799763  0.00191690  0.40130939  1
  O2-  O128  1  0.75033704  0.00128152  0.72309295  1
  O2-  O129  1  0.75405911  0.50237484  0.05943724  1
  O2-  O130  1  0.74709795  0.49350624  0.39666499  1
  O2-  O131  1  0.74698521  0.50155808  0.72416795  1
  O2-  O132  1  -0.00884092  0.25298504  0.27249402  1
  O2-  O133  1  -0.00431270  0.25859270  0.60563917  1
  O2-  O134  1  -0.00873090  0.25281797  0.93970391  1
  O2-  O135  1  0.00681230  0.74555019  0.27263554  1
  O2-  O136  1  0.01055907  0.74870894  0.60560976  1
  O2-  O137  1  0.00552351  0.74306155  0.93972074  1
  O2-  O138  1  0.50336339  0.25083498  0.26791150  1
  O2-  O139  1  0.50033454  0.24753668  0.61221711  1
  O2-  O140  1  0.50681364  0.24769950  0.93555279  1
  O2-  O141  1  0.49934390  0.75141363  0.27571880  1
  O2-  O142  1  0.49773895  0.75115508  0.60063798  1
  O2-  O143  1  0.50797330  0.75292911  0.94311033  1
  O2-  O144  1  0.07082145  0.18205989  0.09736661  1
  O2-  O145  1  0.07072875  0.18236692  0.43158750  1
  O2-  O146  1  0.06879970  0.18348650  0.76438252  1
  O2-  O147  1  0.07396113  0.66918501  0.08869388  1
  O2-  O148  1  0.07021485  0.67219791  0.42351394  1
  O2-  O149  1  0.06376343  0.66651872  0.75530581  1
  O2-  O150  1  0.57166433  0.18202450  0.08857196  1
  O2-  O151  1  0.57007062  0.17835479  0.43113571  1
  O2-  O152  1  0.58139848  0.18375571  0.75832166  1
  O2-  O153  1  0.56797902  0.67593738  0.09170976  1
  O2-  O154  1  0.56887040  0.67805805  0.42146801  1
  O2-  O155  1  0.56903039  0.67789827  0.76467166  1
  O2-  O156  1  0.18195774  0.43073547  0.23205627  1
  O2-  O157  1  0.18167569  0.42865232  0.56957750  1
  O2-  O158  1  0.18046913  0.43034831  0.90989139  1
  O2-  O159  1  0.18179399  0.92817185  0.23162580  1
  O2-  O160  1  0.17500335  0.93453420  0.56892496  1
  O2-  O161  1  0.17972807  0.92579154  0.90970742  1
  O2-  O162  1  0.67468009  0.43379492  0.24533402  1
  O2-  O163  1  0.67973354  0.42799704  0.57547355  1
  O2-  O164  1  0.67677189  0.43322435  0.90000826  1
  O2-  O165  1  0.67850284  0.92570963  0.23805998  1
  O2-  O166  1  0.67999698  0.93013200  0.57639124  1
  O2-  O167  1  0.68029610  0.92832093  0.89904176  1
  O2-  O168  1  0.43055819  0.32165564  0.09605793  1
  O2-  O169  1  0.42902127  0.31865559  0.43246684  1
  O2-  O170  1  0.43225831  0.32227117  0.75756561  1
  O2-  O171  1  0.42522863  0.81880209  0.10174642  1
  O2-  O172  1  0.42593822  0.81737898  0.42420154  1
  O2-  O173  1  0.43201898  0.82475391  0.76466839  1
  O2-  O174  1  0.93161245  0.33554765  0.08813434  1
  O2-  O175  1  0.93208022  0.32864292  0.42381944  1
  O2-  O176  1  0.92176522  0.32204312  0.75686113  1
  O2-  O177  1  0.93056816  0.81616192  0.09927507  1
  O2-  O178  1  0.93114205  0.81759945  0.43154575  1
  O2-  O179  1  0.92855145  0.81821486  0.76409057  1
  O2-  O180  1  0.31928454  0.07126696  0.24241869  1
  O2-  O181  1  0.32231422  0.07286761  0.56791722  1
  O2-  O182  1  0.31798785  0.07220686  0.90292727  1
  O2-  O183  1  0.32259304  0.57730023  0.24522696  1
  O2-  O184  1  0.32718196  0.56663170  0.57901573  1
  O2-  O185  1  0.31948245  0.57040888  0.90947157  1
  O2-  O186  1  0.82365502  0.06582314  0.23685983  1
  O2-  O187  1  0.81803805  0.07534104  0.57618717  1
  O2-  O188  1  0.82389476  0.06734973  0.89918884  1
  O2-  O189  1  0.81720782  0.56875565  0.23439862  1
  O2-  O190  1  0.81949866  0.57124833  0.57875612  1
  O2-  O191  1  0.82296758  0.57071923  0.91054795  1
  O2-  O192  1  0.03938937  0.08369880  0.26351714  1
  O2-  O193  1  0.03789723  0.08785162  0.59665103  1
  O2-  O194  1  0.04173484  0.08370439  0.92794599  1
  O2-  O195  1  0.04457046  0.58220022  0.27165997  1
  O2-  O196  1  0.03625052  0.58206948  0.60215538  1
  O2-  O197  1  0.04553498  0.58013691  0.93606277  1
  O2-  O198  1  0.54432023  0.07806826  0.26384992  1
  O2-  O199  1  0.55055960  0.08760533  0.60678758  1
  O2-  O200  1  0.54865843  0.08569423  0.93853008  1
  O2-  O201  1  0.54302270  0.58893770  0.26759197  1
  O2-  O202  1  0.54217625  0.58070472  0.59551491  1
  O2-  O203  1  0.53796529  0.58780747  0.93792957  1
  O2-  O204  1  0.16377322  0.21341957  0.26361947  1
  O2-  O205  1  0.16742360  0.21501582  0.59929035  1
  O2-  O206  1  0.16385983  0.21575174  0.92911508  1
  O2-  O207  1  0.16825224  0.69720187  0.27424412  1
  O2-  O208  1  0.16856617  0.68487825  0.60898145  1
  O2-  O209  1  0.16665360  0.69550758  0.93545825  1
  O2-  O210  1  0.67383106  0.20197234  0.26576716  1
  O2-  O211  1  0.66433227  0.21219877  0.60277436  1
  O2-  O212  1  0.66980403  0.20498622  0.94027005  1
  O2-  O213  1  0.66230272  0.70711444  0.26966263  1
  O2-  O214  1  0.66762896  0.70715411  0.59733628  1
  O2-  O215  1  0.66633609  0.69491408  0.94095492  1
  O2-  O216  1  0.08691450  0.45325074  0.06158149  1
  O2-  O217  1  0.08709767  0.45886042  0.40310452  1
  O2-  O218  1  0.08240813  0.45942212  0.73760077  1
  O2-  O219  1  0.08656098  0.95514708  0.05904499  1
  O2-  O220  1  0.08403061  0.96272723  0.39771178  1
  O2-  O221  1  0.07949759  0.96474285  0.73493549  1
  O2-  O222  1  0.58165075  0.46375311  0.06880755  1
  O2-  O223  1  0.58307414  0.45906836  0.39705369  1
  O2-  O224  1  0.58549319  0.45674958  0.72677899  1
  O2-  O225  1  0.58122086  0.95501437  0.06721408  1
  O2-  O226  1  0.57795663  0.95576556  0.40377071  1
  O2-  O227  1  0.58857010  0.95659062  0.72805659  1
  O2-  O228  1  0.21146389  0.33786528  0.06078635  1
  O2-  O229  1  0.21470748  0.33254806  0.40008198  1
  O2-  O230  1  0.21342875  0.33522687  0.73791752  1
  O2-  O231  1  0.20055508  0.82947768  0.05883366  1
  O2-  O232  1  0.20472236  0.83123714  0.40026657  1
  O2-  O233  1  0.19012502  0.82327570  0.72924179  1
  O2-  O234  1  0.70481177  0.33430098  0.07069275  1
  O2-  O235  1  0.69579225  0.33321872  0.39408376  1
  O2-  O236  1  0.70702131  0.33891508  0.73022218  1
  O2-  O237  1  0.70525247  0.82749855  0.06412228  1
  O2-  O238  1  0.70639741  0.83000002  0.40426838  1
  O2-  O239  1  0.70973995  0.83698994  0.72635830  1
  O2-  O240  1  0.45414891  0.42128848  0.26690874  1
  O2-  O241  1  0.45752220  0.41021088  0.60319678  1
  O2-  O242  1  0.46020301  0.41822344  0.93001815  1
  O2-  O243  1  0.45185358  0.91302854  0.27369301  1
  O2-  O244  1  0.45724200  0.92221912  0.59785251  1
  O2-  O245  1  0.45741737  0.92165698  0.93536954  1
  O2-  O246  1  0.95872429  0.41804075  0.27122662  1
  O2-  O247  1  0.94963719  0.41999431  0.60976346  1
  O2-  O248  1  0.95504061  0.41687047  0.93276125  1
  O2-  O249  1  0.96135257  0.91477638  0.26444047  1
  O2-  O250  1  0.95948228  0.91788661  0.59706883  1
  O2-  O251  1  0.96170522  0.91237287  0.92901224  1
  O2-  O252  1  0.33278728  0.29073631  0.26338717  1
  O2-  O253  1  0.33788167  0.29148666  0.60695250  1
  O2-  O254  1  0.33477703  0.28884427  0.92922523  1
  O2-  O255  1  0.33543597  0.78955891  0.27160494  1
  O2-  O256  1  0.32613647  0.79617617  0.60109171  1
  O2-  O257  1  0.33450426  0.78854057  0.93216594  1
  O2-  O258  1  0.83134101  0.30886846  0.27613935  1
  O2-  O259  1  0.83255633  0.29931554  0.60326485  1
  O2-  O260  1  0.83010511  0.30481574  0.94124196  1
  O2-  O261  1  0.83315188  0.78403742  0.26727906  1
  O2-  O262  1  0.83677492  0.78661362  0.59632020  1
  O2-  O263  1  0.83397666  0.78592718  0.93074529  1
  O2-  O264  1  0.41734551  0.04627264  0.06985708  1
  O2-  O265  1  0.41577222  0.04972140  0.39243506  1
  O2-  O266  1  0.42349278  0.04798431  0.73454616  1
  O2-  O267  1  0.41025783  0.54281511  0.06326229  1
  O2-  O268  1  0.41840490  0.55003954  0.39600863  1
  O2-  O269  1  0.41696431  0.54026102  0.73125209  1
  O2-  O270  1  0.92347769  0.03605325  0.06413558  1
  O2-  O271  1  0.91888409  0.03881291  0.40296757  1
  O2-  O272  1  0.91249146  0.04395660  0.72568204  1
  O2-  O273  1  0.91642661  0.54522691  0.06278654  1
  O2-  O274  1  0.91562183  0.54075572  0.40459690  1
  O2-  O275  1  0.90844367  0.54588006  0.73440744  1
  O2-  O276  1  0.28488236  0.16775675  0.06820643  1
  O2-  O277  1  0.29258966  0.16440379  0.39340127  1
  O2-  O278  1  0.28955485  0.16642584  0.73573865  1
  O2-  O279  1  0.29244669  0.66297928  0.06294503  1
  O2-  O280  1  0.29682432  0.66498697  0.40077366  1
  O2-  O281  1  0.30329811  0.66620416  0.72855720  1
  O2-  O282  1  0.80714935  0.17079833  0.06477629  1
  O2-  O283  1  0.79930032  0.17302940  0.40149686  1
  O2-  O284  1  0.79306419  0.16483071  0.72894658  1
  O2-  O285  1  0.79656782  0.66381801  0.06294039  1
  O2-  O286  1  0.78574632  0.66378251  0.40350751  1
  O2-  O287  1  0.78856057  0.66463434  0.73034824  1
