# generated using pymatgen
data_Ca2Al2SiO7
_symmetry_space_group_name_H-M   'P 1'
_cell_length_a   15.46940665
_cell_length_b   15.46520945
_cell_length_c   15.28895969
_cell_angle_alpha   89.98646659
_cell_angle_beta   89.97173257
_cell_angle_gamma   89.99159760
_symmetry_Int_Tables_number   1
_chemical_formula_structural   Ca2Al2SiO7
_chemical_formula_sum   'Ca48 Al48 Si24 O168'
_cell_volume   3657.69364993
_cell_formula_units_Z   24
loop_
 _symmetry_equiv_pos_site_id
 _symmetry_equiv_pos_as_xyz
  1  'x, y, z'
loop_
 _atom_type_symbol
 _atom_type_oxidation_number
  Ca2+  2.0
  Al0+  0.0
  Si0+  0.0
  O2-  -2.0
loop_
 _atom_site_type_symbol
 _atom_site_label
 _atom_site_symmetry_multiplicity
 _atom_site_fract_x
 _atom_site_fract_y
 _atom_site_fract_z
 _atom_site_occupancy
  Ca2+  Ca0  1  0.16576233  0.07664482  0.16591840  1
  Ca2+  Ca1  1  0.16751803  0.07372101  0.51008241  1
  Ca2+  Ca2  1  0.16635174  0.07697046  0.84058363  1
  Ca2+  Ca3  1  0.17601889  0.58651726  0.16629209  1
  Ca2+  Ca4  1  0.17856547  0.58038214  0.50393921  1
  Ca2+  Ca5  1  0.17534793  0.58170284  0.83944505  1
  Ca2+  Ca6  1  0.67005847  0.08875610  0.16830066  1
  Ca2+  Ca7  1  0.66448835  0.08742552  0.50112771  1
  Ca2+  Ca8  1  0.67428700  0.08576439  0.84081455  1
  Ca2+  Ca9  1  0.67669531  0.58404946  0.17291576  1
  Ca2+  Ca10  1  0.67683930  0.58881055  0.50362279  1
  Ca2+  Ca11  1  0.67960194  0.58147406  0.83835919  1
  Ca2+  Ca12  1  0.07330161  0.33097445  0.15646425  1
  Ca2+  Ca13  1  0.07548919  0.33262284  0.50049641  1
  Ca2+  Ca14  1  0.07766422  0.32013575  0.82897742  1
  Ca2+  Ca15  1  0.09127917  0.82899947  0.15976713  1
  Ca2+  Ca16  1  0.08804521  0.83616907  0.49839698  1
  Ca2+  Ca17  1  0.09532443  0.82891271  0.83336664  1
  Ca2+  Ca18  1  0.57760772  0.32995372  0.16444973  1
  Ca2+  Ca19  1  0.57791677  0.32979577  0.49837284  1
  Ca2+  Ca20  1  0.57198142  0.33483976  0.83319757  1
  Ca2+  Ca21  1  0.57604859  0.82428961  0.16040140  1
  Ca2+  Ca22  1  0.57341647  0.82671498  0.49487763  1
  Ca2+  Ca23  1  0.56633292  0.83512873  0.82957878  1
  Ca2+  Ca24  1  0.33872945  0.42622775  0.16869376  1
  Ca2+  Ca25  1  0.34242297  0.42768127  0.50705285  1
  Ca2+  Ca26  1  0.34146273  0.42410057  0.84041226  1
  Ca2+  Ca27  1  0.32401880  0.91553592  0.16448118  1
  Ca2+  Ca28  1  0.32358979  0.91992468  0.51038609  1
  Ca2+  Ca29  1  0.32861083  0.92582429  0.83847744  1
  Ca2+  Ca30  1  0.84278685  0.42404815  0.17076144  1
  Ca2+  Ca31  1  0.83923581  0.42273397  0.50507491  1
  Ca2+  Ca32  1  0.84173349  0.41995755  0.83821741  1
  Ca2+  Ca33  1  0.83695676  0.92635672  0.16673970  1
  Ca2+  Ca34  1  0.82747211  0.91728850  0.50534551  1
  Ca2+  Ca35  1  0.82977702  0.92375210  0.84086739  1
  Ca2+  Ca36  1  0.41937022  0.16806881  0.15736379  1
  Ca2+  Ca37  1  0.41683745  0.16870704  0.49946478  1
  Ca2+  Ca38  1  0.40425695  0.17515556  0.82882028  1
  Ca2+  Ca39  1  0.41532664  0.66759309  0.15924843  1
  Ca2+  Ca40  1  0.41267189  0.66966799  0.49559456  1
  Ca2+  Ca41  1  0.40388875  0.67787568  0.82943162  1
  Ca2+  Ca42  1  0.92106732  0.17674859  0.15509034  1
  Ca2+  Ca43  1  0.92201701  0.17773712  0.49566038  1
  Ca2+  Ca44  1  0.92659897  0.16844707  0.82876814  1
  Ca2+  Ca45  1  0.92261537  0.66386136  0.15717269  1
  Ca2+  Ca46  1  0.91591675  0.66381236  0.49519006  1
  Ca2+  Ca47  1  0.92360447  0.65878942  0.83210709  1
  Al0+  Al48  1  -0.00248375  -0.00155633  0.00602291  1
  Al0+  Al49  1  -0.00120197  0.00093064  0.33851053  1
  Al0+  Al50  1  -0.00179292  -0.00270889  0.66599597  1
  Al0+  Al51  1  0.00177228  0.50146833  -0.00415502  1
  Al0+  Al52  1  0.00172391  0.50210807  0.33405351  1
  Al0+  Al53  1  0.00252718  0.50138258  0.66598525  1
  Al0+  Al54  1  0.49990178  -0.00184535  0.00007547  1
  Al0+  Al55  1  0.49983360  0.00012166  0.32833889  1
  Al0+  Al56  1  0.49793442  -0.00245756  0.66407109  1
  Al0+  Al57  1  0.50400821  0.49952446  0.00117608  1
  Al0+  Al58  1  0.50319879  0.50104017  0.33430247  1
  Al0+  Al59  1  0.50505097  0.50017075  0.66783037  1
  Al0+  Al60  1  0.24890726  0.24978788  -0.00257013  1
  Al0+  Al61  1  0.24818751  0.25000230  0.33360052  1
  Al0+  Al62  1  0.24936991  0.25091844  0.65619463  1
  Al0+  Al63  1  0.25050496  0.74895651  -0.00076706  1
  Al0+  Al64  1  0.24851349  0.75091972  0.34097578  1
  Al0+  Al65  1  0.24953522  0.74920897  0.66648218  1
  Al0+  Al66  1  0.74783279  0.25128355  0.00101754  1
  Al0+  Al67  1  0.74906662  0.25227065  0.32640580  1
  Al0+  Al68  1  0.74926452  0.25152859  0.66399395  1
  Al0+  Al69  1  0.74994011  0.74841239  0.00357258  1
  Al0+  Al70  1  0.74904103  0.75186807  0.33252275  1
  Al0+  Al71  1  0.75125299  0.74965911  0.67264565  1
  Al0+  Al72  1  0.93180298  0.32229646  0.31856785  1
  Al0+  Al73  1  0.32171537  0.07381408  0.01551051  1
  Al0+  Al74  1  0.81932269  0.07145733  0.01343522  1
  Al0+  Al75  1  0.42783511  0.81908822  0.65096989  1
  Al0+  Al76  1  0.32217435  0.56952189  0.01268280  1
  Al0+  Al77  1  0.42912265  0.32297018  0.65330289  1
  Al0+  Al78  1  0.32177310  0.07277021  0.67992848  1
  Al0+  Al79  1  0.07035285  0.17559515  0.98611350  1
  Al0+  Al80  1  0.17920747  0.92853638  0.01540979  1
  Al0+  Al81  1  0.57215435  0.67919062  0.31952673  1
  Al0+  Al82  1  0.32319971  0.56839432  0.68076351  1
  Al0+  Al83  1  0.92758418  0.32171699  0.98438296  1
  Al0+  Al84  1  0.07095346  0.68076219  0.98629957  1
  Al0+  Al85  1  0.82236137  0.57006400  0.68163803  1
  Al0+  Al86  1  0.92905048  0.32197924  0.65078697  1
  Al0+  Al87  1  0.17694642  0.92935490  0.68381862  1
  Al0+  Al88  1  0.82270711  0.56888006  0.01459017  1
  Al0+  Al89  1  0.32214772  0.56879407  0.34678822  1
  Al0+  Al90  1  0.82137479  0.57150806  0.34704814  1
  Al0+  Al91  1  0.42907259  0.32118565  0.98846377  1
  Al0+  Al92  1  0.17927293  0.93130969  0.34857723  1
  Al0+  Al93  1  0.42943771  0.81920708  0.98645283  1
  Al0+  Al94  1  0.07110884  0.17527061  0.64945156  1
  Al0+  Al95  1  0.56896116  0.17874605  0.31892560  1
  Si0+  Si96  1  0.67792147  0.92970344  0.34822253  1
  Si0+  Si97  1  0.67691075  0.92710619  0.01791340  1
  Si0+  Si98  1  0.92622834  0.81969692  0.65193628  1
  Si0+  Si99  1  0.92712023  0.82330571  0.31924797  1
  Si0+  Si100  1  0.57428367  0.67719028  0.98200910  1
  Si0+  Si101  1  0.81834189  0.07165873  0.67900347  1
  Si0+  Si102  1  0.67795797  0.42815341  0.01944366  1
  Si0+  Si103  1  0.17836095  0.42790423  0.01482702  1
  Si0+  Si104  1  0.42617847  0.81958361  0.31605641  1
  Si0+  Si105  1  0.92540613  0.82140835  0.98422927  1
  Si0+  Si106  1  0.67933462  0.42729446  0.35157247  1
  Si0+  Si107  1  0.67827549  0.92805109  0.68063124  1
  Si0+  Si108  1  0.67955885  0.42564547  0.68524641  1
  Si0+  Si109  1  0.81836736  0.07283896  0.34910333  1
  Si0+  Si110  1  0.32413358  0.07348968  0.34952856  1
  Si0+  Si111  1  0.07076658  0.68020425  0.64941190  1
  Si0+  Si112  1  0.57082956  0.17707849  0.98331559  1
  Si0+  Si113  1  0.57187165  0.17670646  0.65174463  1
  Si0+  Si114  1  0.42675302  0.32308111  0.31769856  1
  Si0+  Si115  1  0.07039856  0.68224309  0.31958239  1
  Si0+  Si116  1  0.17840383  0.42813936  0.68239690  1
  Si0+  Si117  1  0.07099166  0.17549699  0.31586339  1
  Si0+  Si118  1  0.17741657  0.42735191  0.34974349  1
  Si0+  Si119  1  0.57514083  0.67993209  0.65142957  1
  O2-  O120  1  0.24891691  0.00269585  0.06574786  1
  O2-  O121  1  0.25327813  0.00715793  0.39346553  1
  O2-  O122  1  0.24622029  0.00511799  0.73069959  1
  O2-  O123  1  0.25073063  0.49240728  0.06029681  1
  O2-  O124  1  0.25266788  0.48924889  0.39370824  1
  O2-  O125  1  0.25379559  0.48895727  0.72725114  1
  O2-  O126  1  0.74498685  -0.00346509  0.06203639  1
  O2-  O127  1  0.74692312  0.00221680  0.39214761  1
  O2-  O128  1  0.74473329  0.00356462  0.72179709  1
  O2-  O129  1  0.75066653  0.49302555  0.06290342  1
  O2-  O130  1  0.74754463  0.49688017  0.39545624  1
  O2-  O131  1  0.75165229  0.49179492  0.72768837  1
  O2-  O132  1  0.00672549  0.24811785  0.27205856  1
  O2-  O133  1  -0.00047346  0.24885938  0.60026896  1
  O2-  O134  1  -0.00334089  0.24632128  0.93638754  1
  O2-  O135  1  -0.00167710  0.75260054  0.27770785  1
  O2-  O136  1  -0.00162055  0.75083701  0.60828157  1
  O2-  O137  1  -0.00476563  0.75490960  0.93920893  1
  O2-  O138  1  0.49048200  0.24986543  0.27347504  1
  O2-  O139  1  0.50062096  0.24346514  0.60871318  1
  O2-  O140  1  0.49809988  0.24128776  0.94017460  1
  O2-  O141  1  0.49350170  0.74924726  0.27226341  1
  O2-  O142  1  0.50154413  0.74229285  0.60555142  1
  O2-  O143  1  0.50362389  0.74368416  0.93849167  1
  O2-  O144  1  0.06810251  0.17793009  0.10022010  1
  O2-  O145  1  0.06704892  0.17322113  0.42117032  1
  O2-  O146  1  0.06718784  0.17323999  0.76266138  1
  O2-  O147  1  0.07051679  0.68129023  0.10006728  1
  O2-  O148  1  0.06969977  0.68270020  0.42485702  1
  O2-  O149  1  0.07041261  0.67979248  0.75430111  1
  O2-  O150  1  0.57194388  0.17934934  0.08906057  1
  O2-  O151  1  0.56965137  0.17947713  0.43224937  1
  O2-  O152  1  0.57726876  0.17690857  0.75675296  1
  O2-  O153  1  0.57537796  0.67941353  0.08790444  1
  O2-  O154  1  0.57500685  0.68408861  0.43260380  1
  O2-  O155  1  0.57907982  0.68484379  0.75659503  1
  O2-  O156  1  0.17545157  0.42986686  0.24432933  1
  O2-  O157  1  0.17574342  0.43483613  0.57647026  1
  O2-  O158  1  0.17799416  0.43049047  0.90937499  1
  O2-  O159  1  0.17947785  0.92869642  0.23610767  1
  O2-  O160  1  0.17861794  0.92915946  0.56970081  1
  O2-  O161  1  0.18140333  0.92781390  0.90247427  1
  O2-  O162  1  0.67895894  0.42756545  0.24621490  1
  O2-  O163  1  0.67798551  0.42518572  0.57966421  1
  O2-  O164  1  0.67490699  0.43046739  0.91395987  1
  O2-  O165  1  0.68015033  0.92899044  0.24352169  1
  O2-  O166  1  0.68141667  0.92624639  0.57516234  1
  O2-  O167  1  0.67796882  0.92783179  0.91192219  1
  O2-  O168  1  0.43397060  0.32334205  0.10172039  1
  O2-  O169  1  0.43034259  0.32374975  0.42326399  1
  O2-  O170  1  0.43347421  0.32537044  0.76610242  1
  O2-  O171  1  0.43122942  0.81669695  0.09999448  1
  O2-  O172  1  0.42823502  0.81946815  0.42183032  1
  O2-  O173  1  0.42995267  0.81980097  0.76375172  1
  O2-  O174  1  0.93070542  0.32211537  0.09838806  1
  O2-  O175  1  0.93228304  0.32101413  0.43160633  1
  O2-  O176  1  0.92964670  0.31958374  0.76369657  1
  O2-  O177  1  0.92352910  0.81932338  0.09023743  1
  O2-  O178  1  0.92521182  0.82320467  0.42460472  1
  O2-  O179  1  0.92133708  0.81947456  0.75642229  1
  O2-  O180  1  0.32497991  0.07319595  0.24425974  1
  O2-  O181  1  0.32446299  0.06750390  0.56581888  1
  O2-  O182  1  0.32271621  0.07297680  0.90243128  1
  O2-  O183  1  0.31976523  0.57037004  0.23372165  1
  O2-  O184  1  0.32056631  0.56929179  0.56714182  1
  O2-  O185  1  0.32014540  0.56949017  0.89975184  1
  O2-  O186  1  0.81845231  0.07025850  0.24425146  1
  O2-  O187  1  0.81626851  0.06980571  0.57347316  1
  O2-  O188  1  0.81659422  0.06891886  0.89975086  1
  O2-  O189  1  0.82180865  0.57150204  0.23433064  1
  O2-  O190  1  0.81941432  0.57307025  0.56825342  1
  O2-  O191  1  0.82040245  0.56960363  0.90148725  1
  O2-  O192  1  0.03980859  0.08321372  0.27030658  1
  O2-  O193  1  0.03790029  0.07727264  0.59668097  1
  O2-  O194  1  0.03957408  0.07662819  0.93592923  1
  O2-  O195  1  0.04437399  0.59051558  0.27213027  1
  O2-  O196  1  0.04303065  0.58923941  0.60053544  1
  O2-  O197  1  0.04045407  0.58594277  0.92945985  1
  O2-  O198  1  0.54483389  0.08091623  0.26325806  1
  O2-  O199  1  0.54927849  0.08268899  0.60446925  1
  O2-  O200  1  0.55379770  0.08098682  0.93984748  1
  O2-  O201  1  0.54790353  0.58056823  0.26689850  1
  O2-  O202  1  0.55768489  0.58387968  0.60813252  1
  O2-  O203  1  0.55307006  0.58252093  0.93796546  1
  O2-  O204  1  0.16743160  0.19565366  0.27345067  1
  O2-  O205  1  0.16826483  0.20204656  0.59307934  1
  O2-  O206  1  0.16794364  0.20393902  0.93254215  1
  O2-  O207  1  0.16212584  0.71226749  0.27315811  1
  O2-  O208  1  0.16115802  0.70940188  0.60016411  1
  O2-  O209  1  0.16634633  0.71132495  0.93072648  1
  O2-  O210  1  0.66394750  0.21181799  0.26282714  1
  O2-  O211  1  0.66366327  0.20518764  0.60211525  1
  O2-  O212  1  0.66248975  0.20743635  0.93582437  1
  O2-  O213  1  0.66662130  0.71527522  0.26376825  1
  O2-  O214  1  0.66655015  0.71311186  0.60390618  1
  O2-  O215  1  0.66744667  0.70556795  0.93612805  1
  O2-  O216  1  0.08738744  0.46030830  0.06241816  1
  O2-  O217  1  0.08819025  0.46217099  0.39915461  1
  O2-  O218  1  0.08857650  0.46154875  0.73073785  1
  O2-  O219  1  0.07905806  0.95049966  0.06861049  1
  O2-  O220  1  0.08103526  0.95871409  0.40290678  1
  O2-  O221  1  0.07502545  0.94987473  0.73341322  1
  O2-  O222  1  0.58750135  0.45836085  0.06954488  1
  O2-  O223  1  0.58587155  0.45204018  0.39850579  1
  O2-  O224  1  0.58874390  0.45593732  0.73420110  1
  O2-  O225  1  0.58409555  0.95154369  0.06522328  1
  O2-  O226  1  0.58514045  0.95622525  0.39488836  1
  O2-  O227  1  0.58540045  0.95201496  0.72646784  1
  O2-  O228  1  0.19823911  0.33342827  0.06075026  1
  O2-  O229  1  0.19384355  0.33081624  0.39411136  1
  O2-  O230  1  0.19515193  0.33058073  0.72115545  1
  O2-  O231  1  0.21274934  0.83135031  0.06872966  1
  O2-  O232  1  0.20933049  0.83554187  0.40499789  1
  O2-  O233  1  0.20846678  0.83074273  0.73285685  1
  O2-  O234  1  0.69760577  0.33301698  0.06459001  1
  O2-  O235  1  0.70562884  0.33338017  0.39691905  1
  O2-  O236  1  0.70113383  0.33103700  0.73140249  1
  O2-  O237  1  0.70332904  0.83397158  0.06459139  1
  O2-  O238  1  0.70893056  0.84007091  0.39818448  1
  O2-  O239  1  0.71150066  0.84032838  0.73174217  1
  O2-  O240  1  0.45795919  0.41500615  0.27158185  1
  O2-  O241  1  0.46750769  0.41768278  0.59813713  1
  O2-  O242  1  0.46690279  0.41581449  0.93387411  1
  O2-  O243  1  0.45379260  0.91256053  0.27054704  1
  O2-  O244  1  0.46170383  0.91413234  0.59488607  1
  O2-  O245  1  0.46247586  0.91523732  0.93194973  1
  O2-  O246  1  0.96370960  0.41966001  0.26636884  1
  O2-  O247  1  0.96104054  0.42042630  0.59847667  1
  O2-  O248  1  0.95926372  0.41866915  0.93192811  1
  O2-  O249  1  0.95437363  0.91614449  0.27347142  1
  O2-  O250  1  0.95055726  0.91138422  0.60220397  1
  O2-  O251  1  0.94699743  0.91640337  0.94061036  1
  O2-  O252  1  0.33020846  0.30480916  0.27473870  1
  O2-  O253  1  0.33267361  0.30106842  0.59510502  1
  O2-  O254  1  0.33120328  0.29834492  0.93448174  1
  O2-  O255  1  0.33187916  0.79286372  0.27295839  1
  O2-  O256  1  0.33200180  0.78679350  0.59640806  1
  O2-  O257  1  0.33457057  0.78697332  0.93198763  1
  O2-  O258  1  0.83495971  0.29284953  0.26544118  1
  O2-  O259  1  0.82945342  0.29535922  0.59816723  1
  O2-  O260  1  0.82639051  0.29821568  0.93564828  1
  O2-  O261  1  0.83572034  0.79785622  0.27088945  1
  O2-  O262  1  0.83514339  0.78989354  0.60266701  1
  O2-  O263  1  0.83159894  0.79576723  0.93801996  1
  O2-  O264  1  0.42100901  0.04346538  0.06708205  1
  O2-  O265  1  0.41805478  0.04611676  0.39441854  1
  O2-  O266  1  0.42026496  0.04217992  0.73208297  1
  O2-  O267  1  0.42031635  0.54168168  0.06556037  1
  O2-  O268  1  0.42062193  0.54322125  0.40025778  1
  O2-  O269  1  0.42278494  0.54512940  0.73165433  1
  O2-  O270  1  0.91285471  0.03946259  0.07224065  1
  O2-  O271  1  0.90878408  0.04362640  0.39814871  1
  O2-  O272  1  0.90794596  0.03911148  0.72623327  1
  O2-  O273  1  0.92086223  0.54094726  0.06690131  1
  O2-  O274  1  0.91880018  0.54261569  0.40077784  1
  O2-  O275  1  0.92082922  0.54299140  0.73282362  1
  O2-  O276  1  0.29578547  0.17323845  0.06832876  1
  O2-  O277  1  0.30222760  0.16910817  0.39409508  1
  O2-  O278  1  0.29982522  0.17596178  0.72452291  1
  O2-  O279  1  0.28749042  0.66395911  0.06753609  1
  O2-  O280  1  0.28621559  0.66313121  0.40220872  1
  O2-  O281  1  0.28544692  0.66332331  0.73219377  1
  O2-  O282  1  0.78681485  0.16740380  0.06801739  1
  O2-  O283  1  0.78852331  0.16476295  0.39456969  1
  O2-  O284  1  0.79222561  0.16375405  0.72600234  1
  O2-  O285  1  0.79171973  0.66597505  0.06849005  1
  O2-  O286  1  0.79030581  0.66958948  0.39944540  1
  O2-  O287  1  0.78947395  0.66546885  0.73699101  1
