# generated using pymatgen
data_Ca2Al2SiO7
_symmetry_space_group_name_H-M   'P 1'
_cell_length_a   15.46080279
_cell_length_b   15.46138031
_cell_length_c   15.28661008
_cell_angle_alpha   90.00947410
_cell_angle_beta   90.00448526
_cell_angle_gamma   89.99999506
_symmetry_Int_Tables_number   1
_chemical_formula_structural   Ca2Al2SiO7
_chemical_formula_sum   'Ca48 Al48 Si24 O168'
_cell_volume   3654.19302475
_cell_formula_units_Z   24
loop_
 _symmetry_equiv_pos_site_id
 _symmetry_equiv_pos_as_xyz
  1  'x, y, z'
loop_
 _atom_type_symbol
 _atom_type_oxidation_number
  Ca2+  2.0
  Al0+  0.0
  Si0+  0.0
  O2-  -2.0
loop_
 _atom_site_type_symbol
 _atom_site_label
 _atom_site_symmetry_multiplicity
 _atom_site_fract_x
 _atom_site_fract_y
 _atom_site_fract_z
 _atom_site_occupancy
  Ca2+  Ca0  1  0.16469681  0.06673960  0.17100605  1
  Ca2+  Ca1  1  0.16394098  0.07766592  0.50365957  1
  Ca2+  Ca2  1  0.16084511  0.07812130  0.83731213  1
  Ca2+  Ca3  1  0.16310042  0.58655176  0.16749832  1
  Ca2+  Ca4  1  0.17081244  0.58373011  0.50997761  1
  Ca2+  Ca5  1  0.17301739  0.58510352  0.83732084  1
  Ca2+  Ca6  1  0.67530646  0.07637056  0.17147531  1
  Ca2+  Ca7  1  0.66992999  0.07384791  0.51049060  1
  Ca2+  Ca8  1  0.67555277  0.08201912  0.83295371  1
  Ca2+  Ca9  1  0.67429808  0.58145549  0.17056745  1
  Ca2+  Ca10  1  0.67575686  0.58368585  0.50488335  1
  Ca2+  Ca11  1  0.66614208  0.57122601  0.83553128  1
  Ca2+  Ca12  1  0.08239676  0.33275974  0.16073670  1
  Ca2+  Ca13  1  0.09340691  0.32620304  0.50083550  1
  Ca2+  Ca14  1  0.08998871  0.32884745  0.82466141  1
  Ca2+  Ca15  1  0.07990250  0.82649901  0.15967425  1
  Ca2+  Ca16  1  0.07339630  0.82408507  0.49317402  1
  Ca2+  Ca17  1  0.07785230  0.82727524  0.82984376  1
  Ca2+  Ca18  1  0.57786313  0.33913718  0.16162385  1
  Ca2+  Ca19  1  0.57677965  0.33513233  0.50083240  1
  Ca2+  Ca20  1  0.58144001  0.33244696  0.82088419  1
  Ca2+  Ca21  1  0.58024471  0.83706092  0.16849534  1
  Ca2+  Ca22  1  0.57984654  0.84064310  0.49268049  1
  Ca2+  Ca23  1  0.58105606  0.83378658  0.82638801  1
  Ca2+  Ca24  1  0.32853463  0.42176766  0.16721078  1
  Ca2+  Ca25  1  0.33283233  0.42018785  0.51088445  1
  Ca2+  Ca26  1  0.32438483  0.42336737  0.83480222  1
  Ca2+  Ca27  1  0.32116076  0.90845558  0.17261861  1
  Ca2+  Ca28  1  0.32628660  0.90856944  0.50064163  1
  Ca2+  Ca29  1  0.32426997  0.91965133  0.83992367  1
  Ca2+  Ca30  1  0.82877215  0.42385485  0.17168806  1
  Ca2+  Ca31  1  0.83031311  0.42515059  0.50541584  1
  Ca2+  Ca32  1  0.82039337  0.40933963  0.83685660  1
  Ca2+  Ca33  1  0.83667470  0.91585087  0.17281829  1
  Ca2+  Ca34  1  0.82753171  0.91316964  0.50787815  1
  Ca2+  Ca35  1  0.84391482  0.92486939  0.83308861  1
  Ca2+  Ca36  1  0.41733777  0.17294902  0.16503081  1
  Ca2+  Ca37  1  0.42125326  0.17872645  0.49712324  1
  Ca2+  Ca38  1  0.42485565  0.17609653  0.81946312  1
  Ca2+  Ca39  1  0.41367890  0.66950126  0.16459338  1
  Ca2+  Ca40  1  0.41890808  0.66805625  0.49718383  1
  Ca2+  Ca41  1  0.41247728  0.66071192  0.83085858  1
  Ca2+  Ca42  1  0.91482762  0.16498783  0.16104540  1
  Ca2+  Ca43  1  0.91712404  0.16467991  0.50604308  1
  Ca2+  Ca44  1  0.91789707  0.16326825  0.82574005  1
  Ca2+  Ca45  1  0.92334967  0.67581293  0.16149978  1
  Ca2+  Ca46  1  0.92371289  0.67163717  0.49146899  1
  Ca2+  Ca47  1  0.92792649  0.67634377  0.82565758  1
  Al0+  Al48  1  -0.00015017  0.00155793  0.00575158  1
  Al0+  Al49  1  0.00110000  0.00006693  0.33634251  1
  Al0+  Al50  1  -0.00103204  0.00040565  0.66082837  1
  Al0+  Al51  1  -0.00153741  0.49962552  -0.00263447  1
  Al0+  Al52  1  -0.00009453  0.49755683  0.33460918  1
  Al0+  Al53  1  0.00095983  0.49940825  0.66754339  1
  Al0+  Al54  1  0.50167356  0.00160126  -0.00104831  1
  Al0+  Al55  1  0.50010461  0.00236797  0.33024775  1
  Al0+  Al56  1  0.49986603  0.00065998  0.66651811  1
  Al0+  Al57  1  0.49824891  0.50043356  0.00715412  1
  Al0+  Al58  1  0.49830396  0.49871557  0.32787370  1
  Al0+  Al59  1  0.49981217  0.50251272  0.66910194  1
  Al0+  Al60  1  0.25107039  0.25199892  0.00222657  1
  Al0+  Al61  1  0.25130648  0.24947091  0.32644410  1
  Al0+  Al62  1  0.25086448  0.24970276  0.66099942  1
  Al0+  Al63  1  0.25088553  0.75048916  0.00298873  1
  Al0+  Al64  1  0.25075504  0.74831991  0.33232683  1
  Al0+  Al65  1  0.24998540  0.75007853  0.66831126  1
  Al0+  Al66  1  0.74887962  0.24775718  0.00938835  1
  Al0+  Al67  1  0.74969087  0.24906095  0.33410929  1
  Al0+  Al68  1  0.75084247  0.24775796  0.66739651  1
  Al0+  Al69  1  0.74728305  0.75109059  -0.00647795  1
  Al0+  Al70  1  0.75067320  0.74943730  0.33731198  1
  Al0+  Al71  1  0.74788941  0.75005602  0.66938217  1
  Al0+  Al72  1  0.68149767  0.43064074  0.67751362  1
  Al0+  Al73  1  0.67945597  0.93026447  0.34610916  1
  Al0+  Al74  1  0.67937959  0.42887169  0.01464427  1
  Al0+  Al75  1  0.43058020  0.32299221  0.65251757  1
  Al0+  Al76  1  0.82161627  0.56983065  0.34615472  1
  Al0+  Al77  1  0.17995515  0.92695713  0.34935271  1
  Al0+  Al78  1  0.92847303  0.82042718  0.65003944  1
  Al0+  Al79  1  0.18046221  0.93117010  0.01258676  1
  Al0+  Al80  1  0.17828897  0.42648061  0.67952864  1
  Al0+  Al81  1  0.82117700  0.06854173  0.68163938  1
  Al0+  Al82  1  0.17613427  0.42754769  0.01604807  1
  Al0+  Al83  1  0.67585929  0.92709987  0.68339272  1
  Al0+  Al84  1  0.07234595  0.67786737  0.98284096  1
  Al0+  Al85  1  0.32037206  0.57267752  0.68108168  1
  Al0+  Al86  1  0.81996316  0.06813443  0.01496311  1
  Al0+  Al87  1  0.07284520  0.67766078  0.65100018  1
  Al0+  Al88  1  0.57340190  0.17802178  0.65097858  1
  Al0+  Al89  1  0.92783573  0.82384570  0.98382971  1
  Al0+  Al90  1  0.42989625  0.82183183  0.32034002  1
  Al0+  Al91  1  0.07133290  0.67638765  0.31761840  1
  Al0+  Al92  1  0.31916151  0.57088979  0.01835046  1
  Al0+  Al93  1  0.07155912  0.17980915  0.65348070  1
  Al0+  Al94  1  0.42938391  0.32134707  0.31583478  1
  Al0+  Al95  1  0.92790283  0.82120913  0.31828788  1
  Si0+  Si96  1  0.57160223  0.18005155  0.98484255  1
  Si0+  Si97  1  0.67655893  0.42801307  0.35019248  1
  Si0+  Si98  1  0.67496705  0.92675231  0.01727841  1
  Si0+  Si99  1  0.82381929  0.57337304  0.68501034  1
  Si0+  Si100  1  0.56936254  0.67778035  0.98468515  1
  Si0+  Si101  1  0.07132047  0.17912042  0.31654754  1
  Si0+  Si102  1  0.92793606  0.31963224  0.31878145  1
  Si0+  Si103  1  0.17963402  0.93059514  0.68056872  1
  Si0+  Si104  1  0.32065679  0.07328430  0.34964190  1
  Si0+  Si105  1  0.57005011  0.67885865  0.65307746  1
  Si0+  Si106  1  0.32119173  0.56968559  0.34899640  1
  Si0+  Si107  1  0.57294686  0.17878240  0.31382645  1
  Si0+  Si108  1  0.07079865  0.18119377  0.98753733  1
  Si0+  Si109  1  0.82354098  0.07379348  0.35281633  1
  Si0+  Si110  1  0.42980731  0.32174620  0.98345948  1
  Si0+  Si111  1  0.92647518  0.32247543  0.65125698  1
  Si0+  Si112  1  0.32118284  0.07161554  0.67951622  1
  Si0+  Si113  1  0.42956716  0.82215715  0.98504002  1
  Si0+  Si114  1  0.82059391  0.57379453  0.01426874  1
  Si0+  Si115  1  0.17953111  0.42686753  0.34807281  1
  Si0+  Si116  1  0.42895624  0.82245533  0.65353857  1
  Si0+  Si117  1  0.92624330  0.32001073  0.98716473  1
  Si0+  Si118  1  0.32516226  0.07311844  0.01572613  1
  Si0+  Si119  1  0.57227963  0.67764456  0.31687805  1
  O2-  O120  1  0.25745009  0.00408750  0.05998821  1
  O2-  O121  1  0.25626355  0.00143531  0.39536457  1
  O2-  O122  1  0.24950071  0.00257486  0.72360999  1
  O2-  O123  1  0.24368088  0.50234940  0.06853131  1
  O2-  O124  1  0.24878865  0.49956553  0.38983487  1
  O2-  O125  1  0.24591522  0.50231786  0.72938459  1
  O2-  O126  1  0.74888168  -0.01023366  0.06078031  1
  O2-  O127  1  0.75616364  0.00244303  0.39333566  1
  O2-  O128  1  0.75043358  -0.00386289  0.73328420  1
  O2-  O129  1  0.75401430  0.50354785  0.06057256  1
  O2-  O130  1  0.74512769  0.49645590  0.39355836  1
  O2-  O131  1  0.75857379  0.50057282  0.72834962  1
  O2-  O132  1  -0.00285711  0.24730895  0.27524379  1
  O2-  O133  1  0.00046986  0.25873320  0.60721637  1
  O2-  O134  1  0.00317530  0.25530319  0.94537150  1
  O2-  O135  1  0.00141021  0.75090151  0.26829663  1
  O2-  O136  1  -0.00298006  0.74495264  0.60083864  1
  O2-  O137  1  -0.00138088  0.74975602  0.93527813  1
  O2-  O138  1  0.50689250  0.24956841  0.26828536  1
  O2-  O139  1  0.50312592  0.25185654  0.60153555  1
  O2-  O140  1  0.50016758  0.25002826  0.94198182  1
  O2-  O141  1  0.50560694  0.74846629  0.27260490  1
  O2-  O142  1  0.50292862  0.75417949  0.61184957  1
  O2-  O143  1  0.49993315  0.75090764  0.94258345  1
  O2-  O144  1  0.06894693  0.18110374  0.09293295  1
  O2-  O145  1  0.07430844  0.18129881  0.42142967  1
  O2-  O146  1  0.07118522  0.17817474  0.76696516  1
  O2-  O147  1  0.07030902  0.67952590  0.09644939  1
  O2-  O148  1  0.07111915  0.67569666  0.43092873  1
  O2-  O149  1  0.07520140  0.68235372  0.76434421  1
  O2-  O150  1  0.56949647  0.17977407  0.09008204  1
  O2-  O151  1  0.57204194  0.17903315  0.41889592  1
  O2-  O152  1  0.57034987  0.17919716  0.76528490  1
  O2-  O153  1  0.57037466  0.67859308  0.08980205  1
  O2-  O154  1  0.56981553  0.67426416  0.42251524  1
  O2-  O155  1  0.56757529  0.67679499  0.75830347  1
  O2-  O156  1  0.17997679  0.42551886  0.24314973  1
  O2-  O157  1  0.18347495  0.42481869  0.56542388  1
  O2-  O158  1  0.18207340  0.41949468  0.90370702  1
  O2-  O159  1  0.18127741  0.92997189  0.23610370  1
  O2-  O160  1  0.18304338  0.93059644  0.57550376  1
  O2-  O161  1  0.18202698  0.93497953  0.89900183  1
  O2-  O162  1  0.67819860  0.42842019  0.24430453  1
  O2-  O163  1  0.68188421  0.43477166  0.56430966  1
  O2-  O164  1  0.67922419  0.42786169  0.90154226  1
  O2-  O165  1  0.67885998  0.93308001  0.23262939  1
  O2-  O166  1  0.67360780  0.92957820  0.56980079  1
  O2-  O167  1  0.66719605  0.93110961  0.91273808  1
  O2-  O168  1  0.43059451  0.31942891  0.08889430  1
  O2-  O169  1  0.42924909  0.32137363  0.42837261  1
  O2-  O170  1  0.43148675  0.32060085  0.76650114  1
  O2-  O171  1  0.43166969  0.82332658  0.09005357  1
  O2-  O172  1  0.43061348  0.81925401  0.43369402  1
  O2-  O173  1  0.42811081  0.82320773  0.75888293  1
  O2-  O174  1  0.92509989  0.31684269  0.09273518  1
  O2-  O175  1  0.92762326  0.31979384  0.42351197  1
  O2-  O176  1  0.92329134  0.31867746  0.75694803  1
  O2-  O177  1  0.92798805  0.82284299  0.09737981  1
  O2-  O178  1  0.92760489  0.81931098  0.43149036  1
  O2-  O179  1  0.93334148  0.82222446  0.76365355  1
  O2-  O180  1  0.31725016  0.07497562  0.24374432  1
  O2-  O181  1  0.32118895  0.06985981  0.57450129  1
  O2-  O182  1  0.32609450  0.07248456  0.90992193  1
  O2-  O183  1  0.32269017  0.56856985  0.24426014  1
  O2-  O184  1  0.32292840  0.57335052  0.56708348  1
  O2-  O185  1  0.32257057  0.56819422  0.90530042  1
  O2-  O186  1  0.82204835  0.07668953  0.24692164  1
  O2-  O187  1  0.82062302  0.06842265  0.56819858  1
  O2-  O188  1  0.81944765  0.07248512  0.90273746  1
  O2-  O189  1  0.81903301  0.56640683  0.23281544  1
  O2-  O190  1  0.82045180  0.57283446  0.57909751  1
  O2-  O191  1  0.81706904  0.57144438  0.90892270  1
  O2-  O192  1  0.04496431  0.08652432  0.27036993  1
  O2-  O193  1  0.03830453  0.08610004  0.59548866  1
  O2-  O194  1  0.04023237  0.09049539  0.94057227  1
  O2-  O195  1  0.04186336  0.57691294  0.26641376  1
  O2-  O196  1  0.05084955  0.57600024  0.60150051  1
  O2-  O197  1  0.04648984  0.57772805  0.93140072  1
  O2-  O198  1  0.54461694  0.08729031  0.26474353  1
  O2-  O199  1  0.54047098  0.08083004  0.59808399  1
  O2-  O200  1  0.54529308  0.08787158  0.93716205  1
  O2-  O201  1  0.54425852  0.58559042  0.26829793  1
  O2-  O202  1  0.53872464  0.59030469  0.60186060  1
  O2-  O203  1  0.53811555  0.58607292  0.93855401  1
  O2-  O204  1  0.16094853  0.20913550  0.26637025  1
  O2-  O205  1  0.16746236  0.20680163  0.59538651  1
  O2-  O206  1  0.16475871  0.20413409  0.94135017  1
  O2-  O207  1  0.17089419  0.70293263  0.26671846  1
  O2-  O208  1  0.17079246  0.71050146  0.59877693  1
  O2-  O209  1  0.17187960  0.70922975  0.93359971  1
  O2-  O210  1  0.66798825  0.20261157  0.26871045  1
  O2-  O211  1  0.67178539  0.20463369  0.59811706  1
  O2-  O212  1  0.66386225  0.20962457  0.94026721  1
  O2-  O213  1  0.66590351  0.70224864  0.27126012  1
  O2-  O214  1  0.66318533  0.70122639  0.60604875  1
  O2-  O215  1  0.66026258  0.70198762  0.93395572  1
  O2-  O216  1  0.07390634  0.44852855  0.06544685  1
  O2-  O217  1  0.08622744  0.44825449  0.39457517  1
  O2-  O218  1  0.07673721  0.44454549  0.73033144  1
  O2-  O219  1  0.08702928  0.96563395  0.06948176  1
  O2-  O220  1  0.08466178  0.96139200  0.40327671  1
  O2-  O221  1  0.08826612  0.96064210  0.72572443  1
  O2-  O222  1  0.58441138  0.46128197  0.06996426  1
  O2-  O223  1  0.58191145  0.45396137  0.39298651  1
  O2-  O224  1  0.58685998  0.46495818  0.73294618  1
  O2-  O225  1  0.58368248  0.95870038  0.06634054  1
  O2-  O226  1  0.58181328  0.96268950  0.39800874  1
  O2-  O227  1  0.57737743  0.95758061  0.73657450  1
  O2-  O228  1  0.20867778  0.33002258  0.07164770  1
  O2-  O229  1  0.21103844  0.33469060  0.39283680  1
  O2-  O230  1  0.21014411  0.32809618  0.73176872  1
  O2-  O231  1  0.21221837  0.83602042  0.06735746  1
  O2-  O232  1  0.21344161  0.83096000  0.40266097  1
  O2-  O233  1  0.21049255  0.84079213  0.72927751  1
  O2-  O234  1  0.70966558  0.33402603  0.07197492  1
  O2-  O235  1  0.70238911  0.33379384  0.39434672  1
  O2-  O236  1  0.70938761  0.33320381  0.73137219  1
  O2-  O237  1  0.69347544  0.82991861  0.05895712  1
  O2-  O238  1  0.70286474  0.83190728  0.39952273  1
  O2-  O239  1  0.69704338  0.82649540  0.73504564  1
  O2-  O240  1  0.45873195  0.41750212  0.25953264  1
  O2-  O241  1  0.46040616  0.42136605  0.60001907  1
  O2-  O242  1  0.45935653  0.41412994  0.93977771  1
  O2-  O243  1  0.45723670  0.91911046  0.26507362  1
  O2-  O244  1  0.45311957  0.91420983  0.60472332  1
  O2-  O245  1  0.45694620  0.91465442  0.93742738  1
  O2-  O246  1  0.95740450  0.40979300  0.26943225  1
  O2-  O247  1  0.94507010  0.41811321  0.60685734  1
  O2-  O248  1  0.94380548  0.41357109  0.94004867  1
  O2-  O249  1  0.95420001  0.92253078  0.26962112  1
  O2-  O250  1  0.95884593  0.91725145  0.59601429  1
  O2-  O251  1  0.96110438  0.92286886  0.93428182  1
  O2-  O252  1  0.33472920  0.28647114  0.25936990  1
  O2-  O253  1  0.33462346  0.29126109  0.59715184  1
  O2-  O254  1  0.33751429  0.29372749  0.93754298  1
  O2-  O255  1  0.33524289  0.78756618  0.26540946  1
  O2-  O256  1  0.33846943  0.79206770  0.60541569  1
  O2-  O257  1  0.33788500  0.79584560  0.93750687  1
  O2-  O258  1  0.83524818  0.29368196  0.27069274  1
  O2-  O259  1  0.83651675  0.29118387  0.60107196  1
  O2-  O260  1  0.83577696  0.28504135  0.94110571  1
  O2-  O261  1  0.82886820  0.79179423  0.26652373  1
  O2-  O262  1  0.82650916  0.79525095  0.60293638  1
  O2-  O263  1  0.82717974  0.80063681  0.93211881  1
  O2-  O264  1  0.41882594  0.04836601  0.06248644  1
  O2-  O265  1  0.41654382  0.05319704  0.39179118  1
  O2-  O266  1  0.41137450  0.04281117  0.72932077  1
  O2-  O267  1  0.41587807  0.53931401  0.07371454  1
  O2-  O268  1  0.41381909  0.54034557  0.39467713  1
  O2-  O269  1  0.41797188  0.54396044  0.73532213  1
  O2-  O270  1  0.91670371  0.04351086  0.07160534  1
  O2-  O271  1  0.91875904  0.05339812  0.39665160  1
  O2-  O272  1  0.92099994  0.04054371  0.73359473  1
  O2-  O273  1  0.91435055  0.54925755  0.05950355  1
  O2-  O274  1  0.91590101  0.53414229  0.40214307  1
  O2-  O275  1  0.91868116  0.55213704  0.72898717  1
  O2-  O276  1  0.29947912  0.16639751  0.06187088  1
  O2-  O277  1  0.28941628  0.16559469  0.39550485  1
  O2-  O278  1  0.29449150  0.16338741  0.72674608  1
  O2-  O279  1  0.29764316  0.67147798  0.06954218  1
  O2-  O280  1  0.29654927  0.66184660  0.39639040  1
  O2-  O281  1  0.29407617  0.67140607  0.73612221  1
  O2-  O282  1  0.78536560  0.16171121  0.07382098  1
  O2-  O283  1  0.79575514  0.16725346  0.39868073  1
  O2-  O284  1  0.79441250  0.16736815  0.73487384  1
  O2-  O285  1  0.79037264  0.66674708  0.05950748  1
  O2-  O286  1  0.79027052  0.66444662  0.40268420  1
  O2-  O287  1  0.79258034  0.66419733  0.73232374  1
