# generated using pymatgen
data_Ca2Al2SiO7
_symmetry_space_group_name_H-M   'P 1'
_cell_length_a   15.46142316
_cell_length_b   15.46235714
_cell_length_c   15.28705271
_cell_angle_alpha   89.99294560
_cell_angle_beta   90.00652693
_cell_angle_gamma   89.97957250
_symmetry_Int_Tables_number   1
_chemical_formula_structural   Ca2Al2SiO7
_chemical_formula_sum   'Ca48 Al48 Si24 O168'
_cell_volume   3654.67612490
_cell_formula_units_Z   24
loop_
 _symmetry_equiv_pos_site_id
 _symmetry_equiv_pos_as_xyz
  1  'x, y, z'
loop_
 _atom_type_symbol
 _atom_type_oxidation_number
  Ca2+  2.0
  Al0+  0.0
  Si0+  0.0
  O2-  -2.0
loop_
 _atom_site_type_symbol
 _atom_site_label
 _atom_site_symmetry_multiplicity
 _atom_site_fract_x
 _atom_site_fract_y
 _atom_site_fract_z
 _atom_site_occupancy
  Ca2+  Ca0  1  0.16316805  0.08545191  0.17115394  1
  Ca2+  Ca1  1  0.16716580  0.08315609  0.50236262  1
  Ca2+  Ca2  1  0.16687744  0.08064788  0.84316866  1
  Ca2+  Ca3  1  0.17507815  0.58604946  0.17458765  1
  Ca2+  Ca4  1  0.16658299  0.58365026  0.49917461  1
  Ca2+  Ca5  1  0.17170677  0.58871779  0.84092065  1
  Ca2+  Ca6  1  0.67061089  0.07775833  0.17343733  1
  Ca2+  Ca7  1  0.65562314  0.08080453  0.50145003  1
  Ca2+  Ca8  1  0.66887046  0.08323793  0.84067339  1
  Ca2+  Ca9  1  0.66911656  0.57675828  0.17362196  1
  Ca2+  Ca10  1  0.66780265  0.58347468  0.49598294  1
  Ca2+  Ca11  1  0.67003392  0.57767223  0.84879690  1
  Ca2+  Ca12  1  0.08166764  0.32805364  0.16140780  1
  Ca2+  Ca13  1  0.08450792  0.33091692  0.48911612  1
  Ca2+  Ca14  1  0.07556579  0.33365910  0.83691644  1
  Ca2+  Ca15  1  0.07625416  0.82068620  0.15960854  1
  Ca2+  Ca16  1  0.08167147  0.82024017  0.49499331  1
  Ca2+  Ca17  1  0.07677530  0.82120421  0.83729412  1
  Ca2+  Ca18  1  0.58498817  0.33722609  0.16043579  1
  Ca2+  Ca19  1  0.58450884  0.32569868  0.49357898  1
  Ca2+  Ca20  1  0.57318580  0.33832034  0.83135979  1
  Ca2+  Ca21  1  0.58377100  0.82094608  0.16272274  1
  Ca2+  Ca22  1  0.57825434  0.83138585  0.49094067  1
  Ca2+  Ca23  1  0.57579138  0.82760389  0.83421914  1
  Ca2+  Ca24  1  0.33080402  0.42638258  0.17089862  1
  Ca2+  Ca25  1  0.33167334  0.42067557  0.49813101  1
  Ca2+  Ca26  1  0.33597152  0.42019298  0.84360213  1
  Ca2+  Ca27  1  0.33529898  0.91595672  0.16825908  1
  Ca2+  Ca28  1  0.33543335  0.91684416  0.50609556  1
  Ca2+  Ca29  1  0.33674944  0.91239279  0.83908067  1
  Ca2+  Ca30  1  0.82763764  0.42373498  0.16785470  1
  Ca2+  Ca31  1  0.82989639  0.42125265  0.49511167  1
  Ca2+  Ca32  1  0.82470579  0.41886670  0.84660398  1
  Ca2+  Ca33  1  0.83482062  0.91950616  0.16910498  1
  Ca2+  Ca34  1  0.82423119  0.91580553  0.49859541  1
  Ca2+  Ca35  1  0.83752818  0.92416099  0.84438175  1
  Ca2+  Ca36  1  0.42366005  0.17671366  0.16296374  1
  Ca2+  Ca37  1  0.42529590  0.17402940  0.49711248  1
  Ca2+  Ca38  1  0.42257646  0.18194449  0.82860983  1
  Ca2+  Ca39  1  0.42442607  0.66070947  0.15960665  1
  Ca2+  Ca40  1  0.41892796  0.67150064  0.49260752  1
  Ca2+  Ca41  1  0.41890253  0.67087657  0.83683638  1
  Ca2+  Ca42  1  0.92410087  0.17145622  0.15676928  1
  Ca2+  Ca43  1  0.92337291  0.17073050  0.49106987  1
  Ca2+  Ca44  1  0.91386102  0.17008005  0.83957898  1
  Ca2+  Ca45  1  0.92254730  0.66048795  0.15842002  1
  Ca2+  Ca46  1  0.92534243  0.66025585  0.49139218  1
  Ca2+  Ca47  1  0.92589351  0.65690137  0.83488691  1
  Al0+  Al48  1  0.00161188  -0.00242262  -0.00181304  1
  Al0+  Al49  1  0.00080134  0.00028404  0.33293291  1
  Al0+  Al50  1  -0.00060163  -0.00174544  0.66756708  1
  Al0+  Al51  1  0.00024631  0.49542462  -0.00559297  1
  Al0+  Al52  1  0.00073273  0.49886999  0.33546962  1
  Al0+  Al53  1  0.00089233  0.49849746  0.66348081  1
  Al0+  Al54  1  0.49886350  0.00014534  -0.00113103  1
  Al0+  Al55  1  0.49950984  0.00314690  0.33324508  1
  Al0+  Al56  1  0.49921254  -0.00022482  0.66406235  1
  Al0+  Al57  1  0.49858136  0.49961725  -0.00044795  1
  Al0+  Al58  1  0.49880920  0.50140560  0.34044585  1
  Al0+  Al59  1  0.49845774  0.50129129  0.66320368  1
  Al0+  Al60  1  0.25261038  0.24819084  -0.00677971  1
  Al0+  Al61  1  0.25113387  0.24970885  0.33373274  1
  Al0+  Al62  1  0.24973672  0.25044229  0.66539303  1
  Al0+  Al63  1  0.24958489  0.75118931  -0.00088556  1
  Al0+  Al64  1  0.24780367  0.75260046  0.33439905  1
  Al0+  Al65  1  0.24902093  0.74969180  0.65996848  1
  Al0+  Al66  1  0.75233026  0.24709848  0.00553798  1
  Al0+  Al67  1  0.75138335  0.24983996  0.33333345  1
  Al0+  Al68  1  0.75133946  0.25020350  0.66368656  1
  Al0+  Al69  1  0.75022561  0.75088541  -0.00520437  1
  Al0+  Al70  1  0.74820628  0.75311174  0.33966282  1
  Al0+  Al71  1  0.75165108  0.75152728  0.66970538  1
  Al0+  Al72  1  0.42634179  0.32457384  0.64874646  1
  Al0+  Al73  1  0.07082341  0.67580503  0.98683718  1
  Al0+  Al74  1  0.06836592  0.67917569  0.65086664  1
  Al0+  Al75  1  0.31812150  0.57207579  0.01211573  1
  Al0+  Al76  1  0.42882513  0.82201136  0.98727747  1
  Al0+  Al77  1  0.92740511  0.31971028  0.98536541  1
  Al0+  Al78  1  0.32075361  0.57447129  0.35024010  1
  Al0+  Al79  1  0.82314880  0.57250390  0.01270686  1
  Al0+  Al80  1  0.07213271  0.17880761  0.32056210  1
  Al0+  Al81  1  0.18004402  0.42835931  0.34681483  1
  Al0+  Al82  1  0.82213980  0.06860519  0.01479142  1
  Al0+  Al83  1  0.06979977  0.67809149  0.31863055  1
  Al0+  Al84  1  0.57191027  0.67709178  0.98671842  1
  Al0+  Al85  1  0.67800367  0.93154409  0.34703167  1
  Al0+  Al86  1  0.57175357  0.18148583  0.65289564  1
  Al0+  Al87  1  0.92721252  0.82028381  0.98639655  1
  Al0+  Al88  1  0.43090164  0.32139694  0.98885011  1
  Al0+  Al89  1  0.67749593  0.42885579  0.01374876  1
  Al0+  Al90  1  0.82114807  0.57253091  0.34787119  1
  Al0+  Al91  1  0.43055890  0.81889186  0.65233288  1
  Al0+  Al92  1  0.57024778  0.67951302  0.32102427  1
  Al0+  Al93  1  0.57200668  0.17955063  0.31769084  1
  Al0+  Al94  1  0.67776000  0.42727384  0.35002341  1
  Al0+  Al95  1  0.07228671  0.17777982  0.98425563  1
  Si0+  Si96  1  0.82355577  0.07118929  0.35088460  1
  Si0+  Si97  1  0.57294065  0.17717840  0.98605155  1
  Si0+  Si98  1  0.17763136  0.93047432  0.34983051  1
  Si0+  Si99  1  0.67746285  0.92948629  0.68357830  1
  Si0+  Si100  1  0.92736590  0.82199370  0.31877351  1
  Si0+  Si101  1  0.17928766  0.92836197  0.68258022  1
  Si0+  Si102  1  0.07039640  0.17700802  0.65227209  1
  Si0+  Si103  1  0.92734601  0.82440452  0.64798794  1
  Si0+  Si104  1  0.82192902  0.07093340  0.68152715  1
  Si0+  Si105  1  0.17902384  0.42459953  0.01370835  1
  Si0+  Si106  1  0.32192907  0.07236717  0.01515587  1
  Si0+  Si107  1  0.32049024  0.07067529  0.68277955  1
  Si0+  Si108  1  0.32081474  0.07100754  0.34951102  1
  Si0+  Si109  1  0.57524905  0.67845381  0.64968367  1
  Si0+  Si110  1  0.92977523  0.31996443  0.64973017  1
  Si0+  Si111  1  0.82244750  0.57033915  0.68166221  1
  Si0+  Si112  1  0.67957597  0.42961979  0.68043470  1
  Si0+  Si113  1  0.92833944  0.32213695  0.31590861  1
  Si0+  Si114  1  0.18039000  0.92976949  0.01594938  1
  Si0+  Si115  1  0.67508897  0.92825565  0.01596854  1
  Si0+  Si116  1  0.17799539  0.42777940  0.68327600  1
  Si0+  Si117  1  0.31933896  0.57181616  0.68205394  1
  Si0+  Si118  1  0.42698541  0.82349824  0.31745390  1
  Si0+  Si119  1  0.42896571  0.32221637  0.31683041  1
  O2-  O120  1  0.25103127  0.00165953  0.05801466  1
  O2-  O121  1  0.24979297  0.00012993  0.39274483  1
  O2-  O122  1  0.24910734  0.00021492  0.72592461  1
  O2-  O123  1  0.24131091  0.49877333  0.05752183  1
  O2-  O124  1  0.24793367  0.50257888  0.40021015  1
  O2-  O125  1  0.25164180  0.49682969  0.72403177  1
  O2-  O126  1  0.74718903  -0.00633145  0.05991623  1
  O2-  O127  1  0.75119261  0.00735668  0.39666085  1
  O2-  O128  1  0.74957154  0.00080587  0.72355690  1
  O2-  O129  1  0.74798202  0.50350406  0.06180840  1
  O2-  O130  1  0.74822092  0.50165250  0.39985759  1
  O2-  O131  1  0.74620118  0.50470530  0.72284606  1
  O2-  O132  1  -0.00187580  0.25294409  0.27454350  1
  O2-  O133  1  0.00129143  0.24850687  0.60880288  1
  O2-  O134  1  0.00004070  0.24858868  0.93334865  1
  O2-  O135  1  -0.00952275  0.74875477  0.27464354  1
  O2-  O136  1  -0.00873191  0.75170958  0.60407158  1
  O2-  O137  1  -0.00711991  0.74205884  0.93648648  1
  O2-  O138  1  0.50357776  0.26001670  0.27215359  1
  O2-  O139  1  0.50136158  0.25428228  0.60127600  1
  O2-  O140  1  0.50867562  0.24963948  0.94205423  1
  O2-  O141  1  0.49231699  0.75167583  0.27495802  1
  O2-  O142  1  0.50691803  0.74730920  0.60508419  1
  O2-  O143  1  0.50049811  0.75038656  0.93688316  1
  O2-  O144  1  0.07298019  0.17934836  0.09771979  1
  O2-  O145  1  0.06966675  0.17782106  0.43468102  1
  O2-  O146  1  0.06976373  0.17557554  0.75672036  1
  O2-  O147  1  0.07358939  0.67992812  0.09999527  1
  O2-  O148  1  0.06967325  0.68212329  0.43223110  1
  O2-  O149  1  0.06861200  0.67975725  0.76357453  1
  O2-  O150  1  0.56859772  0.17437676  0.09141963  1
  O2-  O151  1  0.56640605  0.17763726  0.43080903  1
  O2-  O152  1  0.57192545  0.18253255  0.76659317  1
  O2-  O153  1  0.57064041  0.67713608  0.10021287  1
  O2-  O154  1  0.56964634  0.68464653  0.43477959  1
  O2-  O155  1  0.57521009  0.67874916  0.75497636  1
  O2-  O156  1  0.18286147  0.42517167  0.23356975  1
  O2-  O157  1  0.17543689  0.42711243  0.57849727  1
  O2-  O158  1  0.18281691  0.42313265  0.90744575  1
  O2-  O159  1  0.17709006  0.93133915  0.24502489  1
  O2-  O160  1  0.17897414  0.93153464  0.57723416  1
  O2-  O161  1  0.18156887  0.93043190  0.91035852  1
  O2-  O162  1  0.67945694  0.42675306  0.23715034  1
  O2-  O163  1  0.68267249  0.42816348  0.57571600  1
  O2-  O164  1  0.67757396  0.42876125  0.89897306  1
  O2-  O165  1  0.67890139  0.93217339  0.23447286  1
  O2-  O166  1  0.67751237  0.92954606  0.57847638  1
  O2-  O167  1  0.67207091  0.93358475  0.90989668  1
  O2-  O168  1  0.42785985  0.31845658  0.10152126  1
  O2-  O169  1  0.42647269  0.31682158  0.42247665  1
  O2-  O170  1  0.42615776  0.32344044  0.76246834  1
  O2-  O171  1  0.43015539  0.82509984  0.10044051  1
  O2-  O172  1  0.42861980  0.82495621  0.42362241  1
  O2-  O173  1  0.43045330  0.81847629  0.76488397  1
  O2-  O174  1  0.92892185  0.31857524  0.09841482  1
  O2-  O175  1  0.92900600  0.31939764  0.42267498  1
  O2-  O176  1  0.92838476  0.31965784  0.75435240  1
  O2-  O177  1  0.93296861  0.82497103  0.09966020  1
  O2-  O178  1  0.93164690  0.82516006  0.42488195  1
  O2-  O179  1  0.92956763  0.82890245  0.75288426  1
  O2-  O180  1  0.32091853  0.07024778  0.24447900  1
  O2-  O181  1  0.31814728  0.06959781  0.57739865  1
  O2-  O182  1  0.32142509  0.07196694  0.90981042  1
  O2-  O183  1  0.32005137  0.57416753  0.23679667  1
  O2-  O184  1  0.31670450  0.57340268  0.57730433  1
  O2-  O185  1  0.31729631  0.57142691  0.89812173  1
  O2-  O186  1  0.82653138  0.06692378  0.24588233  1
  O2-  O187  1  0.82603353  0.06949599  0.57668664  1
  O2-  O188  1  0.81950186  0.06859377  0.90066013  1
  O2-  O189  1  0.82184176  0.57163794  0.23503410  1
  O2-  O190  1  0.82384349  0.56854588  0.57679278  1
  O2-  O191  1  0.82160340  0.56736915  0.89797177  1
  O2-  O192  1  0.04206255  0.08185330  0.26735593  1
  O2-  O193  1  0.04196286  0.08497500  0.60475723  1
  O2-  O194  1  0.04436774  0.07948082  0.93148054  1
  O2-  O195  1  0.04533439  0.57922072  0.26826168  1
  O2-  O196  1  0.03923441  0.58162886  0.59768747  1
  O2-  O197  1  0.05019772  0.57659169  0.93192386  1
  O2-  O198  1  0.53495404  0.08527712  0.26341258  1
  O2-  O199  1  0.54051573  0.08327634  0.60087062  1
  O2-  O200  1  0.54215731  0.08641328  0.93698837  1
  O2-  O201  1  0.54215884  0.58082445  0.27098178  1
  O2-  O202  1  0.54947055  0.58509417  0.60415700  1
  O2-  O203  1  0.54001242  0.58118739  0.93103894  1
  O2-  O204  1  0.16980853  0.20599934  0.26786998  1
  O2-  O205  1  0.16287173  0.20286478  0.60553937  1
  O2-  O206  1  0.17014886  0.20450409  0.92915952  1
  O2-  O207  1  0.16502179  0.71558637  0.26663274  1
  O2-  O208  1  0.16280874  0.71389066  0.59578454  1
  O2-  O209  1  0.16533774  0.71422322  0.93192081  1
  O2-  O210  1  0.67252759  0.20056571  0.26841022  1
  O2-  O211  1  0.67101445  0.20605729  0.59869747  1
  O2-  O212  1  0.66860254  0.19609440  0.94334629  1
  O2-  O213  1  0.66666494  0.71445269  0.26998500  1
  O2-  O214  1  0.66998062  0.70414189  0.60560060  1
  O2-  O215  1  0.66895954  0.70417434  0.93037867  1
  O2-  O216  1  0.08246071  0.44130116  0.05508689  1
  O2-  O217  1  0.08098577  0.45169289  0.40116363  1
  O2-  O218  1  0.08618730  0.45759173  0.73039245  1
  O2-  O219  1  0.08972500  0.95803510  0.06419446  1
  O2-  O220  1  0.08722076  0.96037666  0.39981449  1
  O2-  O221  1  0.08699237  0.95611147  0.72950474  1
  O2-  O222  1  0.57892381  0.45493003  0.06627160  1
  O2-  O223  1  0.57951433  0.45275965  0.40447090  1
  O2-  O224  1  0.58481347  0.45338956  0.72447472  1
  O2-  O225  1  0.58316610  0.95763576  0.06370418  1
  O2-  O226  1  0.58145958  0.96410026  0.40217950  1
  O2-  O227  1  0.58565458  0.95811730  0.73050791  1
  O2-  O228  1  0.21059446  0.33239507  0.05926868  1
  O2-  O229  1  0.21096896  0.33030932  0.40239409  1
  O2-  O230  1  0.20219457  0.33418668  0.72952132  1
  O2-  O231  1  0.20952530  0.83953244  0.06494540  1
  O2-  O232  1  0.20479105  0.83973187  0.39958028  1
  O2-  O233  1  0.20913395  0.83647002  0.72783535  1
  O2-  O234  1  0.70596944  0.33040940  0.06581412  1
  O2-  O235  1  0.71025869  0.32901032  0.40364486  1
  O2-  O236  1  0.71181117  0.33864483  0.72714842  1
  O2-  O237  1  0.69689645  0.83275486  0.05814442  1
  O2-  O238  1  0.70897139  0.83803977  0.40728657  1
  O2-  O239  1  0.70465377  0.83727911  0.73106793  1
  O2-  O240  1  0.44705569  0.41902498  0.27665647  1
  O2-  O241  1  0.45051059  0.42409584  0.59710013  1
  O2-  O242  1  0.45871179  0.41640715  0.93097824  1
  O2-  O243  1  0.45389001  0.91693575  0.27272187  1
  O2-  O244  1  0.45814317  0.91665630  0.59865123  1
  O2-  O245  1  0.45612127  0.92055899  0.93189686  1
  O2-  O246  1  0.95431399  0.41500448  0.27111198  1
  O2-  O247  1  0.95934561  0.41043850  0.60137783  1
  O2-  O248  1  0.95573931  0.41522256  0.92618323  1
  O2-  O249  1  0.95920371  0.91348792  0.27213852  1
  O2-  O250  1  0.95724786  0.91624091  0.59965707  1
  O2-  O251  1  0.96577489  0.91429778  0.92951699  1
  O2-  O252  1  0.33864590  0.28805930  0.26979294  1
  O2-  O253  1  0.32846664  0.29173078  0.59678698  1
  O2-  O254  1  0.33822222  0.28620024  0.92959954  1
  O2-  O255  1  0.33121061  0.80387767  0.27445696  1
  O2-  O256  1  0.33430453  0.78991402  0.59668818  1
  O2-  O257  1  0.33091838  0.79487201  0.93300447  1
  O2-  O258  1  0.83564490  0.29558646  0.27050090  1
  O2-  O259  1  0.83948696  0.29086923  0.60045257  1
  O2-  O260  1  0.83019166  0.28637794  0.93112849  1
  O2-  O261  1  0.83105782  0.80498944  0.27736383  1
  O2-  O262  1  0.83132764  0.80272300  0.60494128  1
  O2-  O263  1  0.82713492  0.80593284  0.93198711  1
  O2-  O264  1  0.41314648  0.04411492  0.06369514  1
  O2-  O265  1  0.41125553  0.04230590  0.39906846  1
  O2-  O266  1  0.41223211  0.04204604  0.72942842  1
  O2-  O267  1  0.41343557  0.53838483  0.06542620  1
  O2-  O268  1  0.41749240  0.54654376  0.40654104  1
  O2-  O269  1  0.41370864  0.54861748  0.72729922  1
  O2-  O270  1  0.91941272  0.03687090  0.06690779  1
  O2-  O271  1  0.91573958  0.04109757  0.39962887  1
  O2-  O272  1  0.91310655  0.04130828  0.73026073  1
  O2-  O273  1  0.92195124  0.54030699  0.06289804  1
  O2-  O274  1  0.91809179  0.53969832  0.40291686  1
  O2-  O275  1  0.91305066  0.53652508  0.72801753  1
  O2-  O276  1  0.29366390  0.16368850  0.06297929  1
  O2-  O277  1  0.29186215  0.16137839  0.39883362  1
  O2-  O278  1  0.29225834  0.16303641  0.72926786  1
  O2-  O279  1  0.29044830  0.66925568  0.06619248  1
  O2-  O280  1  0.29142337  0.67379166  0.40265920  1
  O2-  O281  1  0.28657075  0.66307529  0.72793245  1
  O2-  O282  1  0.79447488  0.16388243  0.07158040  1
  O2-  O283  1  0.80354585  0.16636602  0.39536011  1
  O2-  O284  1  0.79539796  0.16380711  0.72773436  1
  O2-  O285  1  0.80286993  0.67473400  0.06019090  1
  O2-  O286  1  0.79534578  0.67104146  0.40341694  1
  O2-  O287  1  0.80253871  0.66557977  0.72640792  1
