# generated using pymatgen
data_Ca2Al2SiO7
_symmetry_space_group_name_H-M   'P 1'
_cell_length_a   15.45920700
_cell_length_b   15.45893803
_cell_length_c   15.28459991
_cell_angle_alpha   90.00547483
_cell_angle_beta   89.99045077
_cell_angle_gamma   90.02098120
_symmetry_Int_Tables_number   1
_chemical_formula_structural   Ca2Al2SiO7
_chemical_formula_sum   'Ca48 Al48 Si24 O168'
_cell_volume   3652.75805030
_cell_formula_units_Z   24
loop_
 _symmetry_equiv_pos_site_id
 _symmetry_equiv_pos_as_xyz
  1  'x, y, z'
loop_
 _atom_type_symbol
 _atom_type_oxidation_number
  Ca2+  2.0
  Al0+  0.0
  Si0+  0.0
  O2-  -2.0
loop_
 _atom_site_type_symbol
 _atom_site_label
 _atom_site_symmetry_multiplicity
 _atom_site_fract_x
 _atom_site_fract_y
 _atom_site_fract_z
 _atom_site_occupancy
  Ca2+  Ca0  1  0.16772055  0.07457245  0.17393371  1
  Ca2+  Ca1  1  0.16517466  0.07322767  0.50695212  1
  Ca2+  Ca2  1  0.16574189  0.08552993  0.82780967  1
  Ca2+  Ca3  1  0.16792363  0.57420311  0.17893960  1
  Ca2+  Ca4  1  0.17531385  0.58285269  0.49825930  1
  Ca2+  Ca5  1  0.17369289  0.57510727  0.83673377  1
  Ca2+  Ca6  1  0.67759354  0.07914926  0.17628828  1
  Ca2+  Ca7  1  0.67492477  0.07388628  0.50379109  1
  Ca2+  Ca8  1  0.67821987  0.08346819  0.83443364  1
  Ca2+  Ca9  1  0.67614181  0.59143955  0.16868546  1
  Ca2+  Ca10  1  0.67426635  0.57925173  0.50265869  1
  Ca2+  Ca11  1  0.66973349  0.57711423  0.83739106  1
  Ca2+  Ca12  1  0.08039138  0.34143678  0.16789054  1
  Ca2+  Ca13  1  0.07548893  0.32746104  0.49354090  1
  Ca2+  Ca14  1  0.07672475  0.32801796  0.82245677  1
  Ca2+  Ca15  1  0.08266951  0.82790453  0.17307049  1
  Ca2+  Ca16  1  0.08419397  0.83089714  0.48837112  1
  Ca2+  Ca17  1  0.08320905  0.83270342  0.82629227  1
  Ca2+  Ca18  1  0.57580346  0.33686918  0.16803880  1
  Ca2+  Ca19  1  0.57432991  0.33820509  0.49712055  1
  Ca2+  Ca20  1  0.57899158  0.33418145  0.82116213  1
  Ca2+  Ca21  1  0.58157284  0.83190112  0.16589121  1
  Ca2+  Ca22  1  0.57918003  0.84009732  0.49213297  1
  Ca2+  Ca23  1  0.58938104  0.82638107  0.82938227  1
  Ca2+  Ca24  1  0.32225376  0.42034304  0.17764799  1
  Ca2+  Ca25  1  0.33640534  0.42378470  0.50329471  1
  Ca2+  Ca26  1  0.33015963  0.41689702  0.83376390  1
  Ca2+  Ca27  1  0.32986007  0.91407768  0.17821711  1
  Ca2+  Ca28  1  0.32378987  0.91637169  0.50563921  1
  Ca2+  Ca29  1  0.32838352  0.92265766  0.82845262  1
  Ca2+  Ca30  1  0.83671404  0.42850788  0.17603639  1
  Ca2+  Ca31  1  0.83560060  0.41703926  0.50271149  1
  Ca2+  Ca32  1  0.82915597  0.41470642  0.83559909  1
  Ca2+  Ca33  1  0.83155829  0.92569975  0.17970752  1
  Ca2+  Ca34  1  0.82960642  0.92220356  0.50318617  1
  Ca2+  Ca35  1  0.83367987  0.92948102  0.83359093  1
  Ca2+  Ca36  1  0.41522273  0.17310791  0.16672864  1
  Ca2+  Ca37  1  0.41054338  0.17621789  0.49591045  1
  Ca2+  Ca38  1  0.41620431  0.17344813  0.82065644  1
  Ca2+  Ca39  1  0.41877219  0.67016080  0.16757960  1
  Ca2+  Ca40  1  0.41469461  0.66842594  0.49087946  1
  Ca2+  Ca41  1  0.42302547  0.66228858  0.82741865  1
  Ca2+  Ca42  1  0.91152966  0.16902593  0.16718999  1
  Ca2+  Ca43  1  0.91159975  0.17197814  0.49682207  1
  Ca2+  Ca44  1  0.91973704  0.16753549  0.82120743  1
  Ca2+  Ca45  1  0.91503704  0.66752398  0.16760523  1
  Ca2+  Ca46  1  0.92413212  0.67306576  0.48581474  1
  Ca2+  Ca47  1  0.91619842  0.66544296  0.83059486  1
  Al0+  Al48  1  0.00051395  0.00057375  0.00352516  1
  Al0+  Al49  1  0.00104728  0.00073577  0.33614012  1
  Al0+  Al50  1  -0.00056134  -0.00224688  0.67078311  1
  Al0+  Al51  1  -0.00046792  0.50039352  0.00419836  1
  Al0+  Al52  1  0.00100334  0.49835591  0.33499924  1
  Al0+  Al53  1  0.00220904  0.50123254  0.66219725  1
  Al0+  Al54  1  0.49866973  0.00154665  -0.00260402  1
  Al0+  Al55  1  0.50134207  0.00115695  0.32990589  1
  Al0+  Al56  1  0.49917002  -0.00219308  0.67511631  1
  Al0+  Al57  1  0.49888294  0.50171047  -0.00431447  1
  Al0+  Al58  1  0.49990302  0.49996218  0.32851794  1
  Al0+  Al59  1  0.50243844  0.50062091  0.66999487  1
  Al0+  Al60  1  0.24793185  0.24897108  0.00328085  1
  Al0+  Al61  1  0.24850942  0.25041291  0.32979102  1
  Al0+  Al62  1  0.24869471  0.24996690  0.66042935  1
  Al0+  Al63  1  0.24920384  0.75069684  -0.00277998  1
  Al0+  Al64  1  0.25115858  0.74902154  0.33024119  1
  Al0+  Al65  1  0.25242807  0.74882753  0.67693911  1
  Al0+  Al66  1  0.74822668  0.25045073  0.00425478  1
  Al0+  Al67  1  0.75002942  0.25038117  0.33103770  1
  Al0+  Al68  1  0.74828352  0.25067817  0.66971152  1
  Al0+  Al69  1  0.74884407  0.75059605  -0.00325302  1
  Al0+  Al70  1  0.75023091  0.75047081  0.33789557  1
  Al0+  Al71  1  0.75080892  0.74853762  0.66886012  1
  Al0+  Al72  1  0.17784163  0.42652282  0.35155946  1
  Al0+  Al73  1  0.32226346  0.56975240  0.68150010  1
  Al0+  Al74  1  0.42979839  0.82170907  0.32218375  1
  Al0+  Al75  1  0.92781157  0.82239658  0.31928753  1
  Al0+  Al76  1  0.82220873  0.07289066  0.34976668  1
  Al0+  Al77  1  0.81926903  0.57066865  0.01324506  1
  Al0+  Al78  1  0.32008755  0.07367530  0.67963025  1
  Al0+  Al79  1  0.18144426  0.92906102  0.34487014  1
  Al0+  Al80  1  0.82003284  0.07104455  0.68162758  1
  Al0+  Al81  1  0.42985262  0.32160474  0.65292742  1
  Al0+  Al82  1  0.92838908  0.31999724  0.31768871  1
  Al0+  Al83  1  0.67776491  0.92839136  0.34688887  1
  Al0+  Al84  1  0.82130810  0.57132856  0.34735160  1
  Al0+  Al85  1  0.42781894  0.32197103  0.31800628  1
  Al0+  Al86  1  0.18034923  0.42904099  0.01279630  1
  Al0+  Al87  1  0.17805166  0.92778236  0.68248200  1
  Al0+  Al88  1  0.82139039  0.07129795  0.01587832  1
  Al0+  Al89  1  0.92662928  0.32191085  0.65195839  1
  Al0+  Al90  1  0.67736315  0.92607363  0.68383646  1
  Al0+  Al91  1  0.07028658  0.17656538  0.65034911  1
  Al0+  Al92  1  0.07163368  0.67852075  0.31833477  1
  Al0+  Al93  1  0.32210991  0.56992382  0.34635962  1
  Al0+  Al94  1  0.57053123  0.68128587  0.98448654  1
  Al0+  Al95  1  0.68066915  0.43043257  0.67864867  1
  Si0+  Si96  1  0.07060510  0.67781647  0.98374737  1
  Si0+  Si97  1  0.82508060  0.57142232  0.68247422  1
  Si0+  Si98  1  0.42964219  0.81967209  0.65345361  1
  Si0+  Si99  1  0.93029134  0.82198598  0.98462853  1
  Si0+  Si100  1  0.67735961  0.92895637  0.01652744  1
  Si0+  Si101  1  0.32285121  0.57312601  0.01709082  1
  Si0+  Si102  1  0.92909828  0.81854936  0.65323879  1
  Si0+  Si103  1  0.57154974  0.17874096  0.31549909  1
  Si0+  Si104  1  0.57130251  0.17514426  0.65105776  1
  Si0+  Si105  1  0.57202380  0.67905052  0.65065855  1
  Si0+  Si106  1  0.57329059  0.67720818  0.31785591  1
  Si0+  Si107  1  0.07014719  0.17781164  0.98525374  1
  Si0+  Si108  1  0.42534807  0.82422680  0.97976584  1
  Si0+  Si109  1  0.57112389  0.17971495  0.98411868  1
  Si0+  Si110  1  0.32336199  0.07290791  0.34715560  1
  Si0+  Si111  1  0.07433726  0.67982997  0.65317098  1
  Si0+  Si112  1  0.07197947  0.17732929  0.31419085  1
  Si0+  Si113  1  0.17950847  0.92808348  0.01648424  1
  Si0+  Si114  1  0.67760758  0.42820016  0.34796945  1
  Si0+  Si115  1  0.17729691  0.42849545  0.68176232  1
  Si0+  Si116  1  0.67505395  0.42786880  0.01759870  1
  Si0+  Si117  1  0.92893976  0.32193967  0.98665065  1
  Si0+  Si118  1  0.42751152  0.31890034  0.98456452  1
  Si0+  Si119  1  0.32111697  0.07098512  0.01550404  1
  O2-  O120  1  0.25464132  -0.00436932  0.05713494  1
  O2-  O121  1  0.25657840  0.00296525  0.39101301  1
  O2-  O122  1  0.24640304  0.00407904  0.73193113  1
  O2-  O123  1  0.25404157  0.50456124  0.05975891  1
  O2-  O124  1  0.25271803  0.49700073  0.39865478  1
  O2-  O125  1  0.24818277  0.49417809  0.72778919  1
  O2-  O126  1  0.74552110  -0.00263891  0.06112061  1
  O2-  O127  1  0.75247572  -0.00274933  0.39642713  1
  O2-  O128  1  0.74758520  -0.00010699  0.73337223  1
  O2-  O129  1  0.74420313  0.49641410  0.06054724  1
  O2-  O130  1  0.74723499  0.49545711  0.39248248  1
  O2-  O131  1  0.75998182  0.49948423  0.72673815  1
  O2-  O132  1  0.00308149  0.24574976  0.26919942  1
  O2-  O133  1  -0.00357796  0.24760403  0.60216565  1
  O2-  O134  1  -0.00246207  0.24841294  0.94449898  1
  O2-  O135  1  -0.00308157  0.74809525  0.26723031  1
  O2-  O136  1  0.00239028  0.74978126  0.61200994  1
  O2-  O137  1  0.00047157  0.74985493  0.94111421  1
  O2-  O138  1  0.50198133  0.24686138  0.27035010  1
  O2-  O139  1  0.50104480  0.24259868  0.60694649  1
  O2-  O140  1  0.50095162  0.25130122  0.94103864  1
  O2-  O141  1  0.50569253  0.74814975  0.27518249  1
  O2-  O142  1  0.50368195  0.75276737  0.60992959  1
  O2-  O143  1  0.49443918  0.75507877  0.93670326  1
  O2-  O144  1  0.07195857  0.17555750  0.08982393  1
  O2-  O145  1  0.07353803  0.17721175  0.41918070  1
  O2-  O146  1  0.06954954  0.18048343  0.76542304  1
  O2-  O147  1  0.07222606  0.67837487  0.08792262  1
  O2-  O148  1  0.07280154  0.68223119  0.43230196  1
  O2-  O149  1  0.07207869  0.67881424  0.75922304  1
  O2-  O150  1  0.56909774  0.17922403  0.08892761  1
  O2-  O151  1  0.57080068  0.17845549  0.42070392  1
  O2-  O152  1  0.57028715  0.17893177  0.75752472  1
  O2-  O153  1  0.57043790  0.68360108  0.09731693  1
  O2-  O154  1  0.57185141  0.67404672  0.42338761  1
  O2-  O155  1  0.57118533  0.67888403  0.75616126  1
  O2-  O156  1  0.18047888  0.42850150  0.23709899  1
  O2-  O157  1  0.17600882  0.43207460  0.57715008  1
  O2-  O158  1  0.18224729  0.42905782  0.89934584  1
  O2-  O159  1  0.18329297  0.93070136  0.23089137  1
  O2-  O160  1  0.18138034  0.92318043  0.56954331  1
  O2-  O161  1  0.17795596  0.92870422  0.91160449  1
  O2-  O162  1  0.67725080  0.42972492  0.24193347  1
  O2-  O163  1  0.67653919  0.43547330  0.56608920  1
  O2-  O164  1  0.67551409  0.42651959  0.91189009  1
  O2-  O165  1  0.67627561  0.93144104  0.23271447  1
  O2-  O166  1  0.67811902  0.92542375  0.57094249  1
  O2-  O167  1  0.67899764  0.93047689  0.91097894  1
  O2-  O168  1  0.42802436  0.31662458  0.08947160  1
  O2-  O169  1  0.43095404  0.32239663  0.43081398  1
  O2-  O170  1  0.43208880  0.32143328  0.76710422  1
  O2-  O171  1  0.42408140  0.82513797  0.08523116  1
  O2-  O172  1  0.42960384  0.82141034  0.43534290  1
  O2-  O173  1  0.42910300  0.81626584  0.75890564  1
  O2-  O174  1  0.93062291  0.32251854  0.09137434  1
  O2-  O175  1  0.92709042  0.31854494  0.43019149  1
  O2-  O176  1  0.92959095  0.32368451  0.76685550  1
  O2-  O177  1  0.93128648  0.82239599  0.08904777  1
  O2-  O178  1  0.93007378  0.82076014  0.43311364  1
  O2-  O179  1  0.92929080  0.81581912  0.75929335  1
  O2-  O180  1  0.32161985  0.07135674  0.24051826  1
  O2-  O181  1  0.32208217  0.06995980  0.56651656  1
  O2-  O182  1  0.31972266  0.07403993  0.91087139  1
  O2-  O183  1  0.32228844  0.56904763  0.23230518  1
  O2-  O184  1  0.32194378  0.57267494  0.56920774  1
  O2-  O185  1  0.32263744  0.57151392  0.91112951  1
  O2-  O186  1  0.81867130  0.07252551  0.23543634  1
  O2-  O187  1  0.81886453  0.06920237  0.56893945  1
  O2-  O188  1  0.82207085  0.07110301  0.90306629  1
  O2-  O189  1  0.81809843  0.57146179  0.23374858  1
  O2-  O190  1  0.82285335  0.57429566  0.57742882  1
  O2-  O191  1  0.82027689  0.56747141  0.89991409  1
  O2-  O192  1  0.04635494  0.08383636  0.26735578  1
  O2-  O193  1  0.04546981  0.07516991  0.60253161  1
  O2-  O194  1  0.04324714  0.08560939  0.93747049  1
  O2-  O195  1  0.04465291  0.57943537  0.26691090  1
  O2-  O196  1  0.04982433  0.58841245  0.60455660  1
  O2-  O197  1  0.04054500  0.58649834  0.93566372  1
  O2-  O198  1  0.54591719  0.08664105  0.26553909  1
  O2-  O199  1  0.54729892  0.07965036  0.60905604  1
  O2-  O200  1  0.54380715  0.08787621  0.93609926  1
  O2-  O201  1  0.54710109  0.58572663  0.26722603  1
  O2-  O202  1  0.54121139  0.58872020  0.60370794  1
  O2-  O203  1  0.54096665  0.58358487  0.92928585  1
  O2-  O204  1  0.16519254  0.20216605  0.26546227  1
  O2-  O205  1  0.16803402  0.20320639  0.59650935  1
  O2-  O206  1  0.16211725  0.20724759  0.93803459  1
  O2-  O207  1  0.16777883  0.71015724  0.26187871  1
  O2-  O208  1  0.16697595  0.70950397  0.60960086  1
  O2-  O209  1  0.16290954  0.70514711  0.93536701  1
  O2-  O210  1  0.66351656  0.20677556  0.26697093  1
  O2-  O211  1  0.66413530  0.20229094  0.60595196  1
  O2-  O212  1  0.66352097  0.20778130  0.93730158  1
  O2-  O213  1  0.66661068  0.70347115  0.27187938  1
  O2-  O214  1  0.66571159  0.70300683  0.60521518  1
  O2-  O215  1  0.66668070  0.71152821  0.92751537  1
  O2-  O216  1  0.08430967  0.46005084  0.06671497  1
  O2-  O217  1  0.08045700  0.45495246  0.40379320  1
  O2-  O218  1  0.08515073  0.45822505  0.73016643  1
  O2-  O219  1  0.08967659  0.95976368  0.06457030  1
  O2-  O220  1  0.08587150  0.95888478  0.39947898  1
  O2-  O221  1  0.07964852  0.95158103  0.73764896  1
  O2-  O222  1  0.58052473  0.45449052  0.06131259  1
  O2-  O223  1  0.58438316  0.45544812  0.39300603  1
  O2-  O224  1  0.58797412  0.46640246  0.73777917  1
  O2-  O225  1  0.58171282  0.95366949  0.05926519  1
  O2-  O226  1  0.58008121  0.96084986  0.39971401  1
  O2-  O227  1  0.57884898  0.94910370  0.73902990  1
  O2-  O228  1  0.21027029  0.33273415  0.06797050  1
  O2-  O229  1  0.20445647  0.32637857  0.40001218  1
  O2-  O230  1  0.20067387  0.33386210  0.72598359  1
  O2-  O231  1  0.20440614  0.83446961  0.06168480  1
  O2-  O232  1  0.21236099  0.83296983  0.39755759  1
  O2-  O233  1  0.21251108  0.83332289  0.74128168  1
  O2-  O234  1  0.69819408  0.33440060  0.06438467  1
  O2-  O235  1  0.70050687  0.33419963  0.39260705  1
  O2-  O236  1  0.70383756  0.33327242  0.73561598  1
  O2-  O237  1  0.70233120  0.83473616  0.06002840  1
  O2-  O238  1  0.69938986  0.82949067  0.40037280  1
  O2-  O239  1  0.70981700  0.82811376  0.73704841  1
  O2-  O240  1  0.46080004  0.41664917  0.26033561  1
  O2-  O241  1  0.46672590  0.41725678  0.60096843  1
  O2-  O242  1  0.45098276  0.41276839  0.93908973  1
  O2-  O243  1  0.45814628  0.91812990  0.26441095  1
  O2-  O244  1  0.45284315  0.91361059  0.60895444  1
  O2-  O245  1  0.44990036  0.91887858  0.93452280  1
  O2-  O246  1  0.96061934  0.41646396  0.26392980  1
  O2-  O247  1  0.95590877  0.42072055  0.59967987  1
  O2-  O248  1  0.95833830  0.41315416  0.93866000  1
  O2-  O249  1  0.95925918  0.92026408  0.26621172  1
  O2-  O250  1  0.95326631  0.91152276  0.60853618  1
  O2-  O251  1  0.96217073  0.91313764  0.93711986  1
  O2-  O252  1  0.33229211  0.28970336  0.26191398  1
  O2-  O253  1  0.33262168  0.29636501  0.59895902  1
  O2-  O254  1  0.33624228  0.28697298  0.93815524  1
  O2-  O255  1  0.33629351  0.78889876  0.26323945  1
  O2-  O256  1  0.33790099  0.78794318  0.60859997  1
  O2-  O257  1  0.33138086  0.79882143  0.93341323  1
  O2-  O258  1  0.83121128  0.29170887  0.26195156  1
  O2-  O259  1  0.82610694  0.29751716  0.60181478  1
  O2-  O260  1  0.83426149  0.29736130  0.94263522  1
  O2-  O261  1  0.82805441  0.79565724  0.26751823  1
  O2-  O262  1  0.83807258  0.78858642  0.60589145  1
  O2-  O263  1  0.83840888  0.79535373  0.93667645  1
  O2-  O264  1  0.41486442  0.04787023  0.06171385  1
  O2-  O265  1  0.41801453  0.05164727  0.39057595  1
  O2-  O266  1  0.41604691  0.04329996  0.73779706  1
  O2-  O267  1  0.41722524  0.54854693  0.06106662  1
  O2-  O268  1  0.42185572  0.54331298  0.39754557  1
  O2-  O269  1  0.41789272  0.53838331  0.73703244  1
  O2-  O270  1  0.91813945  0.04048078  0.06908034  1
  O2-  O271  1  0.92139286  0.04852238  0.40033680  1
  O2-  O272  1  0.91688250  0.03978769  0.73689968  1
  O2-  O273  1  0.91537246  0.54115851  0.06782936  1
  O2-  O274  1  0.91738725  0.54133290  0.40050035  1
  O2-  O275  1  0.92056234  0.55063550  0.72724955  1
  O2-  O276  1  0.28930376  0.16041456  0.06529135  1
  O2-  O277  1  0.29683474  0.16625845  0.39112217  1
  O2-  O278  1  0.29288959  0.17302711  0.73318145  1
  O2-  O279  1  0.29780133  0.66845024  0.05927960  1
  O2-  O280  1  0.29272491  0.66783942  0.39853379  1
  O2-  O281  1  0.29091717  0.66328834  0.74125889  1
  O2-  O282  1  0.78997779  0.16828700  0.06891470  1
  O2-  O283  1  0.78923893  0.17061446  0.40034948  1
  O2-  O284  1  0.79225714  0.16924457  0.73602435  1
  O2-  O285  1  0.78812446  0.66845968  0.06460469  1
  O2-  O286  1  0.79110293  0.66641945  0.40351201  1
  O2-  O287  1  0.79533193  0.66266176  0.73131277  1
