# generated using pymatgen
data_Ca2Al2SiO7
_symmetry_space_group_name_H-M   'P 1'
_cell_length_a   15.46187988
_cell_length_b   15.46168174
_cell_length_c   15.28713597
_cell_angle_alpha   89.99372489
_cell_angle_beta   89.98576444
_cell_angle_gamma   89.99749777
_symmetry_Int_Tables_number   1
_chemical_formula_structural   Ca2Al2SiO7
_chemical_formula_sum   'Ca48 Al48 Si24 O168'
_cell_volume   3654.64448767
_cell_formula_units_Z   24
loop_
 _symmetry_equiv_pos_site_id
 _symmetry_equiv_pos_as_xyz
  1  'x, y, z'
loop_
 _atom_type_symbol
 _atom_type_oxidation_number
  Ca2+  2.0
  Al0+  0.0
  Si0+  0.0
  O2-  -2.0
loop_
 _atom_site_type_symbol
 _atom_site_label
 _atom_site_symmetry_multiplicity
 _atom_site_fract_x
 _atom_site_fract_y
 _atom_site_fract_z
 _atom_site_occupancy
  Ca2+  Ca0  1  0.15668962  0.08030023  0.17533242  1
  Ca2+  Ca1  1  0.16042452  0.07980820  0.49462912  1
  Ca2+  Ca2  1  0.16374175  0.08491412  0.83823728  1
  Ca2+  Ca3  1  0.17156209  0.57292377  0.17741847  1
  Ca2+  Ca4  1  0.17421020  0.58144296  0.50063826  1
  Ca2+  Ca5  1  0.17945629  0.57302254  0.84188036  1
  Ca2+  Ca6  1  0.68234156  0.08688311  0.17430528  1
  Ca2+  Ca7  1  0.67622607  0.08027964  0.50962166  1
  Ca2+  Ca8  1  0.67534588  0.08992371  0.83477572  1
  Ca2+  Ca9  1  0.66383561  0.58700815  0.17012285  1
  Ca2+  Ca10  1  0.67239426  0.58581048  0.50389949  1
  Ca2+  Ca11  1  0.67216775  0.58379401  0.83634011  1
  Ca2+  Ca12  1  0.07927039  0.33021684  0.16156888  1
  Ca2+  Ca13  1  0.07262854  0.33071192  0.48897769  1
  Ca2+  Ca14  1  0.07753984  0.33300405  0.83276258  1
  Ca2+  Ca15  1  0.08593373  0.83068788  0.17306066  1
  Ca2+  Ca16  1  0.07856138  0.82705497  0.48609199  1
  Ca2+  Ca17  1  0.08105039  0.83035234  0.83049368  1
  Ca2+  Ca18  1  0.57496366  0.33682669  0.16800744  1
  Ca2+  Ca19  1  0.57395445  0.33231315  0.49894188  1
  Ca2+  Ca20  1  0.57670951  0.32726272  0.82307356  1
  Ca2+  Ca21  1  0.57939134  0.82140562  0.16611617  1
  Ca2+  Ca22  1  0.58097633  0.82845709  0.49077960  1
  Ca2+  Ca23  1  0.58649929  0.83054207  0.83009023  1
  Ca2+  Ca24  1  0.32245556  0.42178970  0.17623793  1
  Ca2+  Ca25  1  0.33365648  0.42112711  0.50081470  1
  Ca2+  Ca26  1  0.33333680  0.42288889  0.84059182  1
  Ca2+  Ca27  1  0.32893115  0.91884523  0.17708423  1
  Ca2+  Ca28  1  0.32659584  0.90673695  0.49816888  1
  Ca2+  Ca29  1  0.33232646  0.92155838  0.83557337  1
  Ca2+  Ca30  1  0.83280554  0.40914108  0.17204152  1
  Ca2+  Ca31  1  0.83810946  0.41889429  0.50547783  1
  Ca2+  Ca32  1  0.83942491  0.41603785  0.83409369  1
  Ca2+  Ca33  1  0.84131346  0.92865483  0.17499459  1
  Ca2+  Ca34  1  0.83394351  0.92777347  0.50482928  1
  Ca2+  Ca35  1  0.82717311  0.93048715  0.83544280  1
  Ca2+  Ca36  1  0.40902947  0.17676478  0.16654142  1
  Ca2+  Ca37  1  0.42138708  0.17624445  0.49603828  1
  Ca2+  Ca38  1  0.42211274  0.17562787  0.81980050  1
  Ca2+  Ca39  1  0.42114561  0.65939450  0.16674434  1
  Ca2+  Ca40  1  0.41906502  0.66644114  0.48877809  1
  Ca2+  Ca41  1  0.41971773  0.65855368  0.83145445  1
  Ca2+  Ca42  1  0.92396314  0.17112328  0.16346830  1
  Ca2+  Ca43  1  0.91437957  0.17303977  0.49236507  1
  Ca2+  Ca44  1  0.91454419  0.17381127  0.83172384  1
  Ca2+  Ca45  1  0.92417411  0.67068418  0.16872723  1
  Ca2+  Ca46  1  0.91982563  0.67276560  0.48903487  1
  Ca2+  Ca47  1  0.91782270  0.66489385  0.82590557  1
  Al0+  Al48  1  -0.00069029  0.00048458  -0.00140374  1
  Al0+  Al49  1  0.00005818  0.00094288  0.33790159  1
  Al0+  Al50  1  -0.00140353  -0.00148335  0.67238246  1
  Al0+  Al51  1  0.00004025  0.50143896  -0.00042524  1
  Al0+  Al52  1  -0.00096096  0.50033636  0.32981844  1
  Al0+  Al53  1  0.00258178  0.49933058  0.66754410  1
  Al0+  Al54  1  0.50015865  -0.00229918  0.00163715  1
  Al0+  Al55  1  0.50203171  -0.00015751  0.32900945  1
  Al0+  Al56  1  0.49783917  -0.00267866  0.66608031  1
  Al0+  Al57  1  0.50294418  0.50154418  -0.00217824  1
  Al0+  Al58  1  0.50093703  0.49793056  0.33012071  1
  Al0+  Al59  1  0.50080819  0.50129183  0.66645294  1
  Al0+  Al60  1  0.24863299  0.25004973  -0.00238754  1
  Al0+  Al61  1  0.24946945  0.24934118  0.33186858  1
  Al0+  Al62  1  0.24767801  0.24863423  0.66204398  1
  Al0+  Al63  1  0.25168836  0.75205755  0.00132325  1
  Al0+  Al64  1  0.25050497  0.75073174  0.33341309  1
  Al0+  Al65  1  0.25055220  0.74750048  0.67385289  1
  Al0+  Al66  1  0.75028867  0.25090723  0.00198958  1
  Al0+  Al67  1  0.74944357  0.25081557  0.33687186  1
  Al0+  Al68  1  0.75026109  0.25041651  0.66306872  1
  Al0+  Al69  1  0.74834098  0.75028950  -0.00429774  1
  Al0+  Al70  1  0.74924959  0.75137106  0.32454836  1
  Al0+  Al71  1  0.75064531  0.75108628  0.67456750  1
  Al0+  Al72  1  0.82256141  0.57043253  0.67840747  1
  Al0+  Al73  1  0.06995888  0.17960995  0.32024900  1
  Al0+  Al74  1  0.67603203  0.92876776  0.68170411  1
  Al0+  Al75  1  0.56990529  0.67964354  0.98179437  1
  Al0+  Al76  1  0.17627887  0.42675203  0.35034068  1
  Al0+  Al77  1  0.32180303  0.56934927  0.34879428  1
  Al0+  Al78  1  0.32353473  0.57103139  0.01714904  1
  Al0+  Al79  1  0.92671274  0.32220202  0.31837275  1
  Al0+  Al80  1  0.57099871  0.67783298  0.31930645  1
  Al0+  Al81  1  0.32156133  0.56960925  0.68153203  1
  Al0+  Al82  1  0.07107834  0.17788270  0.98292648  1
  Al0+  Al83  1  0.42717212  0.32351564  0.65135934  1
  Al0+  Al84  1  0.42902603  0.31956993  0.31894080  1
  Al0+  Al85  1  0.42782316  0.82260004  0.31862189  1
  Al0+  Al86  1  0.82083571  0.07351000  0.68400771  1
  Al0+  Al87  1  0.92872966  0.82250447  0.31976386  1
  Al0+  Al88  1  0.92748354  0.32240626  0.98333036  1
  Al0+  Al89  1  0.81925919  0.07088160  0.01637027  1
  Al0+  Al90  1  0.18106166  0.93008747  0.34689269  1
  Al0+  Al91  1  0.82065970  0.07096246  0.34871544  1
  Al0+  Al92  1  0.93127524  0.32113260  0.65215748  1
  Al0+  Al93  1  0.07239417  0.67792906  0.31932001  1
  Al0+  Al94  1  0.17822419  0.42826308  0.01594362  1
  Al0+  Al95  1  0.57103058  0.17635752  0.65176002  1
  Si0+  Si96  1  0.17906980  0.92749809  0.68285223  1
  Si0+  Si97  1  0.67787450  0.92715574  0.34801525  1
  Si0+  Si98  1  0.81978416  0.57306227  0.34492135  1
  Si0+  Si99  1  0.57242496  0.68095087  0.65273538  1
  Si0+  Si100  1  0.17817425  0.42588424  0.68337393  1
  Si0+  Si101  1  0.67758764  0.92642157  0.01984858  1
  Si0+  Si102  1  0.92919149  0.81971777  0.65383791  1
  Si0+  Si103  1  0.67835428  0.42953341  0.68245467  1
  Si0+  Si104  1  0.67893091  0.42905954  0.34928212  1
  Si0+  Si105  1  0.32576764  0.07299299  0.35043060  1
  Si0+  Si106  1  0.42715001  0.82369413  0.98014317  1
  Si0+  Si107  1  0.57270054  0.17820858  0.31627749  1
  Si0+  Si108  1  0.07246821  0.68016231  0.98389383  1
  Si0+  Si109  1  0.42990188  0.31987873  0.98563883  1
  Si0+  Si110  1  0.07140930  0.17372498  0.64840397  1
  Si0+  Si111  1  0.31936645  0.07112281  0.67967549  1
  Si0+  Si112  1  0.82137862  0.57370010  0.01535463  1
  Si0+  Si113  1  0.07227663  0.68036741  0.65398186  1
  Si0+  Si114  1  0.42633688  0.81947509  0.65284555  1
  Si0+  Si115  1  0.32255521  0.07092411  0.01273134  1
  Si0+  Si116  1  0.17861627  0.93007367  0.01443834  1
  Si0+  Si117  1  0.92938657  0.82082654  0.98297745  1
  Si0+  Si118  1  0.68072826  0.42989740  0.01445745  1
  Si0+  Si119  1  0.57063071  0.17812338  0.98775494  1
  O2-  O120  1  0.24941517  0.00218707  0.05426565  1
  O2-  O121  1  0.25880702  0.00196616  0.39429052  1
  O2-  O122  1  0.24687123  0.00212448  0.72401147  1
  O2-  O123  1  0.24979166  0.50080650  0.06552330  1
  O2-  O124  1  0.24901715  0.49872001  0.40004292  1
  O2-  O125  1  0.25203611  0.48966903  0.72715272  1
  O2-  O126  1  0.74490956  -0.00418907  0.06397113  1
  O2-  O127  1  0.74531554  -0.00434249  0.39342465  1
  O2-  O128  1  0.74387012  0.00476180  0.73230594  1
  O2-  O129  1  0.75361911  0.49935861  0.05663852  1
  O2-  O130  1  0.75086103  0.50072659  0.38848938  1
  O2-  O131  1  0.74990033  0.49487929  0.72766037  1
  O2-  O132  1  0.00171602  0.25382833  0.26886185  1
  O2-  O133  1  0.00264799  0.24294543  0.60658546  1
  O2-  O134  1  0.00034545  0.25108728  0.93339343  1
  O2-  O135  1  0.00041647  0.75045776  0.26904244  1
  O2-  O136  1  -0.00105485  0.74831891  0.61109437  1
  O2-  O137  1  -0.00044939  0.74888083  0.93978204  1
  O2-  O138  1  0.50054466  0.24218476  0.27037637  1
  O2-  O139  1  0.49913815  0.24970388  0.60373203  1
  O2-  O140  1  0.49736093  0.24552761  0.94351290  1
  O2-  O141  1  0.49654310  0.74746057  0.26917744  1
  O2-  O142  1  0.50043081  0.75126233  0.61182999  1
  O2-  O143  1  0.49364079  0.75320202  0.93531668  1
  O2-  O144  1  0.06984430  0.17414945  0.09552027  1
  O2-  O145  1  0.06640981  0.17842597  0.43404370  1
  O2-  O146  1  0.07335555  0.17311837  0.75396999  1
  O2-  O147  1  0.07173321  0.68213810  0.08833822  1
  O2-  O148  1  0.06929429  0.67969310  0.43370053  1
  O2-  O149  1  0.07163828  0.68431798  0.75963528  1
  O2-  O150  1  0.56918277  0.18060105  0.09266899  1
  O2-  O151  1  0.57220479  0.18018756  0.42161078  1
  O2-  O152  1  0.56752327  0.17915246  0.76655842  1
  O2-  O153  1  0.57147382  0.68052337  0.09412961  1
  O2-  O154  1  0.57489753  0.67985190  0.43333532  1
  O2-  O155  1  0.57174344  0.68090970  0.75788376  1
  O2-  O156  1  0.17785720  0.42726211  0.23679987  1
  O2-  O157  1  0.17546612  0.42938568  0.57845560  1
  O2-  O158  1  0.18132273  0.42932100  0.90156852  1
  O2-  O159  1  0.18076526  0.93289099  0.23348591  1
  O2-  O160  1  0.17946912  0.92386221  0.57851629  1
  O2-  O161  1  0.18003339  0.92874899  0.90855316  1
  O2-  O162  1  0.67829489  0.42749182  0.24376235  1
  O2-  O163  1  0.67617314  0.43381696  0.57700621  1
  O2-  O164  1  0.67877108  0.43036488  0.90939922  1
  O2-  O165  1  0.67865417  0.92884453  0.24240676  1
  O2-  O166  1  0.67967243  0.92527677  0.56835681  1
  O2-  O167  1  0.67800299  0.92746807  0.91416070  1
  O2-  O168  1  0.43119005  0.31900344  0.09059051  1
  O2-  O169  1  0.43261628  0.31987337  0.43170623  1
  O2-  O170  1  0.42915292  0.32129763  0.76600815  1
  O2-  O171  1  0.42770018  0.82847017  0.08478025  1
  O2-  O172  1  0.43097946  0.82196248  0.43300950  1
  O2-  O173  1  0.42358936  0.81906567  0.75800907  1
  O2-  O174  1  0.92463949  0.32010657  0.09607911  1
  O2-  O175  1  0.92526757  0.32105881  0.43212792  1
  O2-  O176  1  0.93426022  0.32302942  0.76506902  1
  O2-  O177  1  0.93064264  0.82058518  0.08762255  1
  O2-  O178  1  0.92809395  0.81944742  0.43403660  1
  O2-  O179  1  0.93232152  0.81906476  0.75944156  1
  O2-  O180  1  0.32599405  0.07224831  0.24436445  1
  O2-  O181  1  0.31994764  0.06970474  0.57526152  1
  O2-  O182  1  0.32491873  0.06846441  0.90720611  1
  O2-  O183  1  0.32229635  0.56619886  0.23548560  1
  O2-  O184  1  0.31931202  0.57562839  0.56948556  1
  O2-  O185  1  0.32275424  0.56759286  0.90281029  1
  O2-  O186  1  0.81960275  0.07098411  0.23531636  1
  O2-  O187  1  0.82381747  0.06924014  0.57088492  1
  O2-  O188  1  0.81651488  0.07103172  0.90336159  1
  O2-  O189  1  0.81730904  0.57391817  0.23963307  1
  O2-  O190  1  0.82031380  0.57382481  0.56543912  1
  O2-  O191  1  0.81992039  0.57481915  0.90996288  1
  O2-  O192  1  0.03858717  0.08197362  0.26833080  1
  O2-  O193  1  0.04621525  0.07827759  0.60572063  1
  O2-  O194  1  0.04249211  0.07884214  0.92920864  1
  O2-  O195  1  0.04113494  0.58246355  0.26337698  1
  O2-  O196  1  0.04898797  0.58746802  0.60879008  1
  O2-  O197  1  0.04554215  0.58863173  0.93569540  1
  O2-  O198  1  0.55453946  0.08338782  0.27012862  1
  O2-  O199  1  0.54107077  0.07795698  0.59998393  1
  O2-  O200  1  0.54672515  0.08431853  0.94226646  1
  O2-  O201  1  0.54605241  0.57932081  0.26524215  1
  O2-  O202  1  0.54713813  0.58875676  0.60592393  1
  O2-  O203  1  0.54225098  0.58202245  0.92694033  1
  O2-  O204  1  0.17072125  0.19862794  0.26859544  1
  O2-  O205  1  0.16559546  0.19595887  0.60233454  1
  O2-  O206  1  0.17109257  0.20368773  0.92920598  1
  O2-  O207  1  0.16895491  0.70854988  0.26563975  1
  O2-  O208  1  0.16303744  0.71272434  0.60802990  1
  O2-  O209  1  0.16369137  0.71157656  0.93614684  1
  O2-  O210  1  0.66364529  0.21125593  0.26972799  1
  O2-  O211  1  0.66897855  0.20388118  0.59910771  1
  O2-  O212  1  0.66056100  0.21018374  0.93990333  1
  O2-  O213  1  0.66639344  0.70852396  0.26105995  1
  O2-  O214  1  0.66492379  0.70983010  0.60740884  1
  O2-  O215  1  0.66667094  0.71157525  0.92708154  1
  O2-  O216  1  0.07891886  0.45733588  0.06603902  1
  O2-  O217  1  0.07679929  0.45714564  0.40082834  1
  O2-  O218  1  0.08815131  0.45835629  0.73295164  1
  O2-  O219  1  0.08659532  0.95626448  0.06077496  1
  O2-  O220  1  0.08634276  0.96209880  0.40439455  1
  O2-  O221  1  0.08719380  0.95216387  0.73225480  1
  O2-  O222  1  0.59013134  0.46039549  0.06284464  1
  O2-  O223  1  0.58825861  0.45792539  0.39742438  1
  O2-  O224  1  0.58665358  0.45827018  0.73132472  1
  O2-  O225  1  0.58253451  0.94937099  0.06408637  1
  O2-  O226  1  0.58346929  0.95102891  0.39367986  1
  O2-  O227  1  0.57466052  0.94923454  0.73383318  1
  O2-  O228  1  0.20645317  0.32853612  0.06590982  1
  O2-  O229  1  0.20517819  0.32764799  0.40153830  1
  O2-  O230  1  0.19779928  0.32940712  0.72660662  1
  O2-  O231  1  0.20664126  0.83890259  0.06207836  1
  O2-  O232  1  0.20908363  0.83361858  0.40329759  1
  O2-  O233  1  0.21098282  0.83866457  0.73460642  1
  O2-  O234  1  0.70538743  0.33856035  0.06427658  1
  O2-  O235  1  0.70588596  0.33861909  0.39933287  1
  O2-  O236  1  0.69981175  0.33445451  0.72657617  1
  O2-  O237  1  0.70498710  0.83225151  0.06303573  1
  O2-  O238  1  0.70321237  0.83256920  0.39225350  1
  O2-  O239  1  0.70996873  0.83377967  0.73965279  1
  O2-  O240  1  0.46525111  0.41267998  0.26262948  1
  O2-  O241  1  0.45932964  0.42099654  0.59894309  1
  O2-  O242  1  0.46278540  0.41000104  0.93842774  1
  O2-  O243  1  0.45693322  0.92041085  0.26318432  1
  O2-  O244  1  0.44752508  0.91225919  0.60548116  1
  O2-  O245  1  0.45582791  0.91690451  0.93228111  1
  O2-  O246  1  0.94792223  0.42202001  0.26643610  1
  O2-  O247  1  0.96325325  0.41836310  0.59888810  1
  O2-  O248  1  0.95345951  0.42321829  0.93230979  1
  O2-  O249  1  0.96133159  0.91915735  0.26778119  1
  O2-  O250  1  0.95834934  0.91157516  0.60809317  1
  O2-  O251  1  0.96003370  0.91101352  0.93405775  1
  O2-  O252  1  0.33345514  0.28875796  0.26384420  1
  O2-  O253  1  0.32880163  0.29477300  0.59958053  1
  O2-  O254  1  0.33808002  0.29458581  0.93765995  1
  O2-  O255  1  0.32834431  0.80050004  0.26696806  1
  O2-  O256  1  0.33501409  0.78762233  0.60662103  1
  O2-  O257  1  0.33210832  0.80162599  0.93421937  1
  O2-  O258  1  0.82790955  0.29169770  0.26714250  1
  O2-  O259  1  0.83223928  0.29754941  0.60035476  1
  O2-  O260  1  0.82802324  0.29296215  0.93118460  1
  O2-  O261  1  0.83251344  0.79547771  0.26255421  1
  O2-  O262  1  0.83677580  0.79229741  0.60890338  1
  O2-  O263  1  0.83745149  0.79342006  0.93574737  1
  O2-  O264  1  0.41305196  0.04211889  0.06239523  1
  O2-  O265  1  0.42108519  0.04984256  0.39432323  1
  O2-  O266  1  0.40941536  0.04102835  0.72978160  1
  O2-  O267  1  0.42326891  0.54189506  0.06577819  1
  O2-  O268  1  0.42128468  0.53918407  0.39983864  1
  O2-  O269  1  0.42015874  0.54293635  0.73442232  1
  O2-  O270  1  0.91634443  0.03671299  0.06667571  1
  O2-  O271  1  0.91503462  0.03854430  0.40470190  1
  O2-  O272  1  0.91726872  0.03879606  0.73895130  1
  O2-  O273  1  0.91494694  0.55203706  0.06079382  1
  O2-  O274  1  0.91202201  0.54887867  0.39236189  1
  O2-  O275  1  0.91983496  0.54227332  0.73363338  1
  O2-  O276  1  0.29798398  0.16391005  0.05827331  1
  O2-  O277  1  0.29811012  0.16509684  0.39736879  1
  O2-  O278  1  0.29341942  0.16348733  0.72809470  1
  O2-  O279  1  0.29957610  0.67294619  0.06384814  1
  O2-  O280  1  0.29631844  0.66955079  0.39908988  1
  O2-  O281  1  0.28674509  0.66368775  0.74010323  1
  O2-  O282  1  0.78635969  0.16712281  0.06954767  1
  O2-  O283  1  0.78687235  0.16670633  0.40264068  1
  O2-  O284  1  0.79341166  0.17318570  0.73522239  1
  O2-  O285  1  0.78913364  0.66456922  0.06167203  1
  O2-  O286  1  0.78995889  0.66495504  0.39182214  1
  O2-  O287  1  0.79126097  0.66491961  0.73688939  1
