# generated using pymatgen
data_Ca2Al2SiO7
_symmetry_space_group_name_H-M   'P 1'
_cell_length_a   15.46113398
_cell_length_b   15.45965598
_cell_length_c   15.28501094
_cell_angle_alpha   89.99315349
_cell_angle_beta   90.00950100
_cell_angle_gamma   89.97729296
_symmetry_Int_Tables_number   1
_chemical_formula_structural   Ca2Al2SiO7
_chemical_formula_sum   'Ca48 Al48 Si24 O168'
_cell_volume   3653.48122465
_cell_formula_units_Z   24
loop_
 _symmetry_equiv_pos_site_id
 _symmetry_equiv_pos_as_xyz
  1  'x, y, z'
loop_
 _atom_type_symbol
 _atom_type_oxidation_number
  Ca2+  2.0
  Al0+  0.0
  Si0+  0.0
  O2-  -2.0
loop_
 _atom_site_type_symbol
 _atom_site_label
 _atom_site_symmetry_multiplicity
 _atom_site_fract_x
 _atom_site_fract_y
 _atom_site_fract_z
 _atom_site_occupancy
  Ca2+  Ca0  1  0.17111553  0.08554630  0.17147086  1
  Ca2+  Ca1  1  0.17206641  0.08597900  0.50897093  1
  Ca2+  Ca2  1  0.18248181  0.08091133  0.83830523  1
  Ca2+  Ca3  1  0.17191099  0.59444016  0.16821591  1
  Ca2+  Ca4  1  0.16290488  0.57977337  0.50709048  1
  Ca2+  Ca5  1  0.16895930  0.58528897  0.83716735  1
  Ca2+  Ca6  1  0.67105395  0.08234341  0.17681838  1
  Ca2+  Ca7  1  0.66719654  0.08314622  0.50610700  1
  Ca2+  Ca8  1  0.65625619  0.07420902  0.83138439  1
  Ca2+  Ca9  1  0.65833497  0.57271662  0.17189276  1
  Ca2+  Ca10  1  0.66024396  0.57592542  0.50615678  1
  Ca2+  Ca11  1  0.65407842  0.57358265  0.83754768  1
  Ca2+  Ca12  1  0.06927861  0.33046424  0.16429828  1
  Ca2+  Ca13  1  0.07841342  0.32980494  0.49221534  1
  Ca2+  Ca14  1  0.07781940  0.34005262  0.82840043  1
  Ca2+  Ca15  1  0.08241677  0.82489408  0.16293652  1
  Ca2+  Ca16  1  0.08144537  0.82421936  0.49859386  1
  Ca2+  Ca17  1  0.08011815  0.82167257  0.82606353  1
  Ca2+  Ca18  1  0.59433436  0.32920214  0.16597614  1
  Ca2+  Ca19  1  0.58643686  0.32757904  0.49736293  1
  Ca2+  Ca20  1  0.57819600  0.33089368  0.82344357  1
  Ca2+  Ca21  1  0.58130459  0.81872599  0.15854888  1
  Ca2+  Ca22  1  0.58476347  0.82704911  0.50138713  1
  Ca2+  Ca23  1  0.57626189  0.82475853  0.82336318  1
  Ca2+  Ca24  1  0.33292247  0.42640473  0.16799946  1
  Ca2+  Ca25  1  0.32584740  0.41502349  0.51098795  1
  Ca2+  Ca26  1  0.32906203  0.42112414  0.83598054  1
  Ca2+  Ca27  1  0.33752090  0.91780302  0.16464536  1
  Ca2+  Ca28  1  0.33671943  0.92263438  0.50894469  1
  Ca2+  Ca29  1  0.34894661  0.92503584  0.83643114  1
  Ca2+  Ca30  1  0.82684501  0.41167848  0.17025893  1
  Ca2+  Ca31  1  0.82280543  0.41310634  0.50262547  1
  Ca2+  Ca32  1  0.82106840  0.41609891  0.83833507  1
  Ca2+  Ca33  1  0.83341253  0.92502452  0.17503008  1
  Ca2+  Ca34  1  0.83173454  0.92247506  0.50891618  1
  Ca2+  Ca35  1  0.82858844  0.91066966  0.83042634  1
  Ca2+  Ca36  1  0.42192025  0.16686898  0.16399255  1
  Ca2+  Ca37  1  0.42570447  0.16866200  0.50329947  1
  Ca2+  Ca38  1  0.41676048  0.17085894  0.82195687  1
  Ca2+  Ca39  1  0.42462753  0.66892097  0.15688431  1
  Ca2+  Ca40  1  0.42882370  0.66783135  0.50046707  1
  Ca2+  Ca41  1  0.42134322  0.67279750  0.83001210  1
  Ca2+  Ca42  1  0.91021423  0.17696835  0.16781487  1
  Ca2+  Ca43  1  0.91938481  0.17204589  0.48767806  1
  Ca2+  Ca44  1  0.91740035  0.17325548  0.83241030  1
  Ca2+  Ca45  1  0.93044927  0.65767896  0.16323020  1
  Ca2+  Ca46  1  0.92446531  0.66852102  0.50005348  1
  Ca2+  Ca47  1  0.92723950  0.66682863  0.82553801  1
  Al0+  Al48  1  0.00091309  0.00134192  0.00073902  1
  Al0+  Al49  1  0.00251700  -0.00047824  0.33487329  1
  Al0+  Al50  1  0.00115278  0.00016721  0.66754495  1
  Al0+  Al51  1  -0.00256600  0.49779023  -0.00854364  1
  Al0+  Al52  1  -0.00027868  0.50069179  0.32558575  1
  Al0+  Al53  1  -0.00134605  0.49883199  0.66678286  1
  Al0+  Al54  1  0.50203315  -0.00045704  0.00602762  1
  Al0+  Al55  1  0.49905631  0.00164110  0.33033921  1
  Al0+  Al56  1  0.50235937  0.00075625  0.66670555  1
  Al0+  Al57  1  0.49746511  0.49645586  0.00682602  1
  Al0+  Al58  1  0.49816410  0.50128668  0.33552710  1
  Al0+  Al59  1  0.49647043  0.49978030  0.66433467  1
  Al0+  Al60  1  0.24992975  0.24866115  0.00740571  1
  Al0+  Al61  1  0.25051180  0.25112581  0.32974566  1
  Al0+  Al62  1  0.24912145  0.25094973  0.67310299  1
  Al0+  Al63  1  0.25001259  0.75216617  -0.00364079  1
  Al0+  Al64  1  0.25035986  0.75228915  0.33228508  1
  Al0+  Al65  1  0.25003387  0.75014466  0.65857317  1
  Al0+  Al66  1  0.75072593  0.24939302  -0.00240031  1
  Al0+  Al67  1  0.74895091  0.24929749  0.33500172  1
  Al0+  Al68  1  0.75109155  0.25052397  0.66942715  1
  Al0+  Al69  1  0.75192522  0.74688902  -0.00063524  1
  Al0+  Al70  1  0.74935489  0.74907668  0.32879024  1
  Al0+  Al71  1  0.75268808  0.75087069  0.66370745  1
  Al0+  Al72  1  0.67890988  0.42902623  0.01415190  1
  Al0+  Al73  1  0.92782432  0.31999798  0.31887827  1
  Al0+  Al74  1  0.42985008  0.82310710  0.65074992  1
  Al0+  Al75  1  0.56923336  0.18064692  0.31938783  1
  Al0+  Al76  1  0.68109871  0.92878487  0.67958976  1
  Al0+  Al77  1  0.67752173  0.42967288  0.68047688  1
  Al0+  Al78  1  0.32314742  0.07119208  0.01700474  1
  Al0+  Al79  1  0.57111089  0.67805124  0.31828963  1
  Al0+  Al80  1  0.67942183  0.43073726  0.34862524  1
  Al0+  Al81  1  0.07051866  0.68028845  0.98519448  1
  Al0+  Al82  1  0.32064768  0.06886037  0.67936697  1
  Al0+  Al83  1  0.82072241  0.06934817  0.34710711  1
  Al0+  Al84  1  0.57242061  0.18020133  0.65306540  1
  Al0+  Al85  1  0.42595853  0.32145622  0.65353803  1
  Al0+  Al86  1  0.07102014  0.67697565  0.65046904  1
  Al0+  Al87  1  0.57164988  0.67432029  0.98524206  1
  Al0+  Al88  1  0.92908647  0.82302732  0.65130690  1
  Al0+  Al89  1  0.17724771  0.42977349  0.67942806  1
  Al0+  Al90  1  0.57210797  0.67706116  0.65228817  1
  Al0+  Al91  1  0.07387503  0.17682488  0.31881356  1
  Al0+  Al92  1  0.07080864  0.68021052  0.31851901  1
  Al0+  Al93  1  0.31761336  0.57152200  0.01296494  1
  Al0+  Al94  1  0.92857931  0.31876367  0.98288769  1
  Al0+  Al95  1  0.43163012  0.82206590  0.98517390  1
  Si0+  Si96  1  0.42654403  0.31909591  0.98723624  1
  Si0+  Si97  1  0.92867620  0.31986211  0.65127002  1
  Si0+  Si98  1  0.92798063  0.82266536  0.31661365  1
  Si0+  Si99  1  0.18074663  0.92855977  0.34971359  1
  Si0+  Si100  1  0.42860255  0.82262233  0.31587057  1
  Si0+  Si101  1  0.32080248  0.57400403  0.68223393  1
  Si0+  Si102  1  0.82165657  0.57138687  0.68261798  1
  Si0+  Si103  1  0.07117206  0.18003166  0.65527347  1
  Si0+  Si104  1  0.17685449  0.92977398  0.01762445  1
  Si0+  Si105  1  0.57122119  0.17957431  0.98632367  1
  Si0+  Si106  1  0.07377997  0.17786049  0.98226898  1
  Si0+  Si107  1  0.67699544  0.92677130  0.34898999  1
  Si0+  Si108  1  0.68034427  0.92669421  0.01587097  1
  Si0+  Si109  1  0.31952326  0.57334857  0.34985023  1
  Si0+  Si110  1  0.17461242  0.42790848  0.01857334  1
  Si0+  Si111  1  0.92767075  0.82593604  0.98423961  1
  Si0+  Si112  1  0.82396111  0.57124423  0.01628692  1
  Si0+  Si113  1  0.82130988  0.06997679  0.01452373  1
  Si0+  Si114  1  0.42659340  0.32360082  0.31538690  1
  Si0+  Si115  1  0.17877496  0.43042460  0.34569304  1
  Si0+  Si116  1  0.82451276  0.57327622  0.34933388  1
  Si0+  Si117  1  0.17727382  0.92655789  0.68340737  1
  Si0+  Si118  1  0.82506845  0.07302912  0.68543804  1
  Si0+  Si119  1  0.32159958  0.07268085  0.34991303  1
  O2-  O120  1  0.24668236  -0.00270965  0.06275588  1
  O2-  O121  1  0.24878203  0.00305962  0.39116574  1
  O2-  O122  1  0.24986144  -0.00922250  0.72789584  1
  O2-  O123  1  0.24016788  0.49972566  0.06279356  1
  O2-  O124  1  0.24841056  0.50141854  0.39010694  1
  O2-  O125  1  0.25046402  0.50600099  0.72540381  1
  O2-  O126  1  0.75465189  -0.00495806  0.05697795  1
  O2-  O127  1  0.74756974  -0.00665889  0.39342241  1
  O2-  O128  1  0.75560964  0.00411102  0.72820325  1
  O2-  O129  1  0.75055901  0.50754716  0.06021808  1
  O2-  O130  1  0.75368290  0.50718116  0.39401862  1
  O2-  O131  1  0.74770999  0.50869537  0.72759271  1
  O2-  O132  1  -0.00071421  0.24626260  0.26928412  1
  O2-  O133  1  -0.00136353  0.24751398  0.61043304  1
  O2-  O134  1  0.00760807  0.24790025  0.93665797  1
  O2-  O135  1  -0.00669775  0.75165312  0.27098766  1
  O2-  O136  1  0.00095264  0.75128776  0.60137612  1
  O2-  O137  1  -0.00572668  0.75483214  0.94142208  1
  O2-  O138  1  0.49691372  0.25664152  0.27072635  1
  O2-  O139  1  0.50261282  0.25465017  0.60337806  1
  O2-  O140  1  0.49662472  0.24703032  0.94553665  1
  O2-  O141  1  0.49842425  0.75515432  0.27260331  1
  O2-  O142  1  0.50167543  0.75070765  0.60162118  1
  O2-  O143  1  0.50284088  0.74935216  0.93585906  1
  O2-  O144  1  0.07210205  0.17742822  0.08763517  1
  O2-  O145  1  0.07581844  0.18054445  0.43289134  1
  O2-  O146  1  0.06976894  0.18110453  0.76046114  1
  O2-  O147  1  0.06960065  0.68256599  0.09867239  1
  O2-  O148  1  0.07094171  0.68037641  0.43088524  1
  O2-  O149  1  0.06938195  0.67737799  0.76409597  1
  O2-  O150  1  0.57263873  0.18059868  0.09171178  1
  O2-  O151  1  0.56766081  0.17874606  0.43177022  1
  O2-  O152  1  0.56991514  0.17993250  0.76733640  1
  O2-  O153  1  0.56923930  0.67633376  0.09923856  1
  O2-  O154  1  0.56952042  0.67783344  0.43092070  1
  O2-  O155  1  0.56874760  0.67636222  0.76566439  1
  O2-  O156  1  0.18076899  0.43098363  0.24065920  1
  O2-  O157  1  0.17680000  0.42839111  0.56569796  1
  O2-  O158  1  0.17744918  0.42632580  0.91301785  1
  O2-  O159  1  0.18261831  0.92599889  0.24454390  1
  O2-  O160  1  0.17506533  0.93152823  0.57762579  1
  O2-  O161  1  0.17229692  0.93304051  0.91261274  1
  O2-  O162  1  0.68111969  0.43046543  0.23527220  1
  O2-  O163  1  0.68177258  0.42731670  0.56748775  1
  O2-  O164  1  0.67920872  0.42676183  0.90116245  1
  O2-  O165  1  0.67862965  0.92850420  0.24283319  1
  O2-  O166  1  0.68251697  0.93139753  0.56643487  1
  O2-  O167  1  0.67887611  0.92861611  0.91100048  1
  O2-  O168  1  0.42602152  0.31841215  0.09248424  1
  O2-  O169  1  0.42276780  0.32157187  0.42051127  1
  O2-  O170  1  0.42498328  0.31907458  0.76772763  1
  O2-  O171  1  0.43423886  0.82176937  0.09930947  1
  O2-  O172  1  0.42742450  0.82322062  0.42104938  1
  O2-  O173  1  0.43161685  0.82273421  0.76408420  1
  O2-  O174  1  0.92673539  0.31555501  0.09569038  1
  O2-  O175  1  0.93058203  0.31970610  0.43276793  1
  O2-  O176  1  0.92904677  0.31882170  0.75653549  1
  O2-  O177  1  0.92963998  0.82997497  0.08991246  1
  O2-  O178  1  0.93052965  0.82356912  0.42163742  1
  O2-  O179  1  0.93167625  0.82202196  0.76533270  1
  O2-  O180  1  0.32210182  0.07099484  0.24471284  1
  O2-  O181  1  0.31701740  0.07041967  0.56589610  1
  O2-  O182  1  0.32299221  0.07236292  0.90416122  1
  O2-  O183  1  0.31873145  0.57389723  0.24443915  1
  O2-  O184  1  0.31996308  0.57254379  0.57623531  1
  O2-  O185  1  0.31728815  0.56840195  0.90023056  1
  O2-  O186  1  0.81787978  0.06802767  0.23316507  1
  O2-  O187  1  0.82739028  0.07370905  0.57999428  1
  O2-  O188  1  0.82148106  0.07057093  0.90965543  1
  O2-  O189  1  0.82615692  0.57183781  0.24368884  1
  O2-  O190  1  0.82539767  0.56652182  0.57701586  1
  O2-  O191  1  0.82736223  0.56961264  0.91103111  1
  O2-  O192  1  0.05088606  0.07647040  0.26763760  1
  O2-  O193  1  0.04805883  0.08701898  0.60837720  1
  O2-  O194  1  0.04578911  0.08486330  0.93612336  1
  O2-  O195  1  0.04363322  0.58411744  0.26170723  1
  O2-  O196  1  0.03803963  0.57942646  0.59778870  1
  O2-  O197  1  0.04138866  0.58334444  0.93195791  1
  O2-  O198  1  0.53794474  0.08448800  0.26325613  1
  O2-  O199  1  0.54287701  0.08331217  0.59928434  1
  O2-  O200  1  0.54601586  0.08574095  0.94280723  1
  O2-  O201  1  0.53561325  0.58238268  0.26542789  1
  O2-  O202  1  0.53971042  0.58071330  0.59756988  1
  O2-  O203  1  0.53830168  0.57565209  0.93678444  1
  O2-  O204  1  0.17064039  0.20775200  0.26353933  1
  O2-  O205  1  0.16154773  0.21013385  0.60774823  1
  O2-  O206  1  0.16920633  0.20184910  0.93949622  1
  O2-  O207  1  0.16650967  0.71603060  0.26525686  1
  O2-  O208  1  0.16877560  0.70266021  0.59571950  1
  O2-  O209  1  0.16572088  0.71220205  0.93066622  1
  O2-  O210  1  0.66596004  0.20992821  0.26532179  1
  O2-  O211  1  0.67244195  0.20612663  0.60211654  1
  O2-  O212  1  0.66123872  0.20834675  0.93749403  1
  O2-  O213  1  0.66870844  0.70451949  0.26309797  1
  O2-  O214  1  0.67150714  0.70254962  0.60099226  1
  O2-  O215  1  0.67351963  0.69649582  0.93696472  1
  O2-  O216  1  0.07860906  0.45076862  0.06006120  1
  O2-  O217  1  0.08585698  0.45736782  0.39122686  1
  O2-  O218  1  0.08062977  0.45916771  0.73476053  1
  O2-  O219  1  0.08398599  0.95684471  0.06666431  1
  O2-  O220  1  0.08806920  0.95176997  0.39724979  1
  O2-  O221  1  0.08565867  0.95595073  0.73223607  1
  O2-  O222  1  0.58187175  0.45332383  0.07075818  1
  O2-  O223  1  0.58095846  0.45930101  0.40049450  1
  O2-  O224  1  0.57812233  0.45583032  0.73172738  1
  O2-  O225  1  0.59178122  0.95811415  0.06716224  1
  O2-  O226  1  0.58329022  0.95530628  0.39282876  1
  O2-  O227  1  0.58607782  0.96149806  0.73582465  1
  O2-  O228  1  0.20250007  0.33544172  0.06611639  1
  O2-  O229  1  0.20689000  0.33808059  0.39268252  1
  O2-  O230  1  0.20762706  0.33525325  0.73789428  1
  O2-  O231  1  0.20280848  0.83613307  0.06320040  1
  O2-  O232  1  0.21207619  0.83850877  0.39911639  1
  O2-  O233  1  0.19805151  0.83011409  0.72461137  1
  O2-  O234  1  0.71559055  0.33253331  0.06663844  1
  O2-  O235  1  0.71152097  0.33429538  0.40187774  1
  O2-  O236  1  0.71248390  0.33437754  0.73568848  1
  O2-  O237  1  0.70569588  0.83344521  0.06264100  1
  O2-  O238  1  0.69984070  0.83143809  0.39244045  1
  O2-  O239  1  0.71271936  0.83249665  0.73477485  1
  O2-  O240  1  0.44998849  0.41832091  0.27127966  1
  O2-  O241  1  0.44586286  0.42087069  0.60071421  1
  O2-  O242  1  0.45464709  0.41038855  0.94076889  1
  O2-  O243  1  0.45157886  0.91690016  0.26979881  1
  O2-  O244  1  0.45992117  0.92054877  0.59751457  1
  O2-  O245  1  0.46351837  0.92114207  0.93543522  1
  O2-  O246  1  0.95706307  0.41675066  0.26317924  1
  O2-  O247  1  0.95722395  0.41069236  0.60407152  1
  O2-  O248  1  0.95545700  0.41465858  0.92648157  1
  O2-  O249  1  0.95792407  0.91480875  0.26952919  1
  O2-  O250  1  0.95776909  0.92227626  0.59914454  1
  O2-  O251  1  0.95398332  0.91898292  0.93699758  1
  O2-  O252  1  0.33467653  0.29641371  0.26630018  1
  O2-  O253  1  0.32852939  0.28795991  0.60066366  1
  O2-  O254  1  0.33359438  0.29239271  0.94140695  1
  O2-  O255  1  0.33570527  0.79530089  0.26916147  1
  O2-  O256  1  0.33100570  0.79858096  0.59672776  1
  O2-  O257  1  0.33157278  0.79988148  0.93433744  1
  O2-  O258  1  0.83076669  0.28854230  0.26546699  1
  O2-  O259  1  0.83736550  0.29212291  0.60416785  1
  O2-  O260  1  0.83434242  0.28200427  0.92762001  1
  O2-  O261  1  0.83319820  0.80253166  0.27056100  1
  O2-  O262  1  0.83193540  0.79699370  0.59607841  1
  O2-  O263  1  0.83334425  0.80163897  0.93970031  1
  O2-  O264  1  0.41897970  0.03938177  0.07327976  1
  O2-  O265  1  0.41316889  0.04286835  0.39658044  1
  O2-  O266  1  0.41805958  0.04193286  0.73324735  1
  O2-  O267  1  0.41102201  0.53581625  0.07140387  1
  O2-  O268  1  0.41038159  0.54501912  0.39781922  1
  O2-  O269  1  0.41302371  0.54721954  0.72959636  1
  O2-  O270  1  0.91456218  0.04686861  0.06235965  1
  O2-  O271  1  0.91934615  0.04195068  0.39969749  1
  O2-  O272  1  0.91826242  0.04667293  0.73342746  1
  O2-  O273  1  0.91576878  0.53829676  0.06322260  1
  O2-  O274  1  0.91839466  0.54583747  0.39467382  1
  O2-  O275  1  0.91227860  0.53891545  0.73147836  1
  O2-  O276  1  0.29235082  0.16699605  0.07371899  1
  O2-  O277  1  0.29500401  0.16589092  0.39481380  1
  O2-  O278  1  0.28543578  0.16292706  0.73610291  1
  O2-  O279  1  0.28887996  0.66954337  0.06674486  1
  O2-  O280  1  0.29084265  0.66519350  0.39620440  1
  O2-  O281  1  0.29526728  0.66843872  0.72667664  1
  O2-  O282  1  0.78785131  0.15978822  0.06203766  1
  O2-  O283  1  0.78957132  0.16504971  0.40149318  1
  O2-  O284  1  0.79969066  0.16627815  0.73214360  1
  O2-  O285  1  0.80769100  0.66750628  0.06192990  1
  O2-  O286  1  0.80185655  0.66897176  0.39278943  1
  O2-  O287  1  0.80567426  0.66791133  0.72548408  1
