# generated using pymatgen
data_Ca2Al2SiO7
_symmetry_space_group_name_H-M   'P 1'
_cell_length_a   15.45935908
_cell_length_b   15.46199800
_cell_length_c   15.28580266
_cell_angle_alpha   90.01260072
_cell_angle_beta   89.99434646
_cell_angle_gamma   90.01797098
_symmetry_Int_Tables_number   1
_chemical_formula_structural   Ca2Al2SiO7
_chemical_formula_sum   'Ca48 Al48 Si24 O168'
_cell_volume   3653.80454983
_cell_formula_units_Z   24
loop_
 _symmetry_equiv_pos_site_id
 _symmetry_equiv_pos_as_xyz
  1  'x, y, z'
loop_
 _atom_type_symbol
 _atom_type_oxidation_number
  Ca2+  2.0
  Al0+  0.0
  Si0+  0.0
  O2-  -2.0
loop_
 _atom_site_type_symbol
 _atom_site_label
 _atom_site_symmetry_multiplicity
 _atom_site_fract_x
 _atom_site_fract_y
 _atom_site_fract_z
 _atom_site_occupancy
  Ca2+  Ca0  1  0.17921834  0.08449696  0.17456587  1
  Ca2+  Ca1  1  0.16856708  0.07688141  0.49935658  1
  Ca2+  Ca2  1  0.16878582  0.07876314  0.83753971  1
  Ca2+  Ca3  1  0.17611354  0.57556128  0.17616925  1
  Ca2+  Ca4  1  0.17622211  0.57533939  0.50419677  1
  Ca2+  Ca5  1  0.16871196  0.57812970  0.82950128  1
  Ca2+  Ca6  1  0.66819363  0.08665746  0.16212000  1
  Ca2+  Ca7  1  0.66709989  0.08469139  0.50505483  1
  Ca2+  Ca8  1  0.66697586  0.08330512  0.84447434  1
  Ca2+  Ca9  1  0.66392607  0.57040639  0.17355606  1
  Ca2+  Ca10  1  0.66817336  0.57168411  0.50328800  1
  Ca2+  Ca11  1  0.67321430  0.56916908  0.83332622  1
  Ca2+  Ca12  1  0.07266105  0.34159206  0.16303777  1
  Ca2+  Ca13  1  0.07505313  0.34794583  0.49608102  1
  Ca2+  Ca14  1  0.07254664  0.33450303  0.82563995  1
  Ca2+  Ca15  1  0.08332392  0.83777227  0.16924620  1
  Ca2+  Ca16  1  0.07795265  0.83857793  0.49478124  1
  Ca2+  Ca17  1  0.07798848  0.83382416  0.82227389  1
  Ca2+  Ca18  1  0.57195197  0.33449058  0.15944617  1
  Ca2+  Ca19  1  0.58259888  0.33417924  0.49472587  1
  Ca2+  Ca20  1  0.58830413  0.32431767  0.83111145  1
  Ca2+  Ca21  1  0.58653878  0.82660609  0.16380661  1
  Ca2+  Ca22  1  0.58002210  0.82017063  0.49136644  1
  Ca2+  Ca23  1  0.58409547  0.83504733  0.82945064  1
  Ca2+  Ca24  1  0.33196317  0.41404953  0.18024052  1
  Ca2+  Ca25  1  0.32855946  0.42142392  0.50157768  1
  Ca2+  Ca26  1  0.33171112  0.41475890  0.83397963  1
  Ca2+  Ca27  1  0.33224619  0.93291937  0.17501549  1
  Ca2+  Ca28  1  0.32249128  0.91929313  0.50296732  1
  Ca2+  Ca29  1  0.32774427  0.92347059  0.83879985  1
  Ca2+  Ca30  1  0.82157251  0.40393609  0.17000851  1
  Ca2+  Ca31  1  0.82633593  0.41571007  0.50826716  1
  Ca2+  Ca32  1  0.82573822  0.40780279  0.83612380  1
  Ca2+  Ca33  1  0.83181017  0.92243137  0.16891129  1
  Ca2+  Ca34  1  0.83828572  0.91570467  0.50477853  1
  Ca2+  Ca35  1  0.82783960  0.92384211  0.84157274  1
  Ca2+  Ca36  1  0.41453637  0.17477321  0.15883817  1
  Ca2+  Ca37  1  0.42208985  0.17118124  0.49396978  1
  Ca2+  Ca38  1  0.42602077  0.16668756  0.83310334  1
  Ca2+  Ca39  1  0.42298440  0.65930865  0.16778123  1
  Ca2+  Ca40  1  0.41938059  0.65655416  0.49264208  1
  Ca2+  Ca41  1  0.41693636  0.66603064  0.82770930  1
  Ca2+  Ca42  1  0.91662947  0.17542636  0.16248898  1
  Ca2+  Ca43  1  0.91973607  0.18133480  0.49610490  1
  Ca2+  Ca44  1  0.90781006  0.17640432  0.83159035  1
  Ca2+  Ca45  1  0.91684241  0.67315386  0.16581249  1
  Ca2+  Ca46  1  0.91021276  0.67657381  0.49592842  1
  Ca2+  Ca47  1  0.91325167  0.67303107  0.82321490  1
  Al0+  Al48  1  -0.00118603  -0.00080675  0.00370543  1
  Al0+  Al49  1  -0.00107965  0.00213925  0.33065825  1
  Al0+  Al50  1  0.00000371  0.00137495  0.66723680  1
  Al0+  Al51  1  0.00055112  0.50255354  -0.00547377  1
  Al0+  Al52  1  -0.00194172  0.50483516  0.32924557  1
  Al0+  Al53  1  0.00177649  0.50389044  0.66850163  1
  Al0+  Al54  1  0.49785596  -0.00192938  0.00554772  1
  Al0+  Al55  1  0.50283037  -0.00154887  0.33749747  1
  Al0+  Al56  1  0.50015604  -0.00059228  0.66038335  1
  Al0+  Al57  1  0.50011495  0.50159664  -0.00303741  1
  Al0+  Al58  1  0.50265878  0.49726357  0.33245856  1
  Al0+  Al59  1  0.50134570  0.49891666  0.67518861  1
  Al0+  Al60  1  0.24744771  0.25020663  -0.00147870  1
  Al0+  Al61  1  0.24970787  0.24929347  0.34103477  1
  Al0+  Al62  1  0.25173162  0.24913964  0.66978195  1
  Al0+  Al63  1  0.24968530  0.74741844  -0.00028335  1
  Al0+  Al64  1  0.25028870  0.75165618  0.33823589  1
  Al0+  Al65  1  0.24898044  0.75196124  0.67395324  1
  Al0+  Al66  1  0.74901608  0.24932621  0.00241039  1
  Al0+  Al67  1  0.75091496  0.24771251  0.33443539  1
  Al0+  Al68  1  0.75052429  0.24806172  0.66059875  1
  Al0+  Al69  1  0.75036760  0.74908394  0.00158965  1
  Al0+  Al70  1  0.74921485  0.75030048  0.32285600  1
  Al0+  Al71  1  0.74819681  0.74951136  0.66534608  1
  Al0+  Al72  1  0.68161307  0.42562314  0.68273772  1
  Al0+  Al73  1  0.56815671  0.17861206  0.98712038  1
  Al0+  Al74  1  0.32487508  0.07322404  0.35111483  1
  Al0+  Al75  1  0.56893497  0.67787004  0.31911374  1
  Al0+  Al76  1  0.17488124  0.42862854  0.34648679  1
  Al0+  Al77  1  0.68181869  0.42730442  0.34635372  1
  Al0+  Al78  1  0.31880095  0.07153495  0.01262724  1
  Al0+  Al79  1  0.92984275  0.82290077  0.31706731  1
  Al0+  Al80  1  0.67986740  0.42985016  0.01471905  1
  Al0+  Al81  1  0.92932822  0.32005084  0.98580000  1
  Al0+  Al82  1  0.32210578  0.57066639  0.68340566  1
  Al0+  Al83  1  0.67746724  0.92656580  0.01590793  1
  Al0+  Al84  1  0.42540193  0.32374486  0.98366430  1
  Al0+  Al85  1  0.82130188  0.07169154  0.01647964  1
  Al0+  Al86  1  0.92872777  0.82102663  0.65409008  1
  Al0+  Al87  1  0.82098756  0.57361273  0.67924367  1
  Al0+  Al88  1  0.57084433  0.17838618  0.65194153  1
  Al0+  Al89  1  0.93147075  0.32231725  0.65265763  1
  Al0+  Al90  1  0.17811919  0.93216079  0.68160413  1
  Al0+  Al91  1  0.92936798  0.32398942  0.31975773  1
  Al0+  Al92  1  0.32317823  0.56951683  0.34581979  1
  Al0+  Al93  1  0.43022887  0.31767963  0.32316187  1
  Al0+  Al94  1  0.17786818  0.93075697  0.34777839  1
  Al0+  Al95  1  0.17814907  0.42707321  0.68349154  1
  Si0+  Si96  1  0.82040966  0.57545861  0.34701362  1
  Si0+  Si97  1  0.07220845  0.68047364  0.98248992  1
  Si0+  Si98  1  0.07085039  0.17895658  0.31755025  1
  Si0+  Si99  1  0.42719558  0.82310643  0.31704180  1
  Si0+  Si100  1  0.57347417  0.17454599  0.31581163  1
  Si0+  Si101  1  0.67803591  0.92856779  0.67831472  1
  Si0+  Si102  1  0.82419508  0.57227472  0.01744238  1
  Si0+  Si103  1  0.56903375  0.67862136  0.65280552  1
  Si0+  Si104  1  0.92906203  0.82102510  0.98393384  1
  Si0+  Si105  1  0.68101420  0.92577819  0.34985918  1
  Si0+  Si106  1  0.82013325  0.06959172  0.35081210  1
  Si0+  Si107  1  0.07434238  0.67983640  0.31564588  1
  Si0+  Si108  1  0.42751726  0.82097025  0.65200632  1
  Si0+  Si109  1  0.17770002  0.43029519  0.01364895  1
  Si0+  Si110  1  0.42832791  0.81890212  0.98593635  1
  Si0+  Si111  1  0.07443051  0.68037893  0.64841997  1
  Si0+  Si112  1  0.32548888  0.07060289  0.68437211  1
  Si0+  Si113  1  0.07429511  0.17787731  0.65050012  1
  Si0+  Si114  1  0.32044258  0.57132652  0.01543328  1
  Si0+  Si115  1  0.17788576  0.92550765  0.01660497  1
  Si0+  Si116  1  0.07157937  0.17597583  0.98384548  1
  Si0+  Si117  1  0.42839420  0.32290567  0.64980407  1
  Si0+  Si118  1  0.81994660  0.06983559  0.67962004  1
  Si0+  Si119  1  0.57240069  0.67899424  0.98192436  1
  O2-  O120  1  0.24315377  -0.00276656  0.05933511  1
  O2-  O121  1  0.25253951  -0.00043809  0.39833545  1
  O2-  O122  1  0.25286615  0.00611363  0.72899139  1
  O2-  O123  1  0.25492691  0.49471797  0.05590372  1
  O2-  O124  1  0.24929310  0.49927961  0.39467082  1
  O2-  O125  1  0.25202321  0.49726310  0.73441789  1
  O2-  O126  1  0.74903352  -0.00102678  0.06602646  1
  O2-  O127  1  0.74976063  -0.00215742  0.39347374  1
  O2-  O128  1  0.74814965  -0.00071315  0.72107128  1
  O2-  O129  1  0.75707697  0.50273063  0.06176131  1
  O2-  O130  1  0.75924183  0.50050441  0.39109319  1
  O2-  O131  1  0.75773095  0.49501211  0.73124809  1
  O2-  O132  1  0.00916992  0.25417294  0.27338153  1
  O2-  O133  1  0.01219670  0.25294192  0.60665894  1
  O2-  O134  1  0.00186849  0.24306527  0.93900513  1
  O2-  O135  1  0.00652926  0.74982737  0.27076608  1
  O2-  O136  1  0.00204077  0.74614527  0.60537546  1
  O2-  O137  1  0.00115418  0.75203027  0.94111338  1
  O2-  O138  1  0.50100214  0.24001521  0.27433880  1
  O2-  O139  1  0.49724482  0.25410646  0.60609772  1
  O2-  O140  1  0.49863411  0.25189474  0.93486450  1
  O2-  O141  1  0.49223158  0.75130967  0.27198871  1
  O2-  O142  1  0.49392475  0.74553435  0.61029982  1
  O2-  O143  1  0.50202392  0.75175024  0.94084024  1
  O2-  O144  1  0.07311730  0.17756522  0.08925625  1
  O2-  O145  1  0.06466480  0.17337183  0.42285092  1
  O2-  O146  1  0.07071030  0.17452234  0.75617523  1
  O2-  O147  1  0.07404750  0.68057515  0.08745634  1
  O2-  O148  1  0.07333480  0.67889134  0.42070122  1
  O2-  O149  1  0.07556010  0.68440452  0.75462283  1
  O2-  O150  1  0.56613687  0.17965359  0.10051791  1
  O2-  O151  1  0.57470065  0.17520463  0.42166483  1
  O2-  O152  1  0.57017111  0.17335739  0.76460616  1
  O2-  O153  1  0.57053552  0.67785995  0.08699346  1
  O2-  O154  1  0.56997219  0.68022708  0.43258076  1
  O2-  O155  1  0.57006639  0.68328887  0.75809676  1
  O2-  O156  1  0.17542962  0.43115737  0.23204303  1
  O2-  O157  1  0.17848652  0.43060846  0.57031636  1
  O2-  O158  1  0.17567320  0.43401602  0.90894278  1
  O2-  O159  1  0.17905513  0.93397620  0.23373475  1
  O2-  O160  1  0.17811994  0.93314720  0.56904533  1
  O2-  O161  1  0.17875860  0.92442048  0.91081530  1
  O2-  O162  1  0.68044167  0.42837848  0.23316836  1
  O2-  O163  1  0.68036652  0.42797105  0.56908493  1
  O2-  O164  1  0.68143814  0.43052307  0.90183526  1
  O2-  O165  1  0.68180153  0.92515046  0.24512529  1
  O2-  O166  1  0.67878677  0.92765257  0.57316030  1
  O2-  O167  1  0.68010997  0.92474371  0.90151194  1
  O2-  O168  1  0.42448007  0.32390127  0.09751348  1
  O2-  O169  1  0.43409461  0.31935101  0.43615269  1
  O2-  O170  1  0.42833519  0.32089671  0.75535764  1
  O2-  O171  1  0.42580401  0.81474041  0.09063625  1
  O2-  O172  1  0.43089496  0.82407986  0.42280810  1
  O2-  O173  1  0.43131484  0.82404429  0.75751852  1
  O2-  O174  1  0.93214079  0.32091631  0.09893339  1
  O2-  O175  1  0.92802475  0.32142565  0.43284859  1
  O2-  O176  1  0.92877051  0.31635439  0.76576207  1
  O2-  O177  1  0.92989684  0.81986272  0.08898283  1
  O2-  O178  1  0.92824812  0.82130219  0.43021218  1
  O2-  O179  1  0.92907584  0.82133351  0.76753837  1
  O2-  O180  1  0.32375597  0.07233896  0.23710771  1
  O2-  O181  1  0.32720740  0.06666178  0.57921207  1
  O2-  O182  1  0.31811690  0.06683921  0.89932817  1
  O2-  O183  1  0.32200519  0.56806896  0.23153852  1
  O2-  O184  1  0.32240824  0.57083510  0.57018746  1
  O2-  O185  1  0.31681457  0.57714676  0.91087109  1
  O2-  O186  1  0.81939397  0.06978121  0.24597754  1
  O2-  O187  1  0.82010093  0.06844664  0.57429443  1
  O2-  O188  1  0.82199040  0.06846970  0.90231216  1
  O2-  O189  1  0.81766897  0.57815713  0.24133813  1
  O2-  O190  1  0.81415726  0.57823181  0.56589973  1
  O2-  O191  1  0.82254388  0.57546492  0.91205086  1
  O2-  O192  1  0.03842487  0.08956740  0.26665907  1
  O2-  O193  1  0.04045668  0.08765339  0.60224321  1
  O2-  O194  1  0.04799170  0.08044670  0.93932648  1
  O2-  O195  1  0.04661575  0.58868345  0.26486950  1
  O2-  O196  1  0.05432524  0.58546045  0.60429404  1
  O2-  O197  1  0.04396892  0.59021617  0.93253622  1
  O2-  O198  1  0.55357610  0.07817250  0.27279857  1
  O2-  O199  1  0.54041164  0.08200814  0.59505531  1
  O2-  O200  1  0.54004980  0.07797504  0.93627581  1
  O2-  O201  1  0.53858326  0.58244393  0.26281029  1
  O2-  O202  1  0.54452902  0.58485028  0.60830369  1
  O2-  O203  1  0.54228594  0.58937504  0.93239719  1
  O2-  O204  1  0.16784261  0.19720249  0.27661429  1
  O2-  O205  1  0.17132595  0.19403773  0.60795803  1
  O2-  O206  1  0.16362127  0.20188758  0.93509097  1
  O2-  O207  1  0.16837941  0.70565867  0.26908978  1
  O2-  O208  1  0.16705440  0.71123537  0.60345475  1
  O2-  O209  1  0.16372530  0.70853638  0.93382439  1
  O2-  O210  1  0.66676560  0.20198882  0.27088015  1
  O2-  O211  1  0.66707779  0.20604534  0.59557477  1
  O2-  O212  1  0.66793393  0.20478022  0.93556634  1
  O2-  O213  1  0.66229337  0.71200735  0.26086495  1
  O2-  O214  1  0.65776790  0.71176854  0.60300391  1
  O2-  O215  1  0.66491589  0.70663431  0.93567704  1
  O2-  O216  1  0.08815047  0.46600556  0.06112770  1
  O2-  O217  1  0.07692627  0.46231522  0.39773957  1
  O2-  O218  1  0.08093554  0.45909494  0.73752025  1
  O2-  O219  1  0.08286853  0.94645952  0.06078228  1
  O2-  O220  1  0.07952823  0.96245715  0.39936342  1
  O2-  O221  1  0.08190033  0.96357328  0.73705493  1
  O2-  O222  1  0.58272510  0.46506036  0.06585309  1
  O2-  O223  1  0.58754702  0.46229104  0.40087716  1
  O2-  O224  1  0.58544520  0.45681051  0.73754948  1
  O2-  O225  1  0.57861479  0.94988281  0.06940498  1
  O2-  O226  1  0.58885525  0.94992240  0.39839702  1
  O2-  O227  1  0.58545594  0.95520605  0.72486613  1
  O2-  O228  1  0.19627029  0.33576355  0.05836896  1
  O2-  O229  1  0.19720872  0.33011704  0.40025304  1
  O2-  O230  1  0.20292672  0.32688273  0.73573754  1
  O2-  O231  1  0.20668002  0.83256216  0.06230341  1
  O2-  O232  1  0.20169202  0.83176643  0.40137566  1
  O2-  O233  1  0.20826355  0.83679125  0.73801437  1
  O2-  O234  1  0.70853604  0.33343341  0.06865211  1
  O2-  O235  1  0.71038849  0.33022791  0.40030860  1
  O2-  O236  1  0.71055348  0.32591974  0.73292623  1
  O2-  O237  1  0.70816456  0.82839960  0.06896802  1
  O2-  O238  1  0.71091799  0.83384540  0.39564688  1
  O2-  O239  1  0.70489105  0.83765780  0.72731422  1
  O2-  O240  1  0.46351903  0.41233390  0.26676324  1
  O2-  O241  1  0.45534600  0.41761786  0.60721016  1
  O2-  O242  1  0.45170399  0.42343284  0.93211605  1
  O2-  O243  1  0.45906228  0.91514357  0.27056605  1
  O2-  O244  1  0.45891870  0.90949066  0.60082668  1
  O2-  O245  1  0.45298819  0.91138438  0.93883601  1
  O2-  O246  1  0.95207492  0.42251312  0.26511501  1
  O2-  O247  1  0.95607560  0.42234066  0.60233532  1
  O2-  O248  1  0.96053372  0.41718967  0.93239798  1
  O2-  O249  1  0.95975041  0.91947930  0.26225628  1
  O2-  O250  1  0.95996830  0.91804125  0.60079033  1
  O2-  O251  1  0.95462112  0.91417198  0.93791943  1
  O2-  O252  1  0.33034517  0.29193125  0.27197341  1
  O2-  O253  1  0.33390647  0.29770455  0.60503770  1
  O2-  O254  1  0.32658367  0.29473390  0.93132765  1
  O2-  O255  1  0.33161028  0.80362957  0.27306351  1
  O2-  O256  1  0.33346981  0.79739454  0.60809069  1
  O2-  O257  1  0.33752689  0.78774740  0.93668992  1
  O2-  O258  1  0.83509854  0.28354988  0.26679531  1
  O2-  O259  1  0.83778582  0.28501106  0.59705422  1
  O2-  O260  1  0.83272732  0.28788360  0.93344818  1
  O2-  O261  1  0.83535837  0.79012398  0.26011327  1
  O2-  O262  1  0.83114468  0.79170162  0.59984728  1
  O2-  O263  1  0.83692722  0.79211359  0.93748370  1
  O2-  O264  1  0.41261466  0.03816248  0.06925323  1
  O2-  O265  1  0.42366829  0.04362752  0.40308168  1
  O2-  O266  1  0.41714509  0.03735356  0.73039443  1
  O2-  O267  1  0.41519896  0.55093305  0.05891456  1
  O2-  O268  1  0.42026997  0.53904676  0.39897547  1
  O2-  O269  1  0.42034728  0.54590579  0.73876611  1
  O2-  O270  1  0.91943624  0.04227730  0.07072508  1
  O2-  O271  1  0.91163784  0.04125679  0.39737490  1
  O2-  O272  1  0.91070278  0.04246608  0.72845229  1
  O2-  O273  1  0.91977672  0.55024761  0.06106246  1
  O2-  O274  1  0.91687947  0.55959504  0.38958042  1
  O2-  O275  1  0.92317638  0.55917314  0.72836555  1
  O2-  O276  1  0.28738010  0.16822832  0.06655194  1
  O2-  O277  1  0.29520624  0.16888376  0.40767632  1
  O2-  O278  1  0.30565611  0.16578082  0.72837162  1
  O2-  O279  1  0.28713096  0.66076228  0.06509963  1
  O2-  O280  1  0.29976002  0.66959998  0.39742300  1
  O2-  O281  1  0.29288591  0.66919854  0.73728933  1
  O2-  O282  1  0.79230491  0.16854502  0.07122188  1
  O2-  O283  1  0.79115027  0.16002510  0.40009652  1
  O2-  O284  1  0.79089143  0.16076802  0.72655915  1
  O2-  O285  1  0.79763841  0.66552871  0.06389780  1
  O2-  O286  1  0.78789513  0.66731012  0.39278346  1
  O2-  O287  1  0.78445514  0.66907308  0.73578840  1
