# generated using pymatgen
data_Ca2Al2SiO7
_symmetry_space_group_name_H-M   'P 1'
_cell_length_a   15.45576336
_cell_length_b   15.45591687
_cell_length_c   15.28296831
_cell_angle_alpha   89.99797284
_cell_angle_beta   90.00138556
_cell_angle_gamma   90.00547254
_symmetry_Int_Tables_number   1
_chemical_formula_structural   Ca2Al2SiO7
_chemical_formula_sum   'Ca48 Al48 Si24 O168'
_cell_volume   3650.84120373
_cell_formula_units_Z   24
loop_
 _symmetry_equiv_pos_site_id
 _symmetry_equiv_pos_as_xyz
  1  'x, y, z'
loop_
 _atom_type_symbol
 _atom_type_oxidation_number
  Ca2+  2.0
  Al0+  0.0
  Si0+  0.0
  O2-  -2.0
loop_
 _atom_site_type_symbol
 _atom_site_label
 _atom_site_symmetry_multiplicity
 _atom_site_fract_x
 _atom_site_fract_y
 _atom_site_fract_z
 _atom_site_occupancy
  Ca2+  Ca0  1  0.16504010  0.07806835  0.17040330  1
  Ca2+  Ca1  1  0.18025776  0.08159061  0.51145946  1
  Ca2+  Ca2  1  0.15439142  0.07649342  0.83592698  1
  Ca2+  Ca3  1  0.16230469  0.58090500  0.17088340  1
  Ca2+  Ca4  1  0.16676217  0.57134721  0.50432806  1
  Ca2+  Ca5  1  0.17372660  0.58179270  0.83598689  1
  Ca2+  Ca6  1  0.67238631  0.08682719  0.16878193  1
  Ca2+  Ca7  1  0.66749324  0.09075004  0.50642636  1
  Ca2+  Ca8  1  0.68140129  0.09533919  0.83368915  1
  Ca2+  Ca9  1  0.67630642  0.57753937  0.16996889  1
  Ca2+  Ca10  1  0.67355703  0.57760046  0.50581137  1
  Ca2+  Ca11  1  0.66729282  0.56718492  0.83943975  1
  Ca2+  Ca12  1  0.07929772  0.32881546  0.15815083  1
  Ca2+  Ca13  1  0.08738087  0.33386445  0.49875456  1
  Ca2+  Ca14  1  0.07392778  0.32458726  0.82361920  1
  Ca2+  Ca15  1  0.08333392  0.82223696  0.15561796  1
  Ca2+  Ca16  1  0.08852054  0.82697711  0.49776946  1
  Ca2+  Ca17  1  0.08864658  0.83397881  0.83522744  1
  Ca2+  Ca18  1  0.57981789  0.33337954  0.16576711  1
  Ca2+  Ca19  1  0.57642209  0.32485444  0.49684090  1
  Ca2+  Ca20  1  0.58519688  0.33325192  0.82453060  1
  Ca2+  Ca21  1  0.57511632  0.83345689  0.16592910  1
  Ca2+  Ca22  1  0.57425807  0.83275459  0.49184221  1
  Ca2+  Ca23  1  0.58126529  0.82884198  0.82867557  1
  Ca2+  Ca24  1  0.32630296  0.42021997  0.17389425  1
  Ca2+  Ca25  1  0.32332546  0.41529228  0.50476571  1
  Ca2+  Ca26  1  0.32829753  0.42475705  0.83547406  1
  Ca2+  Ca27  1  0.32847637  0.92112992  0.17166820  1
  Ca2+  Ca28  1  0.33307417  0.92455786  0.50522946  1
  Ca2+  Ca29  1  0.32033808  0.92491273  0.83400720  1
  Ca2+  Ca30  1  0.83137038  0.41557895  0.16902921  1
  Ca2+  Ca31  1  0.83078623  0.41798749  0.50581269  1
  Ca2+  Ca32  1  0.82401992  0.39894626  0.83551463  1
  Ca2+  Ca33  1  0.84132361  0.92159359  0.16493615  1
  Ca2+  Ca34  1  0.82996757  0.92538391  0.50780162  1
  Ca2+  Ca35  1  0.84235845  0.92955287  0.83880732  1
  Ca2+  Ca36  1  0.41632757  0.17039104  0.17038563  1
  Ca2+  Ca37  1  0.42284449  0.16351580  0.49026280  1
  Ca2+  Ca38  1  0.42591629  0.16362639  0.82399739  1
  Ca2+  Ca39  1  0.40962217  0.67174981  0.16126215  1
  Ca2+  Ca40  1  0.41115240  0.67162197  0.49673476  1
  Ca2+  Ca41  1  0.40928310  0.66239097  0.82971761  1
  Ca2+  Ca42  1  0.92299951  0.17143862  0.15318828  1
  Ca2+  Ca43  1  0.92038838  0.17119656  0.50535981  1
  Ca2+  Ca44  1  0.92216969  0.16926373  0.82846694  1
  Ca2+  Ca45  1  0.92726501  0.66681689  0.16027090  1
  Ca2+  Ca46  1  0.92235002  0.66473957  0.49025702  1
  Ca2+  Ca47  1  0.92193399  0.67270409  0.83270470  1
  Al0+  Al48  1  0.00032998  -0.00105049  0.00556710  1
  Al0+  Al49  1  -0.00091995  -0.00012695  0.33692856  1
  Al0+  Al50  1  -0.00062357  0.00023902  0.66652773  1
  Al0+  Al51  1  -0.00132546  0.50029344  -0.01123175  1
  Al0+  Al52  1  -0.00058704  0.50027242  0.33687405  1
  Al0+  Al53  1  -0.00055646  0.50191475  0.66720814  1
  Al0+  Al54  1  0.50015399  0.00000509  -0.00134848  1
  Al0+  Al55  1  0.50152082  -0.00122618  0.32628078  1
  Al0+  Al56  1  0.50003803  -0.00241541  0.66680557  1
  Al0+  Al57  1  0.49983585  0.50039496  0.01033272  1
  Al0+  Al58  1  0.50079924  0.49965095  0.33089282  1
  Al0+  Al59  1  0.50260187  0.50071479  0.67038140  1
  Al0+  Al60  1  0.25255853  0.25087426  -0.00545401  1
  Al0+  Al61  1  0.25078121  0.24891897  0.33649833  1
  Al0+  Al62  1  0.25125117  0.25100729  0.67274103  1
  Al0+  Al63  1  0.25061423  0.75213121  0.00287008  1
  Al0+  Al64  1  0.24886150  0.74921201  0.32431799  1
  Al0+  Al65  1  0.24991658  0.75186746  0.67163776  1
  Al0+  Al66  1  0.74836654  0.24843796  0.00922177  1
  Al0+  Al67  1  0.75001542  0.24977743  0.33056713  1
  Al0+  Al68  1  0.74980208  0.25044419  0.66327961  1
  Al0+  Al69  1  0.74771407  0.74941464  -0.00398356  1
  Al0+  Al70  1  0.75023638  0.75169150  0.33728827  1
  Al0+  Al71  1  0.75000316  0.74972607  0.66472176  1
  Al0+  Al72  1  0.17939836  0.42917844  0.34494936  1
  Al0+  Al73  1  0.32061008  0.06846383  0.34531543  1
  Al0+  Al74  1  0.31854172  0.57002915  0.01646898  1
  Al0+  Al75  1  0.17556299  0.42693116  0.68416282  1
  Al0+  Al76  1  0.92765384  0.82070968  0.98518768  1
  Al0+  Al77  1  0.17901518  0.93084058  0.68097554  1
  Al0+  Al78  1  0.68291033  0.43104145  0.67812632  1
  Al0+  Al79  1  0.92622841  0.32046781  0.98600914  1
  Al0+  Al80  1  0.56899357  0.17926984  0.65431277  1
  Al0+  Al81  1  0.82011236  0.57050998  0.34582857  1
  Al0+  Al82  1  0.68002057  0.42802371  0.01675754  1
  Al0+  Al83  1  0.42926246  0.81902223  0.31875547  1
  Al0+  Al84  1  0.81970907  0.06821672  0.01511021  1
  Al0+  Al85  1  0.92919093  0.32170350  0.64929256  1
  Al0+  Al86  1  0.42635062  0.32203477  0.31858771  1
  Al0+  Al87  1  0.07312478  0.17766200  0.64972552  1
  Al0+  Al88  1  0.81821829  0.06998365  0.67857784  1
  Al0+  Al89  1  0.18013367  0.93240750  0.01647392  1
  Al0+  Al90  1  0.07334868  0.17874100  0.98663782  1
  Al0+  Al91  1  0.32469170  0.07299045  0.68144337  1
  Al0+  Al92  1  0.07358266  0.67863542  0.98149943  1
  Al0+  Al93  1  0.06842759  0.67863516  0.32075329  1
  Al0+  Al94  1  0.32008820  0.57041859  0.67890441  1
  Al0+  Al95  1  0.57218155  0.17899334  0.31534923  1
  Si0+  Si96  1  0.42969662  0.82151711  0.98263644  1
  Si0+  Si97  1  0.92751029  0.82141449  0.64980267  1
  Si0+  Si98  1  0.17733135  0.92609443  0.34933467  1
  Si0+  Si99  1  0.07113337  0.17761036  0.32046121  1
  Si0+  Si100  1  0.42864333  0.32533000  0.65258537  1
  Si0+  Si101  1  0.17639698  0.42748641  0.01455716  1
  Si0+  Si102  1  0.82321803  0.57574989  0.68480759  1
  Si0+  Si103  1  0.92633797  0.82406196  0.31824218  1
  Si0+  Si104  1  0.56929038  0.67753552  0.98520505  1
  Si0+  Si105  1  0.32303122  0.57402463  0.34789466  1
  Si0+  Si106  1  0.42940495  0.81857889  0.65253803  1
  Si0+  Si107  1  0.82174281  0.07255341  0.34990990  1
  Si0+  Si108  1  0.67712924  0.92496900  0.68287065  1
  Si0+  Si109  1  0.43066985  0.32419296  0.98461110  1
  Si0+  Si110  1  0.57493992  0.67773698  0.31680566  1
  Si0+  Si111  1  0.82220349  0.57442478  0.01430446  1
  Si0+  Si112  1  0.67517663  0.92506605  0.01699246  1
  Si0+  Si113  1  0.32623880  0.07410993  0.01744032  1
  Si0+  Si114  1  0.92994402  0.32028005  0.31903476  1
  Si0+  Si115  1  0.57223599  0.67733787  0.65132941  1
  Si0+  Si116  1  0.56928077  0.17964549  0.98523699  1
  Si0+  Si117  1  0.67927737  0.93011096  0.34808072  1
  Si0+  Si118  1  0.07201007  0.68136587  0.65091702  1
  Si0+  Si119  1  0.67730090  0.42681293  0.35174436  1
  O2-  O120  1  0.25264738  0.01044241  0.06117617  1
  O2-  O121  1  0.24585232  -0.00546295  0.39330525  1
  O2-  O122  1  0.24479330  0.00931231  0.73077107  1
  O2-  O123  1  0.24151277  0.49782283  0.06229112  1
  O2-  O124  1  0.25747009  0.50214368  0.39073776  1
  O2-  O125  1  0.24997876  0.49845651  0.73110337  1
  O2-  O126  1  0.74664166  -0.00939516  0.06139203  1
  O2-  O127  1  0.74967812  0.00144562  0.39041882  1
  O2-  O128  1  0.74442240  -0.00551928  0.72648638  1
  O2-  O129  1  0.75881664  0.50085163  0.05933655  1
  O2-  O130  1  0.74398767  0.49823178  0.39435099  1
  O2-  O131  1  0.75871715  0.50301710  0.72813838  1
  O2-  O132  1  -0.00063990  0.24750177  0.27755868  1
  O2-  O133  1  0.00617506  0.25469456  0.59845771  1
  O2-  O134  1  0.00224681  0.25212139  0.93755645  1
  O2-  O135  1  -0.00464199  0.75568583  0.27532522  1
  O2-  O136  1  -0.00223852  0.74952987  0.60810301  1
  O2-  O137  1  -0.00002444  0.75045202  0.93286470  1
  O2-  O138  1  0.50056260  0.25241637  0.26699730  1
  O2-  O139  1  0.48901874  0.24871433  0.60850883  1
  O2-  O140  1  0.49854641  0.25007849  0.94246660  1
  O2-  O141  1  0.50101542  0.74053241  0.27189640  1
  O2-  O142  1  0.50105717  0.74820584  0.60949597  1
  O2-  O143  1  0.49954231  0.74892803  0.94087973  1
  O2-  O144  1  0.07212169  0.18050706  0.10155261  1
  O2-  O145  1  0.06976573  0.17626400  0.42507005  1
  O2-  O146  1  0.06574749  0.17439932  0.76271676  1
  O2-  O147  1  0.07159804  0.67842546  0.09554882  1
  O2-  O148  1  0.06802571  0.68010208  0.43432943  1
  O2-  O149  1  0.07245674  0.68401599  0.75553836  1
  O2-  O150  1  0.56786396  0.17867617  0.09015665  1
  O2-  O151  1  0.57252344  0.17907659  0.42906598  1
  O2-  O152  1  0.57139514  0.18227775  0.76784808  1
  O2-  O153  1  0.56943995  0.67988207  0.09035079  1
  O2-  O154  1  0.57672461  0.68144251  0.42264372  1
  O2-  O155  1  0.57392232  0.67840112  0.75640972  1
  O2-  O156  1  0.17671369  0.43020465  0.23172486  1
  O2-  O157  1  0.17658214  0.43106378  0.56986050  1
  O2-  O158  1  0.18123397  0.42787734  0.90960998  1
  O2-  O159  1  0.17637838  0.92814308  0.24393227  1
  O2-  O160  1  0.18436492  0.92492185  0.56707526  1
  O2-  O161  1  0.18270519  0.93165525  0.90368664  1
  O2-  O162  1  0.67957187  0.42705229  0.24603467  1
  O2-  O163  1  0.68211933  0.43484535  0.56513344  1
  O2-  O164  1  0.67760517  0.42833361  0.90353563  1
  O2-  O165  1  0.68035743  0.92777963  0.24309458  1
  O2-  O166  1  0.67811095  0.92203665  0.57687120  1
  O2-  O167  1  0.67070841  0.92548188  0.91170738  1
  O2-  O168  1  0.43065135  0.32382625  0.08963427  1
  O2-  O169  1  0.42721279  0.32116491  0.43221510  1
  O2-  O170  1  0.43593779  0.32979648  0.75830565  1
  O2-  O171  1  0.43219904  0.82195917  0.08786412  1
  O2-  O172  1  0.43128452  0.81878473  0.43230199  1
  O2-  O173  1  0.43162970  0.81750330  0.75766739  1
  O2-  O174  1  0.92777140  0.31932512  0.10074037  1
  O2-  O175  1  0.92824194  0.31947288  0.42374692  1
  O2-  O176  1  0.92539454  0.31562989  0.76223176  1
  O2-  O177  1  0.92838641  0.81759079  0.09931409  1
  O2-  O178  1  0.92553415  0.82494914  0.42415659  1
  O2-  O179  1  0.92379195  0.82020182  0.75432823  1
  O2-  O180  1  0.31737706  0.06763298  0.23211467  1
  O2-  O181  1  0.32893596  0.06576575  0.56769627  1
  O2-  O182  1  0.33392582  0.06925804  0.91259372  1
  O2-  O183  1  0.32033285  0.57443293  0.24239194  1
  O2-  O184  1  0.31909639  0.57282751  0.56508369  1
  O2-  O185  1  0.32193156  0.56728083  0.90359531  1
  O2-  O186  1  0.82367580  0.07103396  0.24505644  1
  O2-  O187  1  0.81593600  0.06761177  0.56486271  1
  O2-  O188  1  0.81664462  0.06983732  0.90220043  1
  O2-  O189  1  0.81978373  0.56865898  0.23272871  1
  O2-  O190  1  0.81921124  0.57967346  0.57887640  1
  O2-  O191  1  0.81574605  0.58001574  0.90921648  1
  O2-  O192  1  0.04257519  0.08499722  0.27379335  1
  O2-  O193  1  0.04042022  0.07988497  0.59573713  1
  O2-  O194  1  0.04152180  0.08021180  0.93816016  1
  O2-  O195  1  0.03381313  0.58328285  0.26634771  1
  O2-  O196  1  0.04622998  0.58883411  0.60420813  1
  O2-  O197  1  0.04763089  0.58105607  0.92631401  1
  O2-  O198  1  0.54566834  0.08080651  0.26151281  1
  O2-  O199  1  0.54514443  0.07922498  0.60220415  1
  O2-  O200  1  0.54363447  0.08720233  0.93752061  1
  O2-  O201  1  0.55737958  0.58190183  0.27301894  1
  O2-  O202  1  0.54478503  0.58647529  0.60235982  1
  O2-  O203  1  0.53911244  0.58536155  0.94000723  1
  O2-  O204  1  0.16263034  0.20460113  0.27339301  1
  O2-  O205  1  0.17576601  0.20157241  0.60228522  1
  O2-  O206  1  0.17324592  0.20048621  0.93349441  1
  O2-  O207  1  0.16407660  0.70591550  0.26368328  1
  O2-  O208  1  0.16282797  0.71378616  0.60380480  1
  O2-  O209  1  0.17192980  0.71216728  0.93121876  1
  O2-  O210  1  0.67103850  0.20794496  0.26221193  1
  O2-  O211  1  0.66268380  0.21402722  0.59772708  1
  O2-  O212  1  0.66165952  0.20911346  0.94128923  1
  O2-  O213  1  0.66615196  0.71069235  0.26956225  1
  O2-  O214  1  0.66342165  0.70618651  0.60196488  1
  O2-  O215  1  0.66002571  0.70348510  0.93494532  1
  O2-  O216  1  0.07986098  0.45024404  0.05606806  1
  O2-  O217  1  0.08519360  0.46292529  0.40154281  1
  O2-  O218  1  0.07740138  0.45791200  0.73539916  1
  O2-  O219  1  0.08383139  0.95814555  0.07333209  1
  O2-  O220  1  0.08304669  0.94959477  0.39571397  1
  O2-  O221  1  0.07838763  0.95189525  0.73197179  1
  O2-  O222  1  0.58686614  0.46438097  0.07389667  1
  O2-  O223  1  0.58244396  0.45028739  0.39598295  1
  O2-  O224  1  0.58851176  0.46431096  0.73530600  1
  O2-  O225  1  0.58320488  0.95579695  0.06482160  1
  O2-  O226  1  0.58732924  0.95742431  0.39511122  1
  O2-  O227  1  0.58313061  0.94675987  0.72841525  1
  O2-  O228  1  0.20539786  0.33393065  0.06011597  1
  O2-  O229  1  0.20865811  0.33310294  0.40061878  1
  O2-  O230  1  0.20062110  0.32876707  0.73776323  1
  O2-  O231  1  0.21559880  0.83723687  0.07055503  1
  O2-  O232  1  0.20404148  0.83142501  0.39214506  1
  O2-  O233  1  0.21454728  0.83633465  0.73724663  1
  O2-  O234  1  0.70781034  0.33284910  0.07442063  1
  O2-  O235  1  0.70648166  0.33357449  0.39621046  1
  O2-  O236  1  0.71150923  0.33413067  0.73194329  1
  O2-  O237  1  0.69624693  0.82978064  0.06195783  1
  O2-  O238  1  0.70567458  0.83918923  0.39885008  1
  O2-  O239  1  0.70319049  0.83138749  0.72918297  1
  O2-  O240  1  0.45251905  0.42179136  0.26539075  1
  O2-  O241  1  0.46292147  0.41545477  0.60368190  1
  O2-  O242  1  0.46361730  0.41542062  0.93962875  1
  O2-  O243  1  0.46547682  0.91179483  0.26118263  1
  O2-  O244  1  0.45857236  0.90908509  0.60330135  1
  O2-  O245  1  0.46008870  0.91234700  0.93481405  1
  O2-  O246  1  0.95892342  0.41171047  0.27250868  1
  O2-  O247  1  0.94991690  0.42458355  0.60041230  1
  O2-  O248  1  0.94324654  0.42029277  0.93232182  1
  O2-  O249  1  0.95151363  0.91833261  0.27287565  1
  O2-  O250  1  0.95496332  0.91235186  0.60106410  1
  O2-  O251  1  0.95707971  0.91965214  0.93557182  1
  O2-  O252  1  0.32917581  0.28992259  0.26401137  1
  O2-  O253  1  0.33132839  0.30983162  0.61231420  1
  O2-  O254  1  0.33848203  0.30163926  0.93597040  1
  O2-  O255  1  0.33341778  0.79201813  0.26157410  1
  O2-  O256  1  0.33827733  0.78948298  0.60470538  1
  O2-  O257  1  0.33827233  0.79354445  0.93633384  1
  O2-  O258  1  0.83795024  0.29397178  0.27117263  1
  O2-  O259  1  0.83312978  0.28744159  0.59386625  1
  O2-  O260  1  0.82753875  0.28543332  0.93757270  1
  O2-  O261  1  0.83209439  0.80003085  0.27321009  1
  O2-  O262  1  0.83514460  0.79416676  0.60100083  1
  O2-  O263  1  0.82787832  0.79552518  0.93173809  1
  O2-  O264  1  0.41739241  0.04173997  0.06587696  1
  O2-  O265  1  0.41887657  0.03586158  0.39503862  1
  O2-  O266  1  0.41982123  0.03497987  0.73675374  1
  O2-  O267  1  0.41408818  0.53971254  0.07297917  1
  O2-  O268  1  0.41966248  0.55527399  0.39090515  1
  O2-  O269  1  0.41981982  0.54612188  0.73197156  1
  O2-  O270  1  0.91491228  0.03847640  0.07252451  1
  O2-  O271  1  0.91259189  0.04368309  0.39930716  1
  O2-  O272  1  0.91381117  0.03785356  0.73192233  1
  O2-  O273  1  0.91880595  0.55321478  0.05548530  1
  O2-  O274  1  0.91417808  0.53821648  0.40311487  1
  O2-  O275  1  0.91862713  0.55763340  0.72762727  1
  O2-  O276  1  0.30639397  0.17097948  0.05875135  1
  O2-  O277  1  0.29236983  0.16443841  0.40060894  1
  O2-  O278  1  0.31115157  0.17472533  0.73104008  1
  O2-  O279  1  0.29202812  0.66854803  0.06820632  1
  O2-  O280  1  0.29467831  0.66765282  0.39249389  1
  O2-  O281  1  0.29096938  0.66759761  0.73420020  1
  O2-  O282  1  0.78498645  0.16141324  0.07349052  1
  O2-  O283  1  0.79322829  0.16462959  0.39581009  1
  O2-  O284  1  0.78470382  0.16524703  0.73183280  1
  O2-  O285  1  0.78993837  0.66537287  0.06317933  1
  O2-  O286  1  0.79189843  0.66814868  0.40112296  1
  O2-  O287  1  0.79248383  0.66784765  0.73130687  1
