# generated using pymatgen
data_Ca2Al2SiO7
_symmetry_space_group_name_H-M   'P 1'
_cell_length_a   15.45455583
_cell_length_b   15.45330870
_cell_length_c   15.28032783
_cell_angle_alpha   89.99592747
_cell_angle_beta   89.98879906
_cell_angle_gamma   90.00023100
_symmetry_Int_Tables_number   1
_chemical_formula_structural   Ca2Al2SiO7
_chemical_formula_sum   'Ca48 Al48 Si24 O168'
_cell_volume   3649.30927237
_cell_formula_units_Z   24
loop_
 _symmetry_equiv_pos_site_id
 _symmetry_equiv_pos_as_xyz
  1  'x, y, z'
loop_
 _atom_type_symbol
 _atom_type_oxidation_number
  Ca2+  2.0
  Al0+  0.0
  Si0+  0.0
  O2-  -2.0
loop_
 _atom_site_type_symbol
 _atom_site_label
 _atom_site_symmetry_multiplicity
 _atom_site_fract_x
 _atom_site_fract_y
 _atom_site_fract_z
 _atom_site_occupancy
  Ca2+  Ca0  1  0.16533746  0.07235665  0.17356188  1
  Ca2+  Ca1  1  0.17974936  0.07831520  0.50143054  1
  Ca2+  Ca2  1  0.16873371  0.07801827  0.83887921  1
  Ca2+  Ca3  1  0.16713518  0.58055031  0.17108160  1
  Ca2+  Ca4  1  0.16848342  0.57867104  0.50057808  1
  Ca2+  Ca5  1  0.17962175  0.58880500  0.84004758  1
  Ca2+  Ca6  1  0.67300410  0.09091495  0.17497125  1
  Ca2+  Ca7  1  0.67326349  0.08403709  0.50583492  1
  Ca2+  Ca8  1  0.66841411  0.07666914  0.83168220  1
  Ca2+  Ca9  1  0.67010735  0.58682410  0.16327646  1
  Ca2+  Ca10  1  0.67146910  0.58250171  0.50767833  1
  Ca2+  Ca11  1  0.67753523  0.59054029  0.84060835  1
  Ca2+  Ca12  1  0.08242421  0.32742788  0.15884033  1
  Ca2+  Ca13  1  0.08401282  0.33330758  0.49426612  1
  Ca2+  Ca14  1  0.08033544  0.32870467  0.83575918  1
  Ca2+  Ca15  1  0.09159297  0.82611879  0.16233680  1
  Ca2+  Ca16  1  0.08174987  0.82863675  0.49424176  1
  Ca2+  Ca17  1  0.08152508  0.83027870  0.83109737  1
  Ca2+  Ca18  1  0.57226335  0.32809901  0.16454164  1
  Ca2+  Ca19  1  0.57014985  0.32779478  0.49289171  1
  Ca2+  Ca20  1  0.57215437  0.33467061  0.83018640  1
  Ca2+  Ca21  1  0.57411065  0.83050493  0.16420402  1
  Ca2+  Ca22  1  0.57313015  0.84214779  0.50036631  1
  Ca2+  Ca23  1  0.58173531  0.82844440  0.82580963  1
  Ca2+  Ca24  1  0.33326884  0.41885038  0.17057951  1
  Ca2+  Ca25  1  0.33054606  0.41511157  0.50504756  1
  Ca2+  Ca26  1  0.34165488  0.42582028  0.83790250  1
  Ca2+  Ca27  1  0.32211833  0.91783714  0.17578442  1
  Ca2+  Ca28  1  0.33876117  0.92342272  0.50417383  1
  Ca2+  Ca29  1  0.33174122  0.92094055  0.83726212  1
  Ca2+  Ca30  1  0.84008695  0.42048916  0.16725911  1
  Ca2+  Ca31  1  0.82891479  0.42389904  0.50720372  1
  Ca2+  Ca32  1  0.83539369  0.42674187  0.84086826  1
  Ca2+  Ca33  1  0.83047284  0.92475761  0.17367033  1
  Ca2+  Ca34  1  0.82816781  0.92547759  0.51058649  1
  Ca2+  Ca35  1  0.83165912  0.91331859  0.83093024  1
  Ca2+  Ca36  1  0.40783204  0.17608066  0.16745340  1
  Ca2+  Ca37  1  0.41629877  0.16995707  0.49053727  1
  Ca2+  Ca38  1  0.40864260  0.17890682  0.82584382  1
  Ca2+  Ca39  1  0.41654641  0.67127422  0.15944204  1
  Ca2+  Ca40  1  0.40736385  0.67955794  0.49874906  1
  Ca2+  Ca41  1  0.41849145  0.66757506  0.82717908  1
  Ca2+  Ca42  1  0.92194278  0.17110939  0.15729887  1
  Ca2+  Ca43  1  0.91305712  0.16304414  0.49554551  1
  Ca2+  Ca44  1  0.92171108  0.16469043  0.83175317  1
  Ca2+  Ca45  1  0.93105683  0.66378197  0.15927466  1
  Ca2+  Ca46  1  0.91803968  0.67282431  0.49697303  1
  Ca2+  Ca47  1  0.92089652  0.66615297  0.82769163  1
  Al0+  Al48  1  -0.00042148  -0.00077539  0.00090319  1
  Al0+  Al49  1  -0.00131344  -0.00061053  0.34181365  1
  Al0+  Al50  1  0.00028543  -0.00094437  0.66485645  1
  Al0+  Al51  1  0.00158664  0.50105053  -0.00497420  1
  Al0+  Al52  1  0.00134483  0.50118705  0.33532597  1
  Al0+  Al53  1  0.00019589  0.49718468  0.66965499  1
  Al0+  Al54  1  0.50007793  0.00139514  0.00236248  1
  Al0+  Al55  1  0.50136653  -0.00057384  0.32519784  1
  Al0+  Al56  1  0.50077944  0.00044413  0.67355169  1
  Al0+  Al57  1  0.50271862  0.50125564  -0.00216083  1
  Al0+  Al58  1  0.50178525  0.50060363  0.33081170  1
  Al0+  Al59  1  0.49895570  0.49864527  0.66373196  1
  Al0+  Al60  1  0.24992658  0.25096605  -0.00947552  1
  Al0+  Al61  1  0.24743848  0.25048504  0.33622845  1
  Al0+  Al62  1  0.24748061  0.24892110  0.66605788  1
  Al0+  Al63  1  0.25019563  0.75127008  0.00309441  1
  Al0+  Al64  1  0.24880945  0.74826604  0.32879221  1
  Al0+  Al65  1  0.25031606  0.74757020  0.66568780  1
  Al0+  Al66  1  0.74791754  0.25116045  -0.00482322  1
  Al0+  Al67  1  0.74871135  0.25300876  0.33462154  1
  Al0+  Al68  1  0.75085069  0.25006229  0.67155928  1
  Al0+  Al69  1  0.74928605  0.75015133  0.00474511  1
  Al0+  Al70  1  0.75082818  0.75172465  0.33326255  1
  Al0+  Al71  1  0.75184414  0.74969144  0.66855624  1
  Al0+  Al72  1  0.31946497  0.56981799  0.67911124  1
  Al0+  Al73  1  0.42779750  0.32092751  0.65084707  1
  Al0+  Al74  1  0.42547315  0.32146195  0.31783076  1
  Al0+  Al75  1  0.32328754  0.57051736  0.01406548  1
  Al0+  Al76  1  0.42910461  0.82134781  0.65514747  1
  Al0+  Al77  1  0.17890533  0.93055176  0.01316559  1
  Al0+  Al78  1  0.17865709  0.92493780  0.35091149  1
  Al0+  Al79  1  0.17921019  0.42960275  0.34532403  1
  Al0+  Al80  1  0.43002725  0.32022075  0.98512811  1
  Al0+  Al81  1  0.81933297  0.07288436  0.34561516  1
  Al0+  Al82  1  0.32117287  0.07125894  0.68087537  1
  Al0+  Al83  1  0.57101429  0.68133165  0.98636041  1
  Al0+  Al84  1  0.82070163  0.57026217  0.68009478  1
  Al0+  Al85  1  0.06877060  0.67920546  0.31972004  1
  Al0+  Al86  1  0.92930021  0.82006262  0.65256833  1
  Al0+  Al87  1  0.57199735  0.17906915  0.31912906  1
  Al0+  Al88  1  0.42923598  0.82040954  0.31881703  1
  Al0+  Al89  1  0.07289152  0.68004988  0.98517753  1
  Al0+  Al90  1  0.92767825  0.32172071  0.98439051  1
  Al0+  Al91  1  0.32141023  0.06969144  0.34627769  1
  Al0+  Al92  1  0.82366050  0.07230686  0.68468518  1
  Al0+  Al93  1  0.07046946  0.17616336  0.98513146  1
  Al0+  Al94  1  0.82273212  0.57092626  0.01566947  1
  Al0+  Al95  1  0.67883193  0.92929156  0.68219888  1
  Si0+  Si96  1  0.06889926  0.17800718  0.32129800  1
  Si0+  Si97  1  0.17954533  0.42788354  0.01471780  1
  Si0+  Si98  1  0.07226839  0.67585059  0.64950711  1
  Si0+  Si99  1  0.92867919  0.32099365  0.65042231  1
  Si0+  Si100  1  0.32189124  0.07482973  0.01613103  1
  Si0+  Si101  1  0.57257612  0.17874030  0.65175999  1
  Si0+  Si102  1  0.67875137  0.42735132  0.01800296  1
  Si0+  Si103  1  0.67807286  0.92670976  0.34899472  1
  Si0+  Si104  1  0.17692366  0.42607283  0.68593309  1
  Si0+  Si105  1  0.92702757  0.82175909  0.98529935  1
  Si0+  Si106  1  0.42793352  0.82270307  0.98311788  1
  Si0+  Si107  1  0.82158389  0.57083467  0.34769628  1
  Si0+  Si108  1  0.06973828  0.17825146  0.64848993  1
  Si0+  Si109  1  0.57307303  0.17601346  0.98046420  1
  Si0+  Si110  1  0.32491638  0.57116828  0.34881186  1
  Si0+  Si111  1  0.67755921  0.92852757  0.01766120  1
  Si0+  Si112  1  0.67728262  0.42825547  0.68361374  1
  Si0+  Si113  1  0.57574672  0.67713725  0.31664601  1
  Si0+  Si114  1  0.81896498  0.07140507  0.01454199  1
  Si0+  Si115  1  0.92878619  0.32200981  0.32093002  1
  Si0+  Si116  1  0.92743150  0.82348497  0.31638960  1
  Si0+  Si117  1  0.57276203  0.67810400  0.65025891  1
  Si0+  Si118  1  0.17890189  0.92671034  0.68249831  1
  Si0+  Si119  1  0.67822476  0.43025464  0.34858548  1
  O2-  O120  1  0.25316691  0.00614376  0.05950689  1
  O2-  O121  1  0.25407908  -0.00563826  0.39916828  1
  O2-  O122  1  0.24894701  -0.00626986  0.72700681  1
  O2-  O123  1  0.24847045  0.49548182  0.06011070  1
  O2-  O124  1  0.25840624  0.49960308  0.39202245  1
  O2-  O125  1  0.24654592  0.49453471  0.72815743  1
  O2-  O126  1  0.74659351  0.00258374  0.05829944  1
  O2-  O127  1  0.74465000  -0.00186584  0.39162690  1
  O2-  O128  1  0.75236779  -0.00059314  0.73389606  1
  O2-  O129  1  0.75098956  0.49287395  0.06277745  1
  O2-  O130  1  0.74680772  0.50425939  0.39030248  1
  O2-  O131  1  0.74489175  0.49762440  0.72805665  1
  O2-  O132  1  -0.00332066  0.24821213  0.27934681  1
  O2-  O133  1  -0.00302483  0.24850345  0.60639409  1
  O2-  O134  1  -0.00237237  0.24757276  0.93450144  1
  O2-  O135  1  -0.00298269  0.75655127  0.27173940  1
  O2-  O136  1  0.00309708  0.74430456  0.60573869  1
  O2-  O137  1  -0.00458590  0.75298751  0.94077693  1
  O2-  O138  1  0.49566006  0.24665339  0.26894017  1
  O2-  O139  1  0.50197108  0.24466286  0.60631577  1
  O2-  O140  1  0.50124461  0.24195743  0.93773194  1
  O2-  O141  1  0.50388513  0.74362928  0.27455127  1
  O2-  O142  1  0.50371780  0.74652089  0.60649036  1
  O2-  O143  1  0.49666626  0.75487805  0.93812404  1
  O2-  O144  1  0.06812190  0.17623468  0.09943738  1
  O2-  O145  1  0.06779815  0.18021098  0.42657811  1
  O2-  O146  1  0.06963030  0.17939275  0.75345730  1
  O2-  O147  1  0.07139126  0.67977755  0.09840324  1
  O2-  O148  1  0.06360474  0.67596190  0.43290794  1
  O2-  O149  1  0.07291263  0.67716300  0.75509651  1
  O2-  O150  1  0.57690609  0.17756553  0.08581711  1
  O2-  O151  1  0.57550536  0.18347740  0.43268509  1
  O2-  O152  1  0.57278397  0.18188227  0.75747064  1
  O2-  O153  1  0.57097516  0.68439947  0.09974474  1
  O2-  O154  1  0.58025945  0.67618841  0.42203364  1
  O2-  O155  1  0.57248771  0.67865210  0.75589963  1
  O2-  O156  1  0.17480405  0.43084035  0.23255093  1
  O2-  O157  1  0.17465685  0.42708208  0.57989071  1
  O2-  O158  1  0.18055083  0.42824616  0.90912312  1
  O2-  O159  1  0.17745163  0.92798920  0.23713713  1
  O2-  O160  1  0.17911191  0.92791668  0.57707940  1
  O2-  O161  1  0.18004968  0.93085881  0.89977642  1
  O2-  O162  1  0.67962462  0.42887390  0.24381191  1
  O2-  O163  1  0.67997832  0.42881871  0.57738816  1
  O2-  O164  1  0.67862759  0.42897697  0.91242504  1
  O2-  O165  1  0.68250515  0.92332780  0.24314573  1
  O2-  O166  1  0.67861255  0.93206771  0.56844243  1
  O2-  O167  1  0.67769055  0.92741823  0.91297391  1
  O2-  O168  1  0.42971463  0.31937955  0.09809764  1
  O2-  O169  1  0.42814551  0.32203200  0.43140628  1
  O2-  O170  1  0.43068831  0.32208126  0.76400862  1
  O2-  O171  1  0.42978169  0.82176217  0.08887126  1
  O2-  O172  1  0.43093619  0.82056735  0.43230945  1
  O2-  O173  1  0.42908149  0.81905250  0.76809219  1
  O2-  O174  1  0.92883590  0.31928972  0.09894859  1
  O2-  O175  1  0.92919049  0.32367325  0.42635097  1
  O2-  O176  1  0.93072540  0.32295668  0.75493596  1
  O2-  O177  1  0.92679850  0.82277461  0.09109050  1
  O2-  O178  1  0.92477247  0.82015895  0.42189736  1
  O2-  O179  1  0.93164474  0.81831737  0.76591309  1
  O2-  O180  1  0.31514540  0.07128945  0.23264053  1
  O2-  O181  1  0.32086584  0.07187375  0.56794349  1
  O2-  O182  1  0.32209100  0.07268066  0.91025656  1
  O2-  O183  1  0.32466117  0.57047551  0.24309434  1
  O2-  O184  1  0.31614815  0.57103260  0.56593926  1
  O2-  O185  1  0.32280630  0.57037546  0.90072559  1
  O2-  O186  1  0.81999601  0.07262565  0.23183103  1
  O2-  O187  1  0.82046320  0.07358951  0.57094014  1
  O2-  O188  1  0.81896860  0.06948346  0.90990421  1
  O2-  O189  1  0.82305295  0.56835048  0.24279553  1
  O2-  O190  1  0.81974149  0.56773327  0.56605824  1
  O2-  O191  1  0.82039724  0.57181765  0.90269009  1
  O2-  O192  1  0.04086416  0.08542605  0.27557500  1
  O2-  O193  1  0.04394952  0.08629503  0.60104560  1
  O2-  O194  1  0.03969809  0.07885306  0.93088490  1
  O2-  O195  1  0.03336060  0.58386338  0.26486437  1
  O2-  O196  1  0.04599807  0.58099978  0.60579271  1
  O2-  O197  1  0.04505022  0.58389547  0.92997177  1
  O2-  O198  1  0.55446386  0.07937055  0.26479426  1
  O2-  O199  1  0.55031346  0.08352284  0.60899299  1
  O2-  O200  1  0.55033085  0.08049209  0.93681552  1
  O2-  O201  1  0.55402113  0.58292204  0.27006667  1
  O2-  O202  1  0.54866300  0.58411727  0.60401169  1
  O2-  O203  1  0.54567696  0.58409620  0.93211031  1
  O2-  O204  1  0.15912950  0.20714557  0.27289049  1
  O2-  O205  1  0.16005753  0.20915647  0.59998387  1
  O2-  O206  1  0.16694458  0.20492732  0.92884721  1
  O2-  O207  1  0.16592822  0.70391153  0.26458985  1
  O2-  O208  1  0.16487926  0.70192608  0.60207927  1
  O2-  O209  1  0.16860007  0.71436222  0.93148014  1
  O2-  O210  1  0.66842758  0.21578035  0.26429272  1
  O2-  O211  1  0.66670934  0.20632898  0.60657407  1
  O2-  O212  1  0.66483095  0.20355200  0.93178526  1
  O2-  O213  1  0.66837481  0.70583805  0.26868184  1
  O2-  O214  1  0.66663339  0.70289427  0.60451139  1
  O2-  O215  1  0.66804488  0.71406920  0.93377783  1
  O2-  O216  1  0.08550572  0.45328482  0.05965241  1
  O2-  O217  1  0.08455562  0.46421439  0.40340402  1
  O2-  O218  1  0.08353151  0.45079948  0.73243008  1
  O2-  O219  1  0.08148585  0.95896310  0.06830202  1
  O2-  O220  1  0.08114315  0.95507863  0.40452263  1
  O2-  O221  1  0.08609629  0.95502797  0.72812579  1
  O2-  O222  1  0.58772846  0.45849133  0.06583282  1
  O2-  O223  1  0.58641558  0.45662884  0.39733116  1
  O2-  O224  1  0.58308755  0.45273390  0.72795939  1
  O2-  O225  1  0.58487075  0.95445606  0.06509806  1
  O2-  O226  1  0.58305208  0.94974007  0.39150123  1
  O2-  O227  1  0.58288636  0.95791470  0.74023385  1
  O2-  O228  1  0.20431140  0.33275724  0.05872680  1
  O2-  O229  1  0.20380954  0.33298964  0.40235126  1
  O2-  O230  1  0.20073803  0.33202418  0.73054850  1
  O2-  O231  1  0.21157605  0.83563536  0.06903794  1
  O2-  O232  1  0.20296043  0.82405448  0.40009534  1
  O2-  O233  1  0.20204581  0.83214467  0.72731335  1
  O2-  O234  1  0.70049467  0.33186821  0.06270971  1
  O2-  O235  1  0.70989522  0.34153077  0.39949727  1
  O2-  O236  1  0.70313111  0.33571825  0.73078752  1
  O2-  O237  1  0.70786239  0.83908232  0.06798246  1
  O2-  O238  1  0.70521495  0.83424371  0.39750875  1
  O2-  O239  1  0.70794868  0.83083983  0.73478817  1
  O2-  O240  1  0.45809979  0.41953840  0.26588527  1
  O2-  O241  1  0.45956324  0.41683388  0.59532814  1
  O2-  O242  1  0.46619850  0.41539554  0.93182273  1
  O2-  O243  1  0.46005235  0.91456931  0.26021052  1
  O2-  O244  1  0.46151772  0.91871752  0.60291430  1
  O2-  O245  1  0.45326085  0.91792993  0.94000503  1
  O2-  O246  1  0.95987126  0.41245547  0.27309491  1
  O2-  O247  1  0.95836215  0.41223790  0.60139827  1
  O2-  O248  1  0.95859630  0.41838292  0.92999000  1
  O2-  O249  1  0.95111846  0.91889431  0.27314778  1
  O2-  O250  1  0.95865837  0.91701329  0.59801164  1
  O2-  O251  1  0.95237374  0.91481115  0.93848061  1
  O2-  O252  1  0.32578019  0.29464905  0.26606789  1
  O2-  O253  1  0.32916893  0.29197426  0.60034646  1
  O2-  O254  1  0.33397130  0.29403960  0.92782829  1
  O2-  O255  1  0.33339392  0.78907786  0.26398148  1
  O2-  O256  1  0.33309964  0.78930624  0.59975122  1
  O2-  O257  1  0.33458116  0.79716613  0.93814604  1
  O2-  O258  1  0.83643635  0.29833562  0.27342188  1
  O2-  O259  1  0.83493190  0.29606333  0.60460756  1
  O2-  O260  1  0.82834560  0.29705849  0.93162422  1
  O2-  O261  1  0.83395672  0.79765452  0.26942335  1
  O2-  O262  1  0.83287326  0.78888524  0.59778080  1
  O2-  O263  1  0.83320141  0.79583074  0.94070827  1
  O2-  O264  1  0.41662320  0.05191888  0.06163446  1
  O2-  O265  1  0.42328078  0.04552941  0.39401363  1
  O2-  O266  1  0.41734157  0.04545110  0.73712103  1
  O2-  O267  1  0.42056958  0.54080268  0.06713827  1
  O2-  O268  1  0.42023576  0.55115259  0.39400112  1
  O2-  O269  1  0.41782111  0.54073004  0.73088931  1
  O2-  O270  1  0.91020520  0.04265218  0.06263646  1
  O2-  O271  1  0.91410957  0.04315006  0.40297377  1
  O2-  O272  1  0.92270764  0.04269852  0.73518718  1
  O2-  O273  1  0.92062747  0.53991227  0.06753990  1
  O2-  O274  1  0.91028772  0.53846141  0.39771764  1
  O2-  O275  1  0.91680871  0.53748587  0.73368965  1
  O2-  O276  1  0.29565781  0.16959129  0.05864914  1
  O2-  O277  1  0.28928881  0.16675003  0.40029625  1
  O2-  O278  1  0.28461079  0.16634331  0.73458487  1
  O2-  O279  1  0.29232537  0.66703659  0.06749205  1
  O2-  O280  1  0.29390826  0.66334301  0.39398413  1
  O2-  O281  1  0.28861280  0.66582989  0.73498497  1
  O2-  O282  1  0.79214557  0.16486136  0.05980172  1
  O2-  O283  1  0.79048416  0.17031591  0.40005729  1
  O2-  O284  1  0.79633313  0.17110348  0.73779420  1
  O2-  O285  1  0.78879406  0.66611817  0.07146234  1
  O2-  O286  1  0.79672500  0.66450852  0.39319643  1
  O2-  O287  1  0.79288424  0.66641995  0.73484095  1
