# generated using pymatgen
data_Ca2Al2SiO7
_symmetry_space_group_name_H-M   'P 1'
_cell_length_a   15.47353929
_cell_length_b   15.46948154
_cell_length_c   15.29397232
_cell_angle_alpha   90.00792941
_cell_angle_beta   90.00190050
_cell_angle_gamma   89.95376966
_symmetry_Int_Tables_number   1
_chemical_formula_structural   Ca2Al2SiO7
_chemical_formula_sum   'Ca48 Al48 Si24 O168'
_cell_volume   3660.88068581
_cell_formula_units_Z   24
loop_
 _symmetry_equiv_pos_site_id
 _symmetry_equiv_pos_as_xyz
  1  'x, y, z'
loop_
 _atom_type_symbol
 _atom_type_oxidation_number
  Ca2+  2.0
  Al0+  0.0
  Si0+  0.0
  O2-  -2.0
loop_
 _atom_site_type_symbol
 _atom_site_label
 _atom_site_symmetry_multiplicity
 _atom_site_fract_x
 _atom_site_fract_y
 _atom_site_fract_z
 _atom_site_occupancy
  Ca2+  Ca0  1  0.16512173  0.09147252  0.16978331  1
  Ca2+  Ca1  1  0.16740108  0.08527011  0.50064684  1
  Ca2+  Ca2  1  0.16516496  0.08458801  0.84098481  1
  Ca2+  Ca3  1  0.16337589  0.57837738  0.17356092  1
  Ca2+  Ca4  1  0.16162734  0.59062035  0.50591740  1
  Ca2+  Ca5  1  0.16360434  0.57890820  0.83951696  1
  Ca2+  Ca6  1  0.67375953  0.08005218  0.17549861  1
  Ca2+  Ca7  1  0.66982102  0.07265262  0.50507941  1
  Ca2+  Ca8  1  0.67962783  0.07419035  0.83342720  1
  Ca2+  Ca9  1  0.66180979  0.57790118  0.17322007  1
  Ca2+  Ca10  1  0.66795192  0.58119482  0.50330672  1
  Ca2+  Ca11  1  0.67135786  0.59200029  0.83320199  1
  Ca2+  Ca12  1  0.07431474  0.32649914  0.16183059  1
  Ca2+  Ca13  1  0.06752354  0.32812302  0.49429256  1
  Ca2+  Ca14  1  0.07497109  0.33160423  0.83394373  1
  Ca2+  Ca15  1  0.07220021  0.83033209  0.16650240  1
  Ca2+  Ca16  1  0.06959843  0.82483306  0.49561607  1
  Ca2+  Ca17  1  0.07123239  0.83047759  0.82709329  1
  Ca2+  Ca18  1  0.58630148  0.32850554  0.16413160  1
  Ca2+  Ca19  1  0.58857945  0.32653399  0.49060485  1
  Ca2+  Ca20  1  0.57781875  0.33423916  0.83267765  1
  Ca2+  Ca21  1  0.59363723  0.82231130  0.16716002  1
  Ca2+  Ca22  1  0.58449647  0.83099937  0.49189435  1
  Ca2+  Ca23  1  0.58264855  0.82483297  0.82380088  1
  Ca2+  Ca24  1  0.32859377  0.41141059  0.16763628  1
  Ca2+  Ca25  1  0.32801953  0.42176550  0.50482934  1
  Ca2+  Ca26  1  0.32552047  0.41732643  0.84633174  1
  Ca2+  Ca27  1  0.33087746  0.91428020  0.17525872  1
  Ca2+  Ca28  1  0.33541941  0.90845318  0.50379876  1
  Ca2+  Ca29  1  0.33183538  0.91281882  0.83368293  1
  Ca2+  Ca30  1  0.83462142  0.41744634  0.17459490  1
  Ca2+  Ca31  1  0.83346754  0.41898404  0.50484119  1
  Ca2+  Ca32  1  0.84249330  0.42388817  0.83438193  1
  Ca2+  Ca33  1  0.83560318  0.92034653  0.17126659  1
  Ca2+  Ca34  1  0.82584068  0.91412359  0.50776726  1
  Ca2+  Ca35  1  0.83974688  0.92265762  0.83742962  1
  Ca2+  Ca36  1  0.42704698  0.16989483  0.16495030  1
  Ca2+  Ca37  1  0.42618811  0.16697711  0.49352574  1
  Ca2+  Ca38  1  0.41369604  0.17472815  0.83339576  1
  Ca2+  Ca39  1  0.42877289  0.66952388  0.16715264  1
  Ca2+  Ca40  1  0.42901264  0.67837263  0.49679907  1
  Ca2+  Ca41  1  0.43013812  0.66836481  0.82663148  1
  Ca2+  Ca42  1  0.91934578  0.17617843  0.15779063  1
  Ca2+  Ca43  1  0.90889333  0.17561586  0.49547057  1
  Ca2+  Ca44  1  0.90764051  0.17485274  0.83138233  1
  Ca2+  Ca45  1  0.91033644  0.68107395  0.16683633  1
  Ca2+  Ca46  1  0.91803531  0.67166157  0.49912186  1
  Ca2+  Ca47  1  0.91661424  0.67746926  0.82355488  1
  Al0+  Al48  1  0.00135407  0.00005677  -0.00079206  1
  Al0+  Al49  1  0.00347158  0.00054896  0.33055523  1
  Al0+  Al50  1  0.00257722  0.00106557  0.66750810  1
  Al0+  Al51  1  0.00049607  0.49911403  0.00574714  1
  Al0+  Al52  1  0.00083424  0.49876260  0.32984355  1
  Al0+  Al53  1  -0.00135412  0.49636066  0.66436607  1
  Al0+  Al54  1  0.50004395  -0.00190719  0.00079163  1
  Al0+  Al55  1  0.49963779  0.00264706  0.32916198  1
  Al0+  Al56  1  0.49813901  0.00281584  0.67166953  1
  Al0+  Al57  1  0.50032688  0.50065208  -0.00749731  1
  Al0+  Al58  1  0.49720801  0.50130242  0.33741274  1
  Al0+  Al59  1  0.49658681  0.50057860  0.66400261  1
  Al0+  Al60  1  0.25088032  0.25031809  -0.00079602  1
  Al0+  Al61  1  0.24929083  0.25105587  0.33569066  1
  Al0+  Al62  1  0.24876650  0.25062983  0.66711305  1
  Al0+  Al63  1  0.25233546  0.74964036  0.00382282  1
  Al0+  Al64  1  0.25068645  0.75004161  0.32812218  1
  Al0+  Al65  1  0.25235957  0.74915918  0.66515749  1
  Al0+  Al66  1  0.74994704  0.24907717  -0.00180697  1
  Al0+  Al67  1  0.74833758  0.25090029  0.32892755  1
  Al0+  Al68  1  0.74707082  0.24909609  0.66763752  1
  Al0+  Al69  1  0.75066297  0.74950677  -0.00786049  1
  Al0+  Al70  1  0.75019655  0.74904527  0.33015432  1
  Al0+  Al71  1  0.74903809  0.74654874  0.66716697  1
  Al0+  Al72  1  0.17932073  0.42946553  0.01634662  1
  Al0+  Al73  1  0.56995083  0.67988711  0.98456726  1
  Al0+  Al74  1  0.82264789  0.07130635  0.68056143  1
  Al0+  Al75  1  0.92708479  0.82151733  0.31909548  1
  Al0+  Al76  1  0.92665631  0.32262027  0.98295583  1
  Al0+  Al77  1  0.82120619  0.07062539  0.01534663  1
  Al0+  Al78  1  0.07022534  0.67770156  0.65569919  1
  Al0+  Al79  1  0.92695367  0.31970805  0.31798134  1
  Al0+  Al80  1  0.93120733  0.82014875  0.98518623  1
  Al0+  Al81  1  0.57079499  0.17999634  0.32047292  1
  Al0+  Al82  1  0.68035143  0.92938816  0.34466567  1
  Al0+  Al83  1  0.07286085  0.17942486  0.31967035  1
  Al0+  Al84  1  0.92753012  0.31811668  0.65295201  1
  Al0+  Al85  1  0.43150679  0.31857625  0.98810561  1
  Al0+  Al86  1  0.43104703  0.82327234  0.65327155  1
  Al0+  Al87  1  0.43017815  0.82302341  0.31724969  1
  Al0+  Al88  1  0.07184478  0.67842523  0.31789428  1
  Al0+  Al89  1  0.57262998  0.67766839  0.64905394  1
  Al0+  Al90  1  0.67766600  0.92705469  0.68130016  1
  Al0+  Al91  1  0.57166775  0.67780768  0.31828319  1
  Al0+  Al92  1  0.92766774  0.82396282  0.65219107  1
  Al0+  Al93  1  0.82049992  0.56802566  0.67935268  1
  Al0+  Al94  1  0.67796675  0.42873605  0.34520675  1
  Al0+  Al95  1  0.07090332  0.17984312  0.98408427  1
  Si0+  Si96  1  0.82320560  0.57090887  0.34921145  1
  Si0+  Si97  1  0.17955531  0.42837728  0.68238843  1
  Si0+  Si98  1  0.32424991  0.57113776  0.01842186  1
  Si0+  Si99  1  0.42550260  0.32138666  0.65115342  1
  Si0+  Si100  1  0.82041600  0.57163448  0.01495229  1
  Si0+  Si101  1  0.82409962  0.07188797  0.34770578  1
  Si0+  Si102  1  0.42694300  0.32313629  0.31965048  1
  Si0+  Si103  1  0.56793788  0.18150353  0.65306517  1
  Si0+  Si104  1  0.67889766  0.92662633  0.01647882  1
  Si0+  Si105  1  0.18139141  0.92827044  0.68132052  1
  Si0+  Si106  1  0.67741703  0.43008684  0.01212850  1
  Si0+  Si107  1  0.18005915  0.92818002  0.01619749  1
  Si0+  Si108  1  0.17989130  0.92728698  0.34957331  1
  Si0+  Si109  1  0.17918184  0.42936438  0.35136740  1
  Si0+  Si110  1  0.42570613  0.82323109  0.98293853  1
  Si0+  Si111  1  0.32008142  0.07423248  0.68344712  1
  Si0+  Si112  1  0.57330536  0.17442564  0.98098708  1
  Si0+  Si113  1  0.31960268  0.57292089  0.35109570  1
  Si0+  Si114  1  0.07418925  0.67762434  0.98630292  1
  Si0+  Si115  1  0.67427041  0.42701343  0.68381480  1
  Si0+  Si116  1  0.32048859  0.07186640  0.34867832  1
  Si0+  Si117  1  0.07488566  0.17825904  0.64998499  1
  Si0+  Si118  1  0.32018965  0.57078191  0.68341982  1
  Si0+  Si119  1  0.32205568  0.07101336  0.01641990  1
  O2-  O120  1  0.25252141  -0.00137165  0.05817523  1
  O2-  O121  1  0.25089259  -0.00035976  0.39120471  1
  O2-  O122  1  0.25030300  0.00174770  0.72442282  1
  O2-  O123  1  0.25260821  0.50618788  0.06368521  1
  O2-  O124  1  0.24619813  0.50398495  0.39416503  1
  O2-  O125  1  0.24837632  0.50089376  0.72595841  1
  O2-  O126  1  0.74465312  -0.00256455  0.06140959  1
  O2-  O127  1  0.75870539  0.00019528  0.39182613  1
  O2-  O128  1  0.75714363  -0.00763661  0.73020646  1
  O2-  O129  1  0.75156365  0.49723414  0.05507521  1
  O2-  O130  1  0.75356045  0.50197794  0.39194237  1
  O2-  O131  1  0.74236316  0.49615469  0.72765259  1
  O2-  O132  1  -0.00301816  0.24563146  0.26915122  1
  O2-  O133  1  -0.00112057  0.23920983  0.60776584  1
  O2-  O134  1  -0.00309459  0.24857891  0.93297853  1
  O2-  O135  1  -0.00191290  0.74819646  0.26850669  1
  O2-  O136  1  -0.00175038  0.74881454  0.60515932  1
  O2-  O137  1  0.00668900  0.74527104  0.94044838  1
  O2-  O138  1  0.49942796  0.25903421  0.27567540  1
  O2-  O139  1  0.49922236  0.25442067  0.60910430  1
  O2-  O140  1  0.50435852  0.24395721  0.93781142  1
  O2-  O141  1  0.50459467  0.75413930  0.26720303  1
  O2-  O142  1  0.50800490  0.75808596  0.60221598  1
  O2-  O143  1  0.49579395  0.75630557  0.94028582  1
  O2-  O144  1  0.07149503  0.18284828  0.09726087  1
  O2-  O145  1  0.07711306  0.18340329  0.43325657  1
  O2-  O146  1  0.08363830  0.18298284  0.75466155  1
  O2-  O147  1  0.07425248  0.68045787  0.09157998  1
  O2-  O148  1  0.07215680  0.68135048  0.43136317  1
  O2-  O149  1  0.07146380  0.67935209  0.76963829  1
  O2-  O150  1  0.57182626  0.17466917  0.08658963  1
  O2-  O151  1  0.56757187  0.17968017  0.43386779  1
  O2-  O152  1  0.56438113  0.18361678  0.75820807  1
  O2-  O153  1  0.56938834  0.67777560  0.09736560  1
  O2-  O154  1  0.56949053  0.67607940  0.43098891  1
  O2-  O155  1  0.56656464  0.67433726  0.76273479  1
  O2-  O156  1  0.18311961  0.42721479  0.24651760  1
  O2-  O157  1  0.18396713  0.42587083  0.57741314  1
  O2-  O158  1  0.18110244  0.43131766  0.90259795  1
  O2-  O159  1  0.18151477  0.92665996  0.24435457  1
  O2-  O160  1  0.18347060  0.92878894  0.57626702  1
  O2-  O161  1  0.18285318  0.92667512  0.91094949  1
  O2-  O162  1  0.67647181  0.43021282  0.23167398  1
  O2-  O163  1  0.67384325  0.42538990  0.57832311  1
  O2-  O164  1  0.67457915  0.43241806  0.90710193  1
  O2-  O165  1  0.68065003  0.93204530  0.23138529  1
  O2-  O166  1  0.67409350  0.93315278  0.56765985  1
  O2-  O167  1  0.67847116  0.92760974  0.91110433  1
  O2-  O168  1  0.43360852  0.31691400  0.10107616  1
  O2-  O169  1  0.42445579  0.31990222  0.42562668  1
  O2-  O170  1  0.42305148  0.31946723  0.75629757  1
  O2-  O171  1  0.42286455  0.82377587  0.08799639  1
  O2-  O172  1  0.42963345  0.82112988  0.43055524  1
  O2-  O173  1  0.42820458  0.81909260  0.76704404  1
  O2-  O174  1  0.92675970  0.32310502  0.09605514  1
  O2-  O175  1  0.92780598  0.31954455  0.43193111  1
  O2-  O176  1  0.93121260  0.32072543  0.76553676  1
  O2-  O177  1  0.93048976  0.81946542  0.09806154  1
  O2-  O178  1  0.92769364  0.82140572  0.43229989  1
  O2-  O179  1  0.93300325  0.82403558  0.76596135  1
  O2-  O180  1  0.31902671  0.07448579  0.24360725  1
  O2-  O181  1  0.31938589  0.07997572  0.57862263  1
  O2-  O182  1  0.32214015  0.07105899  0.91107724  1
  O2-  O183  1  0.32097049  0.56994808  0.24603451  1
  O2-  O184  1  0.32036340  0.56827478  0.57849147  1
  O2-  O185  1  0.32329191  0.56950019  0.91256881  1
  O2-  O186  1  0.82177078  0.07200218  0.24200194  1
  O2-  O187  1  0.81705703  0.07614575  0.56710237  1
  O2-  O188  1  0.81941682  0.06992572  0.90240164  1
  O2-  O189  1  0.82284676  0.57028819  0.24314957  1
  O2-  O190  1  0.82328217  0.56374385  0.56656407  1
  O2-  O191  1  0.82070971  0.57245657  0.90989843  1
  O2-  O192  1  0.05637091  0.07836124  0.26912856  1
  O2-  O193  1  0.05935450  0.08169742  0.60766716  1
  O2-  O194  1  0.04934630  0.07921213  0.93377215  1
  O2-  O195  1  0.04904345  0.57841978  0.26711235  1
  O2-  O196  1  0.04505017  0.57896586  0.60258551  1
  O2-  O197  1  0.04967172  0.58297435  0.94362634  1
  O2-  O198  1  0.53478925  0.08827274  0.26189197  1
  O2-  O199  1  0.53576577  0.09122703  0.60633569  1
  O2-  O200  1  0.54517810  0.08117254  0.93600533  1
  O2-  O201  1  0.53545716  0.58071271  0.26621093  1
  O2-  O202  1  0.53530044  0.58113600  0.59676209  1
  O2-  O203  1  0.53725532  0.58553963  0.92781199  1
  O2-  O204  1  0.17018261  0.21286170  0.26660239  1
  O2-  O205  1  0.16551282  0.21116706  0.60056659  1
  O2-  O206  1  0.16981600  0.20878046  0.93203040  1
  O2-  O207  1  0.16897825  0.70726939  0.26348935  1
  O2-  O208  1  0.16891958  0.70596921  0.60368723  1
  O2-  O209  1  0.16962449  0.70104082  0.94224730  1
  O2-  O210  1  0.66516896  0.20906875  0.26293253  1
  O2-  O211  1  0.65897157  0.20725005  0.60463252  1
  O2-  O212  1  0.66520486  0.20193768  0.93427765  1
  O2-  O213  1  0.67038571  0.70116845  0.26437685  1
  O2-  O214  1  0.67379899  0.69399585  0.60000237  1
  O2-  O215  1  0.66535576  0.71018831  0.92913215  1
  O2-  O216  1  0.08328651  0.45796791  0.07260525  1
  O2-  O217  1  0.08581829  0.45359403  0.39723194  1
  O2-  O218  1  0.08736967  0.45371791  0.72875996  1
  O2-  O219  1  0.08936741  0.95652715  0.06425814  1
  O2-  O220  1  0.08856082  0.95494989  0.39811458  1
  O2-  O221  1  0.08998909  0.95420873  0.73020974  1
  O2-  O222  1  0.58665684  0.46145063  0.05979989  1
  O2-  O223  1  0.58020473  0.45588452  0.40045106  1
  O2-  O224  1  0.57863534  0.45129718  0.72779883  1
  O2-  O225  1  0.58301984  0.94785128  0.06077034  1
  O2-  O226  1  0.58341098  0.96463433  0.39614115  1
  O2-  O227  1  0.58175060  0.96384656  0.73699317  1
  O2-  O228  1  0.21652351  0.33405195  0.06897473  1
  O2-  O229  1  0.21256901  0.33998346  0.40094109  1
  O2-  O230  1  0.21157651  0.33805481  0.73093216  1
  O2-  O231  1  0.20779806  0.83651166  0.06513127  1
  O2-  O232  1  0.21058440  0.83622091  0.39653730  1
  O2-  O233  1  0.21294105  0.83816433  0.73051312  1
  O2-  O234  1  0.69901993  0.33557358  0.05681607  1
  O2-  O235  1  0.70687101  0.33110106  0.39924890  1
  O2-  O236  1  0.69817948  0.33346587  0.73034435  1
  O2-  O237  1  0.70859391  0.83299524  0.06020517  1
  O2-  O238  1  0.70646513  0.83062136  0.39669059  1
  O2-  O239  1  0.69599797  0.82527451  0.73010432  1
  O2-  O240  1  0.44593919  0.41812885  0.27584108  1
  O2-  O241  1  0.44794313  0.41415108  0.60436661  1
  O2-  O242  1  0.46067671  0.41366867  0.93042462  1
  O2-  O243  1  0.45020457  0.92330239  0.26577774  1
  O2-  O244  1  0.44709192  0.92672419  0.60600597  1
  O2-  O245  1  0.44804718  0.91821034  0.93776868  1
  O2-  O246  1  0.95789144  0.41704183  0.26579012  1
  O2-  O247  1  0.96346856  0.41135313  0.59684231  1
  O2-  O248  1  0.95923693  0.42190390  0.93365663  1
  O2-  O249  1  0.95891058  0.91897787  0.26659225  1
  O2-  O250  1  0.95885459  0.92186203  0.59991160  1
  O2-  O251  1  0.96466607  0.91557782  0.93216749  1
  O2-  O252  1  0.33597327  0.29171554  0.27260923  1
  O2-  O253  1  0.33545896  0.28994295  0.60245422  1
  O2-  O254  1  0.33640733  0.28664567  0.93195921  1
  O2-  O255  1  0.33354851  0.79090863  0.26331790  1
  O2-  O256  1  0.33490240  0.78903040  0.59947723  1
  O2-  O257  1  0.33220134  0.79643391  0.93661542  1
  O2-  O258  1  0.82878657  0.29569974  0.26405508  1
  O2-  O259  1  0.82875387  0.29129704  0.60110314  1
  O2-  O260  1  0.82726768  0.29640757  0.93057518  1
  O2-  O261  1  0.83078828  0.79262526  0.26257284  1
  O2-  O262  1  0.82865321  0.79627857  0.60311031  1
  O2-  O263  1  0.83625485  0.78871148  0.92982175  1
  O2-  O264  1  0.41492256  0.04515623  0.06370881  1
  O2-  O265  1  0.41254561  0.04621762  0.39634050  1
  O2-  O266  1  0.41082022  0.04992343  0.73429325  1
  O2-  O267  1  0.41664884  0.53957542  0.06312162  1
  O2-  O268  1  0.40894889  0.54237613  0.40191383  1
  O2-  O269  1  0.41091975  0.53969932  0.73172345  1
  O2-  O270  1  0.91859151  0.03951179  0.06749204  1
  O2-  O271  1  0.92012919  0.05285973  0.39151511  1
  O2-  O272  1  0.92472856  0.05260481  0.73132071  1
  O2-  O273  1  0.91213779  0.54741091  0.06395797  1
  O2-  O274  1  0.91699779  0.54433919  0.39465672  1
  O2-  O275  1  0.91612364  0.53323092  0.73479057  1
  O2-  O276  1  0.29375678  0.16218520  0.06418556  1
  O2-  O277  1  0.29157780  0.16281627  0.39888964  1
  O2-  O278  1  0.28953455  0.16518977  0.73285926  1
  O2-  O279  1  0.30377379  0.66644487  0.06361909  1
  O2-  O280  1  0.29236481  0.66544062  0.39701369  1
  O2-  O281  1  0.29445911  0.66255984  0.73181064  1
  O2-  O282  1  0.78990757  0.16844684  0.06771106  1
  O2-  O283  1  0.79271518  0.16460240  0.39206169  1
  O2-  O284  1  0.78451114  0.16680775  0.73559361  1
  O2-  O285  1  0.78814702  0.66276270  0.06119148  1
  O2-  O286  1  0.79756714  0.66453717  0.39419718  1
  O2-  O287  1  0.79345239  0.66478799  0.73548060  1
