# generated using pymatgen
data_Ca2Al2SiO7
_symmetry_space_group_name_H-M   'P 1'
_cell_length_a   15.45721284
_cell_length_b   15.45688457
_cell_length_c   15.28316088
_cell_angle_alpha   90.00737534
_cell_angle_beta   90.00151140
_cell_angle_gamma   89.99420157
_symmetry_Int_Tables_number   1
_chemical_formula_structural   Ca2Al2SiO7
_chemical_formula_sum   'Ca48 Al48 Si24 O168'
_cell_volume   3651.45816747
_cell_formula_units_Z   24
loop_
 _symmetry_equiv_pos_site_id
 _symmetry_equiv_pos_as_xyz
  1  'x, y, z'
loop_
 _atom_type_symbol
 _atom_type_oxidation_number
  Ca2+  2.0
  Al0+  0.0
  Si0+  0.0
  O2-  -2.0
loop_
 _atom_site_type_symbol
 _atom_site_label
 _atom_site_symmetry_multiplicity
 _atom_site_fract_x
 _atom_site_fract_y
 _atom_site_fract_z
 _atom_site_occupancy
  Ca2+  Ca0  1  0.16693749  0.08932485  0.17099970  1
  Ca2+  Ca1  1  0.16114191  0.08019749  0.49705351  1
  Ca2+  Ca2  1  0.17099431  0.08222576  0.84139786  1
  Ca2+  Ca3  1  0.17655805  0.57697267  0.17479986  1
  Ca2+  Ca4  1  0.17069199  0.56830312  0.50827983  1
  Ca2+  Ca5  1  0.18042740  0.58164725  0.83615454  1
  Ca2+  Ca6  1  0.66159597  0.07192017  0.17451661  1
  Ca2+  Ca7  1  0.66119364  0.07280440  0.50296200  1
  Ca2+  Ca8  1  0.66360556  0.06705413  0.83995382  1
  Ca2+  Ca9  1  0.66919198  0.58547753  0.17379111  1
  Ca2+  Ca10  1  0.67370975  0.59379830  0.50080514  1
  Ca2+  Ca11  1  0.66937893  0.59345608  0.83449845  1
  Ca2+  Ca12  1  0.07817860  0.33071407  0.16478275  1
  Ca2+  Ca13  1  0.08488846  0.33245950  0.48918772  1
  Ca2+  Ca14  1  0.08585584  0.33126062  0.83456421  1
  Ca2+  Ca15  1  0.07645457  0.84171451  0.16777065  1
  Ca2+  Ca16  1  0.07127206  0.83390007  0.49107814  1
  Ca2+  Ca17  1  0.07628191  0.83068230  0.82487190  1
  Ca2+  Ca18  1  0.57376840  0.32928634  0.16373658  1
  Ca2+  Ca19  1  0.57643812  0.32717041  0.48785928  1
  Ca2+  Ca20  1  0.57537722  0.33473604  0.83220461  1
  Ca2+  Ca21  1  0.59200206  0.82472585  0.16439232  1
  Ca2+  Ca22  1  0.58386470  0.82721832  0.49855863  1
  Ca2+  Ca23  1  0.58177271  0.82682463  0.82529523  1
  Ca2+  Ca24  1  0.33469237  0.41497252  0.17100916  1
  Ca2+  Ca25  1  0.32497808  0.41570672  0.50441305  1
  Ca2+  Ca26  1  0.33423185  0.42581924  0.83815058  1
  Ca2+  Ca27  1  0.32616773  0.92565359  0.17313506  1
  Ca2+  Ca28  1  0.33002110  0.91396643  0.50297349  1
  Ca2+  Ca29  1  0.33861865  0.92211006  0.84043522  1
  Ca2+  Ca30  1  0.84002845  0.42116178  0.17491404  1
  Ca2+  Ca31  1  0.83908855  0.42930416  0.50283892  1
  Ca2+  Ca32  1  0.83291628  0.42152402  0.83689097  1
  Ca2+  Ca33  1  0.82367702  0.91512704  0.17521629  1
  Ca2+  Ca34  1  0.82375013  0.90803362  0.50279128  1
  Ca2+  Ca35  1  0.82194622  0.90840686  0.83461098  1
  Ca2+  Ca36  1  0.41346784  0.17580438  0.16556555  1
  Ca2+  Ca37  1  0.42300183  0.17293966  0.49039621  1
  Ca2+  Ca38  1  0.40883233  0.17139309  0.83496406  1
  Ca2+  Ca39  1  0.42926710  0.66302264  0.15930843  1
  Ca2+  Ca40  1  0.42650581  0.66365356  0.49804949  1
  Ca2+  Ca41  1  0.42492912  0.66571044  0.82511386  1
  Ca2+  Ca42  1  0.92689067  0.17579466  0.16148867  1
  Ca2+  Ca43  1  0.92307465  0.17704967  0.48699338  1
  Ca2+  Ca44  1  0.92024731  0.17082394  0.83328608  1
  Ca2+  Ca45  1  0.91399230  0.66994718  0.16963557  1
  Ca2+  Ca46  1  0.90718247  0.67372766  0.49583743  1
  Ca2+  Ca47  1  0.91621356  0.67038852  0.82490968  1
  Al0+  Al48  1  -0.00279561  0.00075444  -0.00621106  1
  Al0+  Al49  1  -0.00106817  0.00043992  0.32915454  1
  Al0+  Al50  1  -0.00049917  0.00150513  0.66327427  1
  Al0+  Al51  1  0.00051628  0.50163244  -0.00400008  1
  Al0+  Al52  1  0.00234552  0.50301982  0.33901171  1
  Al0+  Al53  1  -0.00046645  0.49852790  0.67741388  1
  Al0+  Al54  1  0.49825057  -0.00106890  0.01229060  1
  Al0+  Al55  1  0.49877900  -0.00134494  0.33565408  1
  Al0+  Al56  1  0.49927091  -0.00108326  0.66830622  1
  Al0+  Al57  1  0.50268672  0.50001305  -0.00509568  1
  Al0+  Al58  1  0.50254274  0.50115970  0.32660981  1
  Al0+  Al59  1  0.50058536  0.49832119  0.66319613  1
  Al0+  Al60  1  0.24947083  0.24995825  -0.00438104  1
  Al0+  Al61  1  0.25098255  0.25063992  0.33188852  1
  Al0+  Al62  1  0.24850216  0.24828986  0.66968904  1
  Al0+  Al63  1  0.25026791  0.74983425  0.00589755  1
  Al0+  Al64  1  0.25060518  0.75134380  0.33875049  1
  Al0+  Al65  1  0.24905447  0.74934543  0.66684954  1
  Al0+  Al66  1  0.74986310  0.24938704  -0.00475227  1
  Al0+  Al67  1  0.74941474  0.24960216  0.32503016  1
  Al0+  Al68  1  0.75151077  0.24988664  0.66662807  1
  Al0+  Al69  1  0.75014418  0.74881295  0.00094194  1
  Al0+  Al70  1  0.74990898  0.75065166  0.33229504  1
  Al0+  Al71  1  0.74967989  0.75009987  0.66866053  1
  Al0+  Al72  1  0.92931715  0.32621090  0.32052297  1
  Al0+  Al73  1  0.42952158  0.32135054  0.31906035  1
  Al0+  Al74  1  0.68082801  0.92844628  0.01590296  1
  Al0+  Al75  1  0.32317865  0.57125211  0.68096399  1
  Al0+  Al76  1  0.07038612  0.17896927  0.98202952  1
  Al0+  Al77  1  0.57028861  0.67841559  0.65011636  1
  Al0+  Al78  1  0.67910356  0.92964312  0.34935269  1
  Al0+  Al79  1  0.92746009  0.32396809  0.98204737  1
  Al0+  Al80  1  0.31866599  0.07206468  0.01538818  1
  Al0+  Al81  1  0.68007210  0.93092434  0.68111675  1
  Al0+  Al82  1  0.17917536  0.42619212  0.68542747  1
  Al0+  Al83  1  0.43040090  0.31984069  0.98409381  1
  Al0+  Al84  1  0.17669891  0.92937656  0.34756901  1
  Al0+  Al85  1  0.82015579  0.56936158  0.34596271  1
  Al0+  Al86  1  0.81768813  0.57050759  0.68174779  1
  Al0+  Al87  1  0.93048288  0.81966714  0.65289531  1
  Al0+  Al88  1  0.57115666  0.68070245  0.98488778  1
  Al0+  Al89  1  0.32413223  0.57102939  0.01493347  1
  Al0+  Al90  1  0.57204842  0.17526820  0.31832016  1
  Al0+  Al91  1  0.42653315  0.82365973  0.65230139  1
  Al0+  Al92  1  0.92954195  0.81932349  0.31888771  1
  Al0+  Al93  1  0.57005608  0.68258687  0.31828317  1
  Al0+  Al94  1  0.18187243  0.43000128  0.34515154  1
  Al0+  Al95  1  0.07070881  0.17916924  0.31851143  1
  Si0+  Si96  1  0.42659541  0.82220031  0.98731002  1
  Si0+  Si97  1  0.32002789  0.06889670  0.68107493  1
  Si0+  Si98  1  0.07476850  0.67856614  0.31829847  1
  Si0+  Si99  1  0.07210329  0.67542976  0.65092679  1
  Si0+  Si100  1  0.92924294  0.81907766  0.98469708  1
  Si0+  Si101  1  0.07136675  0.18005016  0.64986039  1
  Si0+  Si102  1  0.82359223  0.07455927  0.68347072  1
  Si0+  Si103  1  0.42439653  0.82232496  0.31551249  1
  Si0+  Si104  1  0.32632364  0.57290547  0.34965935  1
  Si0+  Si105  1  0.82181982  0.07346612  0.34828864  1
  Si0+  Si106  1  0.17448448  0.92766034  0.01509609  1
  Si0+  Si107  1  0.67703527  0.42624804  0.34720374  1
  Si0+  Si108  1  0.82219237  0.07339745  0.01679188  1
  Si0+  Si109  1  0.67794334  0.42365141  0.68254685  1
  Si0+  Si110  1  0.57150991  0.17825332  0.65466287  1
  Si0+  Si111  1  0.17897699  0.43028492  0.01736010  1
  Si0+  Si112  1  0.92869654  0.32188684  0.65150465  1
  Si0+  Si113  1  0.32032352  0.07185988  0.35213478  1
  Si0+  Si114  1  0.17587540  0.92918006  0.68036005  1
  Si0+  Si115  1  0.57104835  0.17431392  0.98315453  1
  Si0+  Si116  1  0.42826700  0.31892999  0.65206988  1
  Si0+  Si117  1  0.82170973  0.56988356  0.01557886  1
  Si0+  Si118  1  0.07360110  0.67944659  0.98554074  1
  Si0+  Si119  1  0.67962363  0.42730698  0.01387279  1
  O2-  O120  1  0.24155299  -0.00202956  0.05873647  1
  O2-  O121  1  0.25152020  0.00304353  0.39647911  1
  O2-  O122  1  0.25172021  -0.00537614  0.72294382  1
  O2-  O123  1  0.24916311  0.49691577  0.06217750  1
  O2-  O124  1  0.25738559  0.50378843  0.39253804  1
  O2-  O125  1  0.25147822  0.49941906  0.73265147  1
  O2-  O126  1  0.75259232  0.00660036  0.06175007  1
  O2-  O127  1  0.75082039  0.00840151  0.39491575  1
  O2-  O128  1  0.75503783  0.00594499  0.72806553  1
  O2-  O129  1  0.75495722  0.49420154  0.05568900  1
  O2-  O130  1  0.74900670  0.49073650  0.39241484  1
  O2-  O131  1  0.74250035  0.49581212  0.72791491  1
  O2-  O132  1  -0.00095162  0.25231075  0.27043033  1
  O2-  O133  1  0.00090269  0.25217725  0.60937341  1
  O2-  O134  1  -0.00118047  0.25137500  0.93131851  1
  O2-  O135  1  0.00821571  0.74861074  0.27195961  1
  O2-  O136  1  0.00474694  0.74471865  0.60567155  1
  O2-  O137  1  0.00457399  0.75255735  0.94315119  1
  O2-  O138  1  0.50196247  0.24937785  0.26935115  1
  O2-  O139  1  0.50277613  0.25092803  0.61151197  1
  O2-  O140  1  0.50356298  0.24305479  0.93648375  1
  O2-  O141  1  0.49268796  0.75408052  0.27059398  1
  O2-  O142  1  0.49528417  0.74876388  0.60196217  1
  O2-  O143  1  0.49379435  0.75383178  0.94092245  1
  O2-  O144  1  0.06906734  0.17921019  0.09492982  1
  O2-  O145  1  0.06923688  0.18018333  0.43290123  1
  O2-  O146  1  0.07158035  0.17782999  0.75464564  1
  O2-  O147  1  0.07241851  0.67798479  0.09043802  1
  O2-  O148  1  0.07366636  0.67913204  0.42376108  1
  O2-  O149  1  0.07129380  0.67954680  0.75725752  1
  O2-  O150  1  0.57073345  0.17660382  0.08822392  1
  O2-  O151  1  0.56921676  0.17657676  0.43306295  1
  O2-  O152  1  0.56964064  0.17838008  0.75977478  1
  O2-  O153  1  0.57391723  0.68153815  0.09788304  1
  O2-  O154  1  0.57060598  0.68313423  0.43099800  1
  O2-  O155  1  0.57093927  0.68174090  0.76396461  1
  O2-  O156  1  0.18140575  0.43216590  0.23203492  1
  O2-  O157  1  0.18055779  0.42362713  0.57161802  1
  O2-  O158  1  0.17976991  0.43323357  0.91170739  1
  O2-  O159  1  0.17879919  0.93033028  0.23437881  1
  O2-  O160  1  0.17265404  0.93374216  0.57569870  1
  O2-  O161  1  0.17517686  0.92617002  0.90902496  1
  O2-  O162  1  0.67519281  0.42990908  0.24151439  1
  O2-  O163  1  0.68132785  0.41660305  0.57752382  1
  O2-  O164  1  0.67935395  0.42844883  0.90848568  1
  O2-  O165  1  0.68285107  0.92833125  0.23615132  1
  O2-  O166  1  0.68036624  0.93247066  0.56835653  1
  O2-  O167  1  0.68228598  0.92766662  0.90245042  1
  O2-  O168  1  0.43203177  0.31973389  0.09655615  1
  O2-  O169  1  0.42992515  0.31904026  0.43351506  1
  O2-  O170  1  0.42816434  0.31740337  0.75725161  1
  O2-  O171  1  0.42569994  0.82038394  0.09264675  1
  O2-  O172  1  0.42389156  0.82134415  0.42103027  1
  O2-  O173  1  0.43026246  0.82861264  0.76611833  1
  O2-  O174  1  0.93008725  0.32610496  0.09519234  1
  O2-  O175  1  0.93177355  0.32543478  0.43477086  1
  O2-  O176  1  0.92654815  0.31900518  0.75632001  1
  O2-  O177  1  0.92874914  0.81807804  0.08967802  1
  O2-  O178  1  0.92849625  0.81720302  0.43190963  1
  O2-  O179  1  0.93268414  0.81863434  0.76681041  1
  O2-  O180  1  0.31954589  0.07148186  0.24666355  1
  O2-  O181  1  0.31882317  0.07222856  0.57638263  1
  O2-  O182  1  0.31921458  0.06856007  0.90136785  1
  O2-  O183  1  0.32474459  0.57296840  0.24379320  1
  O2-  O184  1  0.32210715  0.56661371  0.56733050  1
  O2-  O185  1  0.32222328  0.57125519  0.90201722  1
  O2-  O186  1  0.82242481  0.06970321  0.24272670  1
  O2-  O187  1  0.82277777  0.07811794  0.57825478  1
  O2-  O188  1  0.82210962  0.07096429  0.91079912  1
  O2-  O189  1  0.81899218  0.57027711  0.23235633  1
  O2-  O190  1  0.81827907  0.56985171  0.56888033  1
  O2-  O191  1  0.82021218  0.57274998  0.91048567  1
  O2-  O192  1  0.04284143  0.08186767  0.26398029  1
  O2-  O193  1  0.04287581  0.08884714  0.60163993  1
  O2-  O194  1  0.04147426  0.08024493  0.92692488  1
  O2-  O195  1  0.04625119  0.58680233  0.27095147  1
  O2-  O196  1  0.04518380  0.58033794  0.60961381  1
  O2-  O197  1  0.04403728  0.58986734  0.93529777  1
  O2-  O198  1  0.54062076  0.07742379  0.26643007  1
  O2-  O199  1  0.54075161  0.08811765  0.60665231  1
  O2-  O200  1  0.54234697  0.07980662  0.94043783  1
  O2-  O201  1  0.54419433  0.58525082  0.26308157  1
  O2-  O202  1  0.54751502  0.57773731  0.59769983  1
  O2-  O203  1  0.54454815  0.58379907  0.93020302  1
  O2-  O204  1  0.16940907  0.20629297  0.26751217  1
  O2-  O205  1  0.16383008  0.20668123  0.60307310  1
  O2-  O206  1  0.16828546  0.20706675  0.92781721  1
  O2-  O207  1  0.16956029  0.70195680  0.27326865  1
  O2-  O208  1  0.16604990  0.69782779  0.60522897  1
  O2-  O209  1  0.16580391  0.70713237  0.93809583  1
  O2-  O210  1  0.67023274  0.19837578  0.26302904  1
  O2-  O211  1  0.66456670  0.20293559  0.60790549  1
  O2-  O212  1  0.66517867  0.19714780  0.93650355  1
  O2-  O213  1  0.66524765  0.71608872  0.26355253  1
  O2-  O214  1  0.66808894  0.71138557  0.59950895  1
  O2-  O215  1  0.66780020  0.71397267  0.93167972  1
  O2-  O216  1  0.08507682  0.45915445  0.06111864  1
  O2-  O217  1  0.08764751  0.46268286  0.40313477  1
  O2-  O218  1  0.08141287  0.45277537  0.73994588  1
  O2-  O219  1  0.07911549  0.95223468  0.05803564  1
  O2-  O220  1  0.07967792  0.96091988  0.40103303  1
  O2-  O221  1  0.08633028  0.96245035  0.73019851  1
  O2-  O222  1  0.58989648  0.45937416  0.06158018  1
  O2-  O223  1  0.58461934  0.45528671  0.39450799  1
  O2-  O224  1  0.58232535  0.44531990  0.72568047  1
  O2-  O225  1  0.58414320  0.95476071  0.07137685  1
  O2-  O226  1  0.58073672  0.95644993  0.40238742  1
  O2-  O227  1  0.58374740  0.96321935  0.73585494  1
  O2-  O228  1  0.20295105  0.33515159  0.05909522  1
  O2-  O229  1  0.21174245  0.33325814  0.40028408  1
  O2-  O230  1  0.20945618  0.32795263  0.73837481  1
  O2-  O231  1  0.19936033  0.83526916  0.06373420  1
  O2-  O232  1  0.20528708  0.83275102  0.40367904  1
  O2-  O233  1  0.19545519  0.83489763  0.72618142  1
  O2-  O234  1  0.70149761  0.33282132  0.05907277  1
  O2-  O235  1  0.69620637  0.32973147  0.39034101  1
  O2-  O236  1  0.70681254  0.33214116  0.73302004  1
  O2-  O237  1  0.71806633  0.83335145  0.06909162  1
  O2-  O238  1  0.71608077  0.83501511  0.40229326  1
  O2-  O239  1  0.71316029  0.83571103  0.73588858  1
  O2-  O240  1  0.45719160  0.41874350  0.26445927  1
  O2-  O241  1  0.45237050  0.41052147  0.60377874  1
  O2-  O242  1  0.46573521  0.41412576  0.92819499  1
  O2-  O243  1  0.44893231  0.91685624  0.27181865  1
  O2-  O244  1  0.45654882  0.92163330  0.59798296  1
  O2-  O245  1  0.45292050  0.91712960  0.94423787  1
  O2-  O246  1  0.96087509  0.42414436  0.26850035  1
  O2-  O247  1  0.95548634  0.41560795  0.60859774  1
  O2-  O248  1  0.95625531  0.42277202  0.92877183  1
  O2-  O249  1  0.95807316  0.91568182  0.26369891  1
  O2-  O250  1  0.95987333  0.91720066  0.59978567  1
  O2-  O251  1  0.95059101  0.91190673  0.93613788  1
  O2-  O252  1  0.33292074  0.29099921  0.26479311  1
  O2-  O253  1  0.33739551  0.28568064  0.60601601  1
  O2-  O254  1  0.33419578  0.28984368  0.92927833  1
  O2-  O255  1  0.32977953  0.79907741  0.27001051  1
  O2-  O256  1  0.32507050  0.80153142  0.60200811  1
  O2-  O257  1  0.33132367  0.80024352  0.94183538  1
  O2-  O258  1  0.83016127  0.30272646  0.26726058  1
  O2-  O259  1  0.83716332  0.29378450  0.60325509  1
  O2-  O260  1  0.82842257  0.29582217  0.92842794  1
  O2-  O261  1  0.83591976  0.78382202  0.26297447  1
  O2-  O262  1  0.83410469  0.78778022  0.60098356  1
  O2-  O263  1  0.84019826  0.78437202  0.93664107  1
  O2-  O264  1  0.41285213  0.04179968  0.07363869  1
  O2-  O265  1  0.41333101  0.04526398  0.39910930  1
  O2-  O266  1  0.41183015  0.04470568  0.73027247  1
  O2-  O267  1  0.42162954  0.53874149  0.06569904  1
  O2-  O268  1  0.42036720  0.54651279  0.39370900  1
  O2-  O269  1  0.42216916  0.54123561  0.73261901  1
  O2-  O270  1  0.91592951  0.04544110  0.06115115  1
  O2-  O271  1  0.91465052  0.04621315  0.39483093  1
  O2-  O272  1  0.91755102  0.04798667  0.72898499  1
  O2-  O273  1  0.91578760  0.54680156  0.06115897  1
  O2-  O274  1  0.91726320  0.54513608  0.40247860  1
  O2-  O275  1  0.91358312  0.54100511  0.73851077  1
  O2-  O276  1  0.28795387  0.16942657  0.06732148  1
  O2-  O277  1  0.29502803  0.16524826  0.39869142  1
  O2-  O278  1  0.28815838  0.15857787  0.73072863  1
  O2-  O279  1  0.29334286  0.66731393  0.07010156  1
  O2-  O280  1  0.30221316  0.66657989  0.39585242  1
  O2-  O281  1  0.29507897  0.67060517  0.73414606  1
  O2-  O282  1  0.79990263  0.16882767  0.06026263  1
  O2-  O283  1  0.80018082  0.16956402  0.39204179  1
  O2-  O284  1  0.79836310  0.16780308  0.73137487  1
  O2-  O285  1  0.79007239  0.65991990  0.06385146  1
  O2-  O286  1  0.78413834  0.66434203  0.39946697  1
  O2-  O287  1  0.78782468  0.66638506  0.73790654  1
