# generated using pymatgen
data_Ca2Al2SiO7
_symmetry_space_group_name_H-M   'P 1'
_cell_length_a   15.46008746
_cell_length_b   15.45906167
_cell_length_c   15.28487688
_cell_angle_alpha   89.98899968
_cell_angle_beta   90.01382843
_cell_angle_gamma   90.02190505
_symmetry_Int_Tables_number   1
_chemical_formula_structural   Ca2Al2SiO7
_chemical_formula_sum   'Ca48 Al48 Si24 O168'
_cell_volume   3653.06137141
_cell_formula_units_Z   24
loop_
 _symmetry_equiv_pos_site_id
 _symmetry_equiv_pos_as_xyz
  1  'x, y, z'
loop_
 _atom_type_symbol
 _atom_type_oxidation_number
  Ca2+  2.0
  Al0+  0.0
  Si0+  0.0
  O2-  -2.0
loop_
 _atom_site_type_symbol
 _atom_site_label
 _atom_site_symmetry_multiplicity
 _atom_site_fract_x
 _atom_site_fract_y
 _atom_site_fract_z
 _atom_site_occupancy
  Ca2+  Ca0  1  0.16534388  0.07277483  0.17795539  1
  Ca2+  Ca1  1  0.17055256  0.08211406  0.51000097  1
  Ca2+  Ca2  1  0.16348787  0.07538440  0.83565699  1
  Ca2+  Ca3  1  0.17300649  0.58815298  0.17206083  1
  Ca2+  Ca4  1  0.16535317  0.58039400  0.50239775  1
  Ca2+  Ca5  1  0.16479821  0.58303212  0.83809159  1
  Ca2+  Ca6  1  0.66842752  0.09073993  0.16606713  1
  Ca2+  Ca7  1  0.67081694  0.08226123  0.50749566  1
  Ca2+  Ca8  1  0.67521001  0.07933773  0.84244467  1
  Ca2+  Ca9  1  0.67316253  0.56832086  0.17692561  1
  Ca2+  Ca10  1  0.67181898  0.57747004  0.49808481  1
  Ca2+  Ca11  1  0.67099707  0.57517202  0.84243897  1
  Ca2+  Ca12  1  0.07739009  0.32600239  0.16285456  1
  Ca2+  Ca13  1  0.09091543  0.32072322  0.49726157  1
  Ca2+  Ca14  1  0.07575252  0.33130422  0.82459454  1
  Ca2+  Ca15  1  0.09322244  0.82582500  0.16313579  1
  Ca2+  Ca16  1  0.09441743  0.82662203  0.49543916  1
  Ca2+  Ca17  1  0.09440583  0.82622605  0.82971439  1
  Ca2+  Ca18  1  0.58451187  0.32887093  0.16428586  1
  Ca2+  Ca19  1  0.57531775  0.32621306  0.48655484  1
  Ca2+  Ca20  1  0.58531520  0.32798144  0.83526853  1
  Ca2+  Ca21  1  0.58107177  0.83298457  0.15927170  1
  Ca2+  Ca22  1  0.58226602  0.83603861  0.49623876  1
  Ca2+  Ca23  1  0.58622137  0.83894767  0.82851827  1
  Ca2+  Ca24  1  0.33957716  0.42801421  0.17274268  1
  Ca2+  Ca25  1  0.32988694  0.41764707  0.50107762  1
  Ca2+  Ca26  1  0.32254910  0.42178464  0.83600417  1
  Ca2+  Ca27  1  0.32272909  0.92270260  0.17194212  1
  Ca2+  Ca28  1  0.32346621  0.93044734  0.50066760  1
  Ca2+  Ca29  1  0.32357215  0.92179353  0.83275334  1
  Ca2+  Ca30  1  0.82534893  0.41185903  0.16998466  1
  Ca2+  Ca31  1  0.83313914  0.41904740  0.49655301  1
  Ca2+  Ca32  1  0.83038590  0.41329461  0.84294574  1
  Ca2+  Ca33  1  0.82911009  0.92053961  0.16537972  1
  Ca2+  Ca34  1  0.82674890  0.92317259  0.50867774  1
  Ca2+  Ca35  1  0.82804642  0.92843409  0.83773874  1
  Ca2+  Ca36  1  0.42527654  0.16663263  0.16752465  1
  Ca2+  Ca37  1  0.41690860  0.16811093  0.48691351  1
  Ca2+  Ca38  1  0.42248900  0.15894466  0.82957824  1
  Ca2+  Ca39  1  0.41010701  0.66589518  0.16059540  1
  Ca2+  Ca40  1  0.41417670  0.66893313  0.49289219  1
  Ca2+  Ca41  1  0.41549682  0.66705040  0.83273146  1
  Ca2+  Ca42  1  0.91821050  0.16894824  0.16095132  1
  Ca2+  Ca43  1  0.92896424  0.15806315  0.49891133  1
  Ca2+  Ca44  1  0.91501019  0.16683972  0.83165246  1
  Ca2+  Ca45  1  0.92741217  0.66242738  0.16329381  1
  Ca2+  Ca46  1  0.92669748  0.66840641  0.49191400  1
  Ca2+  Ca47  1  0.92951219  0.66964833  0.82695411  1
  Al0+  Al48  1  -0.00119948  -0.00183417  0.00813190  1
  Al0+  Al49  1  -0.00287607  -0.00436123  0.33273755  1
  Al0+  Al50  1  -0.00174451  -0.00088013  0.67124171  1
  Al0+  Al51  1  0.00116643  0.49877608  -0.00869687  1
  Al0+  Al52  1  0.00008841  0.50090045  0.33210186  1
  Al0+  Al53  1  -0.00037013  0.50094357  0.66460279  1
  Al0+  Al54  1  0.49898640  -0.00076270  -0.00254201  1
  Al0+  Al55  1  0.49817545  -0.00078325  0.33092933  1
  Al0+  Al56  1  0.49889859  -0.00143647  0.66987577  1
  Al0+  Al57  1  0.49967174  0.49999051  0.00464487  1
  Al0+  Al58  1  0.50070828  0.50006806  0.33946554  1
  Al0+  Al59  1  0.50111870  0.50043124  0.66597650  1
  Al0+  Al60  1  0.25103469  0.25089929  -0.00034723  1
  Al0+  Al61  1  0.25141009  0.25152605  0.32277254  1
  Al0+  Al62  1  0.25018072  0.25374503  0.67342794  1
  Al0+  Al63  1  0.25163892  0.75058813  0.00105638  1
  Al0+  Al64  1  0.25074372  0.75008045  0.33690997  1
  Al0+  Al65  1  0.25410303  0.75106831  0.66324024  1
  Al0+  Al66  1  0.74968555  0.24985966  -0.00101141  1
  Al0+  Al67  1  0.74982116  0.24853480  0.33703386  1
  Al0+  Al68  1  0.74877858  0.25191151  0.66725875  1
  Al0+  Al69  1  0.75175543  0.75060232  0.00166922  1
  Al0+  Al70  1  0.75080766  0.74964766  0.33606770  1
  Al0+  Al71  1  0.75059321  0.74758282  0.66824815  1
  Al0+  Al72  1  0.31969613  0.07285631  0.34496101  1
  Al0+  Al73  1  0.57182056  0.17710134  0.31884944  1
  Al0+  Al74  1  0.06974951  0.17958805  0.65632206  1
  Al0+  Al75  1  0.67980799  0.42650235  0.35080488  1
  Al0+  Al76  1  0.81958551  0.07152866  0.01791046  1
  Al0+  Al77  1  0.07174090  0.68181850  0.98540868  1
  Al0+  Al78  1  0.67870917  0.92759199  0.68040149  1
  Al0+  Al79  1  0.31770333  0.56894343  0.01208489  1
  Al0+  Al80  1  0.17695108  0.92962709  0.34923780  1
  Al0+  Al81  1  0.82294213  0.57188388  0.34827824  1
  Al0+  Al82  1  0.07096912  0.68033310  0.31881201  1
  Al0+  Al83  1  0.68028826  0.42979857  0.01342191  1
  Al0+  Al84  1  0.18045123  0.93055368  0.01427013  1
  Al0+  Al85  1  0.82100670  0.07333368  0.68210443  1
  Al0+  Al86  1  0.32065059  0.57087178  0.34795615  1
  Al0+  Al87  1  0.17893268  0.92796980  0.68157675  1
  Al0+  Al88  1  0.67685637  0.92784879  0.01640809  1
  Al0+  Al89  1  0.07262087  0.68032706  0.65083087  1
  Al0+  Al90  1  0.56800440  0.18017308  0.98429287  1
  Al0+  Al91  1  0.32062121  0.07482631  0.68183779  1
  Al0+  Al92  1  0.93044912  0.31843843  0.98697289  1
  Al0+  Al93  1  0.17805949  0.43101053  0.67941903  1
  Al0+  Al94  1  0.07149450  0.17616514  0.32068722  1
  Al0+  Al95  1  0.42814407  0.32397218  0.31722628  1
  Si0+  Si96  1  0.57237404  0.67720319  0.65084991  1
  Si0+  Si97  1  0.57282464  0.67944711  0.31889648  1
  Si0+  Si98  1  0.92628044  0.82318250  0.98191824  1
  Si0+  Si99  1  0.42977436  0.32301056  0.65300476  1
  Si0+  Si100  1  0.42750090  0.32603785  0.98065629  1
  Si0+  Si101  1  0.17503391  0.42669426  0.01685828  1
  Si0+  Si102  1  0.32378340  0.57211113  0.68261919  1
  Si0+  Si103  1  0.82501455  0.57218336  0.01443199  1
  Si0+  Si104  1  0.07316880  0.17510285  0.98467370  1
  Si0+  Si105  1  0.32307833  0.07410973  0.01710633  1
  Si0+  Si106  1  0.57218747  0.67774630  0.98695498  1
  Si0+  Si107  1  0.92533346  0.32328568  0.64792528  1
  Si0+  Si108  1  0.67774352  0.43070115  0.68289245  1
  Si0+  Si109  1  0.56963062  0.17924733  0.65278083  1
  Si0+  Si110  1  0.82076069  0.07056585  0.34922081  1
  Si0+  Si111  1  0.17676488  0.42749260  0.34713358  1
  Si0+  Si112  1  0.92642310  0.82053081  0.65015907  1
  Si0+  Si113  1  0.43102424  0.82126634  0.64915652  1
  Si0+  Si114  1  0.43031622  0.81893765  0.31721652  1
  Si0+  Si115  1  0.43018927  0.81971465  0.98359825  1
  Si0+  Si116  1  0.82124902  0.56973471  0.68286237  1
  Si0+  Si117  1  0.92381388  0.82118769  0.31476484  1
  Si0+  Si118  1  0.67758574  0.92833891  0.34709325  1
  Si0+  Si119  1  0.92885507  0.32084459  0.31832264  1
  O2-  O120  1  0.24792026  0.01213348  0.06005591  1
  O2-  O121  1  0.24069632  0.01011379  0.39717503  1
  O2-  O122  1  0.24575740  0.00520360  0.73123704  1
  O2-  O123  1  0.24519874  0.49372247  0.06078740  1
  O2-  O124  1  0.24670261  0.49495942  0.39232876  1
  O2-  O125  1  0.25038913  0.50858128  0.72606436  1
  O2-  O126  1  0.74639649  0.00033018  0.06840357  1
  O2-  O127  1  0.74705452  0.00064402  0.38911865  1
  O2-  O128  1  0.74768393  0.00157506  0.73037540  1
  O2-  O129  1  0.75493861  0.50524031  0.05860297  1
  O2-  O130  1  0.75228055  0.49901541  0.39976943  1
  O2-  O131  1  0.75180477  0.49779198  0.72597902  1
  O2-  O132  1  -0.00312169  0.25148146  0.27436947  1
  O2-  O133  1  -0.00641982  0.25262290  0.60658286  1
  O2-  O134  1  0.00693102  0.24582198  0.93993005  1
  O2-  O135  1  -0.00457789  0.75432461  0.27235442  1
  O2-  O136  1  -0.00008462  0.75753409  0.60473108  1
  O2-  O137  1  -0.00351107  0.75573295  0.93775714  1
  O2-  O138  1  0.50123920  0.25134665  0.26987785  1
  O2-  O139  1  0.49648274  0.24784147  0.61077087  1
  O2-  O140  1  0.49117934  0.25274738  0.93572761  1
  O2-  O141  1  0.50073187  0.74755250  0.27424415  1
  O2-  O142  1  0.50399202  0.75058167  0.60841615  1
  O2-  O143  1  0.50574935  0.75197755  0.94208598  1
  O2-  O144  1  0.07145443  0.17656021  0.09035344  1
  O2-  O145  1  0.07084662  0.17737585  0.43424386  1
  O2-  O146  1  0.06872091  0.18294787  0.76927831  1
  O2-  O147  1  0.07214836  0.68232089  0.09835620  1
  O2-  O148  1  0.07075501  0.68128776  0.43201377  1
  O2-  O149  1  0.07095247  0.68009320  0.76414774  1
  O2-  O150  1  0.56728326  0.18157278  0.09689594  1
  O2-  O151  1  0.57096137  0.17585951  0.43323456  1
  O2-  O152  1  0.57040258  0.18180357  0.75783732  1
  O2-  O153  1  0.56946240  0.67753167  0.09182344  1
  O2-  O154  1  0.57289695  0.68340989  0.42455068  1
  O2-  O155  1  0.57087540  0.67361045  0.75604790  1
  O2-  O156  1  0.17457753  0.43029082  0.24160456  1
  O2-  O157  1  0.18149443  0.42931444  0.56634027  1
  O2-  O158  1  0.17547000  0.42864623  0.91096234  1
  O2-  O159  1  0.18201305  0.92751173  0.23554424  1
  O2-  O160  1  0.18312868  0.92712081  0.56855841  1
  O2-  O161  1  0.18391390  0.92870139  0.90123730  1
  O2-  O162  1  0.68171764  0.42750475  0.23723141  1
  O2-  O163  1  0.67578138  0.43273860  0.57840105  1
  O2-  O164  1  0.68045796  0.43282794  0.89944238  1
  O2-  O165  1  0.67852852  0.92513698  0.24255237  1
  O2-  O166  1  0.67904011  0.92831829  0.56612256  1
  O2-  O167  1  0.67896686  0.92802655  0.90308378  1
  O2-  O168  1  0.43004563  0.32944625  0.08552296  1
  O2-  O169  1  0.42908210  0.32349369  0.43176878  1
  O2-  O170  1  0.43453721  0.32804427  0.75790908  1
  O2-  O171  1  0.42924521  0.81732703  0.08873302  1
  O2-  O172  1  0.43364620  0.81896672  0.42258292  1
  O2-  O173  1  0.42988291  0.81881849  0.75439614  1
  O2-  O174  1  0.93169705  0.31877897  0.10019273  1
  O2-  O175  1  0.92936355  0.32030269  0.42407111  1
  O2-  O176  1  0.92461814  0.32507739  0.75355223  1
  O2-  O177  1  0.92346224  0.82047480  0.08731994  1
  O2-  O178  1  0.91873793  0.82044766  0.42033591  1
  O2-  O179  1  0.92191644  0.81467001  0.75539364  1
  O2-  O180  1  0.32252778  0.06628512  0.23164163  1
  O2-  O181  1  0.32269576  0.07443939  0.56843655  1
  O2-  O182  1  0.32431890  0.07091717  0.91135040  1
  O2-  O183  1  0.31924321  0.57299783  0.23483655  1
  O2-  O184  1  0.32736111  0.56938730  0.57731947  1
  O2-  O185  1  0.31825414  0.56911492  0.89866147  1
  O2-  O186  1  0.82133813  0.07131640  0.24459198  1
  O2-  O187  1  0.81855266  0.07235348  0.56783786  1
  O2-  O188  1  0.81860503  0.07105250  0.90449357  1
  O2-  O189  1  0.82056552  0.57155145  0.23468737  1
  O2-  O190  1  0.81936931  0.57016665  0.57808855  1
  O2-  O191  1  0.82221755  0.57117762  0.90818856  1
  O2-  O192  1  0.03848966  0.07941617  0.26817361  1
  O2-  O193  1  0.04068658  0.08147359  0.60311821  1
  O2-  O194  1  0.04493306  0.08106800  0.94118559  1
  O2-  O195  1  0.04136487  0.58309038  0.26469746  1
  O2-  O196  1  0.03858734  0.58407167  0.59781550  1
  O2-  O197  1  0.04271241  0.58503845  0.93009510  1
  O2-  O198  1  0.54232310  0.07928762  0.26452551  1
  O2-  O199  1  0.54562620  0.08527920  0.60806551  1
  O2-  O200  1  0.53860038  0.08243617  0.93014734  1
  O2-  O201  1  0.54766453  0.58598795  0.27518157  1
  O2-  O202  1  0.54150313  0.58694178  0.60142786  1
  O2-  O203  1  0.54012374  0.58767963  0.93752272  1
  O2-  O204  1  0.16603688  0.20535543  0.26266636  1
  O2-  O205  1  0.16709810  0.21439669  0.60469197  1
  O2-  O206  1  0.16893624  0.19681529  0.94077521  1
  O2-  O207  1  0.16838280  0.71302341  0.26680953  1
  O2-  O208  1  0.17166634  0.70671980  0.59910015  1
  O2-  O209  1  0.16850371  0.71420746  0.93170465  1
  O2-  O210  1  0.67144274  0.20519167  0.26812126  1
  O2-  O211  1  0.66085817  0.20953135  0.60521643  1
  O2-  O212  1  0.66372277  0.21411395  0.93047881  1
  O2-  O213  1  0.66389564  0.70832991  0.27125419  1
  O2-  O214  1  0.66503506  0.70223889  0.60352847  1
  O2-  O215  1  0.66613471  0.70004407  0.94030516  1
  O2-  O216  1  0.08147304  0.45363138  0.06118864  1
  O2-  O217  1  0.08446512  0.45350097  0.39497936  1
  O2-  O218  1  0.08041149  0.45967598  0.73274367  1
  O2-  O219  1  0.08221254  0.95123505  0.06863088  1
  O2-  O220  1  0.07421600  0.94507626  0.39763437  1
  O2-  O221  1  0.07852602  0.94782698  0.73311071  1
  O2-  O222  1  0.58495056  0.46151939  0.06790489  1
  O2-  O223  1  0.58347070  0.45852146  0.40545670  1
  O2-  O224  1  0.58774941  0.46289583  0.73163104  1
  O2-  O225  1  0.57599043  0.95206545  0.06564907  1
  O2-  O226  1  0.58522103  0.95431376  0.39402501  1
  O2-  O227  1  0.57941836  0.95131526  0.73227347  1
  O2-  O228  1  0.19774445  0.33164188  0.06110509  1
  O2-  O229  1  0.20328960  0.33324868  0.39088745  1
  O2-  O230  1  0.21102841  0.33867065  0.73942794  1
  O2-  O231  1  0.21996631  0.83688157  0.06790799  1
  O2-  O232  1  0.21623786  0.83537029  0.40262829  1
  O2-  O233  1  0.21681454  0.83124643  0.73374530  1
  O2-  O234  1  0.71236323  0.33456695  0.06666492  1
  O2-  O235  1  0.70831039  0.32887616  0.40571643  1
  O2-  O236  1  0.70238057  0.33781388  0.72924644  1
  O2-  O237  1  0.70482562  0.82824874  0.06861322  1
  O2-  O238  1  0.70559161  0.83740451  0.39644622  1
  O2-  O239  1  0.70537823  0.82777910  0.73209606  1
  O2-  O240  1  0.45963448  0.42340046  0.26693029  1
  O2-  O241  1  0.46184608  0.41310192  0.60351999  1
  O2-  O242  1  0.45863565  0.41796092  0.93310107  1
  O2-  O243  1  0.45863908  0.90929022  0.26791472  1
  O2-  O244  1  0.45906269  0.91279044  0.60084171  1
  O2-  O245  1  0.45379921  0.91160029  0.93453404  1
  O2-  O246  1  0.95313586  0.41424958  0.27155008  1
  O2-  O247  1  0.95198316  0.41650307  0.60192085  1
  O2-  O248  1  0.95834705  0.41442172  0.92846483  1
  O2-  O249  1  0.94604424  0.91504118  0.26823737  1
  O2-  O250  1  0.94484524  0.91696463  0.60783456  1
  O2-  O251  1  0.95123005  0.91811381  0.93887987  1
  O2-  O252  1  0.33115533  0.30137470  0.25912737  1
  O2-  O253  1  0.33570564  0.30102197  0.60865988  1
  O2-  O254  1  0.33103209  0.30545980  0.93716340  1
  O2-  O255  1  0.33923750  0.78899151  0.27040559  1
  O2-  O256  1  0.34190253  0.79120206  0.59833899  1
  O2-  O257  1  0.34166289  0.78515262  0.93411527  1
  O2-  O258  1  0.83503647  0.29377716  0.27381770  1
  O2-  O259  1  0.83056136  0.30018062  0.60234259  1
  O2-  O260  1  0.83447341  0.28823721  0.93117232  1
  O2-  O261  1  0.83133309  0.79296108  0.26681745  1
  O2-  O262  1  0.83465860  0.78897831  0.60153799  1
  O2-  O263  1  0.83307149  0.79663352  0.93417298  1
  O2-  O264  1  0.41379130  0.04043949  0.06294669  1
  O2-  O265  1  0.41590983  0.03622418  0.39915170  1
  O2-  O266  1  0.41681061  0.03931205  0.73536073  1
  O2-  O267  1  0.41486408  0.54153311  0.06687079  1
  O2-  O268  1  0.41767094  0.54488832  0.40353836  1
  O2-  O269  1  0.41609346  0.54229379  0.73017402  1
  O2-  O270  1  0.91700448  0.04274236  0.07247299  1
  O2-  O271  1  0.91062582  0.03858126  0.39785347  1
  O2-  O272  1  0.91784774  0.04505462  0.73714142  1
  O2-  O273  1  0.91866992  0.54412153  0.05791673  1
  O2-  O274  1  0.92101982  0.54328742  0.40203879  1
  O2-  O275  1  0.91324741  0.54346736  0.72995750  1
  O2-  O276  1  0.30737987  0.17136538  0.05891720  1
  O2-  O277  1  0.30170724  0.17592994  0.39114199  1
  O2-  O278  1  0.29984256  0.17369985  0.73640942  1
  O2-  O279  1  0.28827484  0.66520480  0.06676712  1
  O2-  O280  1  0.28987202  0.66624160  0.40376934  1
  O2-  O281  1  0.30390455  0.66761295  0.72586127  1
  O2-  O282  1  0.78970098  0.16950860  0.06975257  1
  O2-  O283  1  0.79597481  0.16175493  0.39855937  1
  O2-  O284  1  0.79247762  0.17275281  0.73331535  1
  O2-  O285  1  0.80285776  0.66623052  0.05960645  1
  O2-  O286  1  0.79120589  0.66879110  0.40354145  1
  O2-  O287  1  0.79155582  0.66012301  0.73158673  1
