# generated using pymatgen
data_Ca2Al2SiO7
_symmetry_space_group_name_H-M   'P 1'
_cell_length_a   15.45620886
_cell_length_b   15.45602056
_cell_length_c   15.28244254
_cell_angle_alpha   90.00370555
_cell_angle_beta   89.99655141
_cell_angle_gamma   90.00947909
_symmetry_Int_Tables_number   1
_chemical_formula_structural   Ca2Al2SiO7
_chemical_formula_sum   'Ca48 Al48 Si24 O168'
_cell_volume   3650.84528325
_cell_formula_units_Z   24
loop_
 _symmetry_equiv_pos_site_id
 _symmetry_equiv_pos_as_xyz
  1  'x, y, z'
loop_
 _atom_type_symbol
 _atom_type_oxidation_number
  Ca2+  2.0
  Al0+  0.0
  Si0+  0.0
  O2-  -2.0
loop_
 _atom_site_type_symbol
 _atom_site_label
 _atom_site_symmetry_multiplicity
 _atom_site_fract_x
 _atom_site_fract_y
 _atom_site_fract_z
 _atom_site_occupancy
  Ca2+  Ca0  1  0.16444628  0.07628313  0.16487564  1
  Ca2+  Ca1  1  0.16070126  0.07247467  0.50729880  1
  Ca2+  Ca2  1  0.16269344  0.07628680  0.83743193  1
  Ca2+  Ca3  1  0.17697077  0.58967350  0.17340633  1
  Ca2+  Ca4  1  0.16859104  0.58406131  0.50317177  1
  Ca2+  Ca5  1  0.17233408  0.57482964  0.83702872  1
  Ca2+  Ca6  1  0.67356397  0.08234054  0.17503190  1
  Ca2+  Ca7  1  0.68047694  0.07635649  0.50812589  1
  Ca2+  Ca8  1  0.67003230  0.08016014  0.83043304  1
  Ca2+  Ca9  1  0.67667928  0.57310856  0.16988465  1
  Ca2+  Ca10  1  0.66991277  0.58364854  0.50112004  1
  Ca2+  Ca11  1  0.67147183  0.58160696  0.84019052  1
  Ca2+  Ca12  1  0.08137161  0.32498116  0.15813351  1
  Ca2+  Ca13  1  0.08125482  0.33025540  0.50342679  1
  Ca2+  Ca14  1  0.08342456  0.32189542  0.82154260  1
  Ca2+  Ca15  1  0.08367234  0.83421941  0.16996399  1
  Ca2+  Ca16  1  0.07701776  0.83623705  0.49305426  1
  Ca2+  Ca17  1  0.08218388  0.83590176  0.82652247  1
  Ca2+  Ca18  1  0.58261305  0.33949615  0.16113483  1
  Ca2+  Ca19  1  0.58016868  0.33734853  0.49730582  1
  Ca2+  Ca20  1  0.57244241  0.33988256  0.83040369  1
  Ca2+  Ca21  1  0.58068622  0.82978990  0.16168509  1
  Ca2+  Ca22  1  0.58259734  0.83220598  0.50297795  1
  Ca2+  Ca23  1  0.57793202  0.82654315  0.81763445  1
  Ca2+  Ca24  1  0.33784307  0.42659030  0.16803406  1
  Ca2+  Ca25  1  0.32829315  0.42179891  0.50674874  1
  Ca2+  Ca26  1  0.33319326  0.41535697  0.83714193  1
  Ca2+  Ca27  1  0.32012153  0.92041383  0.16983102  1
  Ca2+  Ca28  1  0.32151881  0.91248370  0.50789001  1
  Ca2+  Ca29  1  0.32333187  0.91916021  0.83972851  1
  Ca2+  Ca30  1  0.82427545  0.42352800  0.17450749  1
  Ca2+  Ca31  1  0.83378127  0.42048517  0.50438818  1
  Ca2+  Ca32  1  0.82939131  0.42025932  0.84004249  1
  Ca2+  Ca33  1  0.83684660  0.92217051  0.17412310  1
  Ca2+  Ca34  1  0.83979822  0.92255339  0.50893234  1
  Ca2+  Ca35  1  0.83440217  0.91830713  0.82800435  1
  Ca2+  Ca36  1  0.41683345  0.17382673  0.15529824  1
  Ca2+  Ca37  1  0.41507214  0.17398978  0.49965693  1
  Ca2+  Ca38  1  0.40983836  0.17601606  0.82923431  1
  Ca2+  Ca39  1  0.41293641  0.66215586  0.16242954  1
  Ca2+  Ca40  1  0.41883443  0.66871811  0.50011553  1
  Ca2+  Ca41  1  0.42234603  0.66975099  0.82509741  1
  Ca2+  Ca42  1  0.92096055  0.16453071  0.16206146  1
  Ca2+  Ca43  1  0.91591915  0.16383350  0.50086221  1
  Ca2+  Ca44  1  0.92655746  0.16987155  0.82310593  1
  Ca2+  Ca45  1  0.91579267  0.66623242  0.16759200  1
  Ca2+  Ca46  1  0.92123076  0.67879593  0.48979409  1
  Ca2+  Ca47  1  0.91530176  0.67205985  0.82523883  1
  Al0+  Al48  1  -0.00140264  -0.00157835  -0.00092623  1
  Al0+  Al49  1  0.00015864  0.00024388  0.33523837  1
  Al0+  Al50  1  0.00125175  0.00029407  0.66938353  1
  Al0+  Al51  1  0.00058166  0.50178765  0.00253909  1
  Al0+  Al52  1  0.00044299  0.49940514  0.33069713  1
  Al0+  Al53  1  0.00138121  0.49801418  0.66905832  1
  Al0+  Al54  1  0.49921127  0.00054965  0.00264760  1
  Al0+  Al55  1  0.49948095  0.00212279  0.33120531  1
  Al0+  Al56  1  0.50014905  0.00055658  0.66499305  1
  Al0+  Al57  1  0.50081555  0.49984745  0.00227214  1
  Al0+  Al58  1  0.49831153  0.50123094  0.34029974  1
  Al0+  Al59  1  0.50139956  0.50054242  0.65800223  1
  Al0+  Al60  1  0.25030540  0.24822871  -0.00448087  1
  Al0+  Al61  1  0.25071617  0.25084468  0.33010896  1
  Al0+  Al62  1  0.24925276  0.25037172  0.65928909  1
  Al0+  Al63  1  0.24776428  0.74986049  0.00580886  1
  Al0+  Al64  1  0.25001080  0.75065646  0.33830565  1
  Al0+  Al65  1  0.25218303  0.74928439  0.66932195  1
  Al0+  Al66  1  0.74882033  0.24856692  0.00219345  1
  Al0+  Al67  1  0.74860909  0.24875075  0.33980675  1
  Al0+  Al68  1  0.75022014  0.25150981  0.66918450  1
  Al0+  Al69  1  0.75035083  0.75065696  0.00327729  1
  Al0+  Al70  1  0.74766855  0.74954555  0.32972092  1
  Al0+  Al71  1  0.75055175  0.74997890  0.66166813  1
  Al0+  Al72  1  0.67961321  0.42965554  0.35156524  1
  Al0+  Al73  1  0.31908279  0.57081466  0.34942729  1
  Al0+  Al74  1  0.93186488  0.81941854  0.65462400  1
  Al0+  Al75  1  0.07224520  0.67818725  0.31802345  1
  Al0+  Al76  1  0.82063382  0.06854993  0.34653744  1
  Al0+  Al77  1  0.82177401  0.07213096  0.68463954  1
  Al0+  Al78  1  0.82299741  0.57216473  0.35077089  1
  Al0+  Al79  1  0.17945394  0.42862145  0.67985139  1
  Al0+  Al80  1  0.43169352  0.32109807  0.98696483  1
  Al0+  Al81  1  0.92705141  0.32258105  0.65222101  1
  Al0+  Al82  1  0.67874425  0.92733869  0.68085204  1
  Al0+  Al83  1  0.92802972  0.82214312  0.31680606  1
  Al0+  Al84  1  0.82360893  0.57387304  0.01490156  1
  Al0+  Al85  1  0.18021833  0.92819250  0.68099481  1
  Al0+  Al86  1  0.42919910  0.32042504  0.65083784  1
  Al0+  Al87  1  0.42722294  0.82307921  0.65241077  1
  Al0+  Al88  1  0.67986211  0.42851706  0.01321338  1
  Al0+  Al89  1  0.07026140  0.17849049  0.64943065  1
  Al0+  Al90  1  0.17646945  0.92893204  0.01695652  1
  Al0+  Al91  1  0.57229330  0.67888379  0.65043290  1
  Al0+  Al92  1  0.31975661  0.56925488  0.01130182  1
  Al0+  Al93  1  0.32188704  0.07257363  0.01423441  1
  Al0+  Al94  1  0.18154455  0.93232257  0.34863645  1
  Al0+  Al95  1  0.06895129  0.17881947  0.98584033  1
  Si0+  Si96  1  0.92672695  0.32029351  0.31782026  1
  Si0+  Si97  1  0.42870744  0.82210575  0.31686179  1
  Si0+  Si98  1  0.42964083  0.32178740  0.31680157  1
  Si0+  Si99  1  0.57047488  0.68138846  0.98700286  1
  Si0+  Si100  1  0.57337034  0.17782663  0.64923362  1
  Si0+  Si101  1  0.92669067  0.32309218  0.98560117  1
  Si0+  Si102  1  0.67739306  0.92833117  0.01486844  1
  Si0+  Si103  1  0.56884664  0.67790532  0.31504449  1
  Si0+  Si104  1  0.07331214  0.67857646  0.98442774  1
  Si0+  Si105  1  0.92820944  0.81944429  0.98392138  1
  Si0+  Si106  1  0.32388671  0.56999546  0.68389074  1
  Si0+  Si107  1  0.57438789  0.17477545  0.98268459  1
  Si0+  Si108  1  0.42734884  0.82141684  0.98729256  1
  Si0+  Si109  1  0.57092980  0.18000710  0.31828467  1
  Si0+  Si110  1  0.07345518  0.67589278  0.65321968  1
  Si0+  Si111  1  0.32384394  0.07471261  0.35025417  1
  Si0+  Si112  1  0.67424170  0.92727615  0.34833540  1
  Si0+  Si113  1  0.17796226  0.42607262  0.01553447  1
  Si0+  Si114  1  0.17731416  0.42430782  0.34847471  1
  Si0+  Si115  1  0.07085538  0.17933499  0.31716998  1
  Si0+  Si116  1  0.82137287  0.57081303  0.67999867  1
  Si0+  Si117  1  0.32269163  0.07338050  0.68090701  1
  Si0+  Si118  1  0.67747688  0.42977553  0.68223289  1
  Si0+  Si119  1  0.81949450  0.06916443  0.01429926  1
  O2-  O120  1  0.24979344  0.00124130  0.06490695  1
  O2-  O121  1  0.25628173  0.00676046  0.39552641  1
  O2-  O122  1  0.25740177  0.00176549  0.72546288  1
  O2-  O123  1  0.24509378  0.49565763  0.06060225  1
  O2-  O124  1  0.24148948  0.49751819  0.39212938  1
  O2-  O125  1  0.25536353  0.50142408  0.72797287  1
  O2-  O126  1  0.74574455  0.00145100  0.05745368  1
  O2-  O127  1  0.74895223  -0.01024313  0.39047892  1
  O2-  O128  1  0.74904930  -0.00047313  0.73360916  1
  O2-  O129  1  0.75614025  0.49626319  0.06242556  1
  O2-  O130  1  0.75269672  0.49962704  0.40256489  1
  O2-  O131  1  0.75030059  0.49966754  0.72301154  1
  O2-  O132  1  0.00003481  0.25124420  0.27511593  1
  O2-  O133  1  -0.00396037  0.24893568  0.60008271  1
  O2-  O134  1  -0.00262199  0.25742163  0.94075858  1
  O2-  O135  1  -0.00244165  0.74743710  0.26630806  1
  O2-  O136  1  0.00790894  0.74651458  0.60847146  1
  O2-  O137  1  -0.00140620  0.74661561  0.94328150  1
  O2-  O138  1  0.50035768  0.25059465  0.27445954  1
  O2-  O139  1  0.50415524  0.24579244  0.60414616  1
  O2-  O140  1  0.50513292  0.24404920  0.94055796  1
  O2-  O141  1  0.50006534  0.75181636  0.27262105  1
  O2-  O142  1  0.50054680  0.75249888  0.60178560  1
  O2-  O143  1  0.49947717  0.75200743  0.94440654  1
  O2-  O144  1  0.06502042  0.17920785  0.09989020  1
  O2-  O145  1  0.07222024  0.17996258  0.42153468  1
  O2-  O146  1  0.07030395  0.17986224  0.76326902  1
  O2-  O147  1  0.07600285  0.67944553  0.08893074  1
  O2-  O148  1  0.07315615  0.68091278  0.43165569  1
  O2-  O149  1  0.07081305  0.67504625  0.75945504  1
  O2-  O150  1  0.57581433  0.17335368  0.08860337  1
  O2-  O151  1  0.56874542  0.17857985  0.42285504  1
  O2-  O152  1  0.57283545  0.17888204  0.75501552  1
  O2-  O153  1  0.56994537  0.68351989  0.09230431  1
  O2-  O154  1  0.56819146  0.67828074  0.41963756  1
  O2-  O155  1  0.57078610  0.67693474  0.76503556  1
  O2-  O156  1  0.18167555  0.41879342  0.24274292  1
  O2-  O157  1  0.18034257  0.43161637  0.56662127  1
  O2-  O158  1  0.17883000  0.42795179  0.91002131  1
  O2-  O159  1  0.18207286  0.93467426  0.23552727  1
  O2-  O160  1  0.18027499  0.92883955  0.56791601  1
  O2-  O161  1  0.17745263  0.92800718  0.90352724  1
  O2-  O162  1  0.67963147  0.42992624  0.23773966  1
  O2-  O163  1  0.67691075  0.43038687  0.57751350  1
  O2-  O164  1  0.67847578  0.43218676  0.89939114  1
  O2-  O165  1  0.66998741  0.93205364  0.24196928  1
  O2-  O166  1  0.68025801  0.92912333  0.56727194  1
  O2-  O167  1  0.67733335  0.92565801  0.91056101  1
  O2-  O168  1  0.43433522  0.32189546  0.10048379  1
  O2-  O169  1  0.42883484  0.31930520  0.42166525  1
  O2-  O170  1  0.43109788  0.32160068  0.76413234  1
  O2-  O171  1  0.43009641  0.82014783  0.09283786  1
  O2-  O172  1  0.43082905  0.82292923  0.42139988  1
  O2-  O173  1  0.42694291  0.81915217  0.76684150  1
  O2-  O174  1  0.92673878  0.31977180  0.09165915  1
  O2-  O175  1  0.92671771  0.31968929  0.42238449  1
  O2-  O176  1  0.92879885  0.32374494  0.76625697  1
  O2-  O177  1  0.92649736  0.82161029  0.08861154  1
  O2-  O178  1  0.93124757  0.82410008  0.43007189  1
  O2-  O179  1  0.93109094  0.81628679  0.76854938  1
  O2-  O180  1  0.32449133  0.07499620  0.24472858  1
  O2-  O181  1  0.32115225  0.07340421  0.57498043  1
  O2-  O182  1  0.32407240  0.07005638  0.90095772  1
  O2-  O183  1  0.32138769  0.56816154  0.23580305  1
  O2-  O184  1  0.32239291  0.56987416  0.57832115  1
  O2-  O185  1  0.31973533  0.56967498  0.89854041  1
  O2-  O186  1  0.81801954  0.06974913  0.23236966  1
  O2-  O187  1  0.82018397  0.07017168  0.57106836  1
  O2-  O188  1  0.81943655  0.06826092  0.90998969  1
  O2-  O189  1  0.81973557  0.56898650  0.23701855  1
  O2-  O190  1  0.82151767  0.57018673  0.57547957  1
  O2-  O191  1  0.81972500  0.57694722  0.90086720  1
  O2-  O192  1  0.04038377  0.08883942  0.26924647  1
  O2-  O193  1  0.04088800  0.08021767  0.59810507  1
  O2-  O194  1  0.03446330  0.08292025  0.93285714  1
  O2-  O195  1  0.05037065  0.57743116  0.26479975  1
  O2-  O196  1  0.04694929  0.58331072  0.60677583  1
  O2-  O197  1  0.04993243  0.58461500  0.93786418  1
  O2-  O198  1  0.54432688  0.08826854  0.26822934  1
  O2-  O199  1  0.54968123  0.08444519  0.60205198  1
  O2-  O200  1  0.54931595  0.08062734  0.93697084  1
  O2-  O201  1  0.53572934  0.58666973  0.26941341  1
  O2-  O202  1  0.54274527  0.58305200  0.59355952  1
  O2-  O203  1  0.54298018  0.58956509  0.94044286  1
  O2-  O204  1  0.16323291  0.20687949  0.26894597  1
  O2-  O205  1  0.16676484  0.20814381  0.59373799  1
  O2-  O206  1  0.16646897  0.20487618  0.93228436  1
  O2-  O207  1  0.17080577  0.71150557  0.26611629  1
  O2-  O208  1  0.16878105  0.69757479  0.61017384  1
  O2-  O209  1  0.16388177  0.70926128  0.93558466  1
  O2-  O210  1  0.66316032  0.20753343  0.27066465  1
  O2-  O211  1  0.66629001  0.20582344  0.60384795  1
  O2-  O212  1  0.66819344  0.19959400  0.93635392  1
  O2-  O213  1  0.66064758  0.70296029  0.26577972  1
  O2-  O214  1  0.66919050  0.70716060  0.59509859  1
  O2-  O215  1  0.66238768  0.71020132  0.94002861  1
  O2-  O216  1  0.08360222  0.44894553  0.06138570  1
  O2-  O217  1  0.08163854  0.44388290  0.39118451  1
  O2-  O218  1  0.08411146  0.45887033  0.73735519  1
  O2-  O219  1  0.07825163  0.95946083  0.06933026  1
  O2-  O220  1  0.08523822  0.96406605  0.40104484  1
  O2-  O221  1  0.08539922  0.96064387  0.73662515  1
  O2-  O222  1  0.58448190  0.46214003  0.06891248  1
  O2-  O223  1  0.58162968  0.45974204  0.40355732  1
  O2-  O224  1  0.58567742  0.46078589  0.72806905  1
  O2-  O225  1  0.58544694  0.95314719  0.06406058  1
  O2-  O226  1  0.58306090  0.95922172  0.39570663  1
  O2-  O227  1  0.57906962  0.95485905  0.73322046  1
  O2-  O228  1  0.20365441  0.33255528  0.06073049  1
  O2-  O229  1  0.20871244  0.33308999  0.39677404  1
  O2-  O230  1  0.21108669  0.33109881  0.73110921  1
  O2-  O231  1  0.20648930  0.83188870  0.07134570  1
  O2-  O232  1  0.21250198  0.83651349  0.40227558  1
  O2-  O233  1  0.20909375  0.83074278  0.73570648  1
  O2-  O234  1  0.70185393  0.32801216  0.06632537  1
  O2-  O235  1  0.70406779  0.33026030  0.40343884  1
  O2-  O236  1  0.70152813  0.33784656  0.73066699  1
  O2-  O237  1  0.70738369  0.83843559  0.06516348  1
  O2-  O238  1  0.69109077  0.83054329  0.38875369  1
  O2-  O239  1  0.70820507  0.82847645  0.73335603  1
  O2-  O240  1  0.45867395  0.41461040  0.27225019  1
  O2-  O241  1  0.46066821  0.41545565  0.59503288  1
  O2-  O242  1  0.46447272  0.41723187  0.93208056  1
  O2-  O243  1  0.45584735  0.91476689  0.26880661  1
  O2-  O244  1  0.45195636  0.92209909  0.59875367  1
  O2-  O245  1  0.45357192  0.91413013  0.94156717  1
  O2-  O246  1  0.95212032  0.41198424  0.26885844  1
  O2-  O247  1  0.95953310  0.41981324  0.59863656  1
  O2-  O248  1  0.94775185  0.41918422  0.94245013  1
  O2-  O249  1  0.96066169  0.92033034  0.26363411  1
  O2-  O250  1  0.96137579  0.91645608  0.60298442  1
  O2-  O251  1  0.95684585  0.91054113  0.93593859  1
  O2-  O252  1  0.33788357  0.29477720  0.26811661  1
  O2-  O253  1  0.33461268  0.28977114  0.59355549  1
  O2-  O254  1  0.33470317  0.29246731  0.93261043  1
  O2-  O255  1  0.33738761  0.79236923  0.27049563  1
  O2-  O256  1  0.33036570  0.79005720  0.59829009  1
  O2-  O257  1  0.33519175  0.79237649  0.94205319  1
  O2-  O258  1  0.83506954  0.28852864  0.27154403  1
  O2-  O259  1  0.82707407  0.29827568  0.60065444  1
  O2-  O260  1  0.83293020  0.29593865  0.94048984  1
  O2-  O261  1  0.82685674  0.79897574  0.26476899  1
  O2-  O262  1  0.83637837  0.78999960  0.59934832  1
  O2-  O263  1  0.83548211  0.79216816  0.93702811  1
  O2-  O264  1  0.42076003  0.04581755  0.06936305  1
  O2-  O265  1  0.41831428  0.05054980  0.39515891  1
  O2-  O266  1  0.41814401  0.05437322  0.72554430  1
  O2-  O267  1  0.41559708  0.53887885  0.06727536  1
  O2-  O268  1  0.41327630  0.53787799  0.40537864  1
  O2-  O269  1  0.41840156  0.54276703  0.72694291  1
  O2-  O270  1  0.90926649  0.03724814  0.06299681  1
  O2-  O271  1  0.91734836  0.04208602  0.40054561  1
  O2-  O272  1  0.91877733  0.04095941  0.73795024  1
  O2-  O273  1  0.92392287  0.55219979  0.06677178  1
  O2-  O274  1  0.92339573  0.54572036  0.39979095  1
  O2-  O275  1  0.91274780  0.54405263  0.72914181  1
  O2-  O276  1  0.29353101  0.17118997  0.06745493  1
  O2-  O277  1  0.29833711  0.16924577  0.39430117  1
  O2-  O278  1  0.29401909  0.16658255  0.72558515  1
  O2-  O279  1  0.28989908  0.66484309  0.06800925  1
  O2-  O280  1  0.29193566  0.66743778  0.40393168  1
  O2-  O281  1  0.29959087  0.66336455  0.73074574  1
  O2-  O282  1  0.79530181  0.16164424  0.06279813  1
  O2-  O283  1  0.78671226  0.16254818  0.40210574  1
  O2-  O284  1  0.79234864  0.17084416  0.73738641  1
  O2-  O285  1  0.78931502  0.66965514  0.07016666  1
  O2-  O286  1  0.79187392  0.67194762  0.39928186  1
  O2-  O287  1  0.79222183  0.66216473  0.72735111  1
