# generated using pymatgen
data_Ca2Al2SiO7
_symmetry_space_group_name_H-M   'P 1'
_cell_length_a   15.45527244
_cell_length_b   15.45491712
_cell_length_c   15.28194760
_cell_angle_alpha   89.99589521
_cell_angle_beta   89.99929962
_cell_angle_gamma   90.02086793
_symmetry_Int_Tables_number   1
_chemical_formula_structural   Ca2Al2SiO7
_chemical_formula_sum   'Ca48 Al48 Si24 O168'
_cell_volume   3650.24505850
_cell_formula_units_Z   24
loop_
 _symmetry_equiv_pos_site_id
 _symmetry_equiv_pos_as_xyz
  1  'x, y, z'
loop_
 _atom_type_symbol
 _atom_type_oxidation_number
  Ca2+  2.0
  Al0+  0.0
  Si0+  0.0
  O2-  -2.0
loop_
 _atom_site_type_symbol
 _atom_site_label
 _atom_site_symmetry_multiplicity
 _atom_site_fract_x
 _atom_site_fract_y
 _atom_site_fract_z
 _atom_site_occupancy
  Ca2+  Ca0  1  0.17076923  0.08254539  0.16884960  1
  Ca2+  Ca1  1  0.16219934  0.06633383  0.50387433  1
  Ca2+  Ca2  1  0.17013055  0.07978748  0.84050276  1
  Ca2+  Ca3  1  0.16825048  0.58363936  0.16770603  1
  Ca2+  Ca4  1  0.16187329  0.58886225  0.50471813  1
  Ca2+  Ca5  1  0.17132242  0.57776549  0.83986332  1
  Ca2+  Ca6  1  0.67745680  0.08162553  0.17764878  1
  Ca2+  Ca7  1  0.67257745  0.07721280  0.50175613  1
  Ca2+  Ca8  1  0.67616462  0.08128639  0.83459533  1
  Ca2+  Ca9  1  0.67122642  0.57696211  0.16981731  1
  Ca2+  Ca10  1  0.68319890  0.58535268  0.50279560  1
  Ca2+  Ca11  1  0.67629912  0.57970962  0.84356901  1
  Ca2+  Ca12  1  0.08156374  0.32741186  0.15667670  1
  Ca2+  Ca13  1  0.07266148  0.33098385  0.49841568  1
  Ca2+  Ca14  1  0.08103946  0.32868944  0.82898077  1
  Ca2+  Ca15  1  0.07749596  0.83411200  0.16992830  1
  Ca2+  Ca16  1  0.08115642  0.82626559  0.49091250  1
  Ca2+  Ca17  1  0.08361515  0.82571727  0.82458537  1
  Ca2+  Ca18  1  0.59241467  0.33203553  0.16444499  1
  Ca2+  Ca19  1  0.58336159  0.32973423  0.49309462  1
  Ca2+  Ca20  1  0.57964228  0.33605459  0.82855916  1
  Ca2+  Ca21  1  0.59046234  0.82670465  0.16112829  1
  Ca2+  Ca22  1  0.58106790  0.84494601  0.49695393  1
  Ca2+  Ca23  1  0.57931311  0.82996204  0.82769782  1
  Ca2+  Ca24  1  0.32832124  0.42103085  0.16322799  1
  Ca2+  Ca25  1  0.33291944  0.41724521  0.50430831  1
  Ca2+  Ca26  1  0.32862175  0.41873630  0.84304886  1
  Ca2+  Ca27  1  0.32777757  0.92155897  0.17035507  1
  Ca2+  Ca28  1  0.32304661  0.90988520  0.50625804  1
  Ca2+  Ca29  1  0.32933493  0.91632066  0.83349939  1
  Ca2+  Ca30  1  0.82443792  0.42683764  0.17116965  1
  Ca2+  Ca31  1  0.83304103  0.42317021  0.50386006  1
  Ca2+  Ca32  1  0.83503176  0.42581754  0.83807535  1
  Ca2+  Ca33  1  0.83246649  0.92519455  0.17690020  1
  Ca2+  Ca34  1  0.82831825  0.92254171  0.50432538  1
  Ca2+  Ca35  1  0.83134125  0.92564695  0.83469799  1
  Ca2+  Ca36  1  0.42462812  0.16299148  0.16131226  1
  Ca2+  Ca37  1  0.42418545  0.17196719  0.49493939  1
  Ca2+  Ca38  1  0.41496428  0.17231022  0.82723127  1
  Ca2+  Ca39  1  0.42361303  0.66651724  0.15719473  1
  Ca2+  Ca40  1  0.41895805  0.67548098  0.49825241  1
  Ca2+  Ca41  1  0.42377969  0.66506071  0.82896195  1
  Ca2+  Ca42  1  0.91975342  0.16115761  0.15844906  1
  Ca2+  Ca43  1  0.90373977  0.16954352  0.49818758  1
  Ca2+  Ca44  1  0.91529605  0.16966717  0.83045524  1
  Ca2+  Ca45  1  0.90818086  0.67148510  0.16645278  1
  Ca2+  Ca46  1  0.92381353  0.66696964  0.49156551  1
  Ca2+  Ca47  1  0.92087432  0.66090362  0.82561008  1
  Al0+  Al48  1  -0.00010707  -0.00053330  -0.00328942  1
  Al0+  Al49  1  0.00183673  -0.00018783  0.33766369  1
  Al0+  Al50  1  0.00100231  -0.00183863  0.67628064  1
  Al0+  Al51  1  -0.00090538  0.50040212  0.00761037  1
  Al0+  Al52  1  0.00258416  0.49868601  0.33056811  1
  Al0+  Al53  1  0.00099759  0.49707788  0.66235911  1
  Al0+  Al54  1  0.49851461  -0.00023236  0.00049688  1
  Al0+  Al55  1  0.49961500  0.00416098  0.32999974  1
  Al0+  Al56  1  0.49892743  -0.00049283  0.66602426  1
  Al0+  Al57  1  0.49968570  0.49993337  0.00205544  1
  Al0+  Al58  1  0.49672356  0.50089309  0.33664757  1
  Al0+  Al59  1  0.50040715  0.50060857  0.65941290  1
  Al0+  Al60  1  0.25003498  0.24739489  0.00389987  1
  Al0+  Al61  1  0.25023818  0.25307613  0.33378803  1
  Al0+  Al62  1  0.24956339  0.24924366  0.65884493  1
  Al0+  Al63  1  0.24861114  0.75065467  0.00301357  1
  Al0+  Al64  1  0.25038036  0.74972655  0.33047154  1
  Al0+  Al65  1  0.25204641  0.74858814  0.66468605  1
  Al0+  Al66  1  0.75111279  0.24938631  0.00396141  1
  Al0+  Al67  1  0.74806635  0.25164618  0.33436722  1
  Al0+  Al68  1  0.74955658  0.25040671  0.66626013  1
  Al0+  Al69  1  0.74942477  0.75054698  -0.00524792  1
  Al0+  Al70  1  0.74942193  0.75057199  0.33697642  1
  Al0+  Al71  1  0.75132409  0.74973104  0.67566848  1
  Al0+  Al72  1  0.18024646  0.92610888  0.68131083  1
  Al0+  Al73  1  0.67581154  0.92851482  0.68421258  1
  Al0+  Al74  1  0.67727620  0.92827573  0.34636574  1
  Al0+  Al75  1  0.92788427  0.82160608  0.31987773  1
  Al0+  Al76  1  0.42775227  0.32231860  0.65294249  1
  Al0+  Al77  1  0.07205413  0.67779945  0.31463079  1
  Al0+  Al78  1  0.82245250  0.57090980  0.34930402  1
  Al0+  Al79  1  0.17842333  0.42777017  0.01375269  1
  Al0+  Al80  1  0.57033771  0.67822848  0.98609318  1
  Al0+  Al81  1  0.92931504  0.31871252  0.65383393  1
  Al0+  Al82  1  0.82092589  0.06923910  0.01402875  1
  Al0+  Al83  1  0.82326953  0.07150513  0.34821825  1
  Al0+  Al84  1  0.18199301  0.92971838  0.34640021  1
  Al0+  Al85  1  0.32094620  0.57249871  0.01355203  1
  Al0+  Al86  1  0.67801522  0.42854404  0.01329378  1
  Al0+  Al87  1  0.67712487  0.42975105  0.35054008  1
  Al0+  Al88  1  0.06990297  0.67929674  0.65516154  1
  Al0+  Al89  1  0.43102673  0.82014506  0.65330015  1
  Al0+  Al90  1  0.82085959  0.07314578  0.68410532  1
  Al0+  Al91  1  0.32128438  0.07034863  0.01275693  1
  Al0+  Al92  1  0.82354669  0.56874122  0.68046269  1
  Al0+  Al93  1  0.07177441  0.17846105  0.98603866  1
  Al0+  Al94  1  0.56981935  0.18188905  0.31785472  1
  Al0+  Al95  1  0.82193733  0.57419336  0.01568875  1
  Si0+  Si96  1  0.57143000  0.17834785  0.65056308  1
  Si0+  Si97  1  0.18030233  0.42740805  0.67902518  1
  Si0+  Si98  1  0.67645032  0.42937774  0.68206432  1
  Si0+  Si99  1  0.42587922  0.32448993  0.31272317  1
  Si0+  Si100  1  0.92918322  0.82116165  0.98273565  1
  Si0+  Si101  1  0.42834677  0.82213776  0.31712347  1
  Si0+  Si102  1  0.42957642  0.31892277  0.98663713  1
  Si0+  Si103  1  0.07139545  0.67824321  0.98490681  1
  Si0+  Si104  1  0.17702913  0.92723315  0.01713872  1
  Si0+  Si105  1  0.56966176  0.67920135  0.32005041  1
  Si0+  Si106  1  0.32205744  0.56977807  0.67966385  1
  Si0+  Si107  1  0.92733453  0.82311592  0.65217919  1
  Si0+  Si108  1  0.92811281  0.32222537  0.98485002  1
  Si0+  Si109  1  0.67726903  0.92915672  0.01525377  1
  Si0+  Si110  1  0.57290306  0.17768154  0.98429988  1
  Si0+  Si111  1  0.57472292  0.67833564  0.64877102  1
  Si0+  Si112  1  0.07233352  0.17525429  0.64936240  1
  Si0+  Si113  1  0.32232959  0.07463589  0.35081362  1
  Si0+  Si114  1  0.92890862  0.32045690  0.31664762  1
  Si0+  Si115  1  0.07209244  0.17935036  0.31938193  1
  Si0+  Si116  1  0.42611306  0.82280489  0.98349472  1
  Si0+  Si117  1  0.17938013  0.42793607  0.35075288  1
  Si0+  Si118  1  0.31951793  0.57144183  0.35031509  1
  Si0+  Si119  1  0.32013458  0.07293015  0.68098817  1
  O2-  O120  1  0.24711243  -0.00445216  0.05964144  1
  O2-  O121  1  0.25575094  0.00456345  0.39530583  1
  O2-  O122  1  0.25209148  0.00447065  0.72652402  1
  O2-  O123  1  0.24698446  0.50299874  0.06455789  1
  O2-  O124  1  0.24747222  0.50170272  0.39305420  1
  O2-  O125  1  0.25381432  0.49579910  0.72097541  1
  O2-  O126  1  0.74447592  -0.00238194  0.06107026  1
  O2-  O127  1  0.75195231  -0.00239896  0.39590585  1
  O2-  O128  1  0.74927457  -0.00021883  0.73303528  1
  O2-  O129  1  0.74885322  0.50189190  0.06252112  1
  O2-  O130  1  0.75038816  0.49971302  0.40094658  1
  O2-  O131  1  0.74552786  0.49699781  0.72671984  1
  O2-  O132  1  -0.00197432  0.24649762  0.27599776  1
  O2-  O133  1  -0.00109547  0.23907788  0.60545396  1
  O2-  O134  1  -0.00163194  0.25490923  0.94030730  1
  O2-  O135  1  -0.00347127  0.74724528  0.26626727  1
  O2-  O136  1  -0.00481534  0.75351535  0.60832828  1
  O2-  O137  1  -0.00121148  0.74717900  0.94209515  1
  O2-  O138  1  0.49583263  0.25727272  0.26904149  1
  O2-  O139  1  0.50326554  0.24863317  0.60720476  1
  O2-  O140  1  0.50208424  0.24976252  0.94287139  1
  O2-  O141  1  0.50353375  0.75505154  0.27658340  1
  O2-  O142  1  0.51012078  0.75111886  0.60427748  1
  O2-  O143  1  0.49366183  0.75233101  0.94058310  1
  O2-  O144  1  0.07060815  0.17845162  0.09972935  1
  O2-  O145  1  0.07556532  0.18273269  0.42438524  1
  O2-  O146  1  0.07810542  0.18019736  0.75470802  1
  O2-  O147  1  0.07398069  0.68118511  0.08936620  1
  O2-  O148  1  0.07414217  0.68016092  0.42851504  1
  O2-  O149  1  0.07117282  0.67815296  0.76879686  1
  O2-  O150  1  0.57155631  0.17675586  0.08910230  1
  O2-  O151  1  0.56583708  0.18213441  0.43107611  1
  O2-  O152  1  0.56987685  0.17965985  0.75672112  1
  O2-  O153  1  0.56953981  0.68085408  0.09977533  1
  O2-  O154  1  0.56533336  0.67760609  0.42505455  1
  O2-  O155  1  0.56935193  0.67440185  0.75425454  1
  O2-  O156  1  0.18188735  0.42410740  0.24609007  1
  O2-  O157  1  0.18071179  0.42818432  0.57371840  1
  O2-  O158  1  0.18090521  0.42788009  0.89942266  1
  O2-  O159  1  0.18385185  0.93220153  0.23318302  1
  O2-  O160  1  0.18188517  0.92568109  0.56817653  1
  O2-  O161  1  0.17903147  0.92559231  0.91142519  1
  O2-  O162  1  0.67797809  0.43205385  0.23710489  1
  O2-  O163  1  0.67625121  0.43114231  0.57672899  1
  O2-  O164  1  0.67782649  0.42873782  0.89924249  1
  O2-  O165  1  0.67678370  0.92996193  0.23242309  1
  O2-  O166  1  0.67476219  0.93183328  0.57089411  1
  O2-  O167  1  0.67708606  0.93145283  0.90976661  1
  O2-  O168  1  0.42870675  0.31703475  0.09151226  1
  O2-  O169  1  0.42353915  0.32248605  0.41857488  1
  O2-  O170  1  0.42627303  0.32174193  0.76646466  1
  O2-  O171  1  0.42700291  0.82406266  0.08933122  1
  O2-  O172  1  0.42564299  0.81920389  0.42229341  1
  O2-  O173  1  0.42875461  0.81558555  0.76631469  1
  O2-  O174  1  0.92861773  0.31992815  0.09054515  1
  O2-  O175  1  0.93179878  0.32136699  0.42208436  1
  O2-  O176  1  0.93407086  0.32149597  0.76684666  1
  O2-  O177  1  0.92972652  0.82378661  0.08761024  1
  O2-  O178  1  0.93109239  0.82238558  0.43337063  1
  O2-  O179  1  0.93048144  0.82191253  0.75832247  1
  O2-  O180  1  0.32077917  0.07415581  0.24494342  1
  O2-  O181  1  0.31839021  0.07343700  0.57543339  1
  O2-  O182  1  0.32103482  0.07097208  0.89954808  1
  O2-  O183  1  0.32119316  0.57029413  0.24546379  1
  O2-  O184  1  0.32091406  0.57026013  0.57433004  1
  O2-  O185  1  0.32030122  0.57015198  0.89938400  1
  O2-  O186  1  0.82330983  0.07066300  0.23428245  1
  O2-  O187  1  0.81823704  0.07318500  0.57089598  1
  O2-  O188  1  0.81980104  0.06925855  0.90126791  1
  O2-  O189  1  0.81871276  0.57013103  0.23601465  1
  O2-  O190  1  0.82479516  0.56736999  0.56777678  1
  O2-  O191  1  0.82378037  0.57094422  0.90172517  1
  O2-  O192  1  0.04925060  0.08619757  0.27322109  1
  O2-  O193  1  0.05077471  0.07854142  0.60885121  1
  O2-  O194  1  0.04178811  0.08218675  0.93077607  1
  O2-  O195  1  0.05122270  0.57631750  0.26464811  1
  O2-  O196  1  0.04179541  0.58276050  0.59971362  1
  O2-  O197  1  0.04614963  0.58413835  0.94022461  1
  O2-  O198  1  0.53763514  0.08632579  0.26081248  1
  O2-  O199  1  0.54328636  0.08603941  0.60396427  1
  O2-  O200  1  0.54285660  0.08640503  0.93679583  1
  O2-  O201  1  0.53485083  0.58931980  0.27255808  1
  O2-  O202  1  0.54464781  0.58754901  0.59922932  1
  O2-  O203  1  0.53857142  0.58169302  0.93162202  1
  O2-  O204  1  0.16323029  0.21133865  0.27153190  1
  O2-  O205  1  0.16271019  0.20483672  0.59844091  1
  O2-  O206  1  0.16926028  0.20854457  0.93268483  1
  O2-  O207  1  0.17011020  0.71002251  0.26180555  1
  O2-  O208  1  0.16670226  0.70905377  0.60100679  1
  O2-  O209  1  0.16339610  0.70734001  0.93699284  1
  O2-  O210  1  0.66680205  0.21224794  0.26362951  1
  O2-  O211  1  0.66440861  0.20368405  0.60409432  1
  O2-  O212  1  0.66478297  0.20584226  0.93717897  1
  O2-  O213  1  0.66260728  0.70225969  0.27348239  1
  O2-  O214  1  0.67096845  0.70046852  0.60769755  1
  O2-  O215  1  0.66566123  0.70949748  0.92925055  1
  O2-  O216  1  0.08067099  0.45200236  0.06870926  1
  O2-  O217  1  0.08679227  0.45263471  0.39749433  1
  O2-  O218  1  0.09010358  0.45701841  0.72713648  1
  O2-  O219  1  0.08430574  0.95561330  0.06199484  1
  O2-  O220  1  0.08709438  0.96022049  0.40276980  1
  O2-  O221  1  0.08459794  0.95245152  0.73837085  1
  O2-  O222  1  0.57964550  0.45383150  0.06710070  1
  O2-  O223  1  0.57662393  0.45559033  0.40096998  1
  O2-  O224  1  0.58181807  0.45570289  0.72662185  1
  O2-  O225  1  0.58261749  0.95087341  0.06022459  1
  O2-  O226  1  0.57852268  0.96090425  0.39752922  1
  O2-  O227  1  0.57655107  0.95700427  0.73667441  1
  O2-  O228  1  0.21093567  0.33182061  0.06899405  1
  O2-  O229  1  0.21024543  0.33792198  0.40086698  1
  O2-  O230  1  0.20679883  0.33433776  0.72454385  1
  O2-  O231  1  0.20157440  0.83462733  0.06499096  1
  O2-  O232  1  0.21505319  0.83302465  0.39890386  1
  O2-  O233  1  0.21696216  0.83128699  0.73570720  1
  O2-  O234  1  0.70725861  0.33105999  0.06738703  1
  O2-  O235  1  0.70499774  0.33144230  0.40261989  1
  O2-  O236  1  0.69855171  0.33465616  0.72639262  1
  O2-  O237  1  0.70393963  0.83504168  0.05820860  1
  O2-  O238  1  0.69796297  0.82922281  0.40034420  1
  O2-  O239  1  0.70189536  0.82988166  0.73816449  1
  O2-  O240  1  0.44843979  0.42003994  0.26959758  1
  O2-  O241  1  0.45606566  0.41834179  0.59564992  1
  O2-  O242  1  0.45439423  0.41152208  0.93926743  1
  O2-  O243  1  0.44950946  0.91641287  0.27182183  1
  O2-  O244  1  0.45386851  0.91885924  0.59885505  1
  O2-  O245  1  0.45289687  0.91579119  0.93586821  1
  O2-  O246  1  0.96124720  0.41002061  0.26810674  1
  O2-  O247  1  0.96698576  0.41089362  0.59533851  1
  O2-  O248  1  0.95322563  0.41725016  0.94087277  1
  O2-  O249  1  0.96204577  0.91956154  0.26668348  1
  O2-  O250  1  0.95360607  0.91758376  0.60884659  1
  O2-  O251  1  0.96067971  0.91078516  0.93299601  1
  O2-  O252  1  0.33215287  0.29738858  0.26703346  1
  O2-  O253  1  0.33270439  0.29128139  0.59459959  1
  O2-  O254  1  0.33866706  0.28830613  0.93885873  1
  O2-  O255  1  0.33968776  0.78912237  0.26703350  1
  O2-  O256  1  0.33766514  0.78253922  0.59651199  1
  O2-  O257  1  0.33102727  0.79918889  0.93905341  1
  O2-  O258  1  0.83575479  0.29673553  0.27126151  1
  O2-  O259  1  0.83116064  0.29348056  0.59944587  1
  O2-  O260  1  0.83520599  0.29444324  0.93807404  1
  O2-  O261  1  0.82766296  0.79646357  0.26722179  1
  O2-  O262  1  0.83185922  0.79973558  0.60989630  1
  O2-  O263  1  0.83708135  0.79670514  0.93427412  1
  O2-  O264  1  0.41739624  0.03964821  0.06878858  1
  O2-  O265  1  0.41631405  0.05093210  0.39529158  1
  O2-  O266  1  0.41375105  0.04906201  0.72688717  1
  O2-  O267  1  0.41697176  0.54129903  0.06868748  1
  O2-  O268  1  0.40946309  0.54280047  0.40083047  1
  O2-  O269  1  0.41531027  0.54371001  0.72502984  1
  O2-  O270  1  0.91806546  0.03699225  0.06561209  1
  O2-  O271  1  0.92213183  0.04821857  0.40187904  1
  O2-  O272  1  0.91977927  0.04696922  0.73749092  1
  O2-  O273  1  0.91932822  0.54830963  0.07050862  1
  O2-  O274  1  0.92260428  0.54088615  0.39794392  1
  O2-  O275  1  0.91931474  0.53262623  0.73372873  1
  O2-  O276  1  0.29096145  0.16444205  0.07066725  1
  O2-  O277  1  0.29618030  0.16872422  0.39555028  1
  O2-  O278  1  0.29321577  0.16708494  0.72639953  1
  O2-  O279  1  0.29532012  0.67123326  0.06755549  1
  O2-  O280  1  0.29276298  0.66381197  0.39687418  1
  O2-  O281  1  0.29236577  0.65954072  0.72858908  1
  O2-  O282  1  0.79382834  0.16623601  0.06767567  1
  O2-  O283  1  0.79124856  0.16940485  0.39897386  1
  O2-  O284  1  0.79077592  0.17191967  0.73694717  1
  O2-  O285  1  0.79179691  0.67341344  0.06520549  1
  O2-  O286  1  0.79408057  0.66897294  0.40251512  1
  O2-  O287  1  0.79825281  0.66577386  0.73560124  1
