# generated using pymatgen
data_Ca2Al2SiO7
_symmetry_space_group_name_H-M   'P 1'
_cell_length_a   15.46137343
_cell_length_b   15.46081451
_cell_length_c   15.28579398
_cell_angle_alpha   90.00971372
_cell_angle_beta   90.01841753
_cell_angle_gamma   89.97979568
_symmetry_Int_Tables_number   1
_chemical_formula_structural   Ca2Al2SiO7
_chemical_formula_sum   'Ca48 Al48 Si24 O168'
_cell_volume   3653.99867455
_cell_formula_units_Z   24
loop_
 _symmetry_equiv_pos_site_id
 _symmetry_equiv_pos_as_xyz
  1  'x, y, z'
loop_
 _atom_type_symbol
 _atom_type_oxidation_number
  Ca2+  2.0
  Al0+  0.0
  Si0+  0.0
  O2-  -2.0
loop_
 _atom_site_type_symbol
 _atom_site_label
 _atom_site_symmetry_multiplicity
 _atom_site_fract_x
 _atom_site_fract_y
 _atom_site_fract_z
 _atom_site_occupancy
  Ca2+  Ca0  1  0.16437802  0.07722213  0.17010937  1
  Ca2+  Ca1  1  0.16545352  0.07329847  0.50614256  1
  Ca2+  Ca2  1  0.17803998  0.07511539  0.84316772  1
  Ca2+  Ca3  1  0.15849661  0.58099197  0.16700661  1
  Ca2+  Ca4  1  0.16662209  0.58595043  0.50200630  1
  Ca2+  Ca5  1  0.16498789  0.57715756  0.84594831  1
  Ca2+  Ca6  1  0.66734465  0.07863209  0.17182437  1
  Ca2+  Ca7  1  0.66832862  0.06851292  0.50489497  1
  Ca2+  Ca8  1  0.65992030  0.07848194  0.83745947  1
  Ca2+  Ca9  1  0.66968968  0.58505937  0.17261976  1
  Ca2+  Ca10  1  0.66122531  0.58411952  0.50204774  1
  Ca2+  Ca11  1  0.66986117  0.58703671  0.84044709  1
  Ca2+  Ca12  1  0.08265406  0.32237562  0.15540291  1
  Ca2+  Ca13  1  0.07709597  0.32458950  0.49520502  1
  Ca2+  Ca14  1  0.07739374  0.33323984  0.83355529  1
  Ca2+  Ca15  1  0.08709073  0.82801455  0.16266024  1
  Ca2+  Ca16  1  0.08173399  0.83552759  0.48780207  1
  Ca2+  Ca17  1  0.09343723  0.83078906  0.83315636  1
  Ca2+  Ca18  1  0.58544779  0.32836774  0.16153316  1
  Ca2+  Ca19  1  0.57701298  0.33598355  0.49619611  1
  Ca2+  Ca20  1  0.57783530  0.32383246  0.82875954  1
  Ca2+  Ca21  1  0.58179007  0.82672319  0.15797558  1
  Ca2+  Ca22  1  0.58630978  0.82821427  0.49555772  1
  Ca2+  Ca23  1  0.57288877  0.82885090  0.82718990  1
  Ca2+  Ca24  1  0.32607947  0.41652428  0.16675155  1
  Ca2+  Ca25  1  0.33405233  0.41883520  0.50631060  1
  Ca2+  Ca26  1  0.32937890  0.41614459  0.83895717  1
  Ca2+  Ca27  1  0.32646132  0.91601885  0.16472819  1
  Ca2+  Ca28  1  0.32223897  0.91912523  0.51110696  1
  Ca2+  Ca29  1  0.33099007  0.91846203  0.84024614  1
  Ca2+  Ca30  1  0.83236553  0.42153750  0.16693791  1
  Ca2+  Ca31  1  0.82764359  0.41607098  0.50363148  1
  Ca2+  Ca32  1  0.83935227  0.42076904  0.84347064  1
  Ca2+  Ca33  1  0.82833098  0.91317266  0.17461271  1
  Ca2+  Ca34  1  0.82445549  0.90623278  0.50048013  1
  Ca2+  Ca35  1  0.82425193  0.91447922  0.83431618  1
  Ca2+  Ca36  1  0.42307892  0.16190195  0.15807131  1
  Ca2+  Ca37  1  0.40760515  0.16976338  0.50424313  1
  Ca2+  Ca38  1  0.41197790  0.16525222  0.83207591  1
  Ca2+  Ca39  1  0.42807346  0.67418176  0.15899563  1
  Ca2+  Ca40  1  0.42539661  0.67601633  0.49820692  1
  Ca2+  Ca41  1  0.42225952  0.67930112  0.82889747  1
  Ca2+  Ca42  1  0.92935070  0.16961121  0.15860147  1
  Ca2+  Ca43  1  0.92028756  0.16927650  0.49527756  1
  Ca2+  Ca44  1  0.92161998  0.17763433  0.83177546  1
  Ca2+  Ca45  1  0.92177652  0.67148909  0.16351506  1
  Ca2+  Ca46  1  0.92552042  0.67544365  0.49186605  1
  Ca2+  Ca47  1  0.92109558  0.66244107  0.83691068  1
  Al0+  Al48  1  -0.00110895  0.00006176  -0.00235224  1
  Al0+  Al49  1  -0.00043223  0.00242704  0.32963952  1
  Al0+  Al50  1  -0.00125676  -0.00113161  0.67212435  1
  Al0+  Al51  1  -0.00142480  0.50185431  0.00425418  1
  Al0+  Al52  1  -0.00093336  0.50013689  0.33406383  1
  Al0+  Al53  1  -0.00180358  0.49921657  0.66013047  1
  Al0+  Al54  1  0.49916917  -0.00027168  -0.00263452  1
  Al0+  Al55  1  0.49937497  0.00237329  0.33959917  1
  Al0+  Al56  1  0.49917524  0.00000750  0.66904454  1
  Al0+  Al57  1  0.50087456  0.49877681  -0.00212409  1
  Al0+  Al58  1  0.49905578  0.50110066  0.33256047  1
  Al0+  Al59  1  0.50081511  0.49813743  0.66175427  1
  Al0+  Al60  1  0.25098832  0.24901300  0.00510389  1
  Al0+  Al61  1  0.24948069  0.25214124  0.33073118  1
  Al0+  Al62  1  0.24859031  0.24937500  0.66527813  1
  Al0+  Al63  1  0.25063125  0.74973842  -0.00321141  1
  Al0+  Al64  1  0.25151774  0.74987847  0.33384792  1
  Al0+  Al65  1  0.25297313  0.74707837  0.66597256  1
  Al0+  Al66  1  0.74924814  0.24960009  -0.00769340  1
  Al0+  Al67  1  0.74760877  0.25186950  0.33907930  1
  Al0+  Al68  1  0.74972931  0.25066769  0.66182116  1
  Al0+  Al69  1  0.75212177  0.74818790  0.00153337  1
  Al0+  Al70  1  0.75144819  0.74869637  0.33115003  1
  Al0+  Al71  1  0.75325673  0.74791638  0.66866204  1
  Al0+  Al72  1  0.32233720  0.07030617  0.01764648  1
  Al0+  Al73  1  0.17736481  0.92732560  0.01714088  1
  Al0+  Al74  1  0.56978228  0.68003105  0.31880018  1
  Al0+  Al75  1  0.18013459  0.93017787  0.34599676  1
  Al0+  Al76  1  0.68050671  0.92774672  0.68145369  1
  Al0+  Al77  1  0.57344346  0.68037672  0.65084830  1
  Al0+  Al78  1  0.42839657  0.31899590  0.65343582  1
  Al0+  Al79  1  0.07403869  0.67861845  0.31802561  1
  Al0+  Al80  1  0.17744244  0.92549488  0.68268022  1
  Al0+  Al81  1  0.17927264  0.43025054  0.01345411  1
  Al0+  Al82  1  0.57081616  0.17898752  0.98763656  1
  Al0+  Al83  1  0.42957938  0.82037124  0.98546638  1
  Al0+  Al84  1  0.31927204  0.07238747  0.68223910  1
  Al0+  Al85  1  0.67786787  0.43009134  0.34775496  1
  Al0+  Al86  1  0.42834109  0.82306465  0.64921030  1
  Al0+  Al87  1  0.92833795  0.32235288  0.65032772  1
  Al0+  Al88  1  0.57434248  0.67716368  0.98521049  1
  Al0+  Al89  1  0.07422258  0.17620485  0.98283112  1
  Al0+  Al90  1  0.07055970  0.18078128  0.31975490  1
  Al0+  Al91  1  0.93071676  0.32094013  0.98699365  1
  Al0+  Al92  1  0.81993429  0.57086225  0.01559169  1
  Al0+  Al93  1  0.06929368  0.68105198  0.98691408  1
  Al0+  Al94  1  0.92939805  0.82191502  0.31856507  1
  Al0+  Al95  1  0.67947250  0.92806945  0.34536874  1
  Si0+  Si96  1  0.07151719  0.67810507  0.65334212  1
  Si0+  Si97  1  0.06967670  0.17786538  0.65067925  1
  Si0+  Si98  1  0.81997995  0.07355977  0.01318739  1
  Si0+  Si99  1  0.92618563  0.82343184  0.98166909  1
  Si0+  Si100  1  0.17837658  0.42835420  0.34980570  1
  Si0+  Si101  1  0.82174835  0.56783262  0.68176750  1
  Si0+  Si102  1  0.82158527  0.07332158  0.34898556  1
  Si0+  Si103  1  0.32226006  0.07530728  0.35170198  1
  Si0+  Si104  1  0.57022491  0.17945809  0.32090456  1
  Si0+  Si105  1  0.42853230  0.82524446  0.31751274  1
  Si0+  Si106  1  0.17763555  0.43128058  0.67918026  1
  Si0+  Si107  1  0.93042021  0.82103670  0.65375210  1
  Si0+  Si108  1  0.82127496  0.07463620  0.68458906  1
  Si0+  Si109  1  0.82237278  0.57136662  0.35296074  1
  Si0+  Si110  1  0.67719998  0.42606858  0.01435487  1
  Si0+  Si111  1  0.32405771  0.57203413  0.01622529  1
  Si0+  Si112  1  0.32103837  0.56990755  0.34865651  1
  Si0+  Si113  1  0.92491981  0.32192184  0.31670341  1
  Si0+  Si114  1  0.57318467  0.17687918  0.64709525  1
  Si0+  Si115  1  0.42902547  0.32227929  0.31737438  1
  Si0+  Si116  1  0.32323706  0.56848322  0.68130110  1
  Si0+  Si117  1  0.68065982  0.93001269  0.01386779  1
  Si0+  Si118  1  0.42720130  0.32249568  0.98519699  1
  Si0+  Si119  1  0.67760643  0.42813564  0.68238873  1
  O2-  O120  1  0.24669849  0.00217567  0.06738981  1
  O2-  O121  1  0.25429137  0.00506914  0.39374737  1
  O2-  O122  1  0.25123148  -0.00368177  0.73121452  1
  O2-  O123  1  0.25471167  0.50423832  0.06146925  1
  O2-  O124  1  0.24595451  0.50254687  0.39199470  1
  O2-  O125  1  0.24929338  0.50027178  0.72316240  1
  O2-  O126  1  0.75202658  0.00030216  0.05685997  1
  O2-  O127  1  0.75602932  0.00122316  0.39277472  1
  O2-  O128  1  0.75112082  0.00704318  0.72837394  1
  O2-  O129  1  0.74162933  0.49809504  0.05937694  1
  O2-  O130  1  0.75278543  0.50332617  0.39716534  1
  O2-  O131  1  0.74962945  0.49786030  0.72422293  1
  O2-  O132  1  -0.00466358  0.25546876  0.27351236  1
  O2-  O133  1  -0.00077817  0.24419641  0.60447164  1
  O2-  O134  1  0.00324039  0.25067390  0.93490335  1
  O2-  O135  1  0.00406166  0.75270396  0.26886621  1
  O2-  O136  1  0.00881730  0.75716696  0.61296534  1
  O2-  O137  1  -0.00052283  0.75907738  0.93784645  1
  O2-  O138  1  0.49876533  0.24934528  0.27711155  1
  O2-  O139  1  0.50195813  0.24421730  0.60413914  1
  O2-  O140  1  0.49570370  0.25353296  0.94197989  1
  O2-  O141  1  0.50096538  0.76029420  0.27334016  1
  O2-  O142  1  0.50489029  0.75511226  0.59963487  1
  O2-  O143  1  0.50134616  0.74744620  0.93609985  1
  O2-  O144  1  0.07069347  0.17806097  0.09680026  1
  O2-  O145  1  0.06948962  0.18282186  0.43341824  1
  O2-  O146  1  0.06931381  0.18143082  0.75555801  1
  O2-  O147  1  0.06662306  0.67970546  0.09940151  1
  O2-  O148  1  0.07231654  0.67793913  0.43259723  1
  O2-  O149  1  0.06798228  0.67181832  0.75803773  1
  O2-  O150  1  0.57275624  0.18048723  0.10149394  1
  O2-  O151  1  0.56988010  0.18033630  0.42565232  1
  O2-  O152  1  0.57708610  0.18088795  0.75251486  1
  O2-  O153  1  0.57349173  0.67968374  0.09914813  1
  O2-  O154  1  0.56705720  0.67899706  0.43175615  1
  O2-  O155  1  0.57216557  0.67946986  0.76393292  1
  O2-  O156  1  0.18054856  0.42613206  0.24509497  1
  O2-  O157  1  0.17812030  0.43388898  0.57362582  1
  O2-  O158  1  0.18019041  0.43228220  0.89957016  1
  O2-  O159  1  0.18176528  0.92966298  0.23367763  1
  O2-  O160  1  0.17452915  0.92763428  0.56846433  1
  O2-  O161  1  0.18054828  0.92665519  0.90377031  1
  O2-  O162  1  0.67891465  0.42838089  0.23487707  1
  O2-  O163  1  0.67761363  0.42946267  0.57712098  1
  O2-  O164  1  0.67806516  0.42465544  0.90865075  1
  O2-  O165  1  0.67852271  0.93195411  0.23209615  1
  O2-  O166  1  0.68539157  0.92667619  0.56806995  1
  O2-  O167  1  0.68234546  0.93054725  0.90867178  1
  O2-  O168  1  0.42963515  0.32490391  0.09111516  1
  O2-  O169  1  0.42811438  0.32267972  0.42257089  1
  O2-  O170  1  0.43030105  0.32092873  0.76610138  1
  O2-  O171  1  0.43286913  0.82002580  0.09968057  1
  O2-  O172  1  0.42809974  0.82262257  0.42297140  1
  O2-  O173  1  0.42761158  0.81851222  0.76220448  1
  O2-  O174  1  0.92935917  0.31798295  0.10072212  1
  O2-  O175  1  0.92605009  0.32032995  0.42279991  1
  O2-  O176  1  0.93211405  0.32612495  0.76272740  1
  O2-  O177  1  0.92196128  0.82156449  0.08680063  1
  O2-  O178  1  0.92980100  0.81891007  0.43306383  1
  O2-  O179  1  0.92618698  0.81783195  0.75849971  1
  O2-  O180  1  0.32502873  0.07705260  0.24670684  1
  O2-  O181  1  0.31244928  0.07499828  0.56817533  1
  O2-  O182  1  0.32304197  0.06939536  0.90447826  1
  O2-  O183  1  0.32350568  0.56591028  0.24394336  1
  O2-  O184  1  0.32163816  0.56721396  0.57574217  1
  O2-  O185  1  0.32336936  0.56863479  0.91031423  1
  O2-  O186  1  0.81739446  0.07707266  0.24347574  1
  O2-  O187  1  0.82171823  0.07461207  0.57872977  1
  O2-  O188  1  0.81678760  0.07380822  0.90809348  1
  O2-  O189  1  0.82288381  0.56979826  0.24769478  1
  O2-  O190  1  0.82388675  0.56660702  0.57685418  1
  O2-  O191  1  0.82103009  0.56899924  0.90180551  1
  O2-  O192  1  0.03997812  0.08598533  0.26390748  1
  O2-  O193  1  0.04340070  0.08300177  0.60669914  1
  O2-  O194  1  0.04300419  0.07914637  0.92971464  1
  O2-  O195  1  0.04410470  0.57885840  0.26840163  1
  O2-  O196  1  0.03599460  0.59083824  0.60118004  1
  O2-  O197  1  0.03403614  0.58570245  0.93293926  1
  O2-  O198  1  0.54351985  0.08731509  0.27328208  1
  O2-  O199  1  0.55009589  0.08232177  0.60301602  1
  O2-  O200  1  0.54106099  0.08364837  0.93226077  1
  O2-  O201  1  0.53457936  0.58460880  0.26513529  1
  O2-  O202  1  0.54212112  0.58201527  0.59883730  1
  O2-  O203  1  0.54987723  0.57685477  0.93442689  1
  O2-  O204  1  0.16643733  0.21368994  0.26588788  1
  O2-  O205  1  0.16117295  0.20689983  0.60261367  1
  O2-  O206  1  0.17364261  0.20567507  0.93415198  1
  O2-  O207  1  0.17404346  0.70197188  0.26686249  1
  O2-  O208  1  0.16624181  0.69556757  0.60811190  1
  O2-  O209  1  0.16741325  0.70401313  0.93241635  1
  O2-  O210  1  0.66215285  0.20844315  0.27416104  1
  O2-  O211  1  0.66532092  0.20472407  0.59892446  1
  O2-  O212  1  0.66441941  0.20968140  0.92820332  1
  O2-  O213  1  0.66862067  0.70422980  0.26789468  1
  O2-  O214  1  0.67421102  0.70509101  0.59990119  1
  O2-  O215  1  0.67274612  0.70617338  0.93361084  1
  O2-  O216  1  0.08469352  0.46280480  0.06949703  1
  O2-  O217  1  0.08494555  0.45226880  0.39666605  1
  O2-  O218  1  0.08605213  0.46201758  0.72505024  1
  O2-  O219  1  0.07541725  0.95161822  0.06547955  1
  O2-  O220  1  0.08188750  0.96151025  0.39787156  1
  O2-  O221  1  0.07784537  0.95066240  0.73513048  1
  O2-  O222  1  0.58189720  0.44579176  0.06008885  1
  O2-  O223  1  0.58073927  0.46135380  0.40140998  1
  O2-  O224  1  0.58562743  0.45533483  0.72925502  1
  O2-  O225  1  0.58942632  0.95865294  0.06052491  1
  O2-  O226  1  0.58451894  0.96122423  0.40200975  1
  O2-  O227  1  0.58297471  0.95592025  0.73379432  1
  O2-  O228  1  0.21054456  0.33497360  0.06967853  1
  O2-  O229  1  0.21073176  0.33848019  0.39905976  1
  O2-  O230  1  0.20337206  0.33871355  0.72450342  1
  O2-  O231  1  0.20881743  0.82818301  0.06791015  1
  O2-  O232  1  0.20902457  0.83224050  0.39986673  1
  O2-  O233  1  0.20471818  0.82464326  0.73143946  1
  O2-  O234  1  0.70689906  0.33327547  0.06068226  1
  O2-  O235  1  0.70634437  0.33391628  0.40550141  1
  O2-  O236  1  0.70396061  0.33466016  0.72688208  1
  O2-  O237  1  0.70941901  0.83842673  0.06090520  1
  O2-  O238  1  0.71124740  0.83145113  0.39930762  1
  O2-  O239  1  0.71799533  0.83317930  0.73553126  1
  O2-  O240  1  0.45860153  0.41243908  0.26896811  1
  O2-  O241  1  0.46084125  0.41380412  0.59588053  1
  O2-  O242  1  0.45157428  0.41528445  0.93675139  1
  O2-  O243  1  0.45022715  0.92132705  0.27532140  1
  O2-  O244  1  0.45005320  0.92422919  0.59981853  1
  O2-  O245  1  0.46027922  0.91690988  0.93162258  1
  O2-  O246  1  0.94848879  0.41696267  0.27422490  1
  O2-  O247  1  0.96257423  0.41614795  0.59209852  1
  O2-  O248  1  0.95977320  0.41949464  0.93538826  1
  O2-  O249  1  0.94903548  0.92244502  0.26762012  1
  O2-  O250  1  0.94874816  0.91580811  0.60804384  1
  O2-  O251  1  0.94367450  0.91867768  0.93637849  1
  O2-  O252  1  0.33671357  0.29721268  0.27012540  1
  O2-  O253  1  0.33098979  0.29130446  0.59722560  1
  O2-  O254  1  0.33381707  0.29775435  0.93966067  1
  O2-  O255  1  0.33727138  0.79395047  0.27100029  1
  O2-  O256  1  0.33177096  0.78693132  0.59494497  1
  O2-  O257  1  0.33256326  0.79139490  0.93106491  1
  O2-  O258  1  0.83057136  0.29595535  0.27315284  1
  O2-  O259  1  0.83076842  0.29458162  0.59626403  1
  O2-  O260  1  0.83370572  0.29218563  0.93097096  1
  O2-  O261  1  0.83275029  0.79022648  0.26416925  1
  O2-  O262  1  0.84279434  0.78460712  0.60357231  1
  O2-  O263  1  0.83554824  0.79053815  0.93351240  1
  O2-  O264  1  0.42091902  0.03853475  0.07072572  1
  O2-  O265  1  0.41600433  0.05335575  0.39974184  1
  O2-  O266  1  0.42151745  0.05418190  0.73054459  1
  O2-  O267  1  0.41738559  0.54442375  0.06308180  1
  O2-  O268  1  0.40971210  0.53616891  0.39859133  1
  O2-  O269  1  0.41353278  0.53615777  0.72821015  1
  O2-  O270  1  0.91275226  0.04911057  0.05978709  1
  O2-  O271  1  0.91601264  0.05176503  0.39448408  1
  O2-  O272  1  0.91358250  0.04783822  0.73207885  1
  O2-  O273  1  0.91359499  0.53736024  0.07276950  1
  O2-  O274  1  0.91583241  0.54478016  0.40056578  1
  O2-  O275  1  0.91334570  0.53680991  0.72876047  1
  O2-  O276  1  0.30174548  0.17095532  0.06982314  1
  O2-  O277  1  0.29473062  0.16980160  0.39629994  1
  O2-  O278  1  0.28868867  0.17099163  0.73521763  1
  O2-  O279  1  0.29967310  0.66553417  0.06127357  1
  O2-  O280  1  0.29675697  0.66217779  0.39712187  1
  O2-  O281  1  0.29818733  0.66041023  0.72854265  1
  O2-  O282  1  0.78878947  0.16410721  0.06120261  1
  O2-  O283  1  0.79225906  0.16462651  0.39883924  1
  O2-  O284  1  0.79635219  0.16960106  0.72854751  1
  O2-  O285  1  0.79187542  0.66766351  0.07114625  1
  O2-  O286  1  0.79714484  0.66505320  0.39864172  1
  O2-  O287  1  0.79716473  0.65965301  0.73020304  1
