# generated using pymatgen
data_Ca2Al2SiO7
_symmetry_space_group_name_H-M   'P 1'
_cell_length_a   15.47077660
_cell_length_b   15.46937567
_cell_length_c   15.29210147
_cell_angle_alpha   90.01765529
_cell_angle_beta   90.00128270
_cell_angle_gamma   90.00525859
_symmetry_Int_Tables_number   1
_chemical_formula_structural   Ca2Al2SiO7
_chemical_formula_sum   'Ca48 Al48 Si24 O168'
_cell_volume   3659.75530998
_cell_formula_units_Z   24
loop_
 _symmetry_equiv_pos_site_id
 _symmetry_equiv_pos_as_xyz
  1  'x, y, z'
loop_
 _atom_type_symbol
 _atom_type_oxidation_number
  Ca2+  2.0
  Al0+  0.0
  Si0+  0.0
  O2-  -2.0
loop_
 _atom_site_type_symbol
 _atom_site_label
 _atom_site_symmetry_multiplicity
 _atom_site_fract_x
 _atom_site_fract_y
 _atom_site_fract_z
 _atom_site_occupancy
  Ca2+  Ca0  1  0.16541480  0.08634516  0.16639324  1
  Ca2+  Ca1  1  0.15920102  0.07745606  0.50297565  1
  Ca2+  Ca2  1  0.16945254  0.07239531  0.84476092  1
  Ca2+  Ca3  1  0.16052684  0.57246843  0.17098748  1
  Ca2+  Ca4  1  0.15373211  0.57836738  0.49655816  1
  Ca2+  Ca5  1  0.17380180  0.57816339  0.84591460  1
  Ca2+  Ca6  1  0.67011876  0.07391054  0.17536919  1
  Ca2+  Ca7  1  0.67229881  0.08416895  0.49305686  1
  Ca2+  Ca8  1  0.67072170  0.07453210  0.84188409  1
  Ca2+  Ca9  1  0.67626064  0.58191797  0.16587212  1
  Ca2+  Ca10  1  0.67528109  0.58390672  0.49939520  1
  Ca2+  Ca11  1  0.67359815  0.57932027  0.84830968  1
  Ca2+  Ca12  1  0.07950752  0.32816795  0.16118019  1
  Ca2+  Ca13  1  0.07488148  0.32849245  0.48719807  1
  Ca2+  Ca14  1  0.07745215  0.33414842  0.83562721  1
  Ca2+  Ca15  1  0.07877883  0.83031600  0.16387088  1
  Ca2+  Ca16  1  0.07344375  0.83166734  0.49272577  1
  Ca2+  Ca17  1  0.08352155  0.83564323  0.82780023  1
  Ca2+  Ca18  1  0.58905198  0.32821813  0.16092558  1
  Ca2+  Ca19  1  0.57945825  0.32560682  0.49115061  1
  Ca2+  Ca20  1  0.58438790  0.33663814  0.83312988  1
  Ca2+  Ca21  1  0.58204153  0.83358322  0.15485938  1
  Ca2+  Ca22  1  0.57611099  0.84063855  0.49449355  1
  Ca2+  Ca23  1  0.57305399  0.83338574  0.83695729  1
  Ca2+  Ca24  1  0.32169426  0.42066465  0.16786605  1
  Ca2+  Ca25  1  0.32367623  0.41648273  0.50023823  1
  Ca2+  Ca26  1  0.32711241  0.42475087  0.84794978  1
  Ca2+  Ca27  1  0.32937868  0.91655564  0.16189753  1
  Ca2+  Ca28  1  0.32458562  0.91562130  0.50773679  1
  Ca2+  Ca29  1  0.32663003  0.91495277  0.84226821  1
  Ca2+  Ca30  1  0.84287784  0.42454744  0.16869628  1
  Ca2+  Ca31  1  0.84575848  0.42099620  0.49860535  1
  Ca2+  Ca32  1  0.83395112  0.42073691  0.84472550  1
  Ca2+  Ca33  1  0.82272004  0.91836339  0.17772579  1
  Ca2+  Ca34  1  0.83693566  0.91848403  0.49924399  1
  Ca2+  Ca35  1  0.82930497  0.91467777  0.84116772  1
  Ca2+  Ca36  1  0.42180889  0.16166244  0.16123290  1
  Ca2+  Ca37  1  0.42444492  0.16426652  0.49110596  1
  Ca2+  Ca38  1  0.41544098  0.16140907  0.83655813  1
  Ca2+  Ca39  1  0.42484102  0.67079724  0.15322257  1
  Ca2+  Ca40  1  0.41703946  0.67421569  0.49718222  1
  Ca2+  Ca41  1  0.41756974  0.67274940  0.83507814  1
  Ca2+  Ca42  1  0.92285426  0.17334771  0.16135712  1
  Ca2+  Ca43  1  0.91875571  0.17632254  0.48703349  1
  Ca2+  Ca44  1  0.92047756  0.17859254  0.83256730  1
  Ca2+  Ca45  1  0.91334767  0.66585705  0.16757774  1
  Ca2+  Ca46  1  0.91816870  0.67748655  0.49010904  1
  Ca2+  Ca47  1  0.91502596  0.67183111  0.83206967  1
  Al0+  Al48  1  0.00120634  0.00025177  -0.00139438  1
  Al0+  Al49  1  -0.00135705  0.00065406  0.33004927  1
  Al0+  Al50  1  -0.00075149  0.00056178  0.66934289  1
  Al0+  Al51  1  0.00017188  0.50130685  0.00170243  1
  Al0+  Al52  1  0.00014794  0.50091818  0.33704195  1
  Al0+  Al53  1  -0.00042750  0.49961075  0.66677363  1
  Al0+  Al54  1  0.49949901  -0.00073165  0.00125232  1
  Al0+  Al55  1  0.49870071  0.00136871  0.33317043  1
  Al0+  Al56  1  0.50112420  -0.00072249  0.66241031  1
  Al0+  Al57  1  0.50261836  0.49883219  0.00317364  1
  Al0+  Al58  1  0.49784355  0.50212946  0.33572750  1
  Al0+  Al59  1  0.50064709  0.49903683  0.66422453  1
  Al0+  Al60  1  0.25210647  0.24828345  0.00152417  1
  Al0+  Al61  1  0.25011127  0.25188490  0.33685855  1
  Al0+  Al62  1  0.25121850  0.24985357  0.66774617  1
  Al0+  Al63  1  0.25041654  0.75176250  0.00360990  1
  Al0+  Al64  1  0.25046066  0.75056865  0.33053812  1
  Al0+  Al65  1  0.25178370  0.74836480  0.66538139  1
  Al0+  Al66  1  0.75092073  0.24954152  -0.00397658  1
  Al0+  Al67  1  0.74742376  0.24922960  0.32858290  1
  Al0+  Al68  1  0.74996052  0.25008214  0.66256758  1
  Al0+  Al69  1  0.74908311  0.74871969  0.00225337  1
  Al0+  Al70  1  0.74612610  0.74869999  0.34064332  1
  Al0+  Al71  1  0.75024319  0.74897213  0.66441417  1
  Al0+  Al72  1  0.92827911  0.82184439  0.65439121  1
  Al0+  Al73  1  0.17982432  0.43014255  0.34905841  1
  Al0+  Al74  1  0.07317508  0.17777104  0.31854148  1
  Al0+  Al75  1  0.67689574  0.92864834  0.35039548  1
  Al0+  Al76  1  0.82003999  0.56924271  0.34987068  1
  Al0+  Al77  1  0.82178978  0.07169409  0.34744411  1
  Al0+  Al78  1  0.43000458  0.81987993  0.65181339  1
  Al0+  Al79  1  0.17590762  0.92764300  0.01713854  1
  Al0+  Al80  1  0.56864351  0.17995757  0.31763110  1
  Al0+  Al81  1  0.82207376  0.57140783  0.01505017  1
  Al0+  Al82  1  0.92962785  0.32072659  0.65157234  1
  Al0+  Al83  1  0.32112156  0.06997661  0.01521738  1
  Al0+  Al84  1  0.57268343  0.67719857  0.98541677  1
  Al0+  Al85  1  0.32307670  0.57267417  0.01484995  1
  Al0+  Al86  1  0.67947526  0.42587671  0.01413679  1
  Al0+  Al87  1  0.07433607  0.17776944  0.98238766  1
  Al0+  Al88  1  0.92556175  0.82108611  0.31766969  1
  Al0+  Al89  1  0.07064851  0.68048495  0.31772729  1
  Al0+  Al90  1  0.92807736  0.32187835  0.31695270  1
  Al0+  Al91  1  0.92986693  0.32213332  0.98399496  1
  Al0+  Al92  1  0.42830648  0.82169864  0.98515003  1
  Al0+  Al93  1  0.17897303  0.92904083  0.67863441  1
  Al0+  Al94  1  0.68089176  0.93016204  0.01101888  1
  Al0+  Al95  1  0.17895598  0.42907038  0.01465882  1
  Si0+  Si96  1  0.07151804  0.67982290  0.98563532  1
  Si0+  Si97  1  0.17911362  0.42906685  0.68229938  1
  Si0+  Si98  1  0.32241877  0.57404294  0.35256980  1
  Si0+  Si99  1  0.82306763  0.07225677  0.01431445  1
  Si0+  Si100  1  0.31983823  0.07107957  0.34891740  1
  Si0+  Si101  1  0.92834594  0.82065357  0.98657056  1
  Si0+  Si102  1  0.07289739  0.17900820  0.65117929  1
  Si0+  Si103  1  0.57164433  0.17772379  0.98347631  1
  Si0+  Si104  1  0.43068167  0.32052987  0.98548711  1
  Si0+  Si105  1  0.67845751  0.42821694  0.67981380  1
  Si0+  Si106  1  0.56918009  0.67794089  0.31919702  1
  Si0+  Si107  1  0.67847343  0.92861160  0.68220389  1
  Si0+  Si108  1  0.57175837  0.67606331  0.64830365  1
  Si0+  Si109  1  0.57044905  0.17887735  0.65122771  1
  Si0+  Si110  1  0.67478676  0.42794717  0.35093421  1
  Si0+  Si111  1  0.42764600  0.32388491  0.31653796  1
  Si0+  Si112  1  0.81977762  0.07269150  0.68211020  1
  Si0+  Si113  1  0.32347826  0.56927408  0.68161685  1
  Si0+  Si114  1  0.17903083  0.92790759  0.34844716  1
  Si0+  Si115  1  0.42852838  0.32243941  0.65196350  1
  Si0+  Si116  1  0.42905314  0.82197604  0.31760434  1
  Si0+  Si117  1  0.32461716  0.07175696  0.68199143  1
  Si0+  Si118  1  0.82038917  0.57046509  0.68217247  1
  Si0+  Si119  1  0.07284520  0.67823087  0.65233313  1
  O2-  O120  1  0.24650901  0.00174420  0.06595714  1
  O2-  O121  1  0.24673829  0.00254611  0.39140713  1
  O2-  O122  1  0.25431259  0.00426266  0.72394515  1
  O2-  O123  1  0.24858930  0.50370767  0.06441994  1
  O2-  O124  1  0.25247490  0.50708257  0.39787897  1
  O2-  O125  1  0.25151087  0.49909082  0.72349581  1
  O2-  O126  1  0.75617366  0.00252119  0.05830181  1
  O2-  O127  1  0.75281401  -0.00289612  0.40026531  1
  O2-  O128  1  0.75179843  -0.00221730  0.72391068  1
  O2-  O129  1  0.75302333  0.49563421  0.06351078  1
  O2-  O130  1  0.74693574  0.49187120  0.39720385  1
  O2-  O131  1  0.74912087  0.49887166  0.72246966  1
  O2-  O132  1  -0.00093092  0.24782798  0.26971669  1
  O2-  O133  1  0.00603331  0.24800301  0.60561571  1
  O2-  O134  1  0.00271707  0.25090556  0.93321680  1
  O2-  O135  1  -0.00233322  0.75028078  0.26638351  1
  O2-  O136  1  0.00600763  0.74939839  0.60976343  1
  O2-  O137  1  0.00176548  0.75220169  0.94330273  1
  O2-  O138  1  0.49711840  0.25739022  0.27116417  1
  O2-  O139  1  0.49707228  0.24883695  0.61036977  1
  O2-  O140  1  0.50255185  0.25072444  0.94091025  1
  O2-  O141  1  0.50105912  0.75158850  0.27790360  1
  O2-  O142  1  0.50554259  0.74679926  0.60315098  1
  O2-  O143  1  0.49838032  0.74709293  0.93561301  1
  O2-  O144  1  0.07212846  0.17880232  0.09539288  1
  O2-  O145  1  0.07403600  0.17990654  0.43321059  1
  O2-  O146  1  0.07332266  0.18069077  0.75622085  1
  O2-  O147  1  0.07084345  0.67905510  0.09008117  1
  O2-  O148  1  0.07057163  0.68395020  0.43229803  1
  O2-  O149  1  0.07259576  0.67617173  0.75802384  1
  O2-  O150  1  0.56998067  0.17708914  0.08800158  1
  O2-  O151  1  0.56494191  0.18066772  0.43180206  1
  O2-  O152  1  0.57118447  0.17861546  0.75628153  1
  O2-  O153  1  0.57304533  0.68027405  0.09908340  1
  O2-  O154  1  0.56545192  0.67577299  0.42491804  1
  O2-  O155  1  0.57057811  0.67320024  0.75313482  1
  O2-  O156  1  0.18326453  0.42935164  0.23698470  1
  O2-  O157  1  0.18016050  0.42930417  0.57732598  1
  O2-  O158  1  0.18153303  0.43194362  0.89976380  1
  O2-  O159  1  0.18250721  0.92477181  0.24424591  1
  O2-  O160  1  0.17996971  0.93093933  0.56509450  1
  O2-  O161  1  0.17721357  0.92708788  0.90282005  1
  O2-  O162  1  0.66918727  0.43236973  0.24641771  1
  O2-  O163  1  0.67538942  0.42903862  0.57500688  1
  O2-  O164  1  0.68004331  0.42714257  0.89926896  1
  O2-  O165  1  0.67418588  0.93050031  0.23714806  1
  O2-  O166  1  0.67582711  0.93075716  0.57761387  1
  O2-  O167  1  0.68200330  0.93208705  0.89683484  1
  O2-  O168  1  0.43135030  0.31932884  0.09015424  1
  O2-  O169  1  0.42913500  0.32161153  0.42328287  1
  O2-  O170  1  0.42963853  0.32544997  0.75674494  1
  O2-  O171  1  0.43251035  0.82316976  0.09876600  1
  O2-  O172  1  0.42825117  0.82118050  0.42347790  1
  O2-  O173  1  0.43071224  0.81986831  0.76386732  1
  O2-  O174  1  0.92897934  0.32063998  0.09657306  1
  O2-  O175  1  0.93167167  0.32035143  0.43154499  1
  O2-  O176  1  0.92883650  0.32143099  0.76412401  1
  O2-  O177  1  0.92685541  0.81968956  0.09092855  1
  O2-  O178  1  0.92983494  0.82031679  0.43196736  1
  O2-  O179  1  0.92570672  0.81858104  0.76772468  1
  O2-  O180  1  0.32273123  0.06974473  0.24469352  1
  O2-  O181  1  0.32644013  0.07253164  0.57623865  1
  O2-  O182  1  0.32276756  0.06761995  0.90091415  1
  O2-  O183  1  0.32575201  0.57229057  0.24797159  1
  O2-  O184  1  0.32610234  0.56716845  0.57665004  1
  O2-  O185  1  0.32072590  0.56953603  0.89990432  1
  O2-  O186  1  0.81778896  0.07109391  0.23427425  1
  O2-  O187  1  0.81790586  0.07488333  0.57751713  1
  O2-  O188  1  0.81957404  0.07083148  0.90758521  1
  O2-  O189  1  0.81749859  0.57019216  0.23771986  1
  O2-  O190  1  0.82012475  0.57052291  0.57731875  1
  O2-  O191  1  0.82110777  0.57246621  0.90038220  1
  O2-  O192  1  0.05013138  0.07857558  0.26679063  1
  O2-  O193  1  0.04602352  0.08516644  0.60687964  1
  O2-  O194  1  0.04403410  0.07916291  0.92907061  1
  O2-  O195  1  0.04349467  0.58106663  0.26913217  1
  O2-  O196  1  0.04330218  0.58580316  0.60577579  1
  O2-  O197  1  0.04342956  0.58907192  0.93587003  1
  O2-  O198  1  0.53334244  0.08463617  0.26455240  1
  O2-  O199  1  0.54352117  0.08798101  0.60186910  1
  O2-  O200  1  0.53990549  0.08790618  0.93408885  1
  O2-  O201  1  0.53860524  0.58730294  0.27168554  1
  O2-  O202  1  0.54371554  0.58341522  0.60014084  1
  O2-  O203  1  0.54646356  0.57745866  0.93296988  1
  O2-  O204  1  0.17229576  0.20825378  0.26896964  1
  O2-  O205  1  0.16855177  0.20117810  0.60631494  1
  O2-  O206  1  0.17419188  0.20443264  0.93056903  1
  O2-  O207  1  0.16978725  0.70750058  0.26605350  1
  O2-  O208  1  0.16714915  0.69829693  0.60569407  1
  O2-  O209  1  0.16370523  0.70653146  0.93806110  1
  O2-  O210  1  0.66458437  0.20624411  0.26256888  1
  O2-  O211  1  0.66022789  0.20951058  0.60191224  1
  O2-  O212  1  0.66308865  0.20248054  0.93339748  1
  O2-  O213  1  0.66234488  0.70174753  0.27540779  1
  O2-  O214  1  0.66602126  0.70026892  0.60330316  1
  O2-  O215  1  0.66966696  0.70896106  0.93032872  1
  O2-  O216  1  0.08150809  0.45743153  0.06674406  1
  O2-  O217  1  0.08464116  0.46141811  0.40583502  1
  O2-  O218  1  0.08775490  0.45835093  0.72933601  1
  O2-  O219  1  0.07663547  0.95360322  0.06834353  1
  O2-  O220  1  0.08601723  0.95314830  0.39444454  1
  O2-  O221  1  0.08236333  0.95801624  0.73399145  1
  O2-  O222  1  0.58199205  0.45177900  0.06832336  1
  O2-  O223  1  0.58241162  0.45776615  0.40029844  1
  O2-  O224  1  0.58567176  0.45464264  0.72699853  1
  O2-  O225  1  0.58572889  0.96229062  0.06458041  1
  O2-  O226  1  0.57965911  0.96474158  0.40379989  1
  O2-  O227  1  0.58736684  0.96048420  0.72906356  1
  O2-  O228  1  0.21085489  0.33201623  0.06545779  1
  O2-  O229  1  0.21435129  0.33537403  0.40680851  1
  O2-  O230  1  0.20666964  0.33656670  0.72841364  1
  O2-  O231  1  0.20587272  0.83104364  0.07124662  1
  O2-  O232  1  0.21176750  0.83787086  0.39745653  1
  O2-  O233  1  0.20941569  0.83101036  0.73025919  1
  O2-  O234  1  0.70274855  0.32513058  0.06354490  1
  O2-  O235  1  0.69467255  0.33178284  0.39354928  1
  O2-  O236  1  0.70442926  0.33531604  0.72588957  1
  O2-  O237  1  0.70878755  0.83407260  0.06492746  1
  O2-  O238  1  0.69737177  0.82934493  0.40478125  1
  O2-  O239  1  0.70423706  0.83513096  0.72688978  1
  O2-  O240  1  0.45031377  0.41909330  0.27387453  1
  O2-  O241  1  0.45839145  0.41206625  0.60104696  1
  O2-  O242  1  0.45857174  0.41170699  0.93637408  1
  O2-  O243  1  0.45592231  0.91396106  0.27215052  1
  O2-  O244  1  0.45995153  0.91683937  0.59659799  1
  O2-  O245  1  0.46174964  0.91845592  0.93044002  1
  O2-  O246  1  0.95918077  0.42039513  0.26888951  1
  O2-  O247  1  0.96019745  0.41845782  0.59957649  1
  O2-  O248  1  0.95860495  0.42155562  0.93128533  1
  O2-  O249  1  0.95108920  0.91983432  0.26639199  1
  O2-  O250  1  0.95611987  0.92006281  0.60204653  1
  O2-  O251  1  0.95238499  0.91307214  0.93813453  1
  O2-  O252  1  0.33472840  0.29672341  0.27268659  1
  O2-  O253  1  0.33580866  0.29690026  0.60455417  1
  O2-  O254  1  0.34033864  0.29189447  0.93547212  1
  O2-  O255  1  0.33799585  0.79434925  0.27039826  1
  O2-  O256  1  0.33428062  0.78689728  0.59612320  1
  O2-  O257  1  0.32874464  0.79536684  0.93291372  1
  O2-  O258  1  0.82748396  0.29981971  0.26780757  1
  O2-  O259  1  0.83255114  0.29067490  0.59790416  1
  O2-  O260  1  0.83178545  0.29152248  0.92851724  1
  O2-  O261  1  0.82483295  0.79175210  0.27121393  1
  O2-  O262  1  0.83257055  0.78965139  0.59924007  1
  O2-  O263  1  0.83811976  0.78954803  0.93737179  1
  O2-  O264  1  0.41831778  0.03930986  0.06913025  1
  O2-  O265  1  0.40991294  0.03984977  0.39862468  1
  O2-  O266  1  0.41860705  0.04574115  0.72722556  1
  O2-  O267  1  0.41992127  0.54159173  0.06728140  1
  O2-  O268  1  0.41459010  0.54622488  0.40232357  1
  O2-  O269  1  0.41502273  0.53957486  0.72869573  1
  O2-  O270  1  0.91695596  0.04947949  0.05806581  1
  O2-  O271  1  0.92143201  0.04667731  0.40121139  1
  O2-  O272  1  0.91208532  0.04852128  0.72963389  1
  O2-  O273  1  0.92055638  0.54697399  0.06759775  1
  O2-  O274  1  0.91648794  0.54113767  0.40599185  1
  O2-  O275  1  0.91268283  0.54347744  0.72915582  1
  O2-  O276  1  0.30014808  0.16964520  0.06766435  1
  O2-  O277  1  0.29790089  0.16396106  0.39764068  1
  O2-  O278  1  0.30267076  0.16704078  0.72738776  1
  O2-  O279  1  0.30074160  0.67203993  0.06552445  1
  O2-  O280  1  0.29784578  0.66884643  0.39774734  1
  O2-  O281  1  0.29679019  0.66143375  0.72783508  1
  O2-  O282  1  0.79562183  0.16508008  0.05831460  1
  O2-  O283  1  0.78682908  0.16929646  0.40094888  1
  O2-  O284  1  0.78628366  0.16296929  0.72995325  1
  O2-  O285  1  0.78994636  0.66745051  0.06920604  1
  O2-  O286  1  0.78515993  0.66351772  0.40723089  1
  O2-  O287  1  0.79229835  0.66252886  0.72917358  1
