# generated using pymatgen
data_Ca2Al2SiO7
_symmetry_space_group_name_H-M   'P 1'
_cell_length_a   15.45715140
_cell_length_b   15.45720765
_cell_length_c   15.28291950
_cell_angle_alpha   90.01270308
_cell_angle_beta   90.00093100
_cell_angle_gamma   90.00907715
_symmetry_Int_Tables_number   1
_chemical_formula_structural   Ca2Al2SiO7
_chemical_formula_sum   'Ca48 Al48 Si24 O168'
_cell_volume   3651.46221560
_cell_formula_units_Z   24
loop_
 _symmetry_equiv_pos_site_id
 _symmetry_equiv_pos_as_xyz
  1  'x, y, z'
loop_
 _atom_type_symbol
 _atom_type_oxidation_number
  Ca2+  2.0
  Al0+  0.0
  Si0+  0.0
  O2-  -2.0
loop_
 _atom_site_type_symbol
 _atom_site_label
 _atom_site_symmetry_multiplicity
 _atom_site_fract_x
 _atom_site_fract_y
 _atom_site_fract_z
 _atom_site_occupancy
  Ca2+  Ca0  1  0.16758136  0.07837320  0.16380915  1
  Ca2+  Ca1  1  0.17022216  0.06843553  0.50930776  1
  Ca2+  Ca2  1  0.17230511  0.07817924  0.83921399  1
  Ca2+  Ca3  1  0.17043052  0.57005806  0.17358575  1
  Ca2+  Ca4  1  0.16948530  0.58538806  0.50249903  1
  Ca2+  Ca5  1  0.16222164  0.57849083  0.83588422  1
  Ca2+  Ca6  1  0.66144589  0.07846310  0.16247803  1
  Ca2+  Ca7  1  0.67404955  0.07846428  0.50893120  1
  Ca2+  Ca8  1  0.67327689  0.08212033  0.83966885  1
  Ca2+  Ca9  1  0.66594549  0.57698966  0.16572127  1
  Ca2+  Ca10  1  0.67279375  0.58114501  0.51310550  1
  Ca2+  Ca11  1  0.66776898  0.57604673  0.83252494  1
  Ca2+  Ca12  1  0.09064096  0.32996485  0.15710302  1
  Ca2+  Ca13  1  0.07773691  0.33583971  0.49839925  1
  Ca2+  Ca14  1  0.08444412  0.32661504  0.82879892  1
  Ca2+  Ca15  1  0.07574628  0.84467209  0.16133601  1
  Ca2+  Ca16  1  0.07953952  0.83547615  0.49800210  1
  Ca2+  Ca17  1  0.07837737  0.83440165  0.82601655  1
  Ca2+  Ca18  1  0.57635492  0.32667817  0.15288972  1
  Ca2+  Ca19  1  0.57875742  0.33651770  0.50263911  1
  Ca2+  Ca20  1  0.57533919  0.33712416  0.82860008  1
  Ca2+  Ca21  1  0.57668280  0.83470640  0.16042154  1
  Ca2+  Ca22  1  0.57871424  0.82605526  0.49602187  1
  Ca2+  Ca23  1  0.58600020  0.82929164  0.82881399  1
  Ca2+  Ca24  1  0.32496043  0.41550209  0.16891595  1
  Ca2+  Ca25  1  0.32977993  0.41900028  0.50252123  1
  Ca2+  Ca26  1  0.33300056  0.41399530  0.84006241  1
  Ca2+  Ca27  1  0.32404494  0.92000026  0.17344067  1
  Ca2+  Ca28  1  0.32481722  0.91495141  0.50748804  1
  Ca2+  Ca29  1  0.32321915  0.92641046  0.84009495  1
  Ca2+  Ca30  1  0.82539308  0.41377558  0.16760957  1
  Ca2+  Ca31  1  0.82724621  0.42275522  0.51657321  1
  Ca2+  Ca32  1  0.82712652  0.41804995  0.83412940  1
  Ca2+  Ca33  1  0.83202887  0.91137907  0.16576188  1
  Ca2+  Ca34  1  0.84039145  0.91929001  0.50738925  1
  Ca2+  Ca35  1  0.83491853  0.91657005  0.83768484  1
  Ca2+  Ca36  1  0.41807263  0.17180715  0.15199776  1
  Ca2+  Ca37  1  0.41041783  0.16909587  0.50365025  1
  Ca2+  Ca38  1  0.41282520  0.17324732  0.83118439  1
  Ca2+  Ca39  1  0.40681186  0.67159769  0.16929745  1
  Ca2+  Ca40  1  0.42090000  0.66733599  0.49553714  1
  Ca2+  Ca41  1  0.42450789  0.66713268  0.82559549  1
  Ca2+  Ca42  1  0.92797506  0.16897650  0.15835756  1
  Ca2+  Ca43  1  0.91146049  0.17099348  0.50224472  1
  Ca2+  Ca44  1  0.92198581  0.16769640  0.82739128  1
  Ca2+  Ca45  1  0.91981199  0.67812143  0.16123549  1
  Ca2+  Ca46  1  0.91966016  0.67500257  0.50085433  1
  Ca2+  Ca47  1  0.92018059  0.67629182  0.82252799  1
  Al0+  Al48  1  -0.00025027  0.00246239  -0.00553332  1
  Al0+  Al49  1  -0.00001432  0.00199085  0.33308487  1
  Al0+  Al50  1  0.00006411  0.00037717  0.67049771  1
  Al0+  Al51  1  -0.00008819  0.50256301  0.00638680  1
  Al0+  Al52  1  -0.00306436  0.50028936  0.33458551  1
  Al0+  Al53  1  -0.00015570  0.50096934  0.66276247  1
  Al0+  Al54  1  0.50181459  0.00053139  0.00230390  1
  Al0+  Al55  1  0.50156000  -0.00117166  0.33114989  1
  Al0+  Al56  1  0.49930081  0.00184300  0.66935621  1
  Al0+  Al57  1  0.50145702  0.50155338  0.00274042  1
  Al0+  Al58  1  0.50017029  0.49768006  0.33437306  1
  Al0+  Al59  1  0.49909175  0.49944578  0.66030736  1
  Al0+  Al60  1  0.24989922  0.25044975  -0.00124015  1
  Al0+  Al61  1  0.24946851  0.24959767  0.33715770  1
  Al0+  Al62  1  0.25091903  0.24972929  0.66244498  1
  Al0+  Al63  1  0.24845015  0.75048065  0.00231243  1
  Al0+  Al64  1  0.25040224  0.74819797  0.33606785  1
  Al0+  Al65  1  0.24943410  0.74823110  0.66880691  1
  Al0+  Al66  1  0.74996391  0.25031313  0.00317917  1
  Al0+  Al67  1  0.75002500  0.24889996  0.33178389  1
  Al0+  Al68  1  0.74837186  0.24799333  0.67053569  1
  Al0+  Al69  1  0.75053349  0.75148495  0.00109125  1
  Al0+  Al70  1  0.74970720  0.74917269  0.32808196  1
  Al0+  Al71  1  0.75066358  0.74874043  0.66113640  1
  Al0+  Al72  1  0.68048575  0.92826165  0.01338989  1
  Al0+  Al73  1  0.17731687  0.92887392  0.01607320  1
  Al0+  Al74  1  0.17826342  0.93068986  0.34728230  1
  Al0+  Al75  1  0.92789102  0.31948359  0.65530295  1
  Al0+  Al76  1  0.07073697  0.18149856  0.98547737  1
  Al0+  Al77  1  0.07322508  0.67780169  0.65070309  1
  Al0+  Al78  1  0.42838648  0.32058125  0.65023677  1
  Al0+  Al79  1  0.92998112  0.82021951  0.98532772  1
  Al0+  Al80  1  0.67699307  0.42928923  0.68163218  1
  Al0+  Al81  1  0.42849991  0.82011882  0.31999470  1
  Al0+  Al82  1  0.43003076  0.32193418  0.98540668  1
  Al0+  Al83  1  0.93075086  0.82199287  0.31732706  1
  Al0+  Al84  1  0.17939451  0.43008214  0.01022602  1
  Al0+  Al85  1  0.57272334  0.17680021  0.98342408  1
  Al0+  Al86  1  0.67915026  0.42916519  0.01444632  1
  Al0+  Al87  1  0.32165490  0.07277159  0.68265398  1
  Al0+  Al88  1  0.57058052  0.67949769  0.65359836  1
  Al0+  Al89  1  0.82310803  0.57240999  0.68172211  1
  Al0+  Al90  1  0.17694691  0.42663888  0.35102196  1
  Al0+  Al91  1  0.17930349  0.92641164  0.68338954  1
  Al0+  Al92  1  0.32095118  0.07110723  0.01569174  1
  Al0+  Al93  1  0.93021215  0.82289734  0.65105350  1
  Al0+  Al94  1  0.82071374  0.07034799  0.68052098  1
  Al0+  Al95  1  0.32124450  0.56957063  0.35003857  1
  Si0+  Si96  1  0.92704165  0.32204137  0.31803387  1
  Si0+  Si97  1  0.42730681  0.82135716  0.98581174  1
  Si0+  Si98  1  0.42905383  0.31933043  0.31778831  1
  Si0+  Si99  1  0.17867651  0.42911012  0.68039724  1
  Si0+  Si100  1  0.32533503  0.07126596  0.35021055  1
  Si0+  Si101  1  0.82158036  0.57317069  0.01867066  1
  Si0+  Si102  1  0.07271819  0.67640630  0.98518180  1
  Si0+  Si103  1  0.67755190  0.92669485  0.68048030  1
  Si0+  Si104  1  0.67835388  0.92772606  0.34793452  1
  Si0+  Si105  1  0.07194043  0.67635206  0.31486642  1
  Si0+  Si106  1  0.92721139  0.32527583  0.98537733  1
  Si0+  Si107  1  0.57196277  0.67631310  0.31424426  1
  Si0+  Si108  1  0.32164899  0.56979614  0.68152165  1
  Si0+  Si109  1  0.57210141  0.17648114  0.64905069  1
  Si0+  Si110  1  0.07210051  0.17878023  0.64804799  1
  Si0+  Si111  1  0.57094158  0.68029654  0.98594465  1
  Si0+  Si112  1  0.32432882  0.57378516  0.01565833  1
  Si0+  Si113  1  0.81994512  0.07025704  0.34701849  1
  Si0+  Si114  1  0.06988503  0.18109121  0.31968509  1
  Si0+  Si115  1  0.57321687  0.17907998  0.31803822  1
  Si0+  Si116  1  0.82281331  0.07280747  0.01810007  1
  Si0+  Si117  1  0.42853817  0.82307385  0.65295602  1
  Si0+  Si118  1  0.68075600  0.42695061  0.34875544  1
  Si0+  Si119  1  0.81851159  0.57232200  0.34836063  1
  O2-  O120  1  0.25184846  -0.00259091  0.06761618  1
  O2-  O121  1  0.25803407  0.00088228  0.39327534  1
  O2-  O122  1  0.25103656  -0.00043096  0.73134088  1
  O2-  O123  1  0.25460188  0.50451340  0.05690616  1
  O2-  O124  1  0.24775929  0.49959890  0.40133624  1
  O2-  O125  1  0.24959774  0.49994688  0.72312659  1
  O2-  O126  1  0.75353570  0.00419300  0.06212513  1
  O2-  O127  1  0.75089432  -0.00282574  0.38952710  1
  O2-  O128  1  0.74757148  -0.00663721  0.72485562  1
  O2-  O129  1  0.75568016  0.50132262  0.06333560  1
  O2-  O130  1  0.74911045  0.49981583  0.39079387  1
  O2-  O131  1  0.75145618  0.49936094  0.73076030  1
  O2-  O132  1  0.00352612  0.25706352  0.27668269  1
  O2-  O133  1  0.00163729  0.24609364  0.60363917  1
  O2-  O134  1  -0.00343909  0.25826069  0.94107144  1
  O2-  O135  1  0.00728320  0.74889622  0.27014838  1
  O2-  O136  1  0.00343349  0.75215124  0.60074558  1
  O2-  O137  1  0.00717699  0.74750857  0.94125788  1
  O2-  O138  1  0.49833224  0.24628787  0.27666454  1
  O2-  O139  1  0.50283583  0.24455261  0.60397212  1
  O2-  O140  1  0.50226846  0.25055962  0.93446083  1
  O2-  O141  1  0.50180570  0.74397274  0.27095875  1
  O2-  O142  1  0.49811697  0.75625423  0.60701850  1
  O2-  O143  1  0.49807466  0.74958776  0.94395640  1
  O2-  O144  1  0.06888189  0.18244925  0.09961614  1
  O2-  O145  1  0.06575445  0.18002354  0.42444353  1
  O2-  O146  1  0.07310675  0.18199260  0.75350238  1
  O2-  O147  1  0.07055010  0.67283174  0.09075918  1
  O2-  O148  1  0.06801373  0.67453511  0.42002639  1
  O2-  O149  1  0.07251787  0.67647853  0.76446748  1
  O2-  O150  1  0.57079735  0.17976419  0.09837202  1
  O2-  O151  1  0.57823512  0.18091212  0.42286199  1
  O2-  O152  1  0.57311248  0.17534026  0.75376766  1
  O2-  O153  1  0.57117303  0.68067808  0.09129720  1
  O2-  O154  1  0.57426164  0.67787586  0.41962232  1
  O2-  O155  1  0.56798753  0.67958530  0.76712867  1
  O2-  O156  1  0.17963689  0.42502625  0.23725707  1
  O2-  O157  1  0.18010574  0.42918469  0.57528818  1
  O2-  O158  1  0.17789513  0.43226583  0.89710346  1
  O2-  O159  1  0.17646913  0.93632095  0.23456087  1
  O2-  O160  1  0.18096950  0.92737712  0.56901608  1
  O2-  O161  1  0.17931753  0.92802915  0.90328030  1
  O2-  O162  1  0.68264177  0.42598221  0.24351114  1
  O2-  O163  1  0.67847089  0.43122152  0.56692972  1
  O2-  O164  1  0.67766751  0.43254001  0.90227863  1
  O2-  O165  1  0.67709877  0.92939471  0.24300061  1
  O2-  O166  1  0.67562687  0.92954172  0.57419682  1
  O2-  O167  1  0.68327819  0.92487586  0.90063465  1
  O2-  O168  1  0.43090710  0.32191732  0.09990432  1
  O2-  O169  1  0.43067356  0.31960470  0.42286230  1
  O2-  O170  1  0.42779596  0.32329577  0.76257519  1
  O2-  O171  1  0.42783364  0.81902427  0.09120069  1
  O2-  O172  1  0.43391241  0.82163438  0.43296740  1
  O2-  O173  1  0.43029727  0.82061201  0.75874242  1
  O2-  O174  1  0.92767321  0.32282556  0.09193743  1
  O2-  O175  1  0.92196510  0.31916277  0.42279371  1
  O2-  O176  1  0.93089715  0.31844942  0.76821105  1
  O2-  O177  1  0.92954089  0.81809631  0.09910002  1
  O2-  O178  1  0.92919440  0.82194860  0.42963399  1
  O2-  O179  1  0.92926885  0.82114372  0.76443461  1
  O2-  O180  1  0.32582061  0.07286758  0.24492785  1
  O2-  O181  1  0.31974995  0.07071278  0.56813169  1
  O2-  O182  1  0.31894948  0.07026164  0.90268204  1
  O2-  O183  1  0.32099653  0.56601207  0.23611424  1
  O2-  O184  1  0.32269624  0.56914097  0.57662624  1
  O2-  O185  1  0.32673716  0.57511399  0.90999668  1
  O2-  O186  1  0.81878845  0.07289962  0.24230311  1
  O2-  O187  1  0.81780560  0.07106257  0.56629283  1
  O2-  O188  1  0.82267387  0.07268918  0.91278047  1
  O2-  O189  1  0.81663345  0.57138058  0.24303086  1
  O2-  O190  1  0.82012265  0.57117530  0.56725580  1
  O2-  O191  1  0.82114294  0.57382815  0.91376389  1
  O2-  O192  1  0.03628915  0.09252274  0.26968937  1
  O2-  O193  1  0.04551505  0.08493085  0.60392917  1
  O2-  O194  1  0.03785466  0.08745687  0.92902521  1
  O2-  O195  1  0.04063026  0.58360133  0.26796927  1
  O2-  O196  1  0.04453821  0.58056543  0.59510882  1
  O2-  O197  1  0.04415741  0.58354048  0.93845395  1
  O2-  O198  1  0.55013840  0.08537313  0.27233662  1
  O2-  O199  1  0.54649949  0.08279576  0.60080746  1
  O2-  O200  1  0.54847333  0.07683400  0.93256739  1
  O2-  O201  1  0.54786248  0.58095305  0.27007524  1
  O2-  O202  1  0.53708391  0.58573428  0.59583404  1
  O2-  O203  1  0.54419751  0.58854132  0.93873808  1
  O2-  O204  1  0.16378426  0.20456302  0.27381847  1
  O2-  O205  1  0.16401598  0.20590795  0.59966401  1
  O2-  O206  1  0.16578112  0.21278024  0.93048823  1
  O2-  O207  1  0.16816036  0.69512751  0.27265762  1
  O2-  O208  1  0.17327639  0.70328964  0.59836109  1
  O2-  O209  1  0.16809828  0.69705226  0.94027747  1
  O2-  O210  1  0.66311309  0.21038057  0.26794977  1
  O2-  O211  1  0.66498305  0.20306350  0.60132769  1
  O2-  O212  1  0.67364384  0.20296424  0.93556865  1
  O2-  O213  1  0.66407772  0.70360248  0.26571751  1
  O2-  O214  1  0.66582809  0.70789232  0.59579730  1
  O2-  O215  1  0.66175050  0.71023458  0.93885523  1
  O2-  O216  1  0.08351480  0.45895746  0.06900909  1
  O2-  O217  1  0.07547647  0.45219765  0.39921986  1
  O2-  O218  1  0.08703721  0.45616177  0.72718170  1
  O2-  O219  1  0.07927458  0.96367084  0.06637760  1
  O2-  O220  1  0.08329367  0.96715234  0.40171547  1
  O2-  O221  1  0.08131242  0.95586184  0.73445933  1
  O2-  O222  1  0.58465596  0.46382186  0.07172962  1
  O2-  O223  1  0.58737046  0.45108666  0.39372417  1
  O2-  O224  1  0.57900088  0.46246097  0.73194116  1
  O2-  O225  1  0.58442904  0.95767046  0.07003148  1
  O2-  O226  1  0.58790336  0.95730871  0.39714237  1
  O2-  O227  1  0.58451540  0.95206472  0.72749180  1
  O2-  O228  1  0.21048224  0.33497372  0.06626591  1
  O2-  O229  1  0.20589803  0.32857727  0.40479028  1
  O2-  O230  1  0.20718070  0.33684077  0.72532753  1
  O2-  O231  1  0.20168935  0.82863011  0.06847599  1
  O2-  O232  1  0.20386093  0.83166283  0.39763768  1
  O2-  O233  1  0.20716369  0.82789914  0.73618633  1
  O2-  O234  1  0.70895957  0.33296125  0.07115648  1
  O2-  O235  1  0.71102548  0.33563010  0.39573343  1
  O2-  O236  1  0.70165248  0.33014959  0.73255201  1
  O2-  O237  1  0.71189262  0.83304167  0.07110105  1
  O2-  O238  1  0.70382148  0.83394336  0.39217278  1
  O2-  O239  1  0.70058418  0.83206116  0.72406621  1
  O2-  O240  1  0.45861101  0.41066119  0.27055415  1
  O2-  O241  1  0.46105923  0.41506159  0.59290482  1
  O2-  O242  1  0.45837384  0.42206404  0.93522964  1
  O2-  O243  1  0.46169471  0.91614368  0.26485183  1
  O2-  O244  1  0.45191925  0.91730496  0.60676518  1
  O2-  O245  1  0.45732551  0.91218107  0.93967820  1
  O2-  O246  1  0.94664757  0.41622135  0.27171851  1
  O2-  O247  1  0.95810819  0.41506561  0.59888986  1
  O2-  O248  1  0.95002925  0.42088541  0.94341775  1
  O2-  O249  1  0.95900047  0.92048691  0.26482661  1
  O2-  O250  1  0.95733687  0.92266897  0.59907252  1
  O2-  O251  1  0.95558722  0.91802993  0.93307715  1
  O2-  O252  1  0.33556102  0.29336617  0.27269351  1
  O2-  O253  1  0.33275187  0.28932329  0.59316567  1
  O2-  O254  1  0.33184022  0.29456043  0.93298628  1
  O2-  O255  1  0.33171365  0.78939350  0.26550312  1
  O2-  O256  1  0.33603694  0.79412692  0.60746988  1
  O2-  O257  1  0.33541705  0.79380328  0.93849911  1
  O2-  O258  1  0.83774415  0.28760807  0.26797187  1
  O2-  O259  1  0.83102599  0.28765893  0.60067477  1
  O2-  O260  1  0.83344176  0.29960292  0.94132706  1
  O2-  O261  1  0.83351131  0.78934411  0.26374511  1
  O2-  O262  1  0.83192166  0.79486819  0.59671046  1
  O2-  O263  1  0.83329693  0.78737575  0.93311947  1
  O2-  O264  1  0.42058656  0.04550004  0.06745117  1
  O2-  O265  1  0.42033202  0.04807398  0.39538977  1
  O2-  O266  1  0.42132522  0.04860697  0.73448938  1
  O2-  O267  1  0.41705671  0.55012637  0.06428916  1
  O2-  O268  1  0.42072514  0.53977923  0.40174607  1
  O2-  O269  1  0.41273105  0.53996482  0.72844106  1
  O2-  O270  1  0.91578652  0.04557958  0.06414516  1
  O2-  O271  1  0.91148489  0.04500438  0.39517209  1
  O2-  O272  1  0.91752245  0.04462526  0.73511498  1
  O2-  O273  1  0.91485543  0.55063285  0.06755551  1
  O2-  O274  1  0.91086672  0.54707053  0.39454095  1
  O2-  O275  1  0.92160366  0.54384479  0.73351801  1
  O2-  O276  1  0.28990867  0.16896509  0.06852047  1
  O2-  O277  1  0.29792962  0.16440535  0.39619182  1
  O2-  O278  1  0.29179113  0.17185211  0.73253797  1
  O2-  O279  1  0.29730686  0.66635660  0.06336512  1
  O2-  O280  1  0.29738022  0.66881830  0.40306468  1
  O2-  O281  1  0.29709885  0.66143009  0.73056349  1
  O2-  O282  1  0.79904799  0.16618226  0.06641833  1
  O2-  O283  1  0.78880458  0.16151474  0.39521405  1
  O2-  O284  1  0.78861439  0.16472013  0.73691888  1
  O2-  O285  1  0.78989309  0.66416425  0.06676218  1
  O2-  O286  1  0.78850257  0.66385704  0.39491046  1
  O2-  O287  1  0.79213197  0.67069011  0.73278784  1
