# generated using pymatgen
data_Ca2Al2SiO7
_symmetry_space_group_name_H-M   'P 1'
_cell_length_a   15.45917677
_cell_length_b   15.45969941
_cell_length_c   15.28456292
_cell_angle_alpha   89.99923604
_cell_angle_beta   90.00568574
_cell_angle_gamma   89.99025045
_symmetry_Int_Tables_number   1
_chemical_formula_structural   Ca2Al2SiO7
_chemical_formula_sum   'Ca48 Al48 Si24 O168'
_cell_volume   3652.92221330
_cell_formula_units_Z   24
loop_
 _symmetry_equiv_pos_site_id
 _symmetry_equiv_pos_as_xyz
  1  'x, y, z'
loop_
 _atom_type_symbol
 _atom_type_oxidation_number
  Ca2+  2.0
  Al0+  0.0
  Si0+  0.0
  O2-  -2.0
loop_
 _atom_site_type_symbol
 _atom_site_label
 _atom_site_symmetry_multiplicity
 _atom_site_fract_x
 _atom_site_fract_y
 _atom_site_fract_z
 _atom_site_occupancy
  Ca2+  Ca0  1  0.16569488  0.07732758  0.17037175  1
  Ca2+  Ca1  1  0.16420731  0.08456377  0.49985477  1
  Ca2+  Ca2  1  0.17083786  0.07577794  0.84362815  1
  Ca2+  Ca3  1  0.17039574  0.58597934  0.16822662  1
  Ca2+  Ca4  1  0.16258815  0.58159345  0.50713391  1
  Ca2+  Ca5  1  0.16848269  0.57463514  0.84197513  1
  Ca2+  Ca6  1  0.67287735  0.08126017  0.17628739  1
  Ca2+  Ca7  1  0.66565519  0.07419681  0.49837527  1
  Ca2+  Ca8  1  0.67014661  0.07883949  0.83940869  1
  Ca2+  Ca9  1  0.66764934  0.59236052  0.16859702  1
  Ca2+  Ca10  1  0.67353479  0.58129858  0.50781097  1
  Ca2+  Ca11  1  0.67346668  0.58272329  0.83948728  1
  Ca2+  Ca12  1  0.08030851  0.32938634  0.16772649  1
  Ca2+  Ca13  1  0.07700248  0.33047654  0.49189382  1
  Ca2+  Ca14  1  0.08784859  0.33776825  0.82913308  1
  Ca2+  Ca15  1  0.07380017  0.83394022  0.16252033  1
  Ca2+  Ca16  1  0.07481108  0.81957331  0.49099869  1
  Ca2+  Ca17  1  0.07757425  0.82906941  0.83148620  1
  Ca2+  Ca18  1  0.59161652  0.31868635  0.16206294  1
  Ca2+  Ca19  1  0.58077602  0.33385034  0.49500011  1
  Ca2+  Ca20  1  0.58194731  0.33042202  0.82787473  1
  Ca2+  Ca21  1  0.57701923  0.83038419  0.16126985  1
  Ca2+  Ca22  1  0.58463941  0.83230101  0.48988318  1
  Ca2+  Ca23  1  0.58340690  0.82905219  0.83423628  1
  Ca2+  Ca24  1  0.33110382  0.42225680  0.16576362  1
  Ca2+  Ca25  1  0.32709644  0.41694035  0.50922297  1
  Ca2+  Ca26  1  0.32464331  0.41763209  0.84081073  1
  Ca2+  Ca27  1  0.32984167  0.90349800  0.16845285  1
  Ca2+  Ca28  1  0.33700147  0.91747324  0.49985858  1
  Ca2+  Ca29  1  0.32529273  0.91086694  0.84268256  1
  Ca2+  Ca30  1  0.83673347  0.42364778  0.16932195  1
  Ca2+  Ca31  1  0.82932238  0.42019057  0.50684049  1
  Ca2+  Ca32  1  0.83187242  0.43137843  0.83581059  1
  Ca2+  Ca33  1  0.83410773  0.92433065  0.17541471  1
  Ca2+  Ca34  1  0.82343874  0.91294878  0.49799510  1
  Ca2+  Ca35  1  0.82911464  0.91932302  0.84164238  1
  Ca2+  Ca36  1  0.43245223  0.16253157  0.16236734  1
  Ca2+  Ca37  1  0.42253328  0.17558161  0.49514627  1
  Ca2+  Ca38  1  0.42296890  0.17183546  0.82951871  1
  Ca2+  Ca39  1  0.42642527  0.67260890  0.16037983  1
  Ca2+  Ca40  1  0.42668027  0.67410275  0.48897339  1
  Ca2+  Ca41  1  0.41578357  0.66500501  0.83707546  1
  Ca2+  Ca42  1  0.90966906  0.16958101  0.16389404  1
  Ca2+  Ca43  1  0.91820278  0.17442593  0.48708921  1
  Ca2+  Ca44  1  0.91616870  0.16609739  0.83406910  1
  Ca2+  Ca45  1  0.91375364  0.68069188  0.16149554  1
  Ca2+  Ca46  1  0.92465561  0.66396769  0.49394678  1
  Ca2+  Ca47  1  0.91628517  0.66546945  0.83056430  1
  Al0+  Al48  1  0.00035219  0.00080794  0.00232436  1
  Al0+  Al49  1  0.00232528  0.00074643  0.33503588  1
  Al0+  Al50  1  0.00044676  -0.00092193  0.66507384  1
  Al0+  Al51  1  -0.00242309  0.49878765  0.00899751  1
  Al0+  Al52  1  0.00155809  0.49784588  0.32628590  1
  Al0+  Al53  1  0.00098948  0.49913577  0.67027624  1
  Al0+  Al54  1  0.49946972  -0.00007985  -0.01100651  1
  Al0+  Al55  1  0.49794643  0.00184448  0.33104073  1
  Al0+  Al56  1  0.50072283  0.00086078  0.67128372  1
  Al0+  Al57  1  0.49925280  0.49750518  0.00061175  1
  Al0+  Al58  1  0.49836270  0.50189700  0.33178035  1
  Al0+  Al59  1  0.49925834  0.50017431  0.66470230  1
  Al0+  Al60  1  0.24950254  0.24820974  0.00566637  1
  Al0+  Al61  1  0.24859593  0.25070856  0.33066150  1
  Al0+  Al62  1  0.25223539  0.24983583  0.66648699  1
  Al0+  Al63  1  0.24900503  0.74781191  0.00462351  1
  Al0+  Al64  1  0.25067959  0.74889680  0.33145489  1
  Al0+  Al65  1  0.24950375  0.75070272  0.66138168  1
  Al0+  Al66  1  0.75176097  0.25029477  -0.00506874  1
  Al0+  Al67  1  0.74990710  0.25189469  0.33114864  1
  Al0+  Al68  1  0.75067353  0.24803897  0.66907555  1
  Al0+  Al69  1  0.74919825  0.75097487  -0.00477018  1
  Al0+  Al70  1  0.75183302  0.74959235  0.33268958  1
  Al0+  Al71  1  0.74967748  0.75311184  0.67414736  1
  Al0+  Al72  1  0.57351416  0.17904532  0.98352401  1
  Al0+  Al73  1  0.06945445  0.67864237  0.65543496  1
  Al0+  Al74  1  0.42995594  0.82294591  0.31977261  1
  Al0+  Al75  1  0.07224320  0.17832362  0.31801657  1
  Al0+  Al76  1  0.92905060  0.82060586  0.31983317  1
  Al0+  Al77  1  0.67793146  0.93032561  0.68276004  1
  Al0+  Al78  1  0.82274815  0.07337928  0.34940338  1
  Al0+  Al79  1  0.17718376  0.42633092  0.01933160  1
  Al0+  Al80  1  0.57122923  0.67708146  0.98223590  1
  Al0+  Al81  1  0.82134402  0.57077517  0.68060884  1
  Al0+  Al82  1  0.07199231  0.67687563  0.31662171  1
  Al0+  Al83  1  0.92728154  0.32035547  0.31758669  1
  Al0+  Al84  1  0.42964302  0.32157400  0.65354943  1
  Al0+  Al85  1  0.81818622  0.57309839  0.01629216  1
  Al0+  Al86  1  0.32214652  0.57008346  0.01693686  1
  Al0+  Al87  1  0.81968452  0.07101342  0.01330854  1
  Al0+  Al88  1  0.67636459  0.42708803  0.68074132  1
  Al0+  Al89  1  0.17960501  0.92865019  0.01367754  1
  Al0+  Al90  1  0.92994038  0.82333550  0.98503860  1
  Al0+  Al91  1  0.18091445  0.42903460  0.67847236  1
  Al0+  Al92  1  0.57304956  0.67798074  0.32032886  1
  Al0+  Al93  1  0.56949819  0.18156018  0.32191932  1
  Al0+  Al94  1  0.42654685  0.81921626  0.98259574  1
  Al0+  Al95  1  0.67805029  0.92888544  0.34590741  1
  Si0+  Si96  1  0.57237181  0.68037421  0.65248960  1
  Si0+  Si97  1  0.06947329  0.67657156  0.98423866  1
  Si0+  Si98  1  0.32216769  0.57463972  0.68102874  1
  Si0+  Si99  1  0.32078368  0.57132633  0.35107357  1
  Si0+  Si100  1  0.93002236  0.32240383  0.98182464  1
  Si0+  Si101  1  0.42879509  0.82209011  0.65144732  1
  Si0+  Si102  1  0.17963445  0.92731685  0.35083924  1
  Si0+  Si103  1  0.67842174  0.42744694  0.01620963  1
  Si0+  Si104  1  0.82465683  0.07156381  0.68336171  1
  Si0+  Si105  1  0.32032510  0.07309402  0.34910873  1
  Si0+  Si106  1  0.93002923  0.31954327  0.65440389  1
  Si0+  Si107  1  0.07242565  0.17740813  0.65379670  1
  Si0+  Si108  1  0.67746589  0.42942941  0.34653751  1
  Si0+  Si109  1  0.82226990  0.57018416  0.34701034  1
  Si0+  Si110  1  0.42641120  0.32378370  0.31580100  1
  Si0+  Si111  1  0.57273036  0.17747365  0.64872850  1
  Si0+  Si112  1  0.42674557  0.31950572  0.98417330  1
  Si0+  Si113  1  0.07141066  0.17994662  0.98444837  1
  Si0+  Si114  1  0.17940576  0.92856799  0.67974274  1
  Si0+  Si115  1  0.32025500  0.07080407  0.68149267  1
  Si0+  Si116  1  0.67642057  0.92930238  0.01599688  1
  Si0+  Si117  1  0.92678644  0.82390233  0.64962203  1
  Si0+  Si118  1  0.17995695  0.42894402  0.35008929  1
  Si0+  Si119  1  0.32340131  0.07093562  0.01664161  1
  O2-  O120  1  0.25901609  -0.00146343  0.06087655  1
  O2-  O121  1  0.25009261  0.00068323  0.39209009  1
  O2-  O122  1  0.24986813  -0.00075908  0.72333564  1
  O2-  O123  1  0.24837673  0.49971149  0.06788986  1
  O2-  O124  1  0.24932512  0.50077852  0.39382623  1
  O2-  O125  1  0.25481477  0.50438400  0.72471964  1
  O2-  O126  1  0.74444465  -0.00191727  0.06035130  1
  O2-  O127  1  0.75116480  -0.00015299  0.39808869  1
  O2-  O128  1  0.75546363  0.00340580  0.72693439  1
  O2-  O129  1  0.74053382  0.50087955  0.06241552  1
  O2-  O130  1  0.74863175  0.50085986  0.38850335  1
  O2-  O131  1  0.74618023  0.50127895  0.73039660  1
  O2-  O132  1  -0.00497748  0.24391199  0.26754471  1
  O2-  O133  1  -0.00016841  0.24690151  0.61251205  1
  O2-  O134  1  0.00384366  0.25325548  0.94000353  1
  O2-  O135  1  0.00048747  0.74927101  0.26786837  1
  O2-  O136  1  -0.00730074  0.75112085  0.60816216  1
  O2-  O137  1  0.00191060  0.74544566  0.93814050  1
  O2-  O138  1  0.49706488  0.25721214  0.27243153  1
  O2-  O139  1  0.50838910  0.25120562  0.60570010  1
  O2-  O140  1  0.49710977  0.25322664  0.93871569  1
  O2-  O141  1  0.50439629  0.75337498  0.27161888  1
  O2-  O142  1  0.50084470  0.75160963  0.61053577  1
  O2-  O143  1  0.49802954  0.74777786  0.93085395  1
  O2-  O144  1  0.07082554  0.17949617  0.08881892  1
  O2-  O145  1  0.07550747  0.18427078  0.43256598  1
  O2-  O146  1  0.07308255  0.17555690  0.75894163  1
  O2-  O147  1  0.06752811  0.67869413  0.08947466  1
  O2-  O148  1  0.07031905  0.67624278  0.43114715  1
  O2-  O149  1  0.07216822  0.68139489  0.76822236  1
  O2-  O150  1  0.57325989  0.17998579  0.09677863  1
  O2-  O151  1  0.56638823  0.18331847  0.43527633  1
  O2-  O152  1  0.56975334  0.17683640  0.75425029  1
  O2-  O153  1  0.57126247  0.68029171  0.09546409  1
  O2-  O154  1  0.57026964  0.67486354  0.43485208  1
  O2-  O155  1  0.57109609  0.68011051  0.75701358  1
  O2-  O156  1  0.18288987  0.42734034  0.24568449  1
  O2-  O157  1  0.18082393  0.42801768  0.56528048  1
  O2-  O158  1  0.17937464  0.42592810  0.90492426  1
  O2-  O159  1  0.18092180  0.92716836  0.24610218  1
  O2-  O160  1  0.18035887  0.93009609  0.57473330  1
  O2-  O161  1  0.17937189  0.93235590  0.89940861  1
  O2-  O162  1  0.67695522  0.42839862  0.24178351  1
  O2-  O163  1  0.67908748  0.42784186  0.56645788  1
  O2-  O164  1  0.68194666  0.42646779  0.91049569  1
  O2-  O165  1  0.67590303  0.93129619  0.23290677  1
  O2-  O166  1  0.67499182  0.93066352  0.56980179  1
  O2-  O167  1  0.67887107  0.93196535  0.90979127  1
  O2-  O168  1  0.42676117  0.31666740  0.08977155  1
  O2-  O169  1  0.42590568  0.32256833  0.42196369  1
  O2-  O170  1  0.42553707  0.31569407  0.76614031  1
  O2-  O171  1  0.42918911  0.82020016  0.09563221  1
  O2-  O172  1  0.42975078  0.82088595  0.43452492  1
  O2-  O173  1  0.42467313  0.82123726  0.75581669  1
  O2-  O174  1  0.92756046  0.32032226  0.08637898  1
  O2-  O175  1  0.93001936  0.32344474  0.43218102  1
  O2-  O176  1  0.93178052  0.31884402  0.75953190  1
  O2-  O177  1  0.93178138  0.82501941  0.09761011  1
  O2-  O178  1  0.92947616  0.81610620  0.43408248  1
  O2-  O179  1  0.93078477  0.82899315  0.75503498  1
  O2-  O180  1  0.32006126  0.07552594  0.24463179  1
  O2-  O181  1  0.32015744  0.07083476  0.57618270  1
  O2-  O182  1  0.31808608  0.07438447  0.91046499  1
  O2-  O183  1  0.32200003  0.56941887  0.24674172  1
  O2-  O184  1  0.32061786  0.57479402  0.57516731  1
  O2-  O185  1  0.31950831  0.56779764  0.90246373  1
  O2-  O186  1  0.81897540  0.07358153  0.23589670  1
  O2-  O187  1  0.82683935  0.07301150  0.57832849  1
  O2-  O188  1  0.81986803  0.07025876  0.89952478  1
  O2-  O189  1  0.82126961  0.56953677  0.24223608  1
  O2-  O190  1  0.82187264  0.56797592  0.56636813  1
  O2-  O191  1  0.82087603  0.56914003  0.90310612  1
  O2-  O192  1  0.05521923  0.07659231  0.26984833  1
  O2-  O193  1  0.04735826  0.08518511  0.60507606  1
  O2-  O194  1  0.04094679  0.08969304  0.93514180  1
  O2-  O195  1  0.04830663  0.57846658  0.26421295  1
  O2-  O196  1  0.04030275  0.58106547  0.60132704  1
  O2-  O197  1  0.04217425  0.58169222  0.94114850  1
  O2-  O198  1  0.53602305  0.08741114  0.26637113  1
  O2-  O199  1  0.53935329  0.08565958  0.60332289  1
  O2-  O200  1  0.54223485  0.08459238  0.92601998  1
  O2-  O201  1  0.54097696  0.58134248  0.26580834  1
  O2-  O202  1  0.54633527  0.58818993  0.60469996  1
  O2-  O203  1  0.54466420  0.57614510  0.93226571  1
  O2-  O204  1  0.16827453  0.21157292  0.26289904  1
  O2-  O205  1  0.16368437  0.20567211  0.60589614  1
  O2-  O206  1  0.16500532  0.20470665  0.93780561  1
  O2-  O207  1  0.17040379  0.70570113  0.26626038  1
  O2-  O208  1  0.16480843  0.71102553  0.59807380  1
  O2-  O209  1  0.16403879  0.70044786  0.94026414  1
  O2-  O210  1  0.66491049  0.21190748  0.26688733  1
  O2-  O211  1  0.66895286  0.19661903  0.60586000  1
  O2-  O212  1  0.66837267  0.21232265  0.92726773  1
  O2-  O213  1  0.67245275  0.70044453  0.26972733  1
  O2-  O214  1  0.66484469  0.70944603  0.60684142  1
  O2-  O215  1  0.66828728  0.70774304  0.92752197  1
  O2-  O216  1  0.07854298  0.45152106  0.07150198  1
  O2-  O217  1  0.08634990  0.45519126  0.39532289  1
  O2-  O218  1  0.08521789  0.45744337  0.73450129  1
  O2-  O219  1  0.08658997  0.96648778  0.06873392  1
  O2-  O220  1  0.08900265  0.95441475  0.40108603  1
  O2-  O221  1  0.08738301  0.95594757  0.72712386  1
  O2-  O222  1  0.58217656  0.44230398  0.05972643  1
  O2-  O223  1  0.58463775  0.45605935  0.39410770  1
  O2-  O224  1  0.57612329  0.45144634  0.73163074  1
  O2-  O225  1  0.58085315  0.95479018  0.05664718  1
  O2-  O226  1  0.57919220  0.96002241  0.39936385  1
  O2-  O227  1  0.58249711  0.96277905  0.73865316  1
  O2-  O228  1  0.20704788  0.32804318  0.07210745  1
  O2-  O229  1  0.20910257  0.33706522  0.39783699  1
  O2-  O230  1  0.21200809  0.33221489  0.73295246  1
  O2-  O231  1  0.20455036  0.83166565  0.06816903  1
  O2-  O232  1  0.21001975  0.83606480  0.39913039  1
  O2-  O233  1  0.20871782  0.83717203  0.72682824  1
  O2-  O234  1  0.71246950  0.33605637  0.06168705  1
  O2-  O235  1  0.70522892  0.33873038  0.39590173  1
  O2-  O236  1  0.70470805  0.32818603  0.73289746  1
  O2-  O237  1  0.70068204  0.83482720  0.05827783  1
  O2-  O238  1  0.70746507  0.83010961  0.40069337  1
  O2-  O239  1  0.70634691  0.83489019  0.73933903  1
  O2-  O240  1  0.44968243  0.41782187  0.27134500  1
  O2-  O241  1  0.45341169  0.41961940  0.59776601  1
  O2-  O242  1  0.44893176  0.41348166  0.93833218  1
  O2-  O243  1  0.44954205  0.92259944  0.26703679  1
  O2-  O244  1  0.45609724  0.91565944  0.60685246  1
  O2-  O245  1  0.45094138  0.91824745  0.92764907  1
  O2-  O246  1  0.96088662  0.41508999  0.26153768  1
  O2-  O247  1  0.95923181  0.41041620  0.60644230  1
  O2-  O248  1  0.95749157  0.41522085  0.93632202  1
  O2-  O249  1  0.95755788  0.91982320  0.27047858  1
  O2-  O250  1  0.95681228  0.91543349  0.60108661  1
  O2-  O251  1  0.96508623  0.91878889  0.93019170  1
  O2-  O252  1  0.33421263  0.29611440  0.27003944  1
  O2-  O253  1  0.33511269  0.28487140  0.59674409  1
  O2-  O254  1  0.33327088  0.29012511  0.93873545  1
  O2-  O255  1  0.33277801  0.79120579  0.26833385  1
  O2-  O256  1  0.33760332  0.79563427  0.60125368  1
  O2-  O257  1  0.32649914  0.78987396  0.93148354  1
  O2-  O258  1  0.82844046  0.29819066  0.26360260  1
  O2-  O259  1  0.83765407  0.29316591  0.60691751  1
  O2-  O260  1  0.84057828  0.29182532  0.93156848  1
  O2-  O261  1  0.83170049  0.79345393  0.26573987  1
  O2-  O262  1  0.83084861  0.80175356  0.60770295  1
  O2-  O263  1  0.83310414  0.79503543  0.93100641  1
  O2-  O264  1  0.41975197  0.04906320  0.05734717  1
  O2-  O265  1  0.41111073  0.04587026  0.39922655  1
  O2-  O266  1  0.41169514  0.04506229  0.72992819  1
  O2-  O267  1  0.41989361  0.53875438  0.07045398  1
  O2-  O268  1  0.41261020  0.54268232  0.39957646  1
  O2-  O269  1  0.41623850  0.55113464  0.72583882  1
  O2-  O270  1  0.91665095  0.04268631  0.06626223  1
  O2-  O271  1  0.92351189  0.04984993  0.40095009  1
  O2-  O272  1  0.91885002  0.04575984  0.72984388  1
  O2-  O273  1  0.91231582  0.53896454  0.07182518  1
  O2-  O274  1  0.91430964  0.53847828  0.39260278  1
  O2-  O275  1  0.91725410  0.53776283  0.73599425  1
  O2-  O276  1  0.29491355  0.16178056  0.06574990  1
  O2-  O277  1  0.29024000  0.16461763  0.39787026  1
  O2-  O278  1  0.29060787  0.16100531  0.73050302  1
  O2-  O279  1  0.29476960  0.66784433  0.07066438  1
  O2-  O280  1  0.29363396  0.66338970  0.39901020  1
  O2-  O281  1  0.29518846  0.66827730  0.72636410  1
  O2-  O282  1  0.79072202  0.16956306  0.06384229  1
  O2-  O283  1  0.79220760  0.17258421  0.40116273  1
  O2-  O284  1  0.80017045  0.16490423  0.73080286  1
  O2-  O285  1  0.78921696  0.67132325  0.06733485  1
  O2-  O286  1  0.79794960  0.66179391  0.39619510  1
  O2-  O287  1  0.79782322  0.67017860  0.73275573  1
