# generated using pymatgen
data_Ca2Al2SiO7
_symmetry_space_group_name_H-M   'P 1'
_cell_length_a   15.46588470
_cell_length_b   15.46338577
_cell_length_c   15.28840187
_cell_angle_alpha   90.00735100
_cell_angle_beta   90.01495547
_cell_angle_gamma   90.00920227
_symmetry_Int_Tables_number   1
_chemical_formula_structural   Ca2Al2SiO7
_chemical_formula_sum   'Ca48 Al48 Si24 O168'
_cell_volume   3656.29664969
_cell_formula_units_Z   24
loop_
 _symmetry_equiv_pos_site_id
 _symmetry_equiv_pos_as_xyz
  1  'x, y, z'
loop_
 _atom_type_symbol
 _atom_type_oxidation_number
  Ca2+  2.0
  Al0+  0.0
  Si0+  0.0
  O2-  -2.0
loop_
 _atom_site_type_symbol
 _atom_site_label
 _atom_site_symmetry_multiplicity
 _atom_site_fract_x
 _atom_site_fract_y
 _atom_site_fract_z
 _atom_site_occupancy
  Ca2+  Ca0  1  0.17001720  0.07788699  0.17397332  1
  Ca2+  Ca1  1  0.17666904  0.08113452  0.50469230  1
  Ca2+  Ca2  1  0.17268477  0.07417732  0.83945672  1
  Ca2+  Ca3  1  0.17054353  0.57598339  0.16483584  1
  Ca2+  Ca4  1  0.16720981  0.57021848  0.50354320  1
  Ca2+  Ca5  1  0.17157164  0.57229607  0.84556110  1
  Ca2+  Ca6  1  0.65243069  0.07411848  0.16937994  1
  Ca2+  Ca7  1  0.65939331  0.08133900  0.49856256  1
  Ca2+  Ca8  1  0.66313050  0.07919521  0.84255767  1
  Ca2+  Ca9  1  0.67760187  0.59393350  0.16802582  1
  Ca2+  Ca10  1  0.67242734  0.57766515  0.50408909  1
  Ca2+  Ca11  1  0.66800910  0.58333442  0.84155019  1
  Ca2+  Ca12  1  0.09356532  0.32510254  0.16183955  1
  Ca2+  Ca13  1  0.09003050  0.32993731  0.49190134  1
  Ca2+  Ca14  1  0.09476781  0.32831128  0.83315987  1
  Ca2+  Ca15  1  0.08677398  0.82942784  0.15600750  1
  Ca2+  Ca16  1  0.08683623  0.83753080  0.49552410  1
  Ca2+  Ca17  1  0.09699535  0.82605195  0.83245545  1
  Ca2+  Ca18  1  0.57750810  0.31909850  0.15624129  1
  Ca2+  Ca19  1  0.57761981  0.32941060  0.49557281  1
  Ca2+  Ca20  1  0.57085417  0.33774070  0.82807222  1
  Ca2+  Ca21  1  0.57784103  0.83414407  0.15496943  1
  Ca2+  Ca22  1  0.57532867  0.84015968  0.49592618  1
  Ca2+  Ca23  1  0.57255019  0.83048675  0.83652494  1
  Ca2+  Ca24  1  0.32933560  0.41475249  0.16338042  1
  Ca2+  Ca25  1  0.32392060  0.40997004  0.50578133  1
  Ca2+  Ca26  1  0.32971837  0.41550407  0.84121590  1
  Ca2+  Ca27  1  0.32516705  0.91888524  0.17085622  1
  Ca2+  Ca28  1  0.32780111  0.92904429  0.50618509  1
  Ca2+  Ca29  1  0.33431737  0.91893085  0.83796618  1
  Ca2+  Ca30  1  0.83558312  0.42850299  0.16787472  1
  Ca2+  Ca31  1  0.82773746  0.42040710  0.50375192  1
  Ca2+  Ca32  1  0.82380955  0.41999092  0.83939070  1
  Ca2+  Ca33  1  0.81895132  0.91548743  0.16791745  1
  Ca2+  Ca34  1  0.82593628  0.91869258  0.49956751  1
  Ca2+  Ca35  1  0.82462873  0.91736446  0.84135105  1
  Ca2+  Ca36  1  0.41995356  0.16761002  0.16215757  1
  Ca2+  Ca37  1  0.41172634  0.16775282  0.49650849  1
  Ca2+  Ca38  1  0.41552470  0.17588665  0.83288452  1
  Ca2+  Ca39  1  0.42016433  0.67396405  0.15200297  1
  Ca2+  Ca40  1  0.41481571  0.67498142  0.50007936  1
  Ca2+  Ca41  1  0.40498318  0.67909831  0.83404048  1
  Ca2+  Ca42  1  0.93206285  0.16444609  0.16148978  1
  Ca2+  Ca43  1  0.92673325  0.17046197  0.49125830  1
  Ca2+  Ca44  1  0.92543042  0.16448929  0.83383220  1
  Ca2+  Ca45  1  0.91999108  0.66359409  0.15856555  1
  Ca2+  Ca46  1  0.91710289  0.66679453  0.49445487  1
  Ca2+  Ca47  1  0.92175702  0.66160653  0.83741781  1
  Al0+  Al48  1  -0.00133622  -0.00015596  -0.00166669  1
  Al0+  Al49  1  -0.00379807  -0.00097628  0.33059337  1
  Al0+  Al50  1  -0.00089238  -0.00178309  0.66783088  1
  Al0+  Al51  1  -0.00180065  0.49931863  0.00277061  1
  Al0+  Al52  1  -0.00027772  0.50214855  0.34167022  1
  Al0+  Al53  1  -0.00008135  0.49963222  0.66908496  1
  Al0+  Al54  1  0.49911936  0.00012017  -0.00391093  1
  Al0+  Al55  1  0.49757654  0.00026854  0.33795227  1
  Al0+  Al56  1  0.50059434  -0.00071286  0.66712938  1
  Al0+  Al57  1  0.50140328  0.49884085  -0.00061453  1
  Al0+  Al58  1  0.50079128  0.50219148  0.33237517  1
  Al0+  Al59  1  0.50068848  0.50006692  0.66296465  1
  Al0+  Al60  1  0.25029872  0.24753658  -0.00466279  1
  Al0+  Al61  1  0.24994499  0.25062827  0.33504051  1
  Al0+  Al62  1  0.25213937  0.24773169  0.66978337  1
  Al0+  Al63  1  0.24878575  0.74833009  -0.00073980  1
  Al0+  Al64  1  0.24909394  0.74877573  0.33589695  1
  Al0+  Al65  1  0.24968303  0.74883970  0.65874809  1
  Al0+  Al66  1  0.75368680  0.24883581  -0.00158748  1
  Al0+  Al67  1  0.74971817  0.25090652  0.32674217  1
  Al0+  Al68  1  0.75187062  0.25117392  0.66967467  1
  Al0+  Al69  1  0.74925560  0.75191658  0.00282779  1
  Al0+  Al70  1  0.75062957  0.75101160  0.34390209  1
  Al0+  Al71  1  0.75293162  0.75043240  0.66515233  1
  Al0+  Al72  1  0.67888340  0.93155959  0.34787667  1
  Al0+  Al73  1  0.17784205  0.92816690  0.68230908  1
  Al0+  Al74  1  0.31938985  0.07063893  0.34747182  1
  Al0+  Al75  1  0.18233352  0.43131646  0.34639560  1
  Al0+  Al76  1  0.67876238  0.42965118  0.67959717  1
  Al0+  Al77  1  0.42665819  0.81989580  0.98637470  1
  Al0+  Al78  1  0.17945317  0.42871300  0.68107498  1
  Al0+  Al79  1  0.32357736  0.57114554  0.01383791  1
  Al0+  Al80  1  0.81796546  0.57015432  0.01302292  1
  Al0+  Al81  1  0.06982672  0.67801515  0.98747599  1
  Al0+  Al82  1  0.17837990  0.92827053  0.01292454  1
  Al0+  Al83  1  0.57245067  0.17781249  0.98425222  1
  Al0+  Al84  1  0.56986492  0.17885605  0.32009308  1
  Al0+  Al85  1  0.42890597  0.32091993  0.65072854  1
  Al0+  Al86  1  0.17558588  0.92672141  0.34691013  1
  Al0+  Al87  1  0.81988836  0.57026364  0.34894629  1
  Al0+  Al88  1  0.07093784  0.17971223  0.32063568  1
  Al0+  Al89  1  0.42945294  0.82149469  0.64978754  1
  Al0+  Al90  1  0.32320170  0.07019723  0.68560558  1
  Al0+  Al91  1  0.57411143  0.67891620  0.98733811  1
  Al0+  Al92  1  0.07114982  0.17765949  0.98487189  1
  Al0+  Al93  1  0.42956835  0.32106283  0.98525843  1
  Al0+  Al94  1  0.67850565  0.93291719  0.01201023  1
  Al0+  Al95  1  0.17952978  0.42658243  0.01536428  1
  Si0+  Si96  1  0.32202262  0.57217834  0.68082121  1
  Si0+  Si97  1  0.92762161  0.82126929  0.98356499  1
  Si0+  Si98  1  0.92761713  0.82140834  0.64942128  1
  Si0+  Si99  1  0.32541447  0.57398052  0.35124064  1
  Si0+  Si100  1  0.82245067  0.07440901  0.34870458  1
  Si0+  Si101  1  0.57505656  0.17917910  0.65029168  1
  Si0+  Si102  1  0.57539554  0.67926401  0.64780828  1
  Si0+  Si103  1  0.67683141  0.42598710  0.34806924  1
  Si0+  Si104  1  0.06949452  0.17891926  0.65196657  1
  Si0+  Si105  1  0.06953339  0.67920653  0.31900776  1
  Si0+  Si106  1  0.67733066  0.42449230  0.01759999  1
  Si0+  Si107  1  0.06937596  0.67765598  0.64986586  1
  Si0+  Si108  1  0.92906724  0.32301323  0.98219879  1
  Si0+  Si109  1  0.92828262  0.32152536  0.65141155  1
  Si0+  Si110  1  0.82189977  0.57283272  0.68500209  1
  Si0+  Si111  1  0.42919172  0.81929491  0.31913737  1
  Si0+  Si112  1  0.92833598  0.32519477  0.31700210  1
  Si0+  Si113  1  0.57289788  0.68010719  0.32042011  1
  Si0+  Si114  1  0.42732905  0.32436519  0.31663119  1
  Si0+  Si115  1  0.82372957  0.07372770  0.01785199  1
  Si0+  Si116  1  0.32107974  0.07076025  0.01688256  1
  Si0+  Si117  1  0.92626654  0.82024353  0.31809783  1
  Si0+  Si118  1  0.67996201  0.92872011  0.68202605  1
  Si0+  Si119  1  0.82166551  0.07121427  0.68083758  1
  O2-  O120  1  0.25185327  0.00255628  0.06081417  1
  O2-  O121  1  0.24461726  0.00076923  0.39706299  1
  O2-  O122  1  0.25188816  -0.00368423  0.73372333  1
  O2-  O123  1  0.25260098  0.49814145  0.06426491  1
  O2-  O124  1  0.25969019  0.50227996  0.39490234  1
  O2-  O125  1  0.25594908  0.50174985  0.72545793  1
  O2-  O126  1  0.74923339  0.01081581  0.06052611  1
  O2-  O127  1  0.75053267  0.00986676  0.39458798  1
  O2-  O128  1  0.74785965  0.00319842  0.72295963  1
  O2-  O129  1  0.74178038  0.49770334  0.06155857  1
  O2-  O130  1  0.74549465  0.49449590  0.39344480  1
  O2-  O131  1  0.75058725  0.50677339  0.72724071  1
  O2-  O132  1  -0.00383347  0.25536307  0.27387812  1
  O2-  O133  1  0.00208747  0.25362512  0.60881805  1
  O2-  O134  1  -0.00132491  0.25506502  0.93791752  1
  O2-  O135  1  0.00247573  0.75445465  0.27715043  1
  O2-  O136  1  0.00031813  0.75150409  0.60812310  1
  O2-  O137  1  -0.00132743  0.75560131  0.93855632  1
  O2-  O138  1  0.49821396  0.25680047  0.27474051  1
  O2-  O139  1  0.50474730  0.24585766  0.60559036  1
  O2-  O140  1  0.50571887  0.25367174  0.93394959  1
  O2-  O141  1  0.49915929  0.74712740  0.27746326  1
  O2-  O142  1  0.50678081  0.74805486  0.60315495  1
  O2-  O143  1  0.49596948  0.74381607  0.93708683  1
  O2-  O144  1  0.06971634  0.17695722  0.09809606  1
  O2-  O145  1  0.06859707  0.18173170  0.43443282  1
  O2-  O146  1  0.06530533  0.17775825  0.75683241  1
  O2-  O147  1  0.06720932  0.67807760  0.10093677  1
  O2-  O148  1  0.06678633  0.67820078  0.42454312  1
  O2-  O149  1  0.06749504  0.67610623  0.75463201  1
  O2-  O150  1  0.56836266  0.17688543  0.09805985  1
  O2-  O151  1  0.57097989  0.18134485  0.43343318  1
  O2-  O152  1  0.57857453  0.18112315  0.75526495  1
  O2-  O153  1  0.57680764  0.68612855  0.10144437  1
  O2-  O154  1  0.57224905  0.68043563  0.42571732  1
  O2-  O155  1  0.58009092  0.68136182  0.75263217  1
  O2-  O156  1  0.18123872  0.43221556  0.23410687  1
  O2-  O157  1  0.17770057  0.43060327  0.56752297  1
  O2-  O158  1  0.18019992  0.42849473  0.90167659  1
  O2-  O159  1  0.17852862  0.92450562  0.23354156  1
  O2-  O160  1  0.17504434  0.93316028  0.56871495  1
  O2-  O161  1  0.17943418  0.92978297  0.90010697  1
  O2-  O162  1  0.67711387  0.42641560  0.24306002  1
  O2-  O163  1  0.68315451  0.42951395  0.56596597  1
  O2-  O164  1  0.68154244  0.42327873  0.91185389  1
  O2-  O165  1  0.67966669  0.92890098  0.23529158  1
  O2-  O166  1  0.68190507  0.92888106  0.57659112  1
  O2-  O167  1  0.68213595  0.93197760  0.89850964  1
  O2-  O168  1  0.42917307  0.31754684  0.09925125  1
  O2-  O169  1  0.42820528  0.32510786  0.42245200  1
  O2-  O170  1  0.42997423  0.32233207  0.76297867  1
  O2-  O171  1  0.42885556  0.82192720  0.10050609  1
  O2-  O172  1  0.43122932  0.81788451  0.42446581  1
  O2-  O173  1  0.42985209  0.81979686  0.76224707  1
  O2-  O174  1  0.92772093  0.32248307  0.08781308  1
  O2-  O175  1  0.92782844  0.32380689  0.42324103  1
  O2-  O176  1  0.92546414  0.31980868  0.75593403  1
  O2-  O177  1  0.92645025  0.81948444  0.08936691  1
  O2-  O178  1  0.92420037  0.81839955  0.42361848  1
  O2-  O179  1  0.92115308  0.82135877  0.75373720  1
  O2-  O180  1  0.32048419  0.06854247  0.23404291  1
  O2-  O181  1  0.32017008  0.07152884  0.57180637  1
  O2-  O182  1  0.32045242  0.07034248  0.91138407  1
  O2-  O183  1  0.32516178  0.57747532  0.24636911  1
  O2-  O184  1  0.31844102  0.57250792  0.57463812  1
  O2-  O185  1  0.31851198  0.57295473  0.90015118  1
  O2-  O186  1  0.82575197  0.07071642  0.24385745  1
  O2-  O187  1  0.82333691  0.06995829  0.57563916  1
  O2-  O188  1  0.82588354  0.07049200  0.91172215  1
  O2-  O189  1  0.81990692  0.57171328  0.23622759  1
  O2-  O190  1  0.82247068  0.57203470  0.57913285  1
  O2-  O191  1  0.81798735  0.56843376  0.89981841  1
  O2-  O192  1  0.03784141  0.08330242  0.26686853  1
  O2-  O193  1  0.03621655  0.08843590  0.60479402  1
  O2-  O194  1  0.03484382  0.08310987  0.92925372  1
  O2-  O195  1  0.03600078  0.58870796  0.27328653  1
  O2-  O196  1  0.03681749  0.58684779  0.60146503  1
  O2-  O197  1  0.03449222  0.58287190  0.93284047  1
  O2-  O198  1  0.53600879  0.08193755  0.26845981  1
  O2-  O199  1  0.55190686  0.08367754  0.60691078  1
  O2-  O200  1  0.54182371  0.08150405  0.92945289  1
  O2-  O201  1  0.55202195  0.58647405  0.27328141  1
  O2-  O202  1  0.54952354  0.58601303  0.60070690  1
  O2-  O203  1  0.55817468  0.57651255  0.93962973  1
  O2-  O204  1  0.16723169  0.21089742  0.26715464  1
  O2-  O205  1  0.16254055  0.20434776  0.60711912  1
  O2-  O206  1  0.16659850  0.20606388  0.92887378  1
  O2-  O207  1  0.16344989  0.70177126  0.27353342  1
  O2-  O208  1  0.16068088  0.70114571  0.59945383  1
  O2-  O209  1  0.16537550  0.70655103  0.93141413  1
  O2-  O210  1  0.66790403  0.20372870  0.26503431  1
  O2-  O211  1  0.66890318  0.20596539  0.60354744  1
  O2-  O212  1  0.67532078  0.19775312  0.93644958  1
  O2-  O213  1  0.66508540  0.71191727  0.27680583  1
  O2-  O214  1  0.66962307  0.70521279  0.60100086  1
  O2-  O215  1  0.66928077  0.71437872  0.93145854  1
  O2-  O216  1  0.08068114  0.45489449  0.06662248  1
  O2-  O217  1  0.08704115  0.46399812  0.40291805  1
  O2-  O218  1  0.08229186  0.45941723  0.73378613  1
  O2-  O219  1  0.07968088  0.95665738  0.06419181  1
  O2-  O220  1  0.07371811  0.94943087  0.39537397  1
  O2-  O221  1  0.07820147  0.95479622  0.73399495  1
  O2-  O222  1  0.58225730  0.44250580  0.06186719  1
  O2-  O223  1  0.58361376  0.45319773  0.39499634  1
  O2-  O224  1  0.58159305  0.45936979  0.73178704  1
  O2-  O225  1  0.58134203  0.96118125  0.06620617  1
  O2-  O226  1  0.58333430  0.96157262  0.40393226  1
  O2-  O227  1  0.58767383  0.95232200  0.72837009  1
  O2-  O228  1  0.20882754  0.32714327  0.06563479  1
  O2-  O229  1  0.21053262  0.33474604  0.40164993  1
  O2-  O230  1  0.20766603  0.33135517  0.73245602  1
  O2-  O231  1  0.20675312  0.83119640  0.06610826  1
  O2-  O232  1  0.20451353  0.82854367  0.40092713  1
  O2-  O233  1  0.20300501  0.82555585  0.72659793  1
  O2-  O234  1  0.70959651  0.33256764  0.06410285  1
  O2-  O235  1  0.70332622  0.33255391  0.39445057  1
  O2-  O236  1  0.71324250  0.33489825  0.73466795  1
  O2-  O237  1  0.71363663  0.83879931  0.06792207  1
  O2-  O238  1  0.71409606  0.83859195  0.40655433  1
  O2-  O239  1  0.71355971  0.83804606  0.72742170  1
  O2-  O240  1  0.45050755  0.41947775  0.27192208  1
  O2-  O241  1  0.45836352  0.41801391  0.59543576  1
  O2-  O242  1  0.45322079  0.42075064  0.93259630  1
  O2-  O243  1  0.45819925  0.91104026  0.27406385  1
  O2-  O244  1  0.46273004  0.91800627  0.59593112  1
  O2-  O245  1  0.45987553  0.91556225  0.93160945  1
  O2-  O246  1  0.95583168  0.41952544  0.27408691  1
  O2-  O247  1  0.95293473  0.41508946  0.60507903  1
  O2-  O248  1  0.95168876  0.41666841  0.93564908  1
  O2-  O249  1  0.94457669  0.91369217  0.27056973  1
  O2-  O250  1  0.95377055  0.91378109  0.60130633  1
  O2-  O251  1  0.94786877  0.91579482  0.93758081  1
  O2-  O252  1  0.33480488  0.29641758  0.27108376  1
  O2-  O253  1  0.33208961  0.28721559  0.59731014  1
  O2-  O254  1  0.33345784  0.28859558  0.93045157  1
  O2-  O255  1  0.33635074  0.79202299  0.27367139  1
  O2-  O256  1  0.33417080  0.78871717  0.59288890  1
  O2-  O257  1  0.32925202  0.79236723  0.93128667  1
  O2-  O258  1  0.83460160  0.30349368  0.26972646  1
  O2-  O259  1  0.83818362  0.29054718  0.60138099  1
  O2-  O260  1  0.83668195  0.29543711  0.93371876  1
  O2-  O261  1  0.83564131  0.78589171  0.27223374  1
  O2-  O262  1  0.83762608  0.79138234  0.59777443  1
  O2-  O263  1  0.83598070  0.79155222  0.93594565  1
  O2-  O264  1  0.41466520  0.04434035  0.06159355  1
  O2-  O265  1  0.41509762  0.03955867  0.40435556  1
  O2-  O266  1  0.42302315  0.04329632  0.73579702  1
  O2-  O267  1  0.42336294  0.54685022  0.06709080  1
  O2-  O268  1  0.42075885  0.55322802  0.39682416  1
  O2-  O269  1  0.41786175  0.55244904  0.72263706  1
  O2-  O270  1  0.91409846  0.04110175  0.06590310  1
  O2-  O271  1  0.91308006  0.04388688  0.39872756  1
  O2-  O272  1  0.91091739  0.03923516  0.73038726  1
  O2-  O273  1  0.91302100  0.53770709  0.06915398  1
  O2-  O274  1  0.91458044  0.54018621  0.40715644  1
  O2-  O275  1  0.91424568  0.54417841  0.73092456  1
  O2-  O276  1  0.29455213  0.16384526  0.06216058  1
  O2-  O277  1  0.29301593  0.16935544  0.40094015  1
  O2-  O278  1  0.29259383  0.16740859  0.73818028  1
  O2-  O279  1  0.29213703  0.66816089  0.06809838  1
  O2-  O280  1  0.29482129  0.66503065  0.40008803  1
  O2-  O281  1  0.29269718  0.66528199  0.72457774  1
  O2-  O282  1  0.80763199  0.16964749  0.06206218  1
  O2-  O283  1  0.80157188  0.17050654  0.39218496  1
  O2-  O284  1  0.79878021  0.16371149  0.72869571  1
  O2-  O285  1  0.78975990  0.66712888  0.06801177  1
  O2-  O286  1  0.78822377  0.66452508  0.40745079  1
  O2-  O287  1  0.80005181  0.66820874  0.72868469  1
