# generated using pymatgen
data_Ca2Al2SiO7
_symmetry_space_group_name_H-M   'P 1'
_cell_length_a   15.47006335
_cell_length_b   15.46709153
_cell_length_c   15.29241096
_cell_angle_alpha   90.00150145
_cell_angle_beta   89.99767436
_cell_angle_gamma   89.99465428
_symmetry_Int_Tables_number   1
_chemical_formula_structural   Ca2Al2SiO7
_chemical_formula_sum   'Ca48 Al48 Si24 O168'
_cell_volume   3659.12045102
_cell_formula_units_Z   24
loop_
 _symmetry_equiv_pos_site_id
 _symmetry_equiv_pos_as_xyz
  1  'x, y, z'
loop_
 _atom_type_symbol
 _atom_type_oxidation_number
  Ca2+  2.0
  Al0+  0.0
  Si0+  0.0
  O2-  -2.0
loop_
 _atom_site_type_symbol
 _atom_site_label
 _atom_site_symmetry_multiplicity
 _atom_site_fract_x
 _atom_site_fract_y
 _atom_site_fract_z
 _atom_site_occupancy
  Ca2+  Ca0  1  0.17912892  0.07531660  0.17211240  1
  Ca2+  Ca1  1  0.17255983  0.07344885  0.50405946  1
  Ca2+  Ca2  1  0.16742504  0.07479628  0.83871284  1
  Ca2+  Ca3  1  0.17789926  0.57702252  0.16970326  1
  Ca2+  Ca4  1  0.17191536  0.57827390  0.50771671  1
  Ca2+  Ca5  1  0.18032035  0.58759120  0.83275534  1
  Ca2+  Ca6  1  0.66762123  0.08782254  0.17365593  1
  Ca2+  Ca7  1  0.65801469  0.08349980  0.50900875  1
  Ca2+  Ca8  1  0.65504608  0.07778734  0.82889212  1
  Ca2+  Ca9  1  0.66674420  0.59209136  0.16872485  1
  Ca2+  Ca10  1  0.66881535  0.57946432  0.51173871  1
  Ca2+  Ca11  1  0.67325061  0.57949633  0.83851264  1
  Ca2+  Ca12  1  0.08847599  0.33557762  0.16478124  1
  Ca2+  Ca13  1  0.08117329  0.33384404  0.49857033  1
  Ca2+  Ca14  1  0.07811567  0.32539256  0.81980881  1
  Ca2+  Ca15  1  0.08632553  0.84102549  0.16418809  1
  Ca2+  Ca16  1  0.09229118  0.82934495  0.50016601  1
  Ca2+  Ca17  1  0.08866512  0.83005227  0.82296107  1
  Ca2+  Ca18  1  0.56909279  0.32792599  0.16464682  1
  Ca2+  Ca19  1  0.57408212  0.33235095  0.49774425  1
  Ca2+  Ca20  1  0.57463695  0.32961920  0.82457124  1
  Ca2+  Ca21  1  0.57459572  0.82543070  0.16699789  1
  Ca2+  Ca22  1  0.57065884  0.83239196  0.49612751  1
  Ca2+  Ca23  1  0.57590449  0.82869491  0.82593902  1
  Ca2+  Ca24  1  0.33824127  0.41804196  0.17025917  1
  Ca2+  Ca25  1  0.33919119  0.42105464  0.50471958  1
  Ca2+  Ca26  1  0.34552110  0.42602442  0.83528884  1
  Ca2+  Ca27  1  0.33080935  0.92591427  0.17543486  1
  Ca2+  Ca28  1  0.33537306  0.91828978  0.50650374  1
  Ca2+  Ca29  1  0.32501545  0.92046853  0.83721301  1
  Ca2+  Ca30  1  0.83098140  0.42534755  0.17056168  1
  Ca2+  Ca31  1  0.82465291  0.41968139  0.51350734  1
  Ca2+  Ca32  1  0.83135795  0.42184065  0.83128317  1
  Ca2+  Ca33  1  0.82967264  0.91828974  0.17021888  1
  Ca2+  Ca34  1  0.82124352  0.91894938  0.50812543  1
  Ca2+  Ca35  1  0.82429204  0.91418084  0.83196994  1
  Ca2+  Ca36  1  0.40312561  0.17444922  0.16617267  1
  Ca2+  Ca37  1  0.42449158  0.17329834  0.49380768  1
  Ca2+  Ca38  1  0.41295686  0.17790418  0.82681341  1
  Ca2+  Ca39  1  0.42473011  0.66632980  0.16183889  1
  Ca2+  Ca40  1  0.41412073  0.67810743  0.49702572  1
  Ca2+  Ca41  1  0.41684769  0.66726154  0.82635754  1
  Ca2+  Ca42  1  0.92073097  0.16967433  0.16199005  1
  Ca2+  Ca43  1  0.92253802  0.16871939  0.50401972  1
  Ca2+  Ca44  1  0.92520315  0.17226721  0.82115301  1
  Ca2+  Ca45  1  0.91951143  0.66767099  0.16030193  1
  Ca2+  Ca46  1  0.92305590  0.65992130  0.50282716  1
  Ca2+  Ca47  1  0.92246241  0.66055523  0.82650987  1
  Al0+  Al48  1  -0.00376040  -0.00014439  0.00205838  1
  Al0+  Al49  1  -0.00080114  0.00090070  0.33636490  1
  Al0+  Al50  1  -0.00162514  -0.00168653  0.66532642  1
  Al0+  Al51  1  -0.00265480  0.50173859  0.00346491  1
  Al0+  Al52  1  0.00063519  0.50152416  0.33509251  1
  Al0+  Al53  1  0.00078680  0.50011351  0.66216816  1
  Al0+  Al54  1  0.49944927  -0.00079136  0.00614923  1
  Al0+  Al55  1  0.50235898  -0.00122828  0.32890772  1
  Al0+  Al56  1  0.49784610  -0.00057452  0.66706110  1
  Al0+  Al57  1  0.50225410  0.49855302  -0.00257677  1
  Al0+  Al58  1  0.50290561  0.49870938  0.32688970  1
  Al0+  Al59  1  0.50207894  0.49983663  0.67168448  1
  Al0+  Al60  1  0.24773031  0.24871335  -0.00420113  1
  Al0+  Al61  1  0.24752739  0.24837300  0.33762155  1
  Al0+  Al62  1  0.24989366  0.24948475  0.65683177  1
  Al0+  Al63  1  0.24885032  0.74727103  0.00908883  1
  Al0+  Al64  1  0.24867631  0.74824682  0.32922563  1
  Al0+  Al65  1  0.24952968  0.74934132  0.66565853  1
  Al0+  Al66  1  0.74845931  0.25021176  -0.00024363  1
  Al0+  Al67  1  0.75207357  0.25367480  0.32967977  1
  Al0+  Al68  1  0.75145708  0.24935381  0.66577916  1
  Al0+  Al69  1  0.75093721  0.74964953  0.00015963  1
  Al0+  Al70  1  0.75434167  0.75235983  0.33111080  1
  Al0+  Al71  1  0.75168335  0.75130095  0.67545945  1
  Al0+  Al72  1  0.07096735  0.68050017  0.65373283  1
  Al0+  Al73  1  0.42913830  0.32508734  0.65084956  1
  Al0+  Al74  1  0.81999410  0.57042696  0.01636632  1
  Al0+  Al75  1  0.17840446  0.42985498  0.34696818  1
  Al0+  Al76  1  0.57135678  0.68064779  0.98392613  1
  Al0+  Al77  1  0.42853503  0.81886381  0.65677189  1
  Al0+  Al78  1  0.82284455  0.57109314  0.68197702  1
  Al0+  Al79  1  0.67836819  0.42655346  0.68292563  1
  Al0+  Al80  1  0.32423929  0.06978929  0.35175898  1
  Al0+  Al81  1  0.32058105  0.56995914  0.67792454  1
  Al0+  Al82  1  0.57363809  0.67954320  0.32113980  1
  Al0+  Al83  1  0.42777082  0.31869574  0.98508700  1
  Al0+  Al84  1  0.17677886  0.92798778  0.01462309  1
  Al0+  Al85  1  0.42605200  0.82088441  0.31664739  1
  Al0+  Al86  1  0.42630577  0.31928264  0.31732307  1
  Al0+  Al87  1  0.57338336  0.17915915  0.31813842  1
  Al0+  Al88  1  0.07252466  0.17492037  0.64951894  1
  Al0+  Al89  1  0.32062317  0.07230142  0.01400211  1
  Al0+  Al90  1  0.92984575  0.32164652  0.65106017  1
  Al0+  Al91  1  0.67579487  0.93000959  0.68008956  1
  Al0+  Al92  1  0.32371384  0.56879780  0.01425518  1
  Al0+  Al93  1  0.17836666  0.92770907  0.35079009  1
  Al0+  Al94  1  0.56910772  0.17813746  0.65447201  1
  Al0+  Al95  1  0.17954904  0.92956516  0.67942182  1
  Si0+  Si96  1  0.57450203  0.67891632  0.65438759  1
  Si0+  Si97  1  0.68229346  0.92938180  0.34662305  1
  Si0+  Si98  1  0.57420844  0.17597908  0.98306985  1
  Si0+  Si99  1  0.07054516  0.67912609  0.98635351  1
  Si0+  Si100  1  0.06980085  0.67725875  0.31609460  1
  Si0+  Si101  1  0.82144757  0.57317591  0.34881091  1
  Si0+  Si102  1  0.32490083  0.56968516  0.34884512  1
  Si0+  Si103  1  0.82207215  0.07106310  0.68348841  1
  Si0+  Si104  1  0.32167466  0.07311497  0.68259335  1
  Si0+  Si105  1  0.92727802  0.32247206  0.98605446  1
  Si0+  Si106  1  0.42634101  0.82159497  0.98410580  1
  Si0+  Si107  1  0.06817679  0.17787386  0.31648029  1
  Si0+  Si108  1  0.82066644  0.07451743  0.34816834  1
  Si0+  Si109  1  0.81953786  0.07204831  0.01490085  1
  Si0+  Si110  1  0.06742135  0.17893182  0.98618660  1
  Si0+  Si111  1  0.67940247  0.92837854  0.01673824  1
  Si0+  Si112  1  0.93077593  0.32333219  0.31586894  1
  Si0+  Si113  1  0.67889527  0.42652420  0.02006637  1
  Si0+  Si114  1  0.68096230  0.43037280  0.34722313  1
  Si0+  Si115  1  0.92910397  0.82208911  0.98434298  1
  Si0+  Si116  1  0.92541036  0.82167247  0.64961862  1
  Si0+  Si117  1  0.93094142  0.82222707  0.31777730  1
  Si0+  Si118  1  0.17635014  0.42854728  0.01226476  1
  Si0+  Si119  1  0.17848701  0.42623873  0.68129914  1
  O2-  O120  1  0.25215625  -0.00366512  0.06361660  1
  O2-  O121  1  0.25575343  -0.00666437  0.40073415  1
  O2-  O122  1  0.24874794  0.00837924  0.72657423  1
  O2-  O123  1  0.24939025  0.49172113  0.05765443  1
  O2-  O124  1  0.25753838  0.49965412  0.39289148  1
  O2-  O125  1  0.25034121  0.49071759  0.72618189  1
  O2-  O126  1  0.74634316  0.00423374  0.05840228  1
  O2-  O127  1  0.74468882  0.00853507  0.38863629  1
  O2-  O128  1  0.74982076  0.00592887  0.72767093  1
  O2-  O129  1  0.74515712  0.49765777  0.06540345  1
  O2-  O130  1  0.74678840  0.50648406  0.38912135  1
  O2-  O131  1  0.74983946  0.50043261  0.73198087  1
  O2-  O132  1  0.00145079  0.25286193  0.27225650  1
  O2-  O133  1  0.00315112  0.25085250  0.60058563  1
  O2-  O134  1  -0.00104438  0.25251281  0.94428355  1
  O2-  O135  1  0.00436642  0.75429504  0.27474364  1
  O2-  O136  1  -0.00533013  0.75369944  0.60577855  1
  O2-  O137  1  0.00445666  0.75519740  0.94447004  1
  O2-  O138  1  0.49518582  0.24351607  0.26704634  1
  O2-  O139  1  0.50113260  0.25216079  0.60292930  1
  O2-  O140  1  0.50166288  0.24119744  0.94148954  1
  O2-  O141  1  0.49723991  0.74595480  0.26938508  1
  O2-  O142  1  0.50506527  0.74578649  0.60985675  1
  O2-  O143  1  0.49361076  0.75244157  0.93803281  1
  O2-  O144  1  0.06452439  0.17932222  0.09147392  1
  O2-  O145  1  0.06243676  0.17585454  0.42078465  1
  O2-  O146  1  0.06895811  0.17509533  0.76417558  1
  O2-  O147  1  0.06655428  0.67663873  0.09157915  1
  O2-  O148  1  0.06635417  0.67412655  0.42082949  1
  O2-  O149  1  0.07156907  0.68251442  0.76728815  1
  O2-  O150  1  0.58207180  0.17982195  0.08800556  1
  O2-  O151  1  0.57839617  0.18485338  0.43086445  1
  O2-  O152  1  0.56408817  0.17669300  0.76839425  1
  O2-  O153  1  0.57249853  0.68495205  0.09710133  1
  O2-  O154  1  0.57808329  0.68259191  0.43447808  1
  O2-  O155  1  0.57356521  0.68166319  0.76011486  1
  O2-  O156  1  0.17388786  0.43514670  0.23339011  1
  O2-  O157  1  0.17704598  0.43087893  0.57575548  1
  O2-  O158  1  0.17091331  0.43126641  0.90730258  1
  O2-  O159  1  0.17350581  0.93421599  0.23736445  1
  O2-  O160  1  0.18249640  0.92826257  0.56695100  1
  O2-  O161  1  0.17420080  0.93032447  0.90108696  1
  O2-  O162  1  0.68530171  0.42840527  0.24216979  1
  O2-  O163  1  0.67897698  0.42992378  0.56855681  1
  O2-  O164  1  0.68304125  0.42413593  0.91505737  1
  O2-  O165  1  0.68892093  0.92677015  0.24130416  1
  O2-  O166  1  0.67838681  0.92914691  0.56682967  1
  O2-  O167  1  0.68097092  0.92857228  0.91173446  1
  O2-  O168  1  0.42735791  0.31805380  0.09804810  1
  O2-  O169  1  0.43135678  0.32399112  0.42994023  1
  O2-  O170  1  0.42936134  0.32362388  0.76468845  1
  O2-  O171  1  0.43000154  0.82096029  0.08947349  1
  O2-  O172  1  0.42832899  0.81989343  0.43048893  1
  O2-  O173  1  0.42843855  0.81851411  0.77008650  1
  O2-  O174  1  0.92776380  0.32087579  0.09162288  1
  O2-  O175  1  0.92952622  0.32324586  0.42020565  1
  O2-  O176  1  0.93267394  0.31991468  0.76556928  1
  O2-  O177  1  0.92749405  0.82267422  0.08986846  1
  O2-  O178  1  0.92600403  0.82120773  0.42211801  1
  O2-  O179  1  0.92546588  0.82276981  0.75542860  1
  O2-  O180  1  0.31792660  0.07114034  0.23787853  1
  O2-  O181  1  0.32441251  0.06932613  0.57747856  1
  O2-  O182  1  0.31679845  0.07389700  0.90050801  1
  O2-  O183  1  0.32305041  0.56849843  0.24288162  1
  O2-  O184  1  0.31813318  0.57221097  0.56486347  1
  O2-  O185  1  0.32061701  0.57202406  0.90137393  1
  O2-  O186  1  0.82302708  0.07221994  0.24238455  1
  O2-  O187  1  0.82377578  0.06790249  0.57769432  1
  O2-  O188  1  0.82333935  0.07111197  0.91055722  1
  O2-  O189  1  0.82354845  0.57192339  0.24347225  1
  O2-  O190  1  0.82004237  0.57162255  0.56769755  1
  O2-  O191  1  0.82355474  0.56777696  0.90433708  1
  O2-  O192  1  0.03333808  0.08855567  0.26773015  1
  O2-  O193  1  0.03689036  0.07894803  0.59594215  1
  O2-  O194  1  0.03427977  0.08841541  0.93933663  1
  O2-  O195  1  0.03370980  0.58897631  0.26651628  1
  O2-  O196  1  0.04105605  0.58510031  0.59718373  1
  O2-  O197  1  0.03653592  0.58918955  0.93917236  1
  O2-  O198  1  0.55788718  0.07700978  0.26860219  1
  O2-  O199  1  0.53972236  0.08063036  0.60045154  1
  O2-  O200  1  0.55274215  0.07901464  0.94261121  1
  O2-  O201  1  0.55185319  0.58049811  0.26610663  1
  O2-  O202  1  0.55176268  0.58452309  0.61071775  1
  O2-  O203  1  0.54658006  0.58162443  0.93333214  1
  O2-  O204  1  0.16070480  0.20307977  0.27049687  1
  O2-  O205  1  0.17015850  0.19879548  0.59493616  1
  O2-  O206  1  0.15833712  0.20316831  0.93686334  1
  O2-  O207  1  0.16285324  0.69745365  0.26831085  1
  O2-  O208  1  0.16478550  0.71316412  0.59668551  1
  O2-  O209  1  0.16462735  0.70181954  0.94146256  1
  O2-  O210  1  0.67105432  0.21304532  0.26311642  1
  O2-  O211  1  0.67145755  0.19649368  0.60655315  1
  O2-  O212  1  0.66702346  0.20341399  0.93490573  1
  O2-  O213  1  0.67122152  0.71354756  0.26652064  1
  O2-  O214  1  0.66873089  0.70522197  0.61069048  1
  O2-  O215  1  0.66829555  0.71408456  0.93187819  1
  O2-  O216  1  0.08520535  0.45805127  0.06262453  1
  O2-  O217  1  0.08359376  0.46630740  0.40204643  1
  O2-  O218  1  0.08569404  0.45450996  0.72711684  1
  O2-  O219  1  0.07776274  0.95931644  0.06695973  1
  O2-  O220  1  0.07985345  0.96023476  0.40253820  1
  O2-  O221  1  0.07967473  0.95418702  0.73071969  1
  O2-  O222  1  0.58504277  0.45124545  0.06441107  1
  O2-  O223  1  0.58760744  0.45365241  0.39263497  1
  O2-  O224  1  0.58179905  0.45474201  0.73872121  1
  O2-  O225  1  0.58703510  0.95028556  0.06512369  1
  O2-  O226  1  0.58775859  0.94692497  0.39075062  1
  O2-  O227  1  0.58079010  0.96078211  0.73764390  1
  O2-  O228  1  0.19643193  0.33286196  0.05613527  1
  O2-  O229  1  0.19673600  0.33016144  0.39811665  1
  O2-  O230  1  0.19738208  0.32940205  0.72322343  1
  O2-  O231  1  0.19718908  0.82820284  0.06746806  1
  O2-  O232  1  0.19678665  0.82352643  0.39510053  1
  O2-  O233  1  0.21303954  0.83428957  0.73393577  1
  O2-  O234  1  0.70836870  0.33379151  0.06696999  1
  O2-  O235  1  0.71603075  0.34120050  0.39489078  1
  O2-  O236  1  0.70887452  0.32845834  0.73557658  1
  O2-  O237  1  0.71575589  0.84010541  0.06480544  1
  O2-  O238  1  0.72105768  0.84201118  0.39528805  1
  O2-  O239  1  0.71031718  0.83671464  0.73851359  1
  O2-  O240  1  0.45987486  0.41601675  0.26251496  1
  O2-  O241  1  0.46016596  0.42347908  0.59879344  1
  O2-  O242  1  0.46206912  0.41434281  0.93234397  1
  O2-  O243  1  0.45938212  0.91710293  0.26219895  1
  O2-  O244  1  0.45998237  0.91420819  0.60218891  1
  O2-  O245  1  0.45350280  0.91616296  0.94043598  1
  O2-  O246  1  0.95947623  0.41542722  0.26852794  1
  O2-  O247  1  0.95642879  0.41916503  0.59609028  1
  O2-  O248  1  0.95404148  0.41508493  0.94091317  1
  O2-  O249  1  0.95550938  0.91542327  0.27000464  1
  O2-  O250  1  0.94793604  0.91515345  0.60289980  1
  O2-  O251  1  0.95062514  0.91581507  0.93758052  1
  O2-  O252  1  0.32502364  0.29437638  0.26703337  1
  O2-  O253  1  0.33022800  0.30145259  0.59809893  1
  O2-  O254  1  0.32992225  0.29193584  0.93076327  1
  O2-  O255  1  0.32705042  0.79534071  0.26320396  1
  O2-  O256  1  0.33517200  0.78546422  0.59967756  1
  O2-  O257  1  0.33040769  0.79638043  0.94328365  1
  O2-  O258  1  0.84045694  0.29491586  0.26568579  1
  O2-  O259  1  0.83248383  0.29153222  0.59734494  1
  O2-  O260  1  0.83614700  0.29298706  0.93917191  1
  O2-  O261  1  0.84206975  0.79160518  0.26529801  1
  O2-  O262  1  0.83184226  0.79497416  0.60356638  1
  O2-  O263  1  0.83919742  0.79054418  0.93642477  1
  O2-  O264  1  0.42044339  0.04986960  0.06765226  1
  O2-  O265  1  0.42616065  0.04534668  0.39910542  1
  O2-  O266  1  0.41215362  0.04299692  0.73158971  1
  O2-  O267  1  0.42067885  0.53861853  0.06731681  1
  O2-  O268  1  0.41993487  0.54637830  0.39238641  1
  O2-  O269  1  0.41750435  0.54457771  0.73361187  1
  O2-  O270  1  0.90885387  0.04135087  0.06652900  1
  O2-  O271  1  0.90927426  0.04093282  0.39707393  1
  O2-  O272  1  0.91319882  0.04042326  0.73216456  1
  O2-  O273  1  0.91554806  0.53827643  0.07351787  1
  O2-  O274  1  0.91135951  0.54074227  0.39608678  1
  O2-  O275  1  0.92179680  0.54066595  0.73334570  1
  O2-  O276  1  0.28471293  0.16907101  0.06708806  1
  O2-  O277  1  0.29180500  0.16727454  0.40322174  1
  O2-  O278  1  0.29842027  0.16918189  0.72442633  1
  O2-  O279  1  0.29024415  0.66244489  0.07232918  1
  O2-  O280  1  0.29584651  0.66342668  0.39181652  1
  O2-  O281  1  0.28387372  0.66361204  0.73397698  1
  O2-  O282  1  0.79501063  0.16481373  0.06318052  1
  O2-  O283  1  0.79937997  0.16885900  0.39260531  1
  O2-  O284  1  0.80304780  0.16578459  0.72888168  1
  O2-  O285  1  0.79160715  0.66867032  0.06947662  1
  O2-  O286  1  0.80010180  0.66732526  0.39373028  1
  O2-  O287  1  0.79979487  0.66990668  0.73652843  1
